MODEL 1
REMARK VINA RESULT:     6.356      0.000      0.000
REMARK INTER + INTRA:          18.625
REMARK INTER:                  15.087
REMARK INTRA:                   3.538
REMARK UNBOUND:                 3.538
REMARK SMILES O=C(OC[C@H]1O[C@H](OC(=O)c2cc(O)c(O)c(O)c2)[C@H](OC(=O)c2cc(O)c(O)c(O)c2)[C@@H](OC(=O)c2cc(O)c(O)c(O)c2)[C@H]1OC(=O)c1cc(O)c(O)c(O)c1)c1cc(O)c(O)c(O)c1
REMARK SMILES IDX 5 1 46 2 33 3 20 4 7 5 6 6 4 7 3 8 2 9 1 10 59 11 60 12
REMARK SMILES IDX 61 13 67 14 63 15 65 16 62 17 64 19 66 21 47 23 48 24 49 25
REMARK SMILES IDX 50 26 58 27 51 28 56 29 52 30 54 31 57 32 53 34 55 36 34 38
REMARK SMILES IDX 35 39 36 40 37 41 45 42 38 43 43 44 39 45 41 46 44 47 40 49
REMARK SMILES IDX 42 51 8 53 9 54 10 55 11 56 19 57 12 58 17 59 13 60 15 61
REMARK SMILES IDX 18 62 14 64 16 66 21 68 22 69 23 70 24 71 32 72 25 73 30 74
REMARK SMILES IDX 26 75 28 76 31 77 27 79 29 81
REMARK H PARENT 62 18 64 20 66 22 57 33 53 35 55 37 44 48 40 50 42 52 18 63
REMARK H PARENT 14 65 16 67 31 78 27 80 29 82
REMARK Flexibility Score: inf
ROOT
ATOM      1  C   UNL     1      16.162 -11.708   8.611  1.00  0.00     0.205 C 
ATOM      2  C   UNL     1      17.242 -11.695   7.514  1.00  0.00     0.254 C 
ATOM      3  C   UNL     1      17.300 -13.103   6.910  1.00  0.00     0.267 C 
ATOM      4  C   UNL     1      15.911 -13.491   6.371  1.00  0.00     0.290 C 
ATOM      5  C   UNL     1      14.851 -13.297   7.480  1.00  0.00     0.357 C 
ATOM      6  O   UNL     1      14.891 -11.991   8.041  1.00  0.00    -0.329 OA
ENDROOT
BRANCH   1   7
ATOM      7  C   UNL     1      16.087 -10.373   9.375  1.00  0.00     0.269 C 
BRANCH   7   8
ATOM      8  O   UNL     1      17.013 -10.392  10.457  1.00  0.00    -0.459 OA
BRANCH   8   9
ATOM      9  C   UNL     1      18.168  -9.598  10.470  1.00  0.00     0.338 C 
ATOM     10  O   UNL     1      19.220 -10.026  11.026  1.00  0.00    -0.246 OA
BRANCH   9  11
ATOM     11  C   UNL     1      18.144  -8.250   9.866  1.00  0.00     0.067 A 
ATOM     12  C   UNL     1      19.342  -7.597   9.548  1.00  0.00     0.066 A 
ATOM     13  C   UNL     1      19.337  -6.302   9.025  1.00  0.00     0.162 A 
ATOM     14  C   UNL     1      16.919  -7.588   9.645  1.00  0.00     0.066 A 
ATOM     15  C   UNL     1      18.109  -5.625   8.837  1.00  0.00     0.200 A 
ATOM     16  C   UNL     1      16.903  -6.282   9.145  1.00  0.00     0.162 A 
BRANCH  13  17
ATOM     17  O   UNL     1      20.568  -5.732   8.696  1.00  0.00    -0.504 OA
ATOM     18  H   UNL     1      20.666  -4.838   8.248  1.00  0.00     0.293 HD
ENDBRANCH  13  17
BRANCH  15  19
ATOM     19  O   UNL     1      18.051  -4.313   8.358  1.00  0.00    -0.502 OA
ATOM     20  H   UNL     1      17.197  -3.801   8.197  1.00  0.00     0.293 HD
ENDBRANCH  15  19
BRANCH  16  21
ATOM     21  O   UNL     1      15.672  -5.650   8.965  1.00  0.00    -0.504 OA
ATOM     22  H   UNL     1      15.532  -4.672   9.188  1.00  0.00     0.293 HD
ENDBRANCH  16  21
ENDBRANCH   9  11
ENDBRANCH   8   9
ENDBRANCH   7   8
ENDBRANCH   1   7
BRANCH   2  23
ATOM     23  O   UNL     1      16.895 -10.764   6.488  1.00  0.00    -0.452 OA
BRANCH  23  24
ATOM     24  C   UNL     1      16.902  -9.372   6.653  1.00  0.00     0.338 C 
ATOM     25  O   UNL     1      17.982  -8.775   6.895  1.00  0.00    -0.246 OA
BRANCH  24  26
ATOM     26  C   UNL     1      15.636  -8.617   6.521  1.00  0.00     0.067 A 
ATOM     27  C   UNL     1      14.394  -9.277   6.568  1.00  0.00     0.066 A 
ATOM     28  C   UNL     1      15.664  -7.232   6.290  1.00  0.00     0.066 A 
ATOM     29  C   UNL     1      13.199  -8.565   6.373  1.00  0.00     0.162 A 
ATOM     30  C   UNL     1      14.476  -6.517   6.105  1.00  0.00     0.162 A 
ATOM     31  C   UNL     1      13.240  -7.180   6.144  1.00  0.00     0.200 A 
BRANCH  29  32
ATOM     32  O   UNL     1      11.975  -9.229   6.400  1.00  0.00    -0.504 OA
ATOM     33  H   UNL     1      11.189  -8.869   6.929  1.00  0.00     0.293 HD
ENDBRANCH  29  32
BRANCH  30  34
ATOM     34  O   UNL     1      14.545  -5.145   5.876  1.00  0.00    -0.504 OA
ATOM     35  H   UNL     1      13.767  -4.623   5.485  1.00  0.00     0.293 HD
ENDBRANCH  30  34
BRANCH  31  36
ATOM     36  O   UNL     1      12.069  -6.450   5.946  1.00  0.00    -0.502 OA
ATOM     37  H   UNL     1      11.921  -5.540   6.363  1.00  0.00     0.293 HD
ENDBRANCH  31  36
ENDBRANCH  24  26
ENDBRANCH  23  24
ENDBRANCH   2  23
BRANCH   3  38
ATOM     38  O   UNL     1      18.289 -13.163   5.883  1.00  0.00    -0.450 OA
BRANCH  38  39
ATOM     39  C   UNL     1      19.644 -13.402   6.152  1.00  0.00     0.338 C 
ATOM     40  O   UNL     1      20.422 -12.436   6.380  1.00  0.00    -0.246 OA
BRANCH  39  41
ATOM     41  C   UNL     1      20.161 -14.788   6.190  1.00  0.00     0.067 A 
ATOM     42  C   UNL     1      19.284 -15.868   6.394  1.00  0.00     0.066 A 
ATOM     43  C   UNL     1      21.532 -15.039   6.019  1.00  0.00     0.066 A 
ATOM     44  C   UNL     1      19.768 -17.178   6.432  1.00  0.00     0.162 A 
ATOM     45  C   UNL     1      22.029 -16.346   6.060  1.00  0.00     0.162 A 
ATOM     46  C   UNL     1      21.141 -17.431   6.278  1.00  0.00     0.200 A 
BRANCH  44  47
ATOM     47  O   UNL     1      18.880 -18.239   6.622  1.00  0.00    -0.504 OA
ATOM     48  H   UNL     1      18.932 -18.837   7.443  1.00  0.00     0.293 HD
ENDBRANCH  44  47
BRANCH  45  49
ATOM     49  O   UNL     1      23.402 -16.519   5.883  1.00  0.00    -0.504 OA
ATOM     50  H   UNL     1      23.817 -16.976   5.084  1.00  0.00     0.293 HD
ENDBRANCH  45  49
BRANCH  46  51
ATOM     51  O   UNL     1      21.571 -18.758   6.353  1.00  0.00    -0.502 OA
ATOM     52  H   UNL     1      20.957 -19.556   6.231  1.00  0.00     0.293 HD
ENDBRANCH  46  51
ENDBRANCH  39  41
ENDBRANCH  38  39
ENDBRANCH   3  38
BRANCH   5  53
ATOM     53  O   UNL     1      15.001 -14.291   8.493  1.00  0.00    -0.428 OA
BRANCH  53  54
ATOM     54  C   UNL     1      13.956 -15.120   8.917  1.00  0.00     0.340 C 
ATOM     55  O   UNL     1      12.807 -15.010   8.418  1.00  0.00    -0.246 OA
BRANCH  54  56
ATOM     56  C   UNL     1      14.215 -16.133   9.953  1.00  0.00     0.067 A 
ATOM     57  C   UNL     1      15.397 -16.106  10.703  1.00  0.00     0.066 A 
ATOM     58  C   UNL     1      13.265 -17.129  10.207  1.00  0.00     0.066 A 
ATOM     59  C   UNL     1      15.626 -17.040  11.722  1.00  0.00     0.162 A 
ATOM     60  C   UNL     1      13.485 -18.086  11.197  1.00  0.00     0.162 A 
ATOM     61  C   UNL     1      14.659 -18.045  11.978  1.00  0.00     0.200 A 
BRANCH  59  62
ATOM     62  O   UNL     1      16.816 -16.924  12.448  1.00  0.00    -0.504 OA
ATOM     63  H   UNL     1      17.209 -17.668  13.013  1.00  0.00     0.293 HD
ENDBRANCH  59  62
BRANCH  60  64
ATOM     64  O   UNL     1      12.524 -19.080  11.387  1.00  0.00    -0.504 OA
ATOM     65  H   UNL     1      11.538 -18.861  11.485  1.00  0.00     0.293 HD
ENDBRANCH  60  64
BRANCH  61  66
ATOM     66  O   UNL     1      14.827 -19.002  12.989  1.00  0.00    -0.502 OA
ATOM     67  H   UNL     1      15.726 -19.309  13.336  1.00  0.00     0.293 HD
ENDBRANCH  61  66
ENDBRANCH  54  56
ENDBRANCH  53  54
ENDBRANCH   5  53
BRANCH   4  68
ATOM     68  O   UNL     1      15.901 -14.864   5.983  1.00  0.00    -0.448 OA
BRANCH  68  69
ATOM     69  C   UNL     1      16.241 -15.923   6.829  1.00  0.00     0.339 C 
ATOM     70  O   UNL     1      17.375 -15.955   7.384  1.00  0.00    -0.246 OA
BRANCH  69  71
ATOM     71  C   UNL     1      15.270 -17.013   7.057  1.00  0.00     0.067 A 
ATOM     72  C   UNL     1      15.540 -18.040   7.971  1.00  0.00     0.066 A 
ATOM     73  C   UNL     1      14.050 -17.029   6.361  1.00  0.00     0.066 A 
ATOM     74  C   UNL     1      14.606 -19.061   8.201  1.00  0.00     0.162 A 
ATOM     75  C   UNL     1      13.111 -18.040   6.585  1.00  0.00     0.162 A 
ATOM     76  C   UNL     1      13.384 -19.060   7.508  1.00  0.00     0.200 A 
BRANCH  74  77
ATOM     77  O   UNL     1      14.882 -20.070   9.124  1.00  0.00    -0.504 OA
ATOM     78  H   UNL     1      15.801 -20.167   9.545  1.00  0.00     0.293 HD
ENDBRANCH  74  77
BRANCH  75  79
ATOM     79  O   UNL     1      11.905 -18.012   5.882  1.00  0.00    -0.504 OA
ATOM     80  H   UNL     1      11.082 -17.545   6.238  1.00  0.00     0.293 HD
ENDBRANCH  75  79
BRANCH  76  81
ATOM     81  O   UNL     1      12.440 -20.066   7.726  1.00  0.00    -0.502 OA
ATOM     82  H   UNL     1      12.663 -20.924   8.207  1.00  0.00     0.293 HD
ENDBRANCH  76  81
ENDBRANCH  69  71
ENDBRANCH  68  69
ENDBRANCH   4  68
TORSDOF 31
ENDMDL
MODEL 2
REMARK VINA RESULT:     6.659      0.306      2.066
REMARK INTER + INTRA:          19.345
REMARK INTER:                  14.358
REMARK INTRA:                   4.987
REMARK UNBOUND:                 3.538
REMARK SMILES O=C(OC[C@H]1O[C@H](OC(=O)c2cc(O)c(O)c(O)c2)[C@H](OC(=O)c2cc(O)c(O)c(O)c2)[C@@H](OC(=O)c2cc(O)c(O)c(O)c2)[C@H]1OC(=O)c1cc(O)c(O)c(O)c1)c1cc(O)c(O)c(O)c1
REMARK SMILES IDX 5 1 46 2 33 3 20 4 7 5 6 6 4 7 3 8 2 9 1 10 59 11 60 12
REMARK SMILES IDX 61 13 67 14 63 15 65 16 62 17 64 19 66 21 47 23 48 24 49 25
REMARK SMILES IDX 50 26 58 27 51 28 56 29 52 30 54 31 57 32 53 34 55 36 34 38
REMARK SMILES IDX 35 39 36 40 37 41 45 42 38 43 43 44 39 45 41 46 44 47 40 49
REMARK SMILES IDX 42 51 8 53 9 54 10 55 11 56 19 57 12 58 17 59 13 60 15 61
REMARK SMILES IDX 18 62 14 64 16 66 21 68 22 69 23 70 24 71 32 72 25 73 30 74
REMARK SMILES IDX 26 75 28 76 31 77 27 79 29 81
REMARK H PARENT 62 18 64 20 66 22 57 33 53 35 55 37 44 48 40 50 42 52 18 63
REMARK H PARENT 14 65 16 67 31 78 27 80 29 82
REMARK Flexibility Score: inf
ROOT
ATOM      1  C   UNL     1      16.208 -11.685   8.659  1.00  0.00     0.205 C 
ATOM      2  C   UNL     1      17.281 -11.664   7.556  1.00  0.00     0.254 C 
ATOM      3  C   UNL     1      17.321 -13.060   6.926  1.00  0.00     0.267 C 
ATOM      4  C   UNL     1      15.925 -13.425   6.389  1.00  0.00     0.290 C 
ATOM      5  C   UNL     1      14.874 -13.240   7.507  1.00  0.00     0.357 C 
ATOM      6  O   UNL     1      14.931 -11.944   8.091  1.00  0.00    -0.329 OA
ENDROOT
BRANCH   1   7
ATOM      7  C   UNL     1      16.152 -10.363   9.446  1.00  0.00     0.269 C 
BRANCH   7   8
ATOM      8  O   UNL     1      17.129 -10.385  10.481  1.00  0.00    -0.459 OA
BRANCH   8   9
ATOM      9  C   UNL     1      18.271  -9.573  10.453  1.00  0.00     0.338 C 
ATOM     10  O   UNL     1      19.397 -10.058  10.764  1.00  0.00    -0.246 OA
BRANCH   9  11
ATOM     11  C   UNL     1      18.153  -8.145  10.091  1.00  0.00     0.067 A 
ATOM     12  C   UNL     1      16.909  -7.607   9.736  1.00  0.00     0.066 A 
ATOM     13  C   UNL     1      16.790  -6.273   9.342  1.00  0.00     0.162 A 
ATOM     14  C   UNL     1      19.296  -7.320  10.057  1.00  0.00     0.066 A 
ATOM     15  C   UNL     1      17.943  -5.456   9.272  1.00  0.00     0.200 A 
ATOM     16  C   UNL     1      19.192  -5.989   9.639  1.00  0.00     0.162 A 
BRANCH  13  17
ATOM     17  O   UNL     1      15.512  -5.799   9.041  1.00  0.00    -0.504 OA
ATOM     18  H   UNL     1      14.674  -6.339   9.167  1.00  0.00     0.293 HD
ENDBRANCH  13  17
BRANCH  15  19
ATOM     19  O   UNL     1      17.885  -4.126   8.842  1.00  0.00    -0.502 OA
ATOM     20  H   UNL     1      17.093  -3.517   8.976  1.00  0.00     0.293 HD
ENDBRANCH  15  19
BRANCH  16  21
ATOM     21  O   UNL     1      20.350  -5.212   9.592  1.00  0.00    -0.504 OA
ATOM     22  H   UNL     1      20.655  -4.753   8.742  1.00  0.00     0.293 HD
ENDBRANCH  16  21
ENDBRANCH   9  11
ENDBRANCH   8   9
ENDBRANCH   7   8
ENDBRANCH   1   7
BRANCH   2  23
ATOM     23  O   UNL     1      16.939 -10.710   6.548  1.00  0.00    -0.452 OA
BRANCH  23  24
ATOM     24  C   UNL     1      16.856  -9.328   6.767  1.00  0.00     0.338 C 
ATOM     25  O   UNL     1      17.862  -8.699   7.184  1.00  0.00    -0.246 OA
BRANCH  24  26
ATOM     26  C   UNL     1      15.587  -8.621   6.486  1.00  0.00     0.067 A 
ATOM     27  C   UNL     1      15.558  -7.221   6.345  1.00  0.00     0.066 A 
ATOM     28  C   UNL     1      14.383  -9.340   6.411  1.00  0.00     0.066 A 
ATOM     29  C   UNL     1      14.340  -6.549   6.146  1.00  0.00     0.162 A 
ATOM     30  C   UNL     1      13.169  -8.675   6.203  1.00  0.00     0.162 A 
ATOM     31  C   UNL     1      13.142  -7.279   6.072  1.00  0.00     0.200 A 
BRANCH  29  32
ATOM     32  O   UNL     1      14.317  -5.161   6.029  1.00  0.00    -0.504 OA
ATOM     33  H   UNL     1      14.964  -4.576   6.544  1.00  0.00     0.293 HD
ENDBRANCH  29  32
BRANCH  30  34
ATOM     34  O   UNL     1      11.996  -9.423   6.137  1.00  0.00    -0.504 OA
ATOM     35  H   UNL     1      11.977 -10.417   6.347  1.00  0.00     0.293 HD
ENDBRANCH  30  34
BRANCH  31  36
ATOM     36  O   UNL     1      11.921  -6.637   5.878  1.00  0.00    -0.502 OA
ATOM     37  H   UNL     1      11.035  -7.103   6.023  1.00  0.00     0.293 HD
ENDBRANCH  31  36
ENDBRANCH  24  26
ENDBRANCH  23  24
ENDBRANCH   2  23
BRANCH   3  38
ATOM     38  O   UNL     1      18.303 -13.113   5.892  1.00  0.00    -0.450 OA
BRANCH  38  39
ATOM     39  C   UNL     1      19.649 -13.417   6.143  1.00  0.00     0.338 C 
ATOM     40  O   UNL     1      20.465 -12.495   6.415  1.00  0.00    -0.246 OA
BRANCH  39  41
ATOM     41  C   UNL     1      20.112 -14.822   6.110  1.00  0.00     0.067 A 
ATOM     42  C   UNL     1      21.484 -15.117   6.025  1.00  0.00     0.066 A 
ATOM     43  C   UNL     1      19.186 -15.877   6.168  1.00  0.00     0.066 A 
ATOM     44  C   UNL     1      21.925 -16.442   5.992  1.00  0.00     0.162 A 
ATOM     45  C   UNL     1      19.615 -17.207   6.133  1.00  0.00     0.162 A 
ATOM     46  C   UNL     1      21.001 -17.497   6.034  1.00  0.00     0.200 A 
BRANCH  44  47
ATOM     47  O   UNL     1      23.293 -16.714   5.920  1.00  0.00    -0.504 OA
ATOM     48  H   UNL     1      23.827 -16.544   5.072  1.00  0.00     0.293 HD
ENDBRANCH  44  47
BRANCH  45  49
ATOM     49  O   UNL     1      18.638 -18.202   6.194  1.00  0.00    -0.504 OA
ATOM     50  H   UNL     1      17.686 -18.079   5.883  1.00  0.00     0.293 HD
ENDBRANCH  45  49
BRANCH  46  51
ATOM     51  O   UNL     1      21.498 -18.802   5.970  1.00  0.00    -0.502 OA
ATOM     52  H   UNL     1      22.234 -19.152   6.573  1.00  0.00     0.293 HD
ENDBRANCH  46  51
ENDBRANCH  39  41
ENDBRANCH  38  39
ENDBRANCH   3  38
BRANCH   5  53
ATOM     53  O   UNL     1      15.019 -14.253   8.501  1.00  0.00    -0.428 OA
BRANCH  53  54
ATOM     54  C   UNL     1      14.015 -15.177   8.810  1.00  0.00     0.340 C 
ATOM     55  O   UNL     1      12.937 -15.193   8.162  1.00  0.00    -0.246 OA
BRANCH  54  56
ATOM     56  C   UNL     1      14.232 -16.141   9.901  1.00  0.00     0.067 A 
ATOM     57  C   UNL     1      13.162 -16.864  10.442  1.00  0.00     0.066 A 
ATOM     58  C   UNL     1      15.523 -16.352  10.398  1.00  0.00     0.066 A 
ATOM     59  C   UNL     1      13.371 -17.816  11.448  1.00  0.00     0.162 A 
ATOM     60  C   UNL     1      15.750 -17.275  11.419  1.00  0.00     0.162 A 
ATOM     61  C   UNL     1      14.681 -18.030  11.946  1.00  0.00     0.200 A 
BRANCH  59  62
ATOM     62  O   UNL     1      12.255 -18.520  11.912  1.00  0.00    -0.504 OA
ATOM     63  H   UNL     1      11.304 -18.339  11.609  1.00  0.00     0.293 HD
ENDBRANCH  59  62
BRANCH  60  64
ATOM     64  O   UNL     1      17.050 -17.423  11.905  1.00  0.00    -0.504 OA
ATOM     65  H   UNL     1      17.239 -17.815  12.822  1.00  0.00     0.293 HD
ENDBRANCH  60  64
BRANCH  61  66
ATOM     66  O   UNL     1      14.955 -18.974  12.946  1.00  0.00    -0.502 OA
ATOM     67  H   UNL     1      14.294 -19.256  13.657  1.00  0.00     0.293 HD
ENDBRANCH  61  66
ENDBRANCH  54  56
ENDBRANCH  53  54
ENDBRANCH   5  53
BRANCH   4  68
ATOM     68  O   UNL     1      15.899 -14.790   5.976  1.00  0.00    -0.448 OA
BRANCH  68  69
ATOM     69  C   UNL     1      16.287 -15.864   6.783  1.00  0.00     0.339 C 
ATOM     70  O   UNL     1      17.443 -15.893   7.291  1.00  0.00    -0.246 OA
BRANCH  69  71
ATOM     71  C   UNL     1      15.340 -16.972   7.026  1.00  0.00     0.067 A 
ATOM     72  C   UNL     1      15.637 -17.986   7.945  1.00  0.00     0.066 A 
ATOM     73  C   UNL     1      14.116 -17.017   6.338  1.00  0.00     0.066 A 
ATOM     74  C   UNL     1      14.726 -19.024   8.188  1.00  0.00     0.162 A 
ATOM     75  C   UNL     1      13.199 -18.045   6.576  1.00  0.00     0.162 A 
ATOM     76  C   UNL     1      13.500 -19.054   7.504  1.00  0.00     0.200 A 
BRANCH  74  77
ATOM     77  O   UNL     1      15.029 -20.021   9.116  1.00  0.00    -0.504 OA
ATOM     78  H   UNL     1      14.706 -19.968  10.077  1.00  0.00     0.293 HD
ENDBRANCH  74  77
BRANCH  75  79
ATOM     79  O   UNL     1      11.988 -18.047   5.881  1.00  0.00    -0.504 OA
ATOM     80  H   UNL     1      11.836 -18.620   5.062  1.00  0.00     0.293 HD
ENDBRANCH  75  79
BRANCH  76  81
ATOM     81  O   UNL     1      12.578 -20.077   7.736  1.00  0.00    -0.502 OA
ATOM     82  H   UNL     1      12.505 -20.550   8.624  1.00  0.00     0.293 HD
ENDBRANCH  76  81
ENDBRANCH  69  71
ENDBRANCH  68  69
ENDBRANCH   4  68
TORSDOF 31
ENDMDL
