MODEL 1
REMARK VINA RESULT:    -7.186      0.000      0.000
REMARK INTER + INTRA:          -8.752
REMARK INTER:                  -8.447
REMARK INTRA:                  -0.306
REMARK UNBOUND:                -0.306
REMARK SMILES O=c1cc(-c2ccc(O)c(O)c2)oc2cc(O)cc(O)c12
REMARK SMILES IDX 4 1 3 2 2 3 1 4 21 5 19 6 18 7 16 8 15 9 14 10 13 11 5 12
REMARK SMILES IDX 6 13 7 14 8 15 12 16 10 17 9 18 11 20 20 22 17 24
REMARK H PARENT 9 19 11 21 20 23 17 25
REMARK Flexibility Score: inf
ROOT
ATOM      1  C   UNL     1     -16.065  27.725  51.933  1.00  0.00     0.138 A 
ATOM      2  C   UNL     1     -16.030  27.055  50.703  1.00  0.00     0.100 A 
ATOM      3  C   UNL     1     -16.171  27.780  49.518  1.00  0.00     0.197 A 
ATOM      4  O   UNL     1     -16.072  27.159  48.428  1.00  0.00    -0.289 OA
ATOM      5  C   UNL     1     -16.380  29.178  49.570  1.00  0.00     0.107 A 
ATOM      6  C   UNL     1     -16.576  30.012  48.429  1.00  0.00     0.134 A 
ATOM      7  C   UNL     1     -16.657  31.401  48.596  1.00  0.00     0.093 A 
ATOM      8  C   UNL     1     -16.609  31.979  49.867  1.00  0.00     0.123 A 
ATOM      9  C   UNL     1     -16.470  31.167  50.991  1.00  0.00     0.094 A 
ATOM     10  C   UNL     1     -16.353  29.783  50.855  1.00  0.00     0.146 A 
ATOM     11  O   UNL     1     -16.208  29.046  51.952  1.00  0.00    -0.456 OA
ENDROOT
BRANCH   1  12
ATOM     12  C   UNL     1     -15.922  27.003  53.224  1.00  0.00     0.021 A 
ATOM     13  C   UNL     1     -15.161  25.821  53.273  1.00  0.00     0.016 A 
ATOM     14  C   UNL     1     -15.004  25.127  54.475  1.00  0.00     0.051 A 
ATOM     15  C   UNL     1     -15.596  25.607  55.649  1.00  0.00     0.157 A 
ATOM     16  C   UNL     1     -16.502  27.487  54.412  1.00  0.00     0.062 A 
ATOM     17  C   UNL     1     -16.343  26.790  55.619  1.00  0.00     0.158 A 
BRANCH  15  18
ATOM     18  O   UNL     1     -15.443  24.916  56.851  1.00  0.00    -0.504 OA
ATOM     19  H   UNL     1     -14.580  24.436  57.079  1.00  0.00     0.293 HD
ENDBRANCH  15  18
BRANCH  17  20
ATOM     20  O   UNL     1     -16.921  27.271  56.793  1.00  0.00    -0.504 OA
ATOM     21  H   UNL     1     -17.924  27.253  56.937  1.00  0.00     0.293 HD
ENDBRANCH  17  20
ENDBRANCH   1  12
BRANCH   6  22
ATOM     22  O   UNL     1     -16.724  29.531  47.124  1.00  0.00    -0.507 OA
ATOM     23  H   UNL     1     -16.209  29.867  46.325  1.00  0.00     0.293 HD
ENDBRANCH   6  22
BRANCH   8  24
ATOM     24  O   UNL     1     -16.706  33.359  50.023  1.00  0.00    -0.508 OA
ATOM     25  H   UNL     1     -17.488  33.785  50.504  1.00  0.00     0.293 HD
ENDBRANCH   8  24
TORSDOF 5
ENDMDL
MODEL 2
REMARK VINA RESULT:    -6.908     15.348     16.251
REMARK INTER + INTRA:          -8.425
REMARK INTER:                  -8.162
REMARK INTRA:                  -0.263
REMARK UNBOUND:                -0.306
REMARK SMILES O=c1cc(-c2ccc(O)c(O)c2)oc2cc(O)cc(O)c12
REMARK SMILES IDX 4 1 3 2 2 3 1 4 21 5 19 6 18 7 16 8 15 9 14 10 13 11 5 12
REMARK SMILES IDX 6 13 7 14 8 15 12 16 10 17 9 18 11 20 20 22 17 24
REMARK H PARENT 9 19 11 21 20 23 17 25
REMARK Flexibility Score: inf
ROOT
ATOM      1  C   UNL     1      -4.449  34.919  59.745  1.00  0.00     0.138 A 
ATOM      2  C   UNL     1      -5.651  34.545  59.127  1.00  0.00     0.100 A 
ATOM      3  C   UNL     1      -6.668  35.488  58.972  1.00  0.00     0.197 A 
ATOM      4  O   UNL     1      -7.710  35.140  58.359  1.00  0.00    -0.289 OA
ATOM      5  C   UNL     1      -6.492  36.801  59.468  1.00  0.00     0.107 A 
ATOM      6  C   UNL     1      -7.475  37.833  59.402  1.00  0.00     0.134 A 
ATOM      7  C   UNL     1      -7.145  39.129  59.820  1.00  0.00     0.093 A 
ATOM      8  C   UNL     1      -5.887  39.414  60.357  1.00  0.00     0.123 A 
ATOM      9  C   UNL     1      -4.939  38.401  60.475  1.00  0.00     0.094 A 
ATOM     10  C   UNL     1      -5.226  37.107  60.035  1.00  0.00     0.146 A 
ATOM     11  O   UNL     1      -4.288  36.173  60.152  1.00  0.00    -0.456 OA
ENDROOT
BRANCH   1  12
ATOM     12  C   UNL     1      -3.334  33.955  59.936  1.00  0.00     0.021 A 
ATOM     13  C   UNL     1      -3.177  33.319  61.180  1.00  0.00     0.016 A 
ATOM     14  C   UNL     1      -2.141  32.404  61.384  1.00  0.00     0.051 A 
ATOM     15  C   UNL     1      -1.252  32.101  60.346  1.00  0.00     0.157 A 
ATOM     16  C   UNL     1      -2.444  33.635  58.892  1.00  0.00     0.062 A 
ATOM     17  C   UNL     1      -1.406  32.715  59.098  1.00  0.00     0.158 A 
BRANCH  15  18
ATOM     18  O   UNL     1      -0.217  31.189  60.546  1.00  0.00    -0.504 OA
ATOM     19  H   UNL     1       0.692  31.317  60.116  1.00  0.00     0.293 HD
ENDBRANCH  15  18
BRANCH  17  20
ATOM     20  O   UNL     1      -0.525  32.402  58.062  1.00  0.00    -0.504 OA
ATOM     21  H   UNL     1      -0.524  31.489  57.624  1.00  0.00     0.293 HD
ENDBRANCH  17  20
ENDBRANCH   1  12
BRANCH   6  22
ATOM     22  O   UNL     1      -8.788  37.635  58.962  1.00  0.00    -0.507 OA
ATOM     23  H   UNL     1      -9.280  36.756  58.997  1.00  0.00     0.293 HD
ENDBRANCH   6  22
BRANCH   8  24
ATOM     24  O   UNL     1      -5.575  40.702  60.785  1.00  0.00    -0.508 OA
ATOM     25  H   UNL     1      -4.616  41.023  60.849  1.00  0.00     0.293 HD
ENDBRANCH   8  24
TORSDOF 5
ENDMDL
MODEL 3
REMARK VINA RESULT:    -6.741      1.027      1.732
REMARK INTER + INTRA:          -8.229
REMARK INTER:                  -7.950
REMARK INTRA:                  -0.279
REMARK UNBOUND:                -0.306
REMARK SMILES O=c1cc(-c2ccc(O)c(O)c2)oc2cc(O)cc(O)c12
REMARK SMILES IDX 4 1 3 2 2 3 1 4 21 5 19 6 18 7 16 8 15 9 14 10 13 11 5 12
REMARK SMILES IDX 6 13 7 14 8 15 12 16 10 17 9 18 11 20 20 22 17 24
REMARK H PARENT 9 19 11 21 20 23 17 25
REMARK Flexibility Score: inf
ROOT
ATOM      1  C   UNL     1     -16.579  27.753  52.750  1.00  0.00     0.138 A 
ATOM      2  C   UNL     1     -16.225  26.923  51.677  1.00  0.00     0.100 A 
ATOM      3  C   UNL     1     -16.042  27.476  50.409  1.00  0.00     0.197 A 
ATOM      4  O   UNL     1     -15.664  26.716  49.479  1.00  0.00    -0.289 OA
ATOM      5  C   UNL     1     -16.245  28.861  50.209  1.00  0.00     0.107 A 
ATOM      6  C   UNL     1     -16.126  29.527  48.953  1.00  0.00     0.134 A 
ATOM      7  C   UNL     1     -16.236  30.922  48.898  1.00  0.00     0.093 A 
ATOM      8  C   UNL     1     -16.520  31.669  50.045  1.00  0.00     0.123 A 
ATOM      9  C   UNL     1     -16.691  31.022  51.266  1.00  0.00     0.094 A 
ATOM     10  C   UNL     1     -16.554  29.636  51.359  1.00  0.00     0.146 A 
ATOM     11  O   UNL     1     -16.710  29.059  52.547  1.00  0.00    -0.456 OA
ENDROOT
BRANCH   1  12
ATOM     12  C   UNL     1     -16.787  27.217  54.120  1.00  0.00     0.021 A 
ATOM     13  C   UNL     1     -17.867  27.687  54.888  1.00  0.00     0.016 A 
ATOM     14  C   UNL     1     -18.090  27.194  56.177  1.00  0.00     0.051 A 
ATOM     15  C   UNL     1     -17.245  26.216  56.714  1.00  0.00     0.157 A 
ATOM     16  C   UNL     1     -15.950  26.223  54.662  1.00  0.00     0.062 A 
ATOM     17  C   UNL     1     -16.175  25.728  55.955  1.00  0.00     0.158 A 
BRANCH  15  18
ATOM     18  O   UNL     1     -17.463  25.723  57.999  1.00  0.00    -0.504 OA
ATOM     19  H   UNL     1     -17.506  26.339  58.802  1.00  0.00     0.293 HD
ENDBRANCH  15  18
BRANCH  17  20
ATOM     20  O   UNL     1     -15.342  24.746  56.489  1.00  0.00    -0.504 OA
ATOM     21  H   UNL     1     -15.262  24.603  57.489  1.00  0.00     0.293 HD
ENDBRANCH  17  20
ENDBRANCH   1  12
BRANCH   6  22
ATOM     22  O   UNL     1     -15.927  28.868  47.735  1.00  0.00    -0.507 OA
ATOM     23  H   UNL     1     -16.479  29.016  46.904  1.00  0.00     0.293 HD
ENDBRANCH   6  22
BRANCH   8  24
ATOM     24  O   UNL     1     -16.643  33.054  49.976  1.00  0.00    -0.508 OA
ATOM     25  H   UNL     1     -15.868  33.668  50.194  1.00  0.00     0.293 HD
ENDBRANCH   8  24
TORSDOF 5
ENDMDL
MODEL 4
REMARK VINA RESULT:    -6.679      1.486      6.989
REMARK INTER + INTRA:          -8.156
REMARK INTER:                  -7.867
REMARK INTRA:                  -0.289
REMARK UNBOUND:                -0.306
REMARK SMILES O=c1cc(-c2ccc(O)c(O)c2)oc2cc(O)cc(O)c12
REMARK SMILES IDX 4 1 3 2 2 3 1 4 21 5 19 6 18 7 16 8 15 9 14 10 13 11 5 12
REMARK SMILES IDX 6 13 7 14 8 15 12 16 10 17 9 18 11 20 20 22 17 24
REMARK H PARENT 9 19 11 21 20 23 17 25
REMARK Flexibility Score: inf
ROOT
ATOM      1  C   UNL     1     -16.297  27.816  52.656  1.00  0.00     0.138 A 
ATOM      2  C   UNL     1     -15.380  26.766  52.810  1.00  0.00     0.100 A 
ATOM      3  C   UNL     1     -15.397  26.002  53.978  1.00  0.00     0.197 A 
ATOM      4  O   UNL     1     -14.604  25.028  54.060  1.00  0.00    -0.289 OA
ATOM      5  C   UNL     1     -16.315  26.311  55.008  1.00  0.00     0.107 A 
ATOM      6  C   UNL     1     -16.396  25.626  56.257  1.00  0.00     0.134 A 
ATOM      7  C   UNL     1     -17.424  25.945  57.154  1.00  0.00     0.093 A 
ATOM      8  C   UNL     1     -18.336  26.965  56.872  1.00  0.00     0.123 A 
ATOM      9  C   UNL     1     -18.233  27.675  55.678  1.00  0.00     0.094 A 
ATOM     10  C   UNL     1     -17.240  27.358  54.749  1.00  0.00     0.146 A 
ATOM     11  O   UNL     1     -17.185  28.050  53.616  1.00  0.00    -0.456 OA
ENDROOT
BRANCH   1  12
ATOM     12  C   UNL     1     -16.322  28.662  51.435  1.00  0.00     0.021 A 
ATOM     13  C   UNL     1     -16.325  28.048  50.170  1.00  0.00     0.016 A 
ATOM     14  C   UNL     1     -16.355  28.820  49.006  1.00  0.00     0.051 A 
ATOM     15  C   UNL     1     -16.395  30.217  49.087  1.00  0.00     0.157 A 
ATOM     16  C   UNL     1     -16.376  30.067  51.509  1.00  0.00     0.062 A 
ATOM     17  C   UNL     1     -16.408  30.841  50.339  1.00  0.00     0.158 A 
BRANCH  15  18
ATOM     18  O   UNL     1     -16.424  30.991  47.928  1.00  0.00    -0.504 OA
ATOM     19  H   UNL     1     -17.102  31.734  47.805  1.00  0.00     0.293 HD
ENDBRANCH  15  18
BRANCH  17  20
ATOM     20  O   UNL     1     -16.459  32.233  50.417  1.00  0.00    -0.504 OA
ATOM     21  H   UNL     1     -16.248  32.725  51.277  1.00  0.00     0.293 HD
ENDBRANCH  17  20
ENDBRANCH   1  12
BRANCH   6  22
ATOM     22  O   UNL     1     -15.484  24.651  56.674  1.00  0.00    -0.507 OA
ATOM     23  H   UNL     1     -15.044  24.624  57.580  1.00  0.00     0.293 HD
ENDBRANCH   6  22
BRANCH   8  24
ATOM     24  O   UNL     1     -19.345  27.285  57.778  1.00  0.00    -0.508 OA
ATOM     25  H   UNL     1     -20.322  27.262  57.514  1.00  0.00     0.293 HD
ENDBRANCH   8  24
TORSDOF 5
ENDMDL
MODEL 5
REMARK VINA RESULT:    -6.654      2.547      7.985
REMARK INTER + INTRA:          -8.127
REMARK INTER:                  -7.836
REMARK INTRA:                  -0.291
REMARK UNBOUND:                -0.306
REMARK SMILES O=c1cc(-c2ccc(O)c(O)c2)oc2cc(O)cc(O)c12
REMARK SMILES IDX 4 1 3 2 2 3 1 4 21 5 19 6 18 7 16 8 15 9 14 10 13 11 5 12
REMARK SMILES IDX 6 13 7 14 8 15 12 16 10 17 9 18 11 20 20 22 17 24
REMARK H PARENT 9 19 11 21 20 23 17 25
REMARK Flexibility Score: inf
ROOT
ATOM      1  C   UNL     1     -17.442  31.518  49.951  1.00  0.00     0.138 A 
ATOM      2  C   UNL     1     -18.500  31.710  50.851  1.00  0.00     0.100 A 
ATOM      3  C   UNL     1     -18.687  30.807  51.898  1.00  0.00     0.197 A 
ATOM      4  O   UNL     1     -19.605  31.041  52.726  1.00  0.00    -0.289 OA
ATOM      5  C   UNL     1     -17.830  29.689  52.025  1.00  0.00     0.107 A 
ATOM      6  C   UNL     1     -17.950  28.683  53.029  1.00  0.00     0.134 A 
ATOM      7  C   UNL     1     -16.972  27.684  53.126  1.00  0.00     0.093 A 
ATOM      8  C   UNL     1     -15.912  27.623  52.218  1.00  0.00     0.123 A 
ATOM      9  C   UNL     1     -15.815  28.571  51.202  1.00  0.00     0.094 A 
ATOM     10  C   UNL     1     -16.755  29.598  51.099  1.00  0.00     0.146 A 
ATOM     11  O   UNL     1     -16.619  30.490  50.124  1.00  0.00    -0.456 OA
ENDROOT
BRANCH   1  12
ATOM     12  C   UNL     1     -17.199  32.447  48.818  1.00  0.00     0.021 A 
ATOM     13  C   UNL     1     -17.218  33.834  49.046  1.00  0.00     0.016 A 
ATOM     14  C   UNL     1     -16.984  34.730  47.999  1.00  0.00     0.051 A 
ATOM     15  C   UNL     1     -16.717  34.254  46.710  1.00  0.00     0.157 A 
ATOM     16  C   UNL     1     -16.915  31.976  47.521  1.00  0.00     0.062 A 
ATOM     17  C   UNL     1     -16.680  32.876  46.471  1.00  0.00     0.158 A 
BRANCH  15  18
ATOM     18  O   UNL     1     -16.485  35.144  45.663  1.00  0.00    -0.504 OA
ATOM     19  H   UNL     1     -15.684  35.045  45.051  1.00  0.00     0.293 HD
ENDBRANCH  15  18
BRANCH  17  20
ATOM     20  O   UNL     1     -16.403  32.405  45.188  1.00  0.00    -0.504 OA
ATOM     21  H   UNL     1     -16.217  31.425  45.010  1.00  0.00     0.293 HD
ENDBRANCH  17  20
ENDBRANCH   1  12
BRANCH   6  22
ATOM     22  O   UNL     1     -19.016  28.602  53.931  1.00  0.00    -0.507 OA
ATOM     23  H   UNL     1     -18.918  28.494  54.929  1.00  0.00     0.293 HD
ENDBRANCH   6  22
BRANCH   8  24
ATOM     24  O   UNL     1     -14.953  26.617  52.314  1.00  0.00    -0.508 OA
ATOM     25  H   UNL     1     -14.919  25.852  51.652  1.00  0.00     0.293 HD
ENDBRANCH   8  24
TORSDOF 5
ENDMDL
MODEL 6
REMARK VINA RESULT:    -6.652      1.708      2.391
REMARK INTER + INTRA:          -8.124
REMARK INTER:                  -7.829
REMARK INTRA:                  -0.295
REMARK UNBOUND:                -0.306
REMARK SMILES O=c1cc(-c2ccc(O)c(O)c2)oc2cc(O)cc(O)c12
REMARK SMILES IDX 4 1 3 2 2 3 1 4 21 5 19 6 18 7 16 8 15 9 14 10 13 11 5 12
REMARK SMILES IDX 6 13 7 14 8 15 12 16 10 17 9 18 11 20 20 22 17 24
REMARK H PARENT 9 19 11 21 20 23 17 25
REMARK Flexibility Score: inf
ROOT
ATOM      1  C   UNL     1     -16.271  27.412  52.909  1.00  0.00     0.138 A 
ATOM      2  C   UNL     1     -15.055  27.086  52.291  1.00  0.00     0.100 A 
ATOM      3  C   UNL     1     -14.811  27.510  50.984  1.00  0.00     0.197 A 
ATOM      4  O   UNL     1     -13.686  27.257  50.479  1.00  0.00    -0.289 OA
ATOM      5  C   UNL     1     -15.802  28.235  50.282  1.00  0.00     0.107 A 
ATOM      6  C   UNL     1     -15.679  28.682  48.933  1.00  0.00     0.134 A 
ATOM      7  C   UNL     1     -16.679  29.493  48.381  1.00  0.00     0.093 A 
ATOM      8  C   UNL     1     -17.825  29.822  49.110  1.00  0.00     0.123 A 
ATOM      9  C   UNL     1     -17.979  29.345  50.409  1.00  0.00     0.094 A 
ATOM     10  C   UNL     1     -16.984  28.563  51.000  1.00  0.00     0.146 A 
ATOM     11  O   UNL     1     -17.163  28.141  52.247  1.00  0.00    -0.456 OA
ENDROOT
BRANCH   1  12
ATOM     12  C   UNL     1     -16.583  26.986  54.297  1.00  0.00     0.021 A 
ATOM     13  C   UNL     1     -17.700  27.533  54.953  1.00  0.00     0.016 A 
ATOM     14  C   UNL     1     -18.021  27.144  56.256  1.00  0.00     0.051 A 
ATOM     15  C   UNL     1     -17.237  26.194  56.921  1.00  0.00     0.157 A 
ATOM     16  C   UNL     1     -15.808  26.020  54.968  1.00  0.00     0.062 A 
ATOM     17  C   UNL     1     -16.131  25.629  56.276  1.00  0.00     0.158 A 
BRANCH  15  18
ATOM     18  O   UNL     1     -17.552  25.804  58.222  1.00  0.00    -0.504 OA
ATOM     19  H   UNL     1     -18.087  26.403  58.839  1.00  0.00     0.293 HD
ENDBRANCH  15  18
BRANCH  17  20
ATOM     20  O   UNL     1     -15.359  24.674  56.937  1.00  0.00    -0.504 OA
ATOM     21  H   UNL     1     -15.598  23.690  56.914  1.00  0.00     0.293 HD
ENDBRANCH  17  20
ENDBRANCH   1  12
BRANCH   6  22
ATOM     22  O   UNL     1     -14.616  28.341  48.090  1.00  0.00    -0.507 OA
ATOM     23  H   UNL     1     -13.897  28.978  47.784  1.00  0.00     0.293 HD
ENDBRANCH   6  22
BRANCH   8  24
ATOM     24  O   UNL     1     -18.821  30.615  48.546  1.00  0.00    -0.508 OA
ATOM     25  H   UNL     1     -18.685  31.089  47.661  1.00  0.00     0.293 HD
ENDBRANCH   8  24
TORSDOF 5
ENDMDL
MODEL 7
REMARK VINA RESULT:    -6.515      2.289      6.880
REMARK INTER + INTRA:          -7.963
REMARK INTER:                  -7.667
REMARK INTRA:                  -0.297
REMARK UNBOUND:                -0.306
REMARK SMILES O=c1cc(-c2ccc(O)c(O)c2)oc2cc(O)cc(O)c12
REMARK SMILES IDX 4 1 3 2 2 3 1 4 21 5 19 6 18 7 16 8 15 9 14 10 13 11 5 12
REMARK SMILES IDX 6 13 7 14 8 15 12 16 10 17 9 18 11 20 20 22 17 24
REMARK H PARENT 9 19 11 21 20 23 17 25
REMARK Flexibility Score: inf
ROOT
ATOM      1  C   UNL     1     -16.243  27.506  52.260  1.00  0.00     0.138 A 
ATOM      2  C   UNL     1     -17.512  28.094  52.354  1.00  0.00     0.100 A 
ATOM      3  C   UNL     1     -18.206  28.046  53.563  1.00  0.00     0.197 A 
ATOM      4  O   UNL     1     -19.315  28.636  53.635  1.00  0.00    -0.289 OA
ATOM      5  C   UNL     1     -17.639  27.379  54.675  1.00  0.00     0.107 A 
ATOM      6  C   UNL     1     -18.272  27.233  55.944  1.00  0.00     0.134 A 
ATOM      7  C   UNL     1     -17.565  26.654  57.006  1.00  0.00     0.093 A 
ATOM      8  C   UNL     1     -16.269  26.162  56.825  1.00  0.00     0.123 A 
ATOM      9  C   UNL     1     -15.663  26.252  55.575  1.00  0.00     0.094 A 
ATOM     10  C   UNL     1     -16.329  26.855  54.506  1.00  0.00     0.146 A 
ATOM     11  O   UNL     1     -15.709  26.934  53.333  1.00  0.00    -0.456 OA
ENDROOT
BRANCH   1  12
ATOM     12  C   UNL     1     -15.461  27.527  50.996  1.00  0.00     0.021 A 
ATOM     13  C   UNL     1     -14.185  26.937  50.964  1.00  0.00     0.016 A 
ATOM     14  C   UNL     1     -13.432  26.936  49.787  1.00  0.00     0.051 A 
ATOM     15  C   UNL     1     -13.947  27.514  48.620  1.00  0.00     0.157 A 
ATOM     16  C   UNL     1     -15.978  28.093  49.815  1.00  0.00     0.062 A 
ATOM     17  C   UNL     1     -15.222  28.091  48.633  1.00  0.00     0.158 A 
BRANCH  15  18
ATOM     18  O   UNL     1     -13.199  27.516  47.444  1.00  0.00    -0.504 OA
ATOM     19  H   UNL     1     -12.906  28.381  47.005  1.00  0.00     0.293 HD
ENDBRANCH  15  18
BRANCH  17  20
ATOM     20  O   UNL     1     -15.736  28.655  47.467  1.00  0.00    -0.504 OA
ATOM     21  H   UNL     1     -15.805  29.659  47.348  1.00  0.00     0.293 HD
ENDBRANCH  17  20
ENDBRANCH   1  12
BRANCH   6  22
ATOM     22  O   UNL     1     -19.592  27.613  56.208  1.00  0.00    -0.507 OA
ATOM     23  H   UNL     1     -20.019  28.470  55.892  1.00  0.00     0.293 HD
ENDBRANCH   6  22
BRANCH   8  24
ATOM     24  O   UNL     1     -15.581  25.573  57.884  1.00  0.00    -0.508 OA
ATOM     25  H   UNL     1     -14.710  25.957  58.229  1.00  0.00     0.293 HD
ENDBRANCH   8  24
TORSDOF 5
ENDMDL
MODEL 8
REMARK VINA RESULT:    -6.495      2.682      2.888
REMARK INTER + INTRA:          -7.940
REMARK INTER:                  -7.668
REMARK INTRA:                  -0.271
REMARK UNBOUND:                -0.306
REMARK SMILES O=c1cc(-c2ccc(O)c(O)c2)oc2cc(O)cc(O)c12
REMARK SMILES IDX 4 1 3 2 2 3 1 4 21 5 19 6 18 7 16 8 15 9 14 10 13 11 5 12
REMARK SMILES IDX 6 13 7 14 8 15 12 16 10 17 9 18 11 20 20 22 17 24
REMARK H PARENT 9 19 11 21 20 23 17 25
REMARK Flexibility Score: inf
ROOT
ATOM      1  C   UNL     1     -15.443  26.828  51.896  1.00  0.00     0.138 A 
ATOM      2  C   UNL     1     -14.200  27.052  51.288  1.00  0.00     0.100 A 
ATOM      3  C   UNL     1     -14.138  27.293  49.915  1.00  0.00     0.197 A 
ATOM      4  O   UNL     1     -13.015  27.553  49.408  1.00  0.00    -0.289 OA
ATOM      5  C   UNL     1     -15.323  27.277  49.143  1.00  0.00     0.107 A 
ATOM      6  C   UNL     1     -15.376  27.470  47.731  1.00  0.00     0.134 A 
ATOM      7  C   UNL     1     -16.619  27.550  47.090  1.00  0.00     0.093 A 
ATOM      8  C   UNL     1     -17.809  27.384  47.804  1.00  0.00     0.123 A 
ATOM      9  C   UNL     1     -17.766  27.142  49.175  1.00  0.00     0.094 A 
ATOM     10  C   UNL     1     -16.543  27.091  49.847  1.00  0.00     0.146 A 
ATOM     11  O   UNL     1     -16.547  26.872  51.158  1.00  0.00    -0.456 OA
ENDROOT
BRANCH   1  12
ATOM     12  C   UNL     1     -15.567  26.565  53.353  1.00  0.00     0.021 A 
ATOM     13  C   UNL     1     -15.027  25.382  53.890  1.00  0.00     0.016 A 
ATOM     14  C   UNL     1     -15.123  25.114  55.258  1.00  0.00     0.051 A 
ATOM     15  C   UNL     1     -15.750  26.029  56.113  1.00  0.00     0.157 A 
ATOM     16  C   UNL     1     -16.183  27.486  54.222  1.00  0.00     0.062 A 
ATOM     17  C   UNL     1     -16.278  27.217  55.596  1.00  0.00     0.158 A 
BRANCH  15  18
ATOM     18  O   UNL     1     -15.849  25.765  57.478  1.00  0.00    -0.504 OA
ATOM     19  H   UNL     1     -15.036  25.521  58.031  1.00  0.00     0.293 HD
ENDBRANCH  15  18
BRANCH  17  20
ATOM     20  O   UNL     1     -16.891  28.130  56.452  1.00  0.00    -0.504 OA
ATOM     21  H   UNL     1     -17.362  28.955  56.100  1.00  0.00     0.293 HD
ENDBRANCH  17  20
ENDBRANCH   1  12
BRANCH   6  22
ATOM     22  O   UNL     1     -14.245  27.563  46.912  1.00  0.00    -0.507 OA
ATOM     23  H   UNL     1     -14.228  27.343  45.928  1.00  0.00     0.293 HD
ENDBRANCH   6  22
BRANCH   8  24
ATOM     24  O   UNL     1     -19.040  27.449  47.155  1.00  0.00    -0.508 OA
ATOM     25  H   UNL     1     -19.558  26.613  46.915  1.00  0.00     0.293 HD
ENDBRANCH   8  24
TORSDOF 5
ENDMDL
MODEL 9
REMARK VINA RESULT:    -6.377     15.627     17.381
REMARK INTER + INTRA:          -7.802
REMARK INTER:                  -7.531
REMARK INTRA:                  -0.270
REMARK UNBOUND:                -0.306
REMARK SMILES O=c1cc(-c2ccc(O)c(O)c2)oc2cc(O)cc(O)c12
REMARK SMILES IDX 4 1 3 2 2 3 1 4 21 5 19 6 18 7 16 8 15 9 14 10 13 11 5 12
REMARK SMILES IDX 6 13 7 14 8 15 12 16 10 17 9 18 11 20 20 22 17 24
REMARK H PARENT 9 19 11 21 20 23 17 25
REMARK Flexibility Score: inf
ROOT
ATOM      1  C   UNL     1      -4.351  35.965  59.633  1.00  0.00     0.138 A 
ATOM      2  C   UNL     1      -3.154  36.217  58.948  1.00  0.00     0.100 A 
ATOM      3  C   UNL     1      -2.099  35.308  59.046  1.00  0.00     0.197 A 
ATOM      4  O   UNL     1      -1.061  35.530  58.370  1.00  0.00    -0.289 OA
ATOM      5  C   UNL     1      -2.233  34.158  59.859  1.00  0.00     0.107 A 
ATOM      6  C   UNL     1      -1.211  33.185  60.065  1.00  0.00     0.134 A 
ATOM      7  C   UNL     1      -1.499  32.027  60.799  1.00  0.00     0.093 A 
ATOM      8  C   UNL     1      -2.754  31.837  61.384  1.00  0.00     0.123 A 
ATOM      9  C   UNL     1      -3.741  32.807  61.232  1.00  0.00     0.094 A 
ATOM     10  C   UNL     1      -3.496  33.956  60.478  1.00  0.00     0.146 A 
ATOM     11  O   UNL     1      -4.471  34.850  60.346  1.00  0.00    -0.456 OA
ENDROOT
BRANCH   1  12
ATOM     12  C   UNL     1      -5.504  36.899  59.565  1.00  0.00     0.021 A 
ATOM     13  C   UNL     1      -6.758  36.418  59.147  1.00  0.00     0.016 A 
ATOM     14  C   UNL     1      -7.861  37.274  59.081  1.00  0.00     0.051 A 
ATOM     15  C   UNL     1      -7.731  38.620  59.442  1.00  0.00     0.157 A 
ATOM     16  C   UNL     1      -5.385  38.251  59.940  1.00  0.00     0.062 A 
ATOM     17  C   UNL     1      -6.493  39.109  59.875  1.00  0.00     0.158 A 
BRANCH  15  18
ATOM     18  O   UNL     1      -8.829  39.478  59.377  1.00  0.00    -0.504 OA
ATOM     19  H   UNL     1      -9.698  39.261  59.850  1.00  0.00     0.293 HD
ENDBRANCH  15  18
BRANCH  17  20
ATOM     20  O   UNL     1      -6.371  40.448  60.244  1.00  0.00    -0.504 OA
ATOM     21  H   UNL     1      -5.955  41.134  59.625  1.00  0.00     0.293 HD
ENDBRANCH  17  20
ENDBRANCH   1  12
BRANCH   6  22
ATOM     22  O   UNL     1       0.100  33.318  59.597  1.00  0.00    -0.507 OA
ATOM     23  H   UNL     1       0.915  33.405  60.185  1.00  0.00     0.293 HD
ENDBRANCH   6  22
BRANCH   8  24
ATOM     24  O   UNL     1      -3.024  30.689  62.125  1.00  0.00    -0.508 OA
ATOM     25  H   UNL     1      -2.334  30.282  62.744  1.00  0.00     0.293 HD
ENDBRANCH   8  24
TORSDOF 5
ENDMDL
