MODEL 1
REMARK VINA RESULT:    -5.336      0.000      0.000
REMARK INTER + INTRA:          -5.578
REMARK INTER:                  -5.803
REMARK INTRA:                   0.226
REMARK UNBOUND:                 0.226
REMARK SMILES C[C@@H]1[C@@H](C)CC[C@]2(C(=O)[O-])CC[C@@]3(C)C(=CC[C@@H]4[C@]5(C)CC[C@H](O)C(C)(C)[C@H]5CC[C@]43C)[C@@H]12
REMARK SMILES IDX 7 1 6 2 11 3 33 4 5 5 12 6 15 7 2 8 3 9 13 10 16 11 1 12
REMARK SMILES IDX 4 13 14 14 31 15 17 16 18 17 30 18 32 19 19 20 29 21 28 22
REMARK SMILES IDX 21 23 20 24 25 25 22 26 23 27 26 28 27 29 8 30 9 31 10 32
REMARK SMILES IDX 24 33
REMARK H PARENT 24 34
REMARK Flexibility Score: inf
ROOT
ATOM      1  C   UNL     1      47.046  13.006  -5.050  1.00  0.00     0.017 C 
ATOM      2  C   UNL     1      48.170  12.743  -6.083  1.00  0.00     0.014 C 
ATOM      3  C   UNL     1      45.695  12.416  -5.612  1.00  0.00     0.014 C 
ATOM      4  C   UNL     1      46.910  14.557  -4.847  1.00  0.00     0.030 C 
ATOM      5  C   UNL     1      49.510  13.311  -5.610  1.00  0.00     0.004 C 
ATOM      6  C   UNL     1      44.495  13.395  -5.585  1.00  0.00     0.013 C 
ATOM      7  C   UNL     1      45.704  14.840  -3.921  1.00  0.00    -0.063 C 
ATOM      8  C   UNL     1      48.264  15.287  -4.512  1.00  0.00    -0.003 C 
ATOM      9  C   UNL     1      49.433  14.837  -5.449  1.00  0.00    -0.011 C 
ATOM     10  C   UNL     1      44.330  14.194  -4.246  1.00  0.00    -0.006 C 
ATOM     11  C   UNL     1      45.774  15.720  -2.895  1.00  0.00    -0.027 C 
ATOM     12  C   UNL     1      48.109  16.831  -4.625  1.00  0.00     0.008 C 
ATOM     13  C   UNL     1      50.788  15.375  -4.947  1.00  0.00     0.008 C 
ATOM     14  C   UNL     1      44.121  13.116  -3.125  1.00  0.00     0.017 C 
ATOM     15  C   UNL     1      43.098  15.317  -4.260  1.00  0.00    -0.020 C 
ATOM     16  C   UNL     1      44.558  16.521  -2.518  1.00  0.00     0.032 C 
ATOM     17  C   UNL     1      43.687  16.703  -3.788  1.00  0.00     0.006 C 
ATOM     18  C   UNL     1      42.414  15.545  -5.689  1.00  0.00     0.008 C 
ATOM     19  C   UNL     1      41.951  14.860  -3.278  1.00  0.00     0.012 C 
ATOM     20  C   UNL     1      42.781  18.017  -3.832  1.00  0.00    -0.025 C 
ATOM     21  C   UNL     1      42.072  17.011  -6.074  1.00  0.00     0.005 C 
ATOM     22  C   UNL     1      41.597  17.803  -4.845  1.00  0.00     0.003 C 
ATOM     23  C   UNL     1      42.148  18.385  -2.460  1.00  0.00     0.010 C 
ATOM     24  C   UNL     1      43.750  19.176  -4.263  1.00  0.00     0.012 C 
ATOM     25  C   UNL     1      40.618  19.019  -5.057  1.00  0.00    -0.006 C 
ATOM     26  C   UNL     1      41.193  19.604  -2.543  1.00  0.00     0.033 C 
ATOM     27  C   UNL     1      40.102  19.500  -3.645  1.00  0.00     0.120 C 
ATOM     28  C   UNL     1      41.259  20.197  -5.835  1.00  0.00     0.014 C 
ATOM     29  C   UNL     1      39.382  18.568  -5.898  1.00  0.00     0.014 C 
ENDROOT
BRANCH   1  30
ATOM     30  C   UNL     1      47.411  12.266  -3.762  1.00  0.00     0.048 C 
ATOM     31  O   UNL     1      47.200  11.029  -3.628  1.00  0.00    -0.550 OA
ATOM     32  O   UNL     1      47.992  12.967  -2.709  1.00  0.00    -0.550 OA
ENDBRANCH   1  30
BRANCH  27  33
ATOM     33  O   UNL     1      39.030  18.711  -3.172  1.00  0.00    -0.393 OA
ATOM     34  H   UNL     1      38.734  19.070  -2.299  1.00  0.00     0.210 HD
ENDBRANCH  27  33
TORSDOF 2
ENDMDL
MODEL 2
REMARK VINA RESULT:    -4.945      1.477      7.747
REMARK INTER + INTRA:          -5.153
REMARK INTER:                  -5.354
REMARK INTRA:                   0.201
REMARK UNBOUND:                 0.226
REMARK SMILES C[C@@H]1[C@@H](C)CC[C@]2(C(=O)[O-])CC[C@@]3(C)C(=CC[C@@H]4[C@]5(C)CC[C@H](O)C(C)(C)[C@H]5CC[C@]43C)[C@@H]12
REMARK SMILES IDX 7 1 6 2 11 3 33 4 5 5 12 6 15 7 2 8 3 9 13 10 16 11 1 12
REMARK SMILES IDX 4 13 14 14 31 15 17 16 18 17 30 18 32 19 19 20 29 21 28 22
REMARK SMILES IDX 21 23 20 24 25 25 22 26 23 27 26 28 27 29 8 30 9 31 10 32
REMARK SMILES IDX 24 33
REMARK H PARENT 24 34
REMARK Flexibility Score: inf
ROOT
ATOM      1  C   UNL     1      41.983  18.930  -3.366  1.00  0.00     0.017 C 
ATOM      2  C   UNL     1      41.962  20.404  -2.891  1.00  0.00     0.014 C 
ATOM      3  C   UNL     1      41.992  17.990  -2.100  1.00  0.00     0.014 C 
ATOM      4  C   UNL     1      43.284  18.699  -4.215  1.00  0.00     0.030 C 
ATOM      5  C   UNL     1      41.975  21.375  -4.074  1.00  0.00     0.004 C 
ATOM      6  C   UNL     1      43.092  16.898  -2.106  1.00  0.00     0.013 C 
ATOM      7  C   UNL     1      43.386  17.200  -4.584  1.00  0.00    -0.063 C 
ATOM      8  C   UNL     1      43.495  19.744  -5.374  1.00  0.00    -0.003 C 
ATOM      9  C   UNL     1      43.259  21.216  -4.901  1.00  0.00    -0.011 C 
ATOM     10  C   UNL     1      43.249  16.132  -3.465  1.00  0.00    -0.006 C 
ATOM     11  C   UNL     1      43.698  16.786  -5.834  1.00  0.00    -0.027 C 
ATOM     12  C   UNL     1      44.930  19.640  -5.966  1.00  0.00     0.008 C 
ATOM     13  C   UNL     1      43.229  22.187  -6.098  1.00  0.00     0.008 C 
ATOM     14  C   UNL     1      41.862  15.448  -3.735  1.00  0.00     0.017 C 
ATOM     15  C   UNL     1      44.498  15.030  -3.496  1.00  0.00    -0.020 C 
ATOM     16  C   UNL     1      44.493  15.522  -6.020  1.00  0.00     0.032 C 
ATOM     17  C   UNL     1      45.386  15.323  -4.768  1.00  0.00     0.006 C 
ATOM     18  C   UNL     1      45.459  15.069  -2.217  1.00  0.00     0.008 C 
ATOM     19  C   UNL     1      43.914  13.566  -3.577  1.00  0.00     0.012 C 
ATOM     20  C   UNL     1      46.747  14.522  -4.999  1.00  0.00    -0.025 C 
ATOM     21  C   UNL     1      46.983  14.924  -2.484  1.00  0.00     0.005 C 
ATOM     22  C   UNL     1      47.246  13.932  -3.628  1.00  0.00     0.003 C 
ATOM     23  C   UNL     1      46.610  13.330  -5.987  1.00  0.00     0.010 C 
ATOM     24  C   UNL     1      47.746  15.568  -5.612  1.00  0.00     0.012 C 
ATOM     25  C   UNL     1      48.610  13.144  -3.652  1.00  0.00    -0.006 C 
ATOM     26  C   UNL     1      47.916  12.504  -6.122  1.00  0.00     0.033 C 
ATOM     27  C   UNL     1      48.530  12.035  -4.774  1.00  0.00     0.120 C 
ATOM     28  C   UNL     1      49.844  14.055  -3.872  1.00  0.00     0.014 C 
ATOM     29  C   UNL     1      48.838  12.432  -2.282  1.00  0.00     0.014 C 
ENDROOT
BRANCH   1  30
ATOM     30  C   UNL     1      40.701  18.676  -4.161  1.00  0.00     0.048 C 
ATOM     31  O   UNL     1      40.706  18.612  -5.421  1.00  0.00    -0.550 OA
ATOM     32  O   UNL     1      39.496  18.505  -3.484  1.00  0.00    -0.550 OA
ENDBRANCH   1  30
BRANCH  27  33
ATOM     33  O   UNL     1      47.859  10.875  -4.329  1.00  0.00    -0.393 OA
ATOM     34  H   UNL     1      48.235  10.092  -4.802  1.00  0.00     0.210 HD
ENDBRANCH  27  33
TORSDOF 2
ENDMDL
MODEL 3
REMARK VINA RESULT:    -4.548      1.359      1.632
REMARK INTER + INTRA:          -4.721
REMARK INTER:                  -5.183
REMARK INTRA:                   0.462
REMARK UNBOUND:                 0.226
REMARK SMILES C[C@@H]1[C@@H](C)CC[C@]2(C(=O)[O-])CC[C@@]3(C)C(=CC[C@@H]4[C@]5(C)CC[C@H](O)C(C)(C)[C@H]5CC[C@]43C)[C@@H]12
REMARK SMILES IDX 7 1 6 2 11 3 33 4 5 5 12 6 15 7 2 8 3 9 13 10 16 11 1 12
REMARK SMILES IDX 4 13 14 14 31 15 17 16 18 17 30 18 32 19 19 20 29 21 28 22
REMARK SMILES IDX 21 23 20 24 25 25 22 26 23 27 26 28 27 29 8 30 9 31 10 32
REMARK SMILES IDX 24 33
REMARK H PARENT 24 34
REMARK Flexibility Score: inf
ROOT
ATOM      1  C   UNL     1      48.198  12.475  -4.343  1.00  0.00     0.017 C 
ATOM      2  C   UNL     1      49.402  12.361  -5.311  1.00  0.00     0.014 C 
ATOM      3  C   UNL     1      47.044  11.530  -4.857  1.00  0.00     0.014 C 
ATOM      4  C   UNL     1      47.706  13.966  -4.334  1.00  0.00     0.030 C 
ATOM      5  C   UNL     1      50.554  13.272  -4.883  1.00  0.00     0.004 C 
ATOM      6  C   UNL     1      45.654  12.204  -4.976  1.00  0.00     0.013 C 
ATOM      7  C   UNL     1      46.423  14.069  -3.476  1.00  0.00    -0.063 C 
ATOM      8  C   UNL     1      48.842  15.021  -4.062  1.00  0.00    -0.003 C 
ATOM      9  C   UNL     1      50.127  14.747  -4.912  1.00  0.00    -0.011 C 
ATOM     10  C   UNL     1      45.247  13.091  -3.749  1.00  0.00    -0.006 C 
ATOM     11  C   UNL     1      46.243  15.052  -2.564  1.00  0.00    -0.027 C 
ATOM     12  C   UNL     1      48.349  16.465  -4.366  1.00  0.00     0.008 C 
ATOM     13  C   UNL     1      51.300  15.636  -4.450  1.00  0.00     0.008 C 
ATOM     14  C   UNL     1      45.233  12.129  -2.509  1.00  0.00     0.017 C 
ATOM     15  C   UNL     1      43.796  13.891  -3.927  1.00  0.00    -0.020 C 
ATOM     16  C   UNL     1      44.860  15.589  -2.313  1.00  0.00     0.032 C 
ATOM     17  C   UNL     1      44.034  15.421  -3.615  1.00  0.00     0.006 C 
ATOM     18  C   UNL     1      43.149  13.792  -5.387  1.00  0.00     0.008 C 
ATOM     19  C   UNL     1      42.735  13.299  -2.921  1.00  0.00     0.012 C 
ATOM     20  C   UNL     1      42.858  16.477  -3.839  1.00  0.00    -0.025 C 
ATOM     21  C   UNL     1      42.505  15.086  -5.955  1.00  0.00     0.005 C 
ATOM     22  C   UNL     1      41.804  15.883  -4.843  1.00  0.00     0.003 C 
ATOM     23  C   UNL     1      42.092  16.844  -2.536  1.00  0.00     0.010 C 
ATOM     24  C   UNL     1      43.560  17.771  -4.387  1.00  0.00     0.012 C 
ATOM     25  C   UNL     1      40.587  16.809  -5.223  1.00  0.00    -0.006 C 
ATOM     26  C   UNL     1      40.892  17.794  -2.788  1.00  0.00     0.033 C 
ATOM     27  C   UNL     1      39.907  17.317  -3.892  1.00  0.00     0.120 C 
ATOM     28  C   UNL     1      40.983  18.006  -6.125  1.00  0.00     0.014 C 
ATOM     29  C   UNL     1      39.527  15.993  -6.029  1.00  0.00     0.014 C 
ENDROOT
BRANCH   1  30
ATOM     30  C   UNL     1      48.656  11.991  -2.967  1.00  0.00     0.048 C 
ATOM     31  O   UNL     1      49.230  10.876  -2.815  1.00  0.00    -0.550 OA
ATOM     32  O   UNL     1      48.443  12.794  -1.850  1.00  0.00    -0.550 OA
ENDBRANCH   1  30
BRANCH  27  33
ATOM     33  O   UNL     1      39.019  16.362  -3.350  1.00  0.00    -0.393 OA
ATOM     34  H   UNL     1      38.997  16.472  -2.367  1.00  0.00     0.210 HD
ENDBRANCH  27  33
TORSDOF 2
ENDMDL
MODEL 4
REMARK VINA RESULT:    -4.480      1.659      7.787
REMARK INTER + INTRA:          -4.647
REMARK INTER:                  -4.885
REMARK INTRA:                   0.237
REMARK UNBOUND:                 0.226
REMARK SMILES C[C@@H]1[C@@H](C)CC[C@]2(C(=O)[O-])CC[C@@]3(C)C(=CC[C@@H]4[C@]5(C)CC[C@H](O)C(C)(C)[C@H]5CC[C@]43C)[C@@H]12
REMARK SMILES IDX 7 1 6 2 11 3 33 4 5 5 12 6 15 7 2 8 3 9 13 10 16 11 1 12
REMARK SMILES IDX 4 13 14 14 31 15 17 16 18 17 30 18 32 19 19 20 29 21 28 22
REMARK SMILES IDX 21 23 20 24 25 25 22 26 23 27 26 28 27 29 8 30 9 31 10 32
REMARK SMILES IDX 24 33
REMARK H PARENT 24 34
REMARK Flexibility Score: inf
ROOT
ATOM      1  C   UNL     1      40.494  17.183  -3.377  1.00  0.00     0.017 C 
ATOM      2  C   UNL     1      39.762  17.781  -2.149  1.00  0.00     0.014 C 
ATOM      3  C   UNL     1      40.182  15.638  -3.449  1.00  0.00     0.014 C 
ATOM      4  C   UNL     1      42.036  17.412  -3.197  1.00  0.00     0.030 C 
ATOM      5  C   UNL     1      40.039  19.279  -2.006  1.00  0.00     0.004 C 
ATOM      6  C   UNL     1      41.428  14.728  -3.595  1.00  0.00     0.013 C 
ATOM      7  C   UNL     1      42.789  16.704  -4.348  1.00  0.00    -0.063 C 
ATOM      8  C   UNL     1      42.438  18.901  -2.881  1.00  0.00    -0.003 C 
ATOM      9  C   UNL     1      41.535  19.541  -1.775  1.00  0.00    -0.011 C 
ATOM     10  C   UNL     1      42.475  15.214  -4.657  1.00  0.00    -0.006 C 
ATOM     11  C   UNL     1      43.793  17.303  -5.029  1.00  0.00    -0.027 C 
ATOM     12  C   UNL     1      43.922  18.994  -2.421  1.00  0.00     0.008 C 
ATOM     13  C   UNL     1      41.785  21.059  -1.662  1.00  0.00     0.008 C 
ATOM     14  C   UNL     1      41.712  15.244  -6.029  1.00  0.00     0.017 C 
ATOM     15  C   UNL     1      43.856  14.286  -4.739  1.00  0.00    -0.020 C 
ATOM     16  C   UNL     1      44.937  16.476  -5.547  1.00  0.00     0.032 C 
ATOM     17  C   UNL     1      45.104  15.246  -4.618  1.00  0.00     0.006 C 
ATOM     18  C   UNL     1      43.988  13.177  -3.593  1.00  0.00     0.008 C 
ATOM     19  C   UNL     1      43.902  13.521  -6.117  1.00  0.00     0.012 C 
ATOM     20  C   UNL     1      46.577  14.638  -4.519  1.00  0.00    -0.025 C 
ATOM     21  C   UNL     1      45.396  12.985  -2.965  1.00  0.00     0.005 C 
ATOM     22  C   UNL     1      46.496  13.147  -4.027  1.00  0.00     0.003 C 
ATOM     23  C   UNL     1      47.342  14.632  -5.872  1.00  0.00     0.010 C 
ATOM     24  C   UNL     1      47.344  15.571  -3.514  1.00  0.00     0.012 C 
ATOM     25  C   UNL     1      47.865  12.393  -3.824  1.00  0.00    -0.006 C 
ATOM     26  C   UNL     1      48.731  13.949  -5.778  1.00  0.00     0.033 C 
ATOM     27  C   UNL     1      48.714  12.529  -5.148  1.00  0.00     0.120 C 
ATOM     28  C   UNL     1      48.672  12.902  -2.602  1.00  0.00     0.014 C 
ATOM     29  C   UNL     1      47.605  10.875  -3.568  1.00  0.00     0.014 C 
ENDROOT
BRANCH   1  30
ATOM     30  C   UNL     1      39.934  17.858  -4.630  1.00  0.00     0.048 C 
ATOM     31  O   UNL     1      38.875  17.450  -5.183  1.00  0.00    -0.550 OA
ATOM     32  O   UNL     1      40.600  18.951  -5.177  1.00  0.00    -0.550 OA
ENDBRANCH   1  30
BRANCH  27  33
ATOM     33  O   UNL     1      48.332  11.584  -6.125  1.00  0.00    -0.393 OA
ATOM     34  H   UNL     1      48.815  11.785  -6.964  1.00  0.00     0.210 HD
ENDBRANCH  27  33
TORSDOF 2
ENDMDL
MODEL 5
REMARK VINA RESULT:    -3.878      1.761      2.749
REMARK INTER + INTRA:          -3.992
REMARK INTER:                  -4.224
REMARK INTRA:                   0.231
REMARK UNBOUND:                 0.226
REMARK SMILES C[C@@H]1[C@@H](C)CC[C@]2(C(=O)[O-])CC[C@@]3(C)C(=CC[C@@H]4[C@]5(C)CC[C@H](O)C(C)(C)[C@H]5CC[C@]43C)[C@@H]12
REMARK SMILES IDX 7 1 6 2 11 3 33 4 5 5 12 6 15 7 2 8 3 9 13 10 16 11 1 12
REMARK SMILES IDX 4 13 14 14 31 15 17 16 18 17 30 18 32 19 19 20 29 21 28 22
REMARK SMILES IDX 21 23 20 24 25 25 22 26 23 27 26 28 27 29 8 30 9 31 10 32
REMARK SMILES IDX 24 33
REMARK H PARENT 24 34
REMARK Flexibility Score: inf
ROOT
ATOM      1  C   UNL     1      47.144  12.826  -4.788  1.00  0.00     0.017 C 
ATOM      2  C   UNL     1      48.640  12.554  -4.494  1.00  0.00     0.014 C 
ATOM      3  C   UNL     1      47.033  13.656  -6.125  1.00  0.00     0.014 C 
ATOM      4  C   UNL     1      46.544  13.650  -3.594  1.00  0.00     0.030 C 
ATOM      5  C   UNL     1      48.822  11.769  -3.194  1.00  0.00     0.004 C 
ATOM      6  C   UNL     1      46.154  14.929  -6.031  1.00  0.00     0.013 C 
ATOM      7  C   UNL     1      45.087  14.044  -3.934  1.00  0.00    -0.063 C 
ATOM      8  C   UNL     1      46.809  13.021  -2.175  1.00  0.00    -0.003 C 
ATOM      9  C   UNL     1      48.294  12.566  -1.992  1.00  0.00    -0.011 C 
ATOM     10  C   UNL     1      44.784  14.727  -5.296  1.00  0.00    -0.006 C 
ATOM     11  C   UNL     1      44.078  13.913  -3.042  1.00  0.00    -0.027 C 
ATOM     12  C   UNL     1      46.459  14.029  -1.043  1.00  0.00     0.008 C 
ATOM     13  C   UNL     1      48.467  11.737  -0.703  1.00  0.00     0.008 C 
ATOM     14  C   UNL     1      44.008  13.641  -6.122  1.00  0.00     0.017 C 
ATOM     15  C   UNL     1      43.888  16.119  -5.112  1.00  0.00    -0.020 C 
ATOM     16  C   UNL     1      42.945  14.902  -3.052  1.00  0.00     0.032 C 
ATOM     17  C   UNL     1      43.485  16.252  -3.591  1.00  0.00     0.006 C 
ATOM     18  C   UNL     1      44.646  17.466  -5.529  1.00  0.00     0.008 C 
ATOM     19  C   UNL     1      42.589  16.038  -6.004  1.00  0.00     0.012 C 
ATOM     20  C   UNL     1      42.740  17.563  -3.069  1.00  0.00    -0.025 C 
ATOM     21  C   UNL     1      44.439  18.698  -4.607  1.00  0.00     0.005 C 
ATOM     22  C   UNL     1      42.999  18.747  -4.072  1.00  0.00     0.003 C 
ATOM     23  C   UNL     1      41.199  17.398  -2.946  1.00  0.00     0.010 C 
ATOM     24  C   UNL     1      43.330  17.835  -1.639  1.00  0.00     0.012 C 
ATOM     25  C   UNL     1      42.375  20.144  -3.695  1.00  0.00    -0.006 C 
ATOM     26  C   UNL     1      40.482  18.709  -2.533  1.00  0.00     0.033 C 
ATOM     27  C   UNL     1      40.836  19.945  -3.407  1.00  0.00     0.120 C 
ATOM     28  C   UNL     1      43.073  20.824  -2.488  1.00  0.00     0.014 C 
ATOM     29  C   UNL     1      42.522  21.134  -4.892  1.00  0.00     0.014 C 
ENDROOT
BRANCH   1  30
ATOM     30  C   UNL     1      46.452  11.476  -4.987  1.00  0.00     0.048 C 
ATOM     31  O   UNL     1      46.476  10.879  -6.099  1.00  0.00    -0.550 OA
ATOM     32  O   UNL     1      45.783  10.884  -3.919  1.00  0.00    -0.550 OA
ENDBRANCH   1  30
BRANCH  27  33
ATOM     33  O   UNL     1      40.072  19.917  -4.594  1.00  0.00    -0.393 OA
ATOM     34  H   UNL     1      40.423  20.605  -5.212  1.00  0.00     0.210 HD
ENDBRANCH  27  33
TORSDOF 2
ENDMDL
MODEL 6
REMARK VINA RESULT:    -3.527      1.896      7.979
REMARK INTER + INTRA:          -3.611
REMARK INTER:                  -3.818
REMARK INTRA:                   0.207
REMARK UNBOUND:                 0.226
REMARK SMILES C[C@@H]1[C@@H](C)CC[C@]2(C(=O)[O-])CC[C@@]3(C)C(=CC[C@@H]4[C@]5(C)CC[C@H](O)C(C)(C)[C@H]5CC[C@]43C)[C@@H]12
REMARK SMILES IDX 7 1 6 2 11 3 33 4 5 5 12 6 15 7 2 8 3 9 13 10 16 11 1 12
REMARK SMILES IDX 4 13 14 14 31 15 17 16 18 17 30 18 32 19 19 20 29 21 28 22
REMARK SMILES IDX 21 23 20 24 25 25 22 26 23 27 26 28 27 29 8 30 9 31 10 32
REMARK SMILES IDX 24 33
REMARK H PARENT 24 34
REMARK Flexibility Score: inf
ROOT
ATOM      1  C   UNL     1      41.486  19.030  -4.608  1.00  0.00     0.017 C 
ATOM      2  C   UNL     1      39.946  19.127  -4.745  1.00  0.00     0.014 C 
ATOM      3  C   UNL     1      42.106  18.779  -6.037  1.00  0.00     0.014 C 
ATOM      4  C   UNL     1      41.825  17.827  -3.657  1.00  0.00     0.030 C 
ATOM      5  C   UNL     1      39.275  19.349  -3.388  1.00  0.00     0.004 C 
ATOM      6  C   UNL     1      43.100  17.592  -6.117  1.00  0.00     0.013 C 
ATOM      7  C   UNL     1      43.360  17.634  -3.616  1.00  0.00    -0.063 C 
ATOM      8  C   UNL     1      41.065  17.857  -2.279  1.00  0.00    -0.003 C 
ATOM      9  C   UNL     1      39.541  18.167  -2.445  1.00  0.00    -0.011 C 
ATOM     10  C   UNL     1      44.147  17.534  -4.951  1.00  0.00    -0.006 C 
ATOM     11  C   UNL     1      44.031  17.440  -2.458  1.00  0.00    -0.027 C 
ATOM     12  C   UNL     1      41.214  16.501  -1.529  1.00  0.00     0.008 C 
ATOM     13  C   UNL     1      38.875  18.433  -1.079  1.00  0.00     0.008 C 
ATOM     14  C   UNL     1      44.960  18.874  -5.036  1.00  0.00     0.017 C 
ATOM     15  C   UNL     1      45.148  16.202  -4.990  1.00  0.00    -0.020 C 
ATOM     16  C   UNL     1      45.252  16.561  -2.444  1.00  0.00     0.032 C 
ATOM     17  C   UNL     1      45.101  15.508  -3.572  1.00  0.00     0.006 C 
ATOM     18  C   UNL     1      44.755  15.099  -6.080  1.00  0.00     0.008 C 
ATOM     19  C   UNL     1      46.624  16.654  -5.315  1.00  0.00     0.012 C 
ATOM     20  C   UNL     1      45.848  14.117  -3.335  1.00  0.00    -0.025 C 
ATOM     21  C   UNL     1      44.864  13.612  -5.641  1.00  0.00     0.005 C 
ATOM     22  C   UNL     1      46.074  13.402  -4.718  1.00  0.00     0.003 C 
ATOM     23  C   UNL     1      47.242  14.264  -2.663  1.00  0.00     0.010 C 
ATOM     24  C   UNL     1      44.912  13.301  -2.373  1.00  0.00     0.012 C 
ATOM     25  C   UNL     1      46.762  11.984  -4.677  1.00  0.00    -0.006 C 
ATOM     26  C   UNL     1      47.995  12.914  -2.531  1.00  0.00     0.033 C 
ATOM     27  C   UNL     1      48.102  12.099  -3.850  1.00  0.00     0.120 C 
ATOM     28  C   UNL     1      45.851  10.875  -4.091  1.00  0.00     0.014 C 
ATOM     29  C   UNL     1      47.123  11.525  -6.125  1.00  0.00     0.014 C 
ENDROOT
BRANCH   1  30
ATOM     30  C   UNL     1      41.995  20.371  -4.077  1.00  0.00     0.048 C 
ATOM     31  O   UNL     1      42.254  20.542  -2.853  1.00  0.00    -0.550 OA
ATOM     32  O   UNL     1      42.184  21.431  -4.959  1.00  0.00    -0.550 OA
ENDBRANCH   1  30
BRANCH  27  33
ATOM     33  O   UNL     1      49.167  12.601  -4.628  1.00  0.00    -0.393 OA
ATOM     34  H   UNL     1      49.375  13.519  -4.325  1.00  0.00     0.210 HD
ENDBRANCH  27  33
TORSDOF 2
ENDMDL
MODEL 7
REMARK VINA RESULT:    -2.870      2.268      7.951
REMARK INTER + INTRA:          -2.896
REMARK INTER:                  -3.144
REMARK INTRA:                   0.248
REMARK UNBOUND:                 0.226
REMARK SMILES C[C@@H]1[C@@H](C)CC[C@]2(C(=O)[O-])CC[C@@]3(C)C(=CC[C@@H]4[C@]5(C)CC[C@H](O)C(C)(C)[C@H]5CC[C@]43C)[C@@H]12
REMARK SMILES IDX 7 1 6 2 11 3 33 4 5 5 12 6 15 7 2 8 3 9 13 10 16 11 1 12
REMARK SMILES IDX 4 13 14 14 31 15 17 16 18 17 30 18 32 19 19 20 29 21 28 22
REMARK SMILES IDX 21 23 20 24 25 25 22 26 23 27 26 28 27 29 8 30 9 31 10 32
REMARK SMILES IDX 24 33
REMARK H PARENT 24 34
REMARK Flexibility Score: inf
ROOT
ATOM      1  C   UNL     1      41.002  15.063  -4.685  1.00  0.00     0.017 C 
ATOM      2  C   UNL     1      39.837  14.777  -5.666  1.00  0.00     0.014 C 
ATOM      3  C   UNL     1      41.845  16.274  -5.240  1.00  0.00     0.014 C 
ATOM      4  C   UNL     1      41.902  13.779  -4.594  1.00  0.00     0.030 C 
ATOM      5  C   UNL     1      38.988  13.594  -5.198  1.00  0.00     0.004 C 
ATOM      6  C   UNL     1      43.373  16.026  -5.314  1.00  0.00     0.013 C 
ATOM      7  C   UNL     1      43.141  14.093  -3.723  1.00  0.00    -0.063 C 
ATOM      8  C   UNL     1      41.112  12.456  -4.275  1.00  0.00    -0.003 C 
ATOM      9  C   UNL     1      39.822  12.305  -5.146  1.00  0.00    -0.011 C 
ATOM     10  C   UNL     1      43.991  15.354  -4.039  1.00  0.00    -0.006 C 
ATOM     11  C   UNL     1      43.577  13.249  -2.759  1.00  0.00    -0.027 C 
ATOM     12  C   UNL     1      42.008  11.202  -4.499  1.00  0.00     0.008 C 
ATOM     13  C   UNL     1      38.945  11.139  -4.646  1.00  0.00     0.008 C 
ATOM     14  C   UNL     1      43.701  16.338  -2.852  1.00  0.00     0.017 C 
ATOM     15  C   UNL     1      45.614  15.000  -4.165  1.00  0.00    -0.020 C 
ATOM     16  C   UNL     1      45.050  13.147  -2.472  1.00  0.00     0.032 C 
ATOM     17  C   UNL     1      45.821  13.484  -3.774  1.00  0.00     0.006 C 
ATOM     18  C   UNL     1      46.237  15.211  -5.624  1.00  0.00     0.008 C 
ATOM     19  C   UNL     1      46.438  15.922  -3.185  1.00  0.00     0.012 C 
ATOM     20  C   UNL     1      47.256  12.803  -3.935  1.00  0.00    -0.025 C 
ATOM     21  C   UNL     1      47.239  14.133  -6.119  1.00  0.00     0.005 C 
ATOM     22  C   UNL     1      48.116  13.627  -4.962  1.00  0.00     0.003 C 
ATOM     23  C   UNL     1      48.067  12.737  -2.610  1.00  0.00     0.010 C 
ATOM     24  C   UNL     1      46.968  11.336  -4.419  1.00  0.00     0.012 C 
ATOM     25  C   UNL     1      49.555  13.075  -5.284  1.00  0.00    -0.006 C 
ATOM     26  C   UNL     1      49.495  12.163  -2.803  1.00  0.00     0.033 C 
ATOM     27  C   UNL     1      50.324  12.850  -3.924  1.00  0.00     0.120 C 
ATOM     28  C   UNL     1      49.541  11.772  -6.125  1.00  0.00     0.014 C 
ATOM     29  C   UNL     1      50.352  14.121  -6.125  1.00  0.00     0.014 C 
ENDROOT
BRANCH   1  30
ATOM     30  C   UNL     1      40.393  15.460  -3.339  1.00  0.00     0.048 C 
ATOM     31  O   UNL     1      40.110  14.597  -2.462  1.00  0.00    -0.550 OA
ATOM     32  O   UNL     1      40.147  16.802  -3.066  1.00  0.00    -0.550 OA
ENDBRANCH   1  30
BRANCH  27  33
ATOM     33  O   UNL     1      50.887  14.046  -3.427  1.00  0.00    -0.393 OA
ATOM     34  H   UNL     1      50.342  14.358  -2.662  1.00  0.00     0.210 HD
ENDBRANCH  27  33
TORSDOF 2
ENDMDL
MODEL 8
REMARK VINA RESULT:    -2.337      1.517      7.990
REMARK INTER + INTRA:          -2.317
REMARK INTER:                  -2.510
REMARK INTRA:                   0.194
REMARK UNBOUND:                 0.226
REMARK SMILES C[C@@H]1[C@@H](C)CC[C@]2(C(=O)[O-])CC[C@@]3(C)C(=CC[C@@H]4[C@]5(C)CC[C@H](O)C(C)(C)[C@H]5CC[C@]43C)[C@@H]12
REMARK SMILES IDX 7 1 6 2 11 3 33 4 5 5 12 6 15 7 2 8 3 9 13 10 16 11 1 12
REMARK SMILES IDX 4 13 14 14 31 15 17 16 18 17 30 18 32 19 19 20 29 21 28 22
REMARK SMILES IDX 21 23 20 24 25 25 22 26 23 27 26 28 27 29 8 30 9 31 10 32
REMARK SMILES IDX 24 33
REMARK H PARENT 24 34
REMARK Flexibility Score: inf
ROOT
ATOM      1  C   UNL     1      42.484  18.097  -4.726  1.00  0.00     0.017 C 
ATOM      2  C   UNL     1      41.609  18.659  -5.873  1.00  0.00     0.014 C 
ATOM      3  C   UNL     1      43.910  18.768  -4.801  1.00  0.00     0.014 C 
ATOM      4  C   UNL     1      42.612  16.543  -4.914  1.00  0.00     0.030 C 
ATOM      5  C   UNL     1      40.213  18.032  -5.873  1.00  0.00     0.004 C 
ATOM      6  C   UNL     1      45.100  17.776  -4.771  1.00  0.00     0.013 C 
ATOM      7  C   UNL     1      43.592  15.986  -3.854  1.00  0.00    -0.063 C 
ATOM      8  C   UNL     1      41.238  15.796  -5.090  1.00  0.00    -0.003 C 
ATOM      9  C   UNL     1      40.293  16.516  -6.107  1.00  0.00    -0.011 C 
ATOM     10  C   UNL     1      44.987  16.648  -3.688  1.00  0.00    -0.006 C 
ATOM     11  C   UNL     1      43.321  14.870  -3.138  1.00  0.00    -0.027 C 
ATOM     12  C   UNL     1      41.455  14.331  -5.569  1.00  0.00     0.008 C 
ATOM     13  C   UNL     1      38.875  15.910  -6.075  1.00  0.00     0.008 C 
ATOM     14  C   UNL     1      44.915  17.386  -2.305  1.00  0.00     0.017 C 
ATOM     15  C   UNL     1      46.221  15.529  -3.727  1.00  0.00    -0.020 C 
ATOM     16  C   UNL     1      44.444  13.958  -2.728  1.00  0.00     0.032 C 
ATOM     17  C   UNL     1      45.579  14.087  -3.778  1.00  0.00     0.006 C 
ATOM     18  C   UNL     1      47.208  15.662  -4.979  1.00  0.00     0.008 C 
ATOM     19  C   UNL     1      47.110  15.672  -2.432  1.00  0.00     0.012 C 
ATOM     20  C   UNL     1      46.506  12.802  -3.967  1.00  0.00    -0.025 C 
ATOM     21  C   UNL     1      47.665  14.338  -5.652  1.00  0.00     0.005 C 
ATOM     22  C   UNL     1      47.878  13.235  -4.602  1.00  0.00     0.003 C 
ATOM     23  C   UNL     1      46.831  12.066  -2.637  1.00  0.00     0.010 C 
ATOM     24  C   UNL     1      45.687  11.830  -4.890  1.00  0.00     0.012 C 
ATOM     25  C   UNL     1      48.912  12.086  -4.907  1.00  0.00    -0.006 C 
ATOM     26  C   UNL     1      47.812  10.879  -2.827  1.00  0.00     0.033 C 
ATOM     27  C   UNL     1      49.117  11.233  -3.594  1.00  0.00     0.120 C 
ATOM     28  C   UNL     1      48.489  11.176  -6.089  1.00  0.00     0.014 C 
ATOM     29  C   UNL     1      50.290  12.700  -5.307  1.00  0.00     0.014 C 
ENDROOT
BRANCH   1  30
ATOM     30  C   UNL     1      41.825  18.483  -3.401  1.00  0.00     0.048 C 
ATOM     31  O   UNL     1      41.205  17.637  -2.699  1.00  0.00    -0.550 OA
ATOM     32  O   UNL     1      41.911  19.797  -2.949  1.00  0.00    -0.550 OA
ENDBRANCH   1  30
BRANCH  27  33
ATOM     33  O   UNL     1      50.036  11.834  -2.707  1.00  0.00    -0.393 OA
ATOM     34  H   UNL     1      49.554  12.493  -2.150  1.00  0.00     0.210 HD
ENDBRANCH  27  33
TORSDOF 2
ENDMDL
