MODEL 1
REMARK VINA RESULT:    -4.210      0.000      0.000
REMARK INTER + INTRA:          -9.924
REMARK INTER:                  -8.148
REMARK INTRA:                  -1.775
REMARK UNBOUND:                -1.775
REMARK SMILES CCCCCCCCCCCCCCCCCC(=O)[O-]
REMARK SMILES IDX 10 1 11 2 12 3 13 4 14 5 15 6 16 7 17 8 18 9 19 10 20 11
REMARK SMILES IDX 9 12 8 13 7 14 6 15 5 16 4 17 3 18 2 19 1 20
REMARK H PARENT
REMARK Flexibility Score: inf
ROOT
ATOM      1  C   UNL     1      -5.028  -3.010   1.354  1.00  0.00     0.000 C 
ENDROOT
BRANCH   1   2
ATOM      2  C   UNL     1      -4.849  -4.532   1.182  1.00  0.00     0.000 C 
BRANCH   2   3
ATOM      3  C   UNL     1      -5.993  -5.395   1.741  1.00  0.00     0.000 C 
BRANCH   3   4
ATOM      4  C   UNL     1      -7.282  -5.294   0.905  1.00  0.00     0.000 C 
BRANCH   4   5
ATOM      5  C   UNL     1      -7.020  -5.459  -0.601  1.00  0.00     0.000 C 
BRANCH   5   6
ATOM      6  C   UNL     1      -7.956  -4.589  -1.459  1.00  0.00     0.000 C 
BRANCH   6   7
ATOM      7  C   UNL     1      -9.006  -3.845  -0.620  1.00  0.00     0.006 C 
BRANCH   7   8
ATOM      8  C   UNL     1     -10.439  -4.295  -0.928  1.00  0.00     0.053 C 
BRANCH   8   9
ATOM      9  C   UNL     1     -10.812  -5.471  -0.081  1.00  0.00     0.041 C 
ATOM     10  O   UNL     1     -10.816  -6.630  -0.574  1.00  0.00    -0.550 OA
ATOM     11  O   UNL     1     -11.197  -5.282   1.240  1.00  0.00    -0.550 OA
ENDBRANCH   8   9
ENDBRANCH   7   8
ENDBRANCH   6   7
ENDBRANCH   5   6
ENDBRANCH   4   5
ENDBRANCH   3   4
ENDBRANCH   2   3
ENDBRANCH   1   2
BRANCH   1  12
ATOM     12  C   UNL     1      -3.871  -2.296   2.075  1.00  0.00     0.000 C 
BRANCH  12  13
ATOM     13  C   UNL     1      -2.495  -2.885   1.718  1.00  0.00    -0.000 C 
BRANCH  13  14
ATOM     14  C   UNL     1      -1.800  -2.108   0.590  1.00  0.00    -0.000 C 
BRANCH  14  15
ATOM     15  C   UNL     1      -0.317  -2.493   0.435  1.00  0.00    -0.000 C 
BRANCH  15  16
ATOM     16  C   UNL     1       0.058  -3.715   1.301  1.00  0.00    -0.000 C 
BRANCH  16  17
ATOM     17  C   UNL     1       0.144  -5.028   0.504  1.00  0.00    -0.000 C 
BRANCH  17  18
ATOM     18  C   UNL     1      -1.122  -5.890   0.633  1.00  0.00    -0.000 C 
BRANCH  18  19
ATOM     19  C   UNL     1      -1.919  -5.968  -0.678  1.00  0.00    -0.003 C 
ATOM     20  C   UNL     1      -1.267  -5.178  -1.813  1.00  0.00     0.004 C 
ENDBRANCH  18  19
ENDBRANCH  17  18
ENDBRANCH  16  17
ENDBRANCH  15  16
ENDBRANCH  14  15
ENDBRANCH  13  14
ENDBRANCH  12  13
ENDBRANCH   1  12
TORSDOF 16
ENDMDL
MODEL 2
REMARK VINA RESULT:    -4.158      1.453      2.542
REMARK INTER + INTRA:          -9.823
REMARK INTER:                  -8.360
REMARK INTRA:                  -1.463
REMARK UNBOUND:                -1.775
REMARK SMILES CCCCCCCCCCCCCCCCCC(=O)[O-]
REMARK SMILES IDX 10 1 11 2 12 3 13 4 14 5 15 6 16 7 17 8 18 9 19 10 20 11
REMARK SMILES IDX 9 12 8 13 7 14 6 15 5 16 4 17 3 18 2 19 1 20
REMARK H PARENT
REMARK Flexibility Score: inf
ROOT
ATOM      1  C   UNL     1      -3.012  -2.105   1.481  1.00  0.00     0.000 C 
ENDROOT
BRANCH   1   2
ATOM      2  C   UNL     1      -4.346  -2.865   1.621  1.00  0.00     0.000 C 
BRANCH   2   3
ATOM      3  C   UNL     1      -4.228  -4.399   1.641  1.00  0.00     0.000 C 
BRANCH   3   4
ATOM      4  C   UNL     1      -5.452  -5.101   1.025  1.00  0.00     0.000 C 
BRANCH   4   5
ATOM      5  C   UNL     1      -6.523  -4.107   0.551  1.00  0.00     0.000 C 
BRANCH   5   6
ATOM      6  C   UNL     1      -7.736  -4.808  -0.085  1.00  0.00     0.000 C 
BRANCH   6   7
ATOM      7  C   UNL     1      -8.717  -3.819  -0.736  1.00  0.00     0.006 C 
BRANCH   7   8
ATOM      8  C   UNL     1     -10.181  -4.125  -0.394  1.00  0.00     0.053 C 
BRANCH   8   9
ATOM      9  C   UNL     1     -10.853  -4.812  -1.540  1.00  0.00     0.041 C 
ATOM     10  O   UNL     1     -12.104  -4.745  -1.673  1.00  0.00    -0.550 OA
ATOM     11  O   UNL     1     -10.104  -5.562  -2.438  1.00  0.00    -0.550 OA
ENDBRANCH   8   9
ENDBRANCH   7   8
ENDBRANCH   6   7
ENDBRANCH   5   6
ENDBRANCH   4   5
ENDBRANCH   3   4
ENDBRANCH   2   3
ENDBRANCH   1   2
BRANCH   1  12
ATOM     12  C   UNL     1      -1.752  -2.988   1.518  1.00  0.00     0.000 C 
BRANCH  12  13
ATOM     13  C   UNL     1      -0.684  -2.542   0.503  1.00  0.00    -0.000 C 
BRANCH  13  14
ATOM     14  C   UNL     1      -0.992  -3.028  -0.922  1.00  0.00    -0.000 C 
BRANCH  14  15
ATOM     15  C   UNL     1      -1.357  -4.523  -0.969  1.00  0.00    -0.000 C 
BRANCH  15  16
ATOM     16  C   UNL     1      -0.118  -5.429  -0.807  1.00  0.00    -0.000 C 
BRANCH  16  17
ATOM     17  C   UNL     1      -0.050  -6.137   0.557  1.00  0.00    -0.000 C 
BRANCH  17  18
ATOM     18  C   UNL     1       1.341  -6.716   0.862  1.00  0.00    -0.000 C 
BRANCH  18  19
ATOM     19  C   UNL     1       2.439  -5.642   0.864  1.00  0.00    -0.003 C 
ATOM     20  C   UNL     1       2.171  -4.524   1.873  1.00  0.00     0.004 C 
ENDBRANCH  18  19
ENDBRANCH  17  18
ENDBRANCH  16  17
ENDBRANCH  15  16
ENDBRANCH  14  15
ENDBRANCH  13  14
ENDBRANCH  12  13
ENDBRANCH   1  12
TORSDOF 16
ENDMDL
MODEL 3
REMARK VINA RESULT:    -4.158      2.097      4.151
REMARK INTER + INTRA:          -9.823
REMARK INTER:                  -8.067
REMARK INTRA:                  -1.756
REMARK UNBOUND:                -1.775
REMARK SMILES CCCCCCCCCCCCCCCCCC(=O)[O-]
REMARK SMILES IDX 10 1 11 2 12 3 13 4 14 5 15 6 16 7 17 8 18 9 19 10 20 11
REMARK SMILES IDX 9 12 8 13 7 14 6 15 5 16 4 17 3 18 2 19 1 20
REMARK H PARENT
REMARK Flexibility Score: inf
ROOT
ATOM      1  C   UNL     1      -7.653  -6.281  -0.363  1.00  0.00     0.000 C 
ENDROOT
BRANCH   1   2
ATOM      2  C   UNL     1      -8.978  -6.923   0.097  1.00  0.00     0.000 C 
BRANCH   2   3
ATOM      3  C   UNL     1      -9.714  -6.174   1.222  1.00  0.00     0.000 C 
BRANCH   3   4
ATOM      4  C   UNL     1     -11.159  -5.801   0.845  1.00  0.00     0.000 C 
BRANCH   4   5
ATOM      5  C   UNL     1     -11.276  -4.364   0.312  1.00  0.00     0.000 C 
BRANCH   5   6
ATOM      6  C   UNL     1     -11.832  -4.311  -1.121  1.00  0.00     0.000 C 
BRANCH   6   7
ATOM      7  C   UNL     1     -12.082  -5.709  -1.710  1.00  0.00     0.006 C 
BRANCH   7   8
ATOM      8  C   UNL     1     -11.672  -5.813  -3.185  1.00  0.00     0.053 C 
BRANCH   8   9
ATOM      9  C   UNL     1     -10.241  -6.235  -3.301  1.00  0.00     0.041 C 
ATOM     10  O   UNL     1      -9.334  -5.370  -3.425  1.00  0.00    -0.550 OA
ATOM     11  O   UNL     1      -9.913  -7.585  -3.315  1.00  0.00    -0.550 OA
ENDBRANCH   8   9
ENDBRANCH   7   8
ENDBRANCH   6   7
ENDBRANCH   5   6
ENDBRANCH   4   5
ENDBRANCH   3   4
ENDBRANCH   2   3
ENDBRANCH   1   2
BRANCH   1  12
ATOM     12  C   UNL     1      -7.643  -4.742  -0.368  1.00  0.00     0.000 C 
BRANCH  12  13
ATOM     13  C   UNL     1      -6.647  -4.151   0.646  1.00  0.00    -0.000 C 
BRANCH  13  14
ATOM     14  C   UNL     1      -5.366  -4.991   0.766  1.00  0.00    -0.000 C 
BRANCH  14  15
ATOM     15  C   UNL     1      -4.315  -4.335   1.680  1.00  0.00    -0.000 C 
BRANCH  15  16
ATOM     16  C   UNL     1      -4.431  -2.796   1.686  1.00  0.00    -0.000 C 
BRANCH  16  17
ATOM     17  C   UNL     1      -3.081  -2.079   1.511  1.00  0.00    -0.000 C 
BRANCH  17  18
ATOM     18  C   UNL     1      -1.896  -3.052   1.402  1.00  0.00    -0.000 C 
BRANCH  18  19
ATOM     19  C   UNL     1      -0.757  -2.499   0.532  1.00  0.00    -0.003 C 
ATOM     20  C   UNL     1      -1.037  -2.636  -0.965  1.00  0.00     0.004 C 
ENDBRANCH  18  19
ENDBRANCH  17  18
ENDBRANCH  16  17
ENDBRANCH  15  16
ENDBRANCH  14  15
ENDBRANCH  13  14
ENDBRANCH  12  13
ENDBRANCH   1  12
TORSDOF 16
ENDMDL
MODEL 4
REMARK VINA RESULT:    -4.140      2.879      7.883
REMARK INTER + INTRA:          -9.787
REMARK INTER:                  -8.447
REMARK INTRA:                  -1.340
REMARK UNBOUND:                -1.775
REMARK SMILES CCCCCCCCCCCCCCCCCC(=O)[O-]
REMARK SMILES IDX 10 1 11 2 12 3 13 4 14 5 15 6 16 7 17 8 18 9 19 10 20 11
REMARK SMILES IDX 9 12 8 13 7 14 6 15 5 16 4 17 3 18 2 19 1 20
REMARK H PARENT
REMARK Flexibility Score: inf
ROOT
ATOM      1  C   UNL     1      -3.734  -2.053   1.857  1.00  0.00     0.000 C 
ENDROOT
BRANCH   1   2
ATOM      2  C   UNL     1      -2.490  -2.891   1.500  1.00  0.00     0.000 C 
BRANCH   2   3
ATOM      3  C   UNL     1      -1.549  -2.259   0.459  1.00  0.00     0.000 C 
BRANCH   3   4
ATOM      4  C   UNL     1      -0.072  -2.629   0.686  1.00  0.00     0.000 C 
BRANCH   4   5
ATOM      5  C   UNL     1       0.092  -3.933   1.484  1.00  0.00     0.000 C 
BRANCH   5   6
ATOM      6  C   UNL     1       1.119  -4.887   0.848  1.00  0.00     0.000 C 
BRANCH   6   7
ATOM      7  C   UNL     1       0.459  -5.976  -0.013  1.00  0.00     0.006 C 
BRANCH   7   8
ATOM      8  C   UNL     1      -1.020  -6.191   0.334  1.00  0.00     0.053 C 
BRANCH   8   9
ATOM      9  C   UNL     1      -1.890  -5.790  -0.815  1.00  0.00     0.041 C 
ATOM     10  O   UNL     1      -3.095  -6.157  -0.855  1.00  0.00    -0.550 OA
ATOM     11  O   UNL     1      -1.361  -5.047  -1.862  1.00  0.00    -0.550 OA
ENDBRANCH   8   9
ENDBRANCH   7   8
ENDBRANCH   6   7
ENDBRANCH   5   6
ENDBRANCH   4   5
ENDBRANCH   3   4
ENDBRANCH   2   3
ENDBRANCH   1   2
BRANCH   1  12
ATOM     12  C   UNL     1      -5.082  -2.737   1.574  1.00  0.00     0.000 C 
BRANCH  12  13
ATOM     13  C   UNL     1      -4.968  -4.271   1.503  1.00  0.00    -0.000 C 
BRANCH  13  14
ATOM     14  C   UNL     1      -6.296  -4.940   1.115  1.00  0.00    -0.000 C 
BRANCH  14  15
ATOM     15  C   UNL     1      -7.078  -4.130   0.065  1.00  0.00    -0.000 C 
BRANCH  15  16
ATOM     16  C   UNL     1      -8.356  -4.862  -0.398  1.00  0.00    -0.000 C 
BRANCH  16  17
ATOM     17  C   UNL     1      -9.490  -3.912  -0.816  1.00  0.00    -0.000 C 
BRANCH  17  18
ATOM     18  C   UNL     1     -10.878  -4.569  -0.745  1.00  0.00    -0.000 C 
BRANCH  18  19
ATOM     19  C   UNL     1     -11.427  -4.634   0.688  1.00  0.00    -0.003 C 
ATOM     20  C   UNL     1     -11.263  -6.015   1.322  1.00  0.00     0.004 C 
ENDBRANCH  18  19
ENDBRANCH  17  18
ENDBRANCH  16  17
ENDBRANCH  15  16
ENDBRANCH  14  15
ENDBRANCH  13  14
ENDBRANCH  12  13
ENDBRANCH   1  12
TORSDOF 16
ENDMDL
MODEL 5
REMARK VINA RESULT:    -4.136      3.471      8.070
REMARK INTER + INTRA:          -9.780
REMARK INTER:                  -8.099
REMARK INTRA:                  -1.681
REMARK UNBOUND:                -1.775
REMARK SMILES CCCCCCCCCCCCCCCCCC(=O)[O-]
REMARK SMILES IDX 10 1 11 2 12 3 13 4 14 5 15 6 16 7 17 8 18 9 19 10 20 11
REMARK SMILES IDX 9 12 8 13 7 14 6 15 5 16 4 17 3 18 2 19 1 20
REMARK H PARENT
REMARK Flexibility Score: inf
ROOT
ATOM      1  C   UNL     1      -5.134  -5.686   0.396  1.00  0.00     0.000 C 
ENDROOT
BRANCH   1   2
ATOM      2  C   UNL     1      -3.743  -5.565   1.050  1.00  0.00     0.000 C 
BRANCH   2   3
ATOM      3  C   UNL     1      -3.639  -4.532   2.185  1.00  0.00     0.000 C 
BRANCH   3   4
ATOM      4  C   UNL     1      -4.079  -3.122   1.753  1.00  0.00     0.000 C 
BRANCH   4   5
ATOM      5  C   UNL     1      -2.901  -2.258   1.276  1.00  0.00     0.000 C 
BRANCH   5   6
ATOM      6  C   UNL     1      -1.540  -2.937   1.511  1.00  0.00     0.000 C 
BRANCH   6   7
ATOM      7  C   UNL     1      -0.567  -2.732   0.338  1.00  0.00     0.006 C 
BRANCH   7   8
ATOM      8  C   UNL     1      -1.132  -3.239  -0.995  1.00  0.00     0.053 C 
BRANCH   8   9
ATOM      9  C   UNL     1      -0.791  -4.683  -1.193  1.00  0.00     0.041 C 
ATOM     10  O   UNL     1      -1.357  -5.349  -2.100  1.00  0.00    -0.550 OA
ATOM     11  O   UNL     1       0.121  -5.304  -0.349  1.00  0.00    -0.550 OA
ENDBRANCH   8   9
ENDBRANCH   7   8
ENDBRANCH   6   7
ENDBRANCH   5   6
ENDBRANCH   4   5
ENDBRANCH   3   4
ENDBRANCH   2   3
ENDBRANCH   1   2
BRANCH   1  12
ATOM     12  C   UNL     1      -6.301  -5.873   1.380  1.00  0.00     0.000 C 
BRANCH  12  13
ATOM     13  C   UNL     1      -7.568  -5.110   0.952  1.00  0.00    -0.000 C 
BRANCH  13  14
ATOM     14  C   UNL     1      -7.300  -4.134  -0.204  1.00  0.00    -0.000 C 
BRANCH  14  15
ATOM     15  C   UNL     1      -8.598  -3.628  -0.861  1.00  0.00    -0.000 C 
BRANCH  15  16
ATOM     16  C   UNL     1      -9.442  -4.782  -1.441  1.00  0.00    -0.000 C 
BRANCH  16  17
ATOM     17  C   UNL     1     -10.956  -4.593  -1.246  1.00  0.00    -0.000 C 
BRANCH  17  18
ATOM     18  C   UNL     1     -11.360  -4.489   0.234  1.00  0.00    -0.000 C 
BRANCH  18  19
ATOM     19  C   UNL     1     -11.923  -5.807   0.786  1.00  0.00    -0.003 C 
ATOM     20  C   UNL     1     -10.930  -6.544   1.685  1.00  0.00     0.004 C 
ENDBRANCH  18  19
ENDBRANCH  17  18
ENDBRANCH  16  17
ENDBRANCH  15  16
ENDBRANCH  14  15
ENDBRANCH  13  14
ENDBRANCH  12  13
ENDBRANCH   1  12
TORSDOF 16
ENDMDL
MODEL 6
REMARK VINA RESULT:    -4.132      3.350      7.772
REMARK INTER + INTRA:          -9.773
REMARK INTER:                  -8.231
REMARK INTRA:                  -1.542
REMARK UNBOUND:                -1.775
REMARK SMILES CCCCCCCCCCCCCCCCCC(=O)[O-]
REMARK SMILES IDX 10 1 11 2 12 3 13 4 14 5 15 6 16 7 17 8 18 9 19 10 20 11
REMARK SMILES IDX 9 12 8 13 7 14 6 15 5 16 4 17 3 18 2 19 1 20
REMARK H PARENT
REMARK Flexibility Score: inf
ROOT
ATOM      1  C   UNL     1      -3.574  -1.998   1.961  1.00  0.00     0.000 C 
ENDROOT
BRANCH   1   2
ATOM      2  C   UNL     1      -2.200  -2.503   1.476  1.00  0.00     0.000 C 
BRANCH   2   3
ATOM      3  C   UNL     1      -1.740  -1.949   0.116  1.00  0.00     0.000 C 
BRANCH   3   4
ATOM      4  C   UNL     1      -0.873  -2.946  -0.673  1.00  0.00     0.000 C 
BRANCH   4   5
ATOM      5  C   UNL     1      -1.228  -4.409  -0.363  1.00  0.00     0.000 C 
BRANCH   5   6
ATOM      6  C   UNL     1      -0.021  -5.213   0.150  1.00  0.00     0.000 C 
BRANCH   6   7
ATOM      7  C   UNL     1       0.569  -4.631   1.445  1.00  0.00     0.006 C 
BRANCH   7   8
ATOM      8  C   UNL     1       0.611  -5.652   2.588  1.00  0.00     0.053 C 
BRANCH   8   9
ATOM      9  C   UNL     1      -0.759  -6.189   2.860  1.00  0.00     0.041 C 
ATOM     10  O   UNL     1      -1.648  -5.441   3.346  1.00  0.00    -0.550 OA
ATOM     11  O   UNL     1      -1.042  -7.527   2.616  1.00  0.00    -0.550 OA
ENDBRANCH   8   9
ENDBRANCH   7   8
ENDBRANCH   6   7
ENDBRANCH   5   6
ENDBRANCH   4   5
ENDBRANCH   3   4
ENDBRANCH   2   3
ENDBRANCH   1   2
BRANCH   1  12
ATOM     12  C   UNL     1      -4.779  -2.824   1.477  1.00  0.00     0.000 C 
BRANCH  12  13
ATOM     13  C   UNL     1      -4.685  -4.306   1.882  1.00  0.00    -0.000 C 
BRANCH  13  14
ATOM     14  C   UNL     1      -5.375  -5.234   0.870  1.00  0.00    -0.000 C 
BRANCH  14  15
ATOM     15  C   UNL     1      -6.649  -5.883   1.441  1.00  0.00    -0.000 C 
BRANCH  15  16
ATOM     16  C   UNL     1      -7.932  -5.211   0.906  1.00  0.00    -0.000 C 
BRANCH  16  17
ATOM     17  C   UNL     1      -7.703  -4.379  -0.368  1.00  0.00    -0.000 C 
BRANCH  17  18
ATOM     18  C   UNL     1      -8.989  -3.716  -0.888  1.00  0.00    -0.000 C 
BRANCH  18  19
ATOM     19  C   UNL     1     -10.259  -4.358  -0.309  1.00  0.00    -0.003 C 
ATOM     20  C   UNL     1     -11.388  -4.463  -1.335  1.00  0.00     0.004 C 
ENDBRANCH  18  19
ENDBRANCH  17  18
ENDBRANCH  16  17
ENDBRANCH  15  16
ENDBRANCH  14  15
ENDBRANCH  13  14
ENDBRANCH  12  13
ENDBRANCH   1  12
TORSDOF 16
ENDMDL
MODEL 7
REMARK VINA RESULT:    -4.112      1.226      2.272
REMARK INTER + INTRA:          -9.734
REMARK INTER:                  -8.065
REMARK INTRA:                  -1.669
REMARK UNBOUND:                -1.775
REMARK SMILES CCCCCCCCCCCCCCCCCC(=O)[O-]
REMARK SMILES IDX 10 1 11 2 12 3 13 4 14 5 15 6 16 7 17 8 18 9 19 10 20 11
REMARK SMILES IDX 9 12 8 13 7 14 6 15 5 16 4 17 3 18 2 19 1 20
REMARK H PARENT
REMARK Flexibility Score: inf
ROOT
ATOM      1  C   UNL     1      -4.969  -5.250   0.956  1.00  0.00     0.000 C 
ENDROOT
BRANCH   1   2
ATOM      2  C   UNL     1      -6.356  -5.923   0.929  1.00  0.00     0.000 C 
BRANCH   2   3
ATOM      3  C   UNL     1      -7.550  -4.961   0.800  1.00  0.00     0.000 C 
BRANCH   3   4
ATOM      4  C   UNL     1      -7.638  -4.300  -0.587  1.00  0.00     0.000 C 
BRANCH   4   5
ATOM      5  C   UNL     1      -9.000  -3.632  -0.835  1.00  0.00     0.000 C 
BRANCH   5   6
ATOM      6  C   UNL     1     -10.139  -4.655  -0.986  1.00  0.00     0.000 C 
BRANCH   6   7
ATOM      7  C   UNL     1     -11.239  -4.476   0.073  1.00  0.00     0.006 C 
BRANCH   7   8
ATOM      8  C   UNL     1     -11.219  -5.577   1.140  1.00  0.00     0.053 C 
BRANCH   8   9
ATOM      9  C   UNL     1     -11.071  -6.922   0.501  1.00  0.00     0.041 C 
ATOM     10  O   UNL     1     -10.009  -7.583   0.654  1.00  0.00    -0.550 OA
ATOM     11  O   UNL     1     -12.088  -7.428  -0.299  1.00  0.00    -0.550 OA
ENDBRANCH   8   9
ENDBRANCH   7   8
ENDBRANCH   6   7
ENDBRANCH   5   6
ENDBRANCH   4   5
ENDBRANCH   3   4
ENDBRANCH   2   3
ENDBRANCH   1   2
BRANCH   1  12
ATOM     12  C   UNL     1      -4.199  -5.401   2.280  1.00  0.00     0.000 C 
BRANCH  12  13
ATOM     13  C   UNL     1      -3.446  -4.119   2.679  1.00  0.00    -0.000 C 
BRANCH  13  14
ATOM     14  C   UNL     1      -3.920  -2.891   1.886  1.00  0.00    -0.000 C 
BRANCH  14  15
ATOM     15  C   UNL     1      -2.752  -2.114   1.251  1.00  0.00    -0.000 C 
BRANCH  15  16
ATOM     16  C   UNL     1      -1.393  -2.804   1.497  1.00  0.00    -0.000 C 
BRANCH  16  17
ATOM     17  C   UNL     1      -0.440  -2.730   0.292  1.00  0.00    -0.000 C 
BRANCH  17  18
ATOM     18  C   UNL     1      -1.051  -3.317  -0.991  1.00  0.00    -0.000 C 
BRANCH  18  19
ATOM     19  C   UNL     1      -0.746  -4.813  -1.158  1.00  0.00    -0.003 C 
ATOM     20  C   UNL     1      -1.991  -5.689  -1.023  1.00  0.00     0.004 C 
ENDBRANCH  18  19
ENDBRANCH  17  18
ENDBRANCH  16  17
ENDBRANCH  15  16
ENDBRANCH  14  15
ENDBRANCH  13  14
ENDBRANCH  12  13
ENDBRANCH   1  12
TORSDOF 16
ENDMDL
MODEL 8
REMARK VINA RESULT:    -4.092      3.953      8.586
REMARK INTER + INTRA:          -9.695
REMARK INTER:                  -8.026
REMARK INTRA:                  -1.669
REMARK UNBOUND:                -1.775
REMARK SMILES CCCCCCCCCCCCCCCCCC(=O)[O-]
REMARK SMILES IDX 10 1 11 2 12 3 13 4 14 5 15 6 16 7 17 8 18 9 19 10 20 11
REMARK SMILES IDX 9 12 8 13 7 14 6 15 5 16 4 17 3 18 2 19 1 20
REMARK H PARENT
REMARK Flexibility Score: inf
ROOT
ATOM      1  C   UNL     1      -7.601  -3.617  -0.321  1.00  0.00     0.000 C 
ENDROOT
BRANCH   1   2
ATOM      2  C   UNL     1      -6.991  -4.792   0.469  1.00  0.00     0.000 C 
BRANCH   2   3
ATOM      3  C   UNL     1      -5.612  -4.517   1.095  1.00  0.00     0.000 C 
BRANCH   3   4
ATOM      4  C   UNL     1      -5.352  -3.019   1.333  1.00  0.00     0.000 C 
BRANCH   4   5
ATOM      5  C   UNL     1      -4.137  -2.770   2.241  1.00  0.00     0.000 C 
BRANCH   5   6
ATOM      6  C   UNL     1      -2.837  -3.350   1.657  1.00  0.00     0.000 C 
BRANCH   6   7
ATOM      7  C   UNL     1      -1.927  -2.269   1.052  1.00  0.00     0.006 C 
BRANCH   7   8
ATOM      8  C   UNL     1      -1.203  -2.745  -0.214  1.00  0.00     0.053 C 
BRANCH   8   9
ATOM      9  C   UNL     1      -0.215  -3.818   0.119  1.00  0.00     0.041 C 
ATOM     10  O   UNL     1      -0.226  -4.908  -0.513  1.00  0.00    -0.550 OA
ATOM     11  O   UNL     1       0.690  -3.632   1.157  1.00  0.00    -0.550 OA
ENDBRANCH   8   9
ENDBRANCH   7   8
ENDBRANCH   6   7
ENDBRANCH   5   6
ENDBRANCH   4   5
ENDBRANCH   3   4
ENDBRANCH   2   3
ENDBRANCH   1   2
BRANCH   1  12
ATOM     12  C   UNL     1      -9.069  -3.806  -0.739  1.00  0.00     0.000 C 
BRANCH  12  13
ATOM     13  C   UNL     1      -9.799  -4.859   0.115  1.00  0.00    -0.000 C 
BRANCH  13  14
ATOM     14  C   UNL     1     -11.267  -4.485   0.376  1.00  0.00    -0.000 C 
BRANCH  14  15
ATOM     15  C   UNL     1     -12.125  -4.541  -0.902  1.00  0.00    -0.000 C 
BRANCH  15  16
ATOM     16  C   UNL     1     -12.035  -5.913  -1.601  1.00  0.00    -0.000 C 
BRANCH  16  17
ATOM     17  C   UNL     1     -11.748  -5.816  -3.109  1.00  0.00    -0.000 C 
BRANCH  17  18
ATOM     18  C   UNL     1     -10.258  -5.985  -3.447  1.00  0.00    -0.000 C 
BRANCH  18  19
ATOM     19  C   UNL     1      -9.646  -7.239  -2.803  1.00  0.00    -0.003 C 
ATOM     20  C   UNL     1      -8.186  -7.041  -2.395  1.00  0.00     0.004 C 
ENDBRANCH  18  19
ENDBRANCH  17  18
ENDBRANCH  16  17
ENDBRANCH  15  16
ENDBRANCH  14  15
ENDBRANCH  13  14
ENDBRANCH  12  13
ENDBRANCH   1  12
TORSDOF 16
ENDMDL
MODEL 9
REMARK VINA RESULT:    -4.008      1.439      2.280
REMARK INTER + INTRA:          -9.533
REMARK INTER:                  -7.658
REMARK INTRA:                  -1.875
REMARK UNBOUND:                -1.775
REMARK SMILES CCCCCCCCCCCCCCCCCC(=O)[O-]
REMARK SMILES IDX 10 1 11 2 12 3 13 4 14 5 15 6 16 7 17 8 18 9 19 10 20 11
REMARK SMILES IDX 9 12 8 13 7 14 6 15 5 16 4 17 3 18 2 19 1 20
REMARK H PARENT
REMARK Flexibility Score: inf
ROOT
ATOM      1  C   UNL     1      -4.224  -5.443   0.969  1.00  0.00     0.000 C 
ENDROOT
BRANCH   1   2
ATOM      2  C   UNL     1      -5.538  -6.077   0.468  1.00  0.00     0.000 C 
BRANCH   2   3
ATOM      3  C   UNL     1      -6.705  -6.046   1.471  1.00  0.00     0.000 C 
BRANCH   3   4
ATOM      4  C   UNL     1      -7.929  -5.279   0.939  1.00  0.00     0.000 C 
BRANCH   4   5
ATOM      5  C   UNL     1      -7.624  -4.507  -0.354  1.00  0.00     0.000 C 
BRANCH   5   6
ATOM      6  C   UNL     1      -8.827  -3.683  -0.846  1.00  0.00     0.000 C 
BRANCH   6   7
ATOM      7  C   UNL     1     -10.168  -4.225  -0.323  1.00  0.00     0.006 C 
BRANCH   7   8
ATOM      8  C   UNL     1     -11.132  -4.611  -1.452  1.00  0.00     0.053 C 
BRANCH   8   9
ATOM      9  C   UNL     1     -10.953  -6.050  -1.824  1.00  0.00     0.041 C 
ATOM     10  O   UNL     1     -11.369  -6.473  -2.935  1.00  0.00    -0.550 OA
ATOM     11  O   UNL     1     -10.365  -6.932  -0.926  1.00  0.00    -0.550 OA
ENDBRANCH   8   9
ENDBRANCH   7   8
ENDBRANCH   6   7
ENDBRANCH   5   6
ENDBRANCH   4   5
ENDBRANCH   3   4
ENDBRANCH   2   3
ENDBRANCH   1   2
BRANCH   1  12
ATOM     12  C   UNL     1      -4.185  -5.131   2.475  1.00  0.00     0.000 C 
BRANCH  12  13
ATOM     13  C   UNL     1      -3.516  -3.780   2.785  1.00  0.00    -0.000 C 
BRANCH  13  14
ATOM     14  C   UNL     1      -3.823  -2.717   1.718  1.00  0.00    -0.000 C 
BRANCH  14  15
ATOM     15  C   UNL     1      -2.569  -1.934   1.289  1.00  0.00    -0.000 C 
BRANCH  15  16
ATOM     16  C   UNL     1      -1.636  -2.779   0.395  1.00  0.00    -0.000 C 
BRANCH  16  17
ATOM     17  C   UNL     1      -0.187  -2.843   0.909  1.00  0.00    -0.000 C 
BRANCH  17  18
ATOM     18  C   UNL     1       0.402  -4.263   0.861  1.00  0.00    -0.000 C 
BRANCH  18  19
ATOM     19  C   UNL     1      -0.509  -5.302   1.532  1.00  0.00    -0.003 C 
ATOM     20  C   UNL     1      -0.025  -5.699   2.927  1.00  0.00     0.004 C 
ENDBRANCH  18  19
ENDBRANCH  17  18
ENDBRANCH  16  17
ENDBRANCH  15  16
ENDBRANCH  14  15
ENDBRANCH  13  14
ENDBRANCH  12  13
ENDBRANCH   1  12
TORSDOF 16
ENDMDL
