MODEL 1
REMARK VINA RESULT:     5.636      0.000      0.000
REMARK INTER + INTRA:           7.271
REMARK INTER:                   6.954
REMARK INTRA:                   0.317
REMARK UNBOUND:                 0.317
REMARK SMILES Oc1cc(O)c2cc(O)c(-c3cc(O)c(O)c(O)c3)[o+]c2c1
REMARK SMILES IDX 10 1 20 2 21 3 22 4 2 5 3 6 4 7 6 8 7 9 8 10 11 11 12 12
REMARK SMILES IDX 13 13 19 14 15 15 17 16 14 17 16 19 18 21 9 23 1 25 5 27
REMARK H PARENT 14 18 16 20 18 22 9 24 1 26 5 28
REMARK Flexibility Score: inf
ROOT
ATOM      1  C   UNL     1      27.158  18.767  35.304  1.00  0.00     0.402 A 
ATOM      2  O   UNL     1      26.053  19.471  35.075  1.00  0.00    -0.202 OA
ATOM      3  C   UNL     1      24.889  19.213  35.663  1.00  0.00     0.368 A 
ATOM      4  C   UNL     1      23.783  20.012  35.360  1.00  0.00     0.162 A 
ATOM      5  C   UNL     1      22.550  19.768  35.964  1.00  0.00     0.128 A 
ATOM      6  C   UNL     1      22.418  18.717  36.879  1.00  0.00     0.093 A 
ATOM      7  C   UNL     1      23.511  17.902  37.199  1.00  0.00     0.136 A 
ATOM      8  C   UNL     1      24.766  18.146  36.586  1.00  0.00     0.125 A 
ATOM      9  C   UNL     1      25.913  17.373  36.835  1.00  0.00     0.078 A 
ATOM     10  C   UNL     1      27.115  17.672  36.188  1.00  0.00     0.223 A 
ENDROOT
BRANCH   1  11
ATOM     11  C   UNL     1      28.397  19.158  34.594  1.00  0.00     0.091 A 
ATOM     12  C   UNL     1      28.355  19.843  33.371  1.00  0.00     0.068 A 
ATOM     13  C   UNL     1      29.538  20.185  32.704  1.00  0.00     0.162 A 
ATOM     14  C   UNL     1      29.642  18.788  35.125  1.00  0.00     0.068 A 
ATOM     15  C   UNL     1      30.782  19.834  33.248  1.00  0.00     0.200 A 
ATOM     16  C   UNL     1      30.834  19.123  34.471  1.00  0.00     0.162 A 
BRANCH  13  17
ATOM     17  O   UNL     1      29.486  20.872  31.493  1.00  0.00    -0.504 OA
ATOM     18  H   UNL     1      30.312  21.000  30.919  1.00  0.00     0.293 HD
ENDBRANCH  13  17
BRANCH  15  19
ATOM     19  O   UNL     1      31.932  20.205  32.547  1.00  0.00    -0.502 OA
ATOM     20  H   UNL     1      32.825  19.744  32.640  1.00  0.00     0.293 HD
ENDBRANCH  15  19
BRANCH  16  21
ATOM     21  O   UNL     1      32.034  18.732  35.066  1.00  0.00    -0.504 OA
ATOM     22  H   UNL     1      32.656  18.035  34.680  1.00  0.00     0.293 HD
ENDBRANCH  16  21
ENDBRANCH   1  11
BRANCH  10  23
ATOM     23  O   UNL     1      28.240  16.875  36.398  1.00  0.00    -0.500 OA
ATOM     24  H   UNL     1      28.302  15.934  36.029  1.00  0.00     0.294 HD
ENDBRANCH  10  23
BRANCH   5  25
ATOM     25  O   UNL     1      21.458  20.574  35.649  1.00  0.00    -0.507 OA
ATOM     26  H   UNL     1      20.848  20.361  34.869  1.00  0.00     0.293 HD
ENDBRANCH   5  25
BRANCH   7  27
ATOM     27  O   UNL     1      23.300  16.875  38.125  1.00  0.00    -0.507 OA
ATOM     28  H   UNL     1      22.418  16.406  38.265  1.00  0.00     0.293 HD
ENDBRANCH   7  27
TORSDOF 7
ENDMDL
MODEL 2
REMARK VINA RESULT:     7.575      1.600      7.157
REMARK INTER + INTRA:           9.663
REMARK INTER:                   9.921
REMARK INTRA:                  -0.258
REMARK UNBOUND:                 0.317
REMARK SMILES Oc1cc(O)c2cc(O)c(-c3cc(O)c(O)c(O)c3)[o+]c2c1
REMARK SMILES IDX 10 1 20 2 21 3 22 4 2 5 3 6 4 7 6 8 7 9 8 10 11 11 12 12
REMARK SMILES IDX 13 13 19 14 15 15 17 16 14 17 16 19 18 21 9 23 1 25 5 27
REMARK H PARENT 14 18 16 20 18 22 9 24 1 26 5 28
REMARK Flexibility Score: inf
ROOT
ATOM      1  C   UNL     1      26.513  19.465  34.385  1.00  0.00     0.402 A 
ATOM      2  O   UNL     1      27.604  19.990  34.937  1.00  0.00    -0.202 OA
ATOM      3  C   UNL     1      28.680  20.337  34.238  1.00  0.00     0.368 A 
ATOM      4  C   UNL     1      29.777  20.884  34.907  1.00  0.00     0.162 A 
ATOM      5  C   UNL     1      30.919  21.261  34.200  1.00  0.00     0.128 A 
ATOM      6  C   UNL     1      30.967  21.089  32.811  1.00  0.00     0.093 A 
ATOM      7  C   UNL     1      29.880  20.543  32.118  1.00  0.00     0.136 A 
ATOM      8  C   UNL     1      28.718  20.157  32.834  1.00  0.00     0.125 A 
ATOM      9  C   UNL     1      27.586  19.589  32.224  1.00  0.00     0.078 A 
ATOM     10  C   UNL     1      26.479  19.229  32.998  1.00  0.00     0.223 A 
ENDROOT
BRANCH   1  11
ATOM     11  C   UNL     1      25.374  19.128  35.269  1.00  0.00     0.091 A 
ATOM     12  C   UNL     1      24.139  19.785  35.153  1.00  0.00     0.068 A 
ATOM     13  C   UNL     1      23.081  19.468  36.014  1.00  0.00     0.162 A 
ATOM     14  C   UNL     1      25.545  18.173  36.282  1.00  0.00     0.068 A 
ATOM     15  C   UNL     1      23.247  18.496  37.011  1.00  0.00     0.200 A 
ATOM     16  C   UNL     1      24.496  17.845  37.150  1.00  0.00     0.162 A 
BRANCH  13  17
ATOM     17  O   UNL     1      21.856  20.120  35.887  1.00  0.00    -0.504 OA
ATOM     18  H   UNL     1      21.782  21.129  35.948  1.00  0.00     0.293 HD
ENDBRANCH  13  17
BRANCH  15  19
ATOM     19  O   UNL     1      22.157  18.213  37.838  1.00  0.00    -0.502 OA
ATOM     20  H   UNL     1      21.320  18.775  37.883  1.00  0.00     0.293 HD
ENDBRANCH  15  19
BRANCH  16  21
ATOM     21  O   UNL     1      24.738  16.877  38.125  1.00  0.00    -0.504 OA
ATOM     22  H   UNL     1      25.379  16.998  38.896  1.00  0.00     0.293 HD
ENDBRANCH  16  21
ENDBRANCH   1  11
BRANCH  10  23
ATOM     23  O   UNL     1      25.377  18.620  32.400  1.00  0.00    -0.500 OA
ATOM     24  H   UNL     1      25.063  17.697  32.677  1.00  0.00     0.294 HD
ENDBRANCH  10  23
BRANCH   5  25
ATOM     25  O   UNL     1      32.004  21.805  34.884  1.00  0.00    -0.507 OA
ATOM     26  H   UNL     1      32.021  22.778  35.165  1.00  0.00     0.293 HD
ENDBRANCH   5  25
BRANCH   7  27
ATOM     27  O   UNL     1      30.003  20.407  30.731  1.00  0.00    -0.507 OA
ATOM     28  H   UNL     1      29.740  21.116  30.063  1.00  0.00     0.293 HD
ENDBRANCH   7  27
TORSDOF 7
ENDMDL
MODEL 3
REMARK VINA RESULT:     8.155      0.968      7.041
REMARK INTER + INTRA:          10.379
REMARK INTER:                  10.030
REMARK INTRA:                   0.349
REMARK UNBOUND:                 0.317
REMARK SMILES Oc1cc(O)c2cc(O)c(-c3cc(O)c(O)c(O)c3)[o+]c2c1
REMARK SMILES IDX 10 1 20 2 21 3 22 4 2 5 3 6 4 7 6 8 7 9 8 10 11 11 12 12
REMARK SMILES IDX 13 13 19 14 15 15 17 16 14 17 16 19 18 21 9 23 1 25 5 27
REMARK H PARENT 14 18 16 20 18 22 9 24 1 26 5 28
REMARK Flexibility Score: inf
ROOT
ATOM      1  C   UNL     1      26.730  18.782  35.324  1.00  0.00     0.402 A 
ATOM      2  O   UNL     1      27.033  19.621  34.337  1.00  0.00    -0.202 OA
ATOM      3  C   UNL     1      28.232  19.671  33.764  1.00  0.00     0.368 A 
ATOM      4  C   UNL     1      28.454  20.585  32.731  1.00  0.00     0.162 A 
ATOM      5  C   UNL     1      29.700  20.657  32.108  1.00  0.00     0.128 A 
ATOM      6  C   UNL     1      30.735  19.809  32.520  1.00  0.00     0.093 A 
ATOM      7  C   UNL     1      30.537  18.884  33.553  1.00  0.00     0.136 A 
ATOM      8  C   UNL     1      29.272  18.809  34.189  1.00  0.00     0.125 A 
ATOM      9  C   UNL     1      28.987  17.923  35.242  1.00  0.00     0.078 A 
ATOM     10  C   UNL     1      27.716  17.910  35.823  1.00  0.00     0.223 A 
ENDROOT
BRANCH   1  11
ATOM     11  C   UNL     1      25.356  18.816  35.874  1.00  0.00     0.091 A 
ATOM     12  C   UNL     1      24.896  17.824  36.753  1.00  0.00     0.068 A 
ATOM     13  C   UNL     1      23.585  17.861  37.245  1.00  0.00     0.162 A 
ATOM     14  C   UNL     1      24.474  19.827  35.467  1.00  0.00     0.068 A 
ATOM     15  C   UNL     1      22.712  18.887  36.854  1.00  0.00     0.200 A 
ATOM     16  C   UNL     1      23.161  19.878  35.950  1.00  0.00     0.162 A 
BRANCH  13  17
ATOM     17  O   UNL     1      23.138  16.876  38.124  1.00  0.00    -0.504 OA
ATOM     18  H   UNL     1      23.599  16.706  39.011  1.00  0.00     0.293 HD
ENDBRANCH  13  17
BRANCH  15  19
ATOM     19  O   UNL     1      21.418  18.881  37.380  1.00  0.00    -0.502 OA
ATOM     20  H   UNL     1      21.165  18.451  38.258  1.00  0.00     0.293 HD
ENDBRANCH  15  19
BRANCH  16  21
ATOM     21  O   UNL     1      22.346  20.922  35.508  1.00  0.00    -0.504 OA
ATOM     22  H   UNL     1      22.229  21.796  36.000  1.00  0.00     0.293 HD
ENDBRANCH  16  21
ENDBRANCH   1  11
BRANCH  10  23
ATOM     23  O   UNL     1      27.448  17.066  36.900  1.00  0.00    -0.500 OA
ATOM     24  H   UNL     1      28.187  16.711  37.496  1.00  0.00     0.294 HD
ENDBRANCH  10  23
BRANCH   5  25
ATOM     25  O   UNL     1      29.903  21.576  31.081  1.00  0.00    -0.507 OA
ATOM     26  H   UNL     1      29.135  21.919  30.516  1.00  0.00     0.293 HD
ENDBRANCH   5  25
BRANCH   7  27
ATOM     27  O   UNL     1      31.619  18.070  33.904  1.00  0.00    -0.507 OA
ATOM     28  H   UNL     1      31.533  17.135  34.271  1.00  0.00     0.293 HD
ENDBRANCH   7  27
TORSDOF 7
ENDMDL
MODEL 4
REMARK VINA RESULT:     8.473      4.092      7.646
REMARK INTER + INTRA:          10.771
REMARK INTER:                  10.984
REMARK INTRA:                  -0.213
REMARK UNBOUND:                 0.317
REMARK SMILES Oc1cc(O)c2cc(O)c(-c3cc(O)c(O)c(O)c3)[o+]c2c1
REMARK SMILES IDX 10 1 20 2 21 3 22 4 2 5 3 6 4 7 6 8 7 9 8 10 11 11 12 12
REMARK SMILES IDX 13 13 19 14 15 15 17 16 14 17 16 19 18 21 9 23 1 25 5 27
REMARK H PARENT 14 18 16 20 18 22 9 24 1 26 5 28
REMARK Flexibility Score: inf
ROOT
ATOM      1  C   UNL     1      22.001  21.939  35.800  1.00  0.00     0.402 A 
ATOM      2  O   UNL     1      21.710  22.185  34.525  1.00  0.00    -0.202 OA
ATOM      3  C   UNL     1      21.208  23.340  34.101  1.00  0.00     0.368 A 
ATOM      4  C   UNL     1      20.937  23.504  32.740  1.00  0.00     0.162 A 
ATOM      5  C   UNL     1      20.414  24.707  32.265  1.00  0.00     0.128 A 
ATOM      6  C   UNL     1      20.158  25.756  33.156  1.00  0.00     0.093 A 
ATOM      7  C   UNL     1      20.421  25.616  34.524  1.00  0.00     0.136 A 
ATOM      8  C   UNL     1      20.952  24.394  35.011  1.00  0.00     0.125 A 
ATOM      9  C   UNL     1      21.233  24.159  36.368  1.00  0.00     0.078 A 
ATOM     10  C   UNL     1      21.751  22.926  36.773  1.00  0.00     0.223 A 
ENDROOT
BRANCH   1  11
ATOM     11  C   UNL     1      22.564  20.616  36.148  1.00  0.00     0.091 A 
ATOM     12  C   UNL     1      21.871  19.719  36.974  1.00  0.00     0.068 A 
ATOM     13  C   UNL     1      22.431  18.480  37.309  1.00  0.00     0.162 A 
ATOM     14  C   UNL     1      23.844  20.268  35.689  1.00  0.00     0.068 A 
ATOM     15  C   UNL     1      23.701  18.126  36.831  1.00  0.00     0.200 A 
ATOM     16  C   UNL     1      24.417  19.033  36.015  1.00  0.00     0.162 A 
BRANCH  13  17
ATOM     17  O   UNL     1      21.732  17.592  38.125  1.00  0.00    -0.504 OA
ATOM     18  H   UNL     1      21.631  16.613  37.881  1.00  0.00     0.293 HD
ENDBRANCH  13  17
BRANCH  15  19
ATOM     19  O   UNL     1      24.211  16.875  37.189  1.00  0.00    -0.502 OA
ATOM     20  H   UNL     1      24.183  16.500  38.126  1.00  0.00     0.293 HD
ENDBRANCH  15  19
BRANCH  16  21
ATOM     21  O   UNL     1      25.689  18.754  35.513  1.00  0.00    -0.504 OA
ATOM     22  H   UNL     1      26.330  19.457  35.172  1.00  0.00     0.293 HD
ENDBRANCH  16  21
ENDBRANCH   1  11
BRANCH  10  23
ATOM     23  O   UNL     1      21.984  22.675  38.125  1.00  0.00    -0.500 OA
ATOM     24  H   UNL     1      22.785  23.064  38.609  1.00  0.00     0.294 HD
ENDBRANCH  10  23
BRANCH   5  25
ATOM     25  O   UNL     1      20.150  24.852  30.905  1.00  0.00    -0.507 OA
ATOM     26  H   UNL     1      20.896  24.904  30.221  1.00  0.00     0.293 HD
ENDBRANCH   5  25
BRANCH   7  27
ATOM     27  O   UNL     1      20.142  26.711  35.349  1.00  0.00    -0.507 OA
ATOM     28  H   UNL     1      20.816  27.157  35.952  1.00  0.00     0.293 HD
ENDBRANCH   7  27
TORSDOF 7
ENDMDL
