MODEL 1
REMARK VINA RESULT:    -4.856      0.000      0.000
REMARK INTER + INTRA:          -7.061
REMARK INTER:                  -6.559
REMARK INTRA:                  -0.502
REMARK UNBOUND:                -0.502
REMARK SMILES CCCCCCC=CC(=O)[O-]
REMARK SMILES IDX 5 1 6 2 7 3 8 4 9 5 10 6 11 7 4 8 3 9 2 10 1 11
REMARK H PARENT
REMARK Flexibility Score: inf
ROOT
ATOM      1  C   UNL     1     -13.678   2.232 -32.861  1.00  0.00     0.004 C 
ENDROOT
BRANCH   1   2
ATOM      2  C   UNL     1     -14.974   3.059 -32.947  1.00  0.00     0.027 C 
BRANCH   2   3
ATOM      3  C   UNL     1     -16.193   2.270 -32.548  1.00  0.00    -0.025 C 
ATOM      4  C   UNL     1     -16.998   1.585 -33.378  1.00  0.00     0.020 C 
BRANCH   4   5
ATOM      5  C   UNL     1     -16.891   1.508 -34.850  1.00  0.00     0.064 C 
ATOM      6  O   UNL     1     -17.336   2.415 -35.601  1.00  0.00    -0.545 OA
ATOM      7  O   UNL     1     -16.308   0.386 -35.422  1.00  0.00    -0.545 OA
ENDBRANCH   4   5
ENDBRANCH   2   3
ENDBRANCH   1   2
BRANCH   1   8
ATOM      8  C   UNL     1     -12.949   2.051 -34.207  1.00  0.00     0.000 C 
BRANCH   8   9
ATOM      9  C   UNL     1     -12.868   0.580 -34.647  1.00  0.00    -0.000 C 
BRANCH   9  10
ATOM     10  C   UNL     1     -12.688   0.431 -36.166  1.00  0.00    -0.003 C 
ATOM     11  C   UNL     1     -11.383   1.046 -36.673  1.00  0.00     0.004 C 
ENDBRANCH   9  10
ENDBRANCH   8   9
ENDBRANCH   1   8
TORSDOF 6
ENDMDL
MODEL 2
REMARK VINA RESULT:    -4.856      2.390      5.041
REMARK INTER + INTRA:          -7.061
REMARK INTER:                  -6.511
REMARK INTRA:                  -0.549
REMARK UNBOUND:                -0.502
REMARK SMILES CCCCCCC=CC(=O)[O-]
REMARK SMILES IDX 5 1 6 2 7 3 8 4 9 5 10 6 11 7 4 8 3 9 2 10 1 11
REMARK H PARENT
REMARK Flexibility Score: inf
ROOT
ATOM      1  C   UNL     1     -15.072   1.500 -37.498  1.00  0.00     0.004 C 
ENDROOT
BRANCH   1   2
ATOM      2  C   UNL     1     -13.582   1.885 -37.552  1.00  0.00     0.027 C 
BRANCH   2   3
ATOM      3  C   UNL     1     -12.670   0.712 -37.304  1.00  0.00    -0.025 C 
ATOM      4  C   UNL     1     -12.086   0.397 -36.136  1.00  0.00     0.020 C 
BRANCH   4   5
ATOM      5  C   UNL     1     -12.168   1.161 -34.873  1.00  0.00     0.064 C 
ATOM      6  O   UNL     1     -11.523   2.227 -34.694  1.00  0.00    -0.545 OA
ATOM      7  O   UNL     1     -12.956   0.669 -33.842  1.00  0.00    -0.545 OA
ENDBRANCH   4   5
ENDBRANCH   2   3
ENDBRANCH   1   2
BRANCH   1   8
ATOM      8  C   UNL     1     -15.788   1.914 -36.198  1.00  0.00     0.000 C 
BRANCH   8   9
ATOM      9  C   UNL     1     -16.263   0.708 -35.370  1.00  0.00    -0.000 C 
BRANCH   9  10
ATOM     10  C   UNL     1     -16.518   1.071 -33.899  1.00  0.00    -0.003 C 
ATOM     11  C   UNL     1     -17.278   2.388 -33.734  1.00  0.00     0.004 C 
ENDBRANCH   9  10
ENDBRANCH   8   9
ENDBRANCH   1   8
TORSDOF 6
ENDMDL
MODEL 3
REMARK VINA RESULT:    -4.790      1.461      2.007
REMARK INTER + INTRA:          -6.973
REMARK INTER:                  -6.331
REMARK INTRA:                  -0.641
REMARK UNBOUND:                -0.502
REMARK SMILES CCCCCCC=CC(=O)[O-]
REMARK SMILES IDX 5 1 6 2 7 3 8 4 9 5 10 6 11 7 4 8 3 9 2 10 1 11
REMARK H PARENT
REMARK Flexibility Score: inf
ROOT
ATOM      1  C   UNL     1     -12.552   1.150 -34.023  1.00  0.00     0.004 C 
ENDROOT
BRANCH   1   2
ATOM      2  C   UNL     1     -14.056   1.475 -33.949  1.00  0.00     0.027 C 
BRANCH   2   3
ATOM      3  C   UNL     1     -14.904   0.459 -34.669  1.00  0.00    -0.025 C 
ATOM      4  C   UNL     1     -16.198   0.603 -35.001  1.00  0.00     0.020 C 
BRANCH   4   5
ATOM      5  C   UNL     1     -17.070   1.751 -34.680  1.00  0.00     0.064 C 
ATOM      6  O   UNL     1     -17.350   2.636 -35.531  1.00  0.00    -0.545 OA
ATOM      7  O   UNL     1     -17.571   1.874 -33.391  1.00  0.00    -0.545 OA
ENDBRANCH   4   5
ENDBRANCH   2   3
ENDBRANCH   1   2
BRANCH   1   8
ATOM      8  C   UNL     1     -11.812   1.832 -35.190  1.00  0.00     0.000 C 
BRANCH   8   9
ATOM      9  C   UNL     1     -11.463   0.854 -36.325  1.00  0.00    -0.000 C 
BRANCH   9  10
ATOM     10  C   UNL     1     -12.579   0.754 -37.377  1.00  0.00    -0.003 C 
ATOM     11  C   UNL     1     -13.317   2.076 -37.588  1.00  0.00     0.004 C 
ENDBRANCH   9  10
ENDBRANCH   8   9
ENDBRANCH   1   8
TORSDOF 6
ENDMDL
MODEL 4
REMARK VINA RESULT:    -4.765      2.279      4.466
REMARK INTER + INTRA:          -6.938
REMARK INTER:                  -6.478
REMARK INTRA:                  -0.460
REMARK UNBOUND:                -0.502
REMARK SMILES CCCCCCC=CC(=O)[O-]
REMARK SMILES IDX 5 1 6 2 7 3 8 4 9 5 10 6 11 7 4 8 3 9 2 10 1 11
REMARK H PARENT
REMARK Flexibility Score: inf
ROOT
ATOM      1  C   UNL     1     -12.684   1.146 -33.977  1.00  0.00     0.004 C 
ENDROOT
BRANCH   1   2
ATOM      2  C   UNL     1     -11.713   1.614 -35.077  1.00  0.00     0.027 C 
BRANCH   2   3
ATOM      3  C   UNL     1     -11.692   0.687 -36.265  1.00  0.00    -0.025 C 
ATOM      4  C   UNL     1     -12.580   0.674 -37.273  1.00  0.00     0.020 C 
BRANCH   4   5
ATOM      5  C   UNL     1     -13.785   1.519 -37.400  1.00  0.00     0.064 C 
ATOM      6  O   UNL     1     -14.878   1.212 -36.856  1.00  0.00    -0.545 OA
ATOM      7  O   UNL     1     -13.718   2.672 -38.171  1.00  0.00    -0.545 OA
ENDBRANCH   4   5
ENDBRANCH   2   3
ENDBRANCH   1   2
BRANCH   1   8
ATOM      8  C   UNL     1     -13.591   2.259 -33.418  1.00  0.00     0.000 C 
BRANCH   8   9
ATOM      9  C   UNL     1     -13.051   3.670 -33.708  1.00  0.00    -0.000 C 
BRANCH   9  10
ATOM     10  C   UNL     1     -13.098   4.582 -32.472  1.00  0.00    -0.003 C 
ATOM     11  C   UNL     1     -12.056   5.700 -32.519  1.00  0.00     0.004 C 
ENDBRANCH   9  10
ENDBRANCH   8   9
ENDBRANCH   1   8
TORSDOF 6
ENDMDL
MODEL 5
REMARK VINA RESULT:    -4.761      1.968      4.299
REMARK INTER + INTRA:          -6.933
REMARK INTER:                  -6.251
REMARK INTRA:                  -0.682
REMARK UNBOUND:                -0.502
REMARK SMILES CCCCCCC=CC(=O)[O-]
REMARK SMILES IDX 5 1 6 2 7 3 8 4 9 5 10 6 11 7 4 8 3 9 2 10 1 11
REMARK H PARENT
REMARK Flexibility Score: inf
ROOT
ATOM      1  C   UNL     1     -13.888   2.898 -32.814  1.00  0.00     0.004 C 
ENDROOT
BRANCH   1   2
ATOM      2  C   UNL     1     -12.974   2.339 -33.920  1.00  0.00     0.027 C 
BRANCH   2   3
ATOM      3  C   UNL     1     -13.101   0.846 -34.078  1.00  0.00    -0.025 C 
ATOM      4  C   UNL     1     -12.855   0.145 -35.197  1.00  0.00     0.020 C 
BRANCH   4   5
ATOM      5  C   UNL     1     -12.467   0.691 -36.514  1.00  0.00     0.064 C 
ATOM      6  O   UNL     1     -11.263   0.869 -36.836  1.00  0.00    -0.545 OA
ATOM      7  O   UNL     1     -13.464   1.048 -37.412  1.00  0.00    -0.545 OA
ENDBRANCH   4   5
ENDBRANCH   2   3
ENDBRANCH   1   2
BRANCH   1   8
ATOM      8  C   UNL     1     -15.317   3.235 -33.283  1.00  0.00     0.000 C 
BRANCH   8   9
ATOM      9  C   UNL     1     -16.381   2.322 -32.650  1.00  0.00    -0.000 C 
BRANCH   9  10
ATOM     10  C   UNL     1     -16.816   1.188 -33.591  1.00  0.00    -0.003 C 
ATOM     11  C   UNL     1     -16.874   1.621 -35.056  1.00  0.00     0.004 C 
ENDBRANCH   9  10
ENDBRANCH   8   9
ENDBRANCH   1   8
TORSDOF 6
ENDMDL
MODEL 6
REMARK VINA RESULT:    -4.757      1.930      2.893
REMARK INTER + INTRA:          -6.927
REMARK INTER:                  -6.547
REMARK INTRA:                  -0.380
REMARK UNBOUND:                -0.502
REMARK SMILES CCCCCCC=CC(=O)[O-]
REMARK SMILES IDX 5 1 6 2 7 3 8 4 9 5 10 6 11 7 4 8 3 9 2 10 1 11
REMARK H PARENT
REMARK Flexibility Score: inf
ROOT
ATOM      1  C   UNL     1     -16.174   0.810 -35.590  1.00  0.00     0.004 C 
ENDROOT
BRANCH   1   2
ATOM      2  C   UNL     1     -17.101   1.906 -35.033  1.00  0.00     0.027 C 
BRANCH   2   3
ATOM      3  C   UNL     1     -17.277   1.813 -33.539  1.00  0.00    -0.025 C 
ATOM      4  C   UNL     1     -16.409   2.252 -32.613  1.00  0.00     0.020 C 
BRANCH   4   5
ATOM      5  C   UNL     1     -15.085   2.860 -32.859  1.00  0.00     0.064 C 
ATOM      6  O   UNL     1     -14.014   2.284 -32.537  1.00  0.00    -0.545 OA
ATOM      7  O   UNL     1     -15.024   4.122 -33.437  1.00  0.00    -0.545 OA
ENDBRANCH   4   5
ENDBRANCH   2   3
ENDBRANCH   1   2
BRANCH   1   8
ATOM      8  C   UNL     1     -15.035   1.337 -36.485  1.00  0.00     0.000 C 
BRANCH   8   9
ATOM      9  C   UNL     1     -13.640   0.982 -35.943  1.00  0.00    -0.000 C 
BRANCH   9  10
ATOM     10  C   UNL     1     -12.660   0.589 -37.059  1.00  0.00    -0.003 C 
ATOM     11  C   UNL     1     -11.268   1.193 -36.868  1.00  0.00     0.004 C 
ENDBRANCH   9  10
ENDBRANCH   8   9
ENDBRANCH   1   8
TORSDOF 6
ENDMDL
MODEL 7
REMARK VINA RESULT:    -4.753      1.887      3.039
REMARK INTER + INTRA:          -6.923
REMARK INTER:                  -6.263
REMARK INTRA:                  -0.659
REMARK UNBOUND:                -0.502
REMARK SMILES CCCCCCC=CC(=O)[O-]
REMARK SMILES IDX 5 1 6 2 7 3 8 4 9 5 10 6 11 7 4 8 3 9 2 10 1 11
REMARK H PARENT
REMARK Flexibility Score: inf
ROOT
ATOM      1  C   UNL     1     -14.968   1.462 -37.554  1.00  0.00     0.004 C 
ENDROOT
BRANCH   1   2
ATOM      2  C   UNL     1     -15.838   1.932 -36.374  1.00  0.00     0.027 C 
BRANCH   2   3
ATOM      3  C   UNL     1     -16.174   0.816 -35.420  1.00  0.00    -0.025 C 
ATOM      4  C   UNL     1     -16.468   0.951 -34.116  1.00  0.00     0.020 C 
BRANCH   4   5
ATOM      5  C   UNL     1     -16.466   2.206 -33.336  1.00  0.00     0.064 C 
ATOM      6  O   UNL     1     -15.416   2.670 -32.819  1.00  0.00    -0.545 OA
ATOM      7  O   UNL     1     -17.666   2.876 -33.140  1.00  0.00    -0.545 OA
ENDBRANCH   4   5
ENDBRANCH   2   3
ENDBRANCH   1   2
BRANCH   1   8
ATOM      8  C   UNL     1     -13.488   1.880 -37.458  1.00  0.00     0.000 C 
BRANCH   8   9
ATOM      9  C   UNL     1     -12.571   0.727 -37.015  1.00  0.00    -0.000 C 
BRANCH   9  10
ATOM     10  C   UNL     1     -11.731   1.088 -35.780  1.00  0.00    -0.003 C 
ATOM     11  C   UNL     1     -12.532   1.033 -34.479  1.00  0.00     0.004 C 
ENDBRANCH   9  10
ENDBRANCH   8   9
ENDBRANCH   1   8
TORSDOF 6
ENDMDL
MODEL 8
REMARK VINA RESULT:    -4.704      1.822      4.507
REMARK INTER + INTRA:          -6.856
REMARK INTER:                  -6.445
REMARK INTRA:                  -0.412
REMARK UNBOUND:                -0.502
REMARK SMILES CCCCCCC=CC(=O)[O-]
REMARK SMILES IDX 5 1 6 2 7 3 8 4 9 5 10 6 11 7 4 8 3 9 2 10 1 11
REMARK H PARENT
REMARK Flexibility Score: inf
ROOT
ATOM      1  C   UNL     1     -12.863   1.297 -33.813  1.00  0.00     0.004 C 
ENDROOT
BRANCH   1   2
ATOM      2  C   UNL     1     -11.873   1.726 -34.912  1.00  0.00     0.027 C 
BRANCH   2   3
ATOM      3  C   UNL     1     -11.789   0.729 -36.038  1.00  0.00    -0.025 C 
ATOM      4  C   UNL     1     -12.593   0.680 -37.113  1.00  0.00     0.020 C 
BRANCH   4   5
ATOM      5  C   UNL     1     -13.757   1.548 -37.386  1.00  0.00     0.064 C 
ATOM      6  O   UNL     1     -14.940   1.157 -37.209  1.00  0.00    -0.545 OA
ATOM      7  O   UNL     1     -13.538   2.826 -37.884  1.00  0.00    -0.545 OA
ENDBRANCH   4   5
ENDBRANCH   2   3
ENDBRANCH   1   2
BRANCH   1   8
ATOM      8  C   UNL     1     -13.745   2.439 -33.273  1.00  0.00     0.000 C 
BRANCH   8   9
ATOM      9  C   UNL     1     -15.169   2.418 -33.853  1.00  0.00    -0.000 C 
BRANCH   9  10
ATOM     10  C   UNL     1     -16.237   2.168 -32.777  1.00  0.00    -0.003 C 
ATOM     11  C   UNL     1     -17.620   2.677 -33.182  1.00  0.00     0.004 C 
ENDBRANCH   9  10
ENDBRANCH   8   9
ENDBRANCH   1   8
TORSDOF 6
ENDMDL
MODEL 9
REMARK VINA RESULT:    -4.662      2.329      4.764
REMARK INTER + INTRA:          -6.799
REMARK INTER:                  -6.050
REMARK INTRA:                  -0.749
REMARK UNBOUND:                -0.502
REMARK SMILES CCCCCCC=CC(=O)[O-]
REMARK SMILES IDX 5 1 6 2 7 3 8 4 9 5 10 6 11 7 4 8 3 9 2 10 1 11
REMARK H PARENT
REMARK Flexibility Score: inf
ROOT
ATOM      1  C   UNL     1     -13.596   1.877 -37.695  1.00  0.00     0.004 C 
ENDROOT
BRANCH   1   2
ATOM      2  C   UNL     1     -12.792   0.811 -36.927  1.00  0.00     0.027 C 
BRANCH   2   3
ATOM      3  C   UNL     1     -11.630   1.396 -36.168  1.00  0.00    -0.025 C 
ATOM      4  C   UNL     1     -11.696   2.024 -34.982  1.00  0.00     0.020 C 
BRANCH   4   5
ATOM      5  C   UNL     1     -12.917   2.322 -34.207  1.00  0.00     0.064 C 
ATOM      6  O   UNL     1     -13.457   1.469 -33.455  1.00  0.00    -0.545 OA
ATOM      7  O   UNL     1     -13.505   3.573 -34.336  1.00  0.00    -0.545 OA
ENDBRANCH   4   5
ENDBRANCH   2   3
ENDBRANCH   1   2
BRANCH   1   8
ATOM      8  C   UNL     1     -15.122   1.662 -37.667  1.00  0.00     0.000 C 
BRANCH   8   9
ATOM      9  C   UNL     1     -15.853   2.699 -36.797  1.00  0.00    -0.000 C 
BRANCH   9  10
ATOM     10  C   UNL     1     -16.545   2.062 -35.582  1.00  0.00    -0.003 C 
ATOM     11  C   UNL     1     -16.268   0.563 -35.459  1.00  0.00     0.004 C 
ENDBRANCH   9  10
ENDBRANCH   8   9
ENDBRANCH   1   8
TORSDOF 6
ENDMDL
