MODEL 1
REMARK VINA RESULT:    -3.721      0.000      0.000
REMARK INTER + INTRA:          -4.968
REMARK INTER:                  -4.808
REMARK INTRA:                  -0.160
REMARK UNBOUND:                -0.160
REMARK SMILES CCCCCCC=O
REMARK SMILES IDX 4 1 3 2 2 3 1 4 5 5 6 6 7 7 8 8
REMARK H PARENT
REMARK Flexibility Score: inf
ROOT
ATOM      1  C   UNL     1      25.365  58.399  -8.382  1.00  0.00     0.000 C 
ENDROOT
BRANCH   1   2
ATOM      2  C   UNL     1      26.356  59.448  -8.908  1.00  0.00    -0.000 C 
BRANCH   2   3
ATOM      3  C   UNL     1      27.294  58.838  -9.958  1.00  0.00    -0.003 C 
ATOM      4  C   UNL     1      28.565  59.668 -10.110  1.00  0.00     0.004 C 
ENDBRANCH   2   3
ENDBRANCH   1   2
BRANCH   1   5
ATOM      5  C   UNL     1      25.781  56.963  -8.734  1.00  0.00     0.008 C 
BRANCH   5   6
ATOM      6  C   UNL     1      25.436  55.959  -7.626  1.00  0.00     0.072 C 
BRANCH   6   7
ATOM      7  C   UNL     1      24.080  55.360  -7.851  1.00  0.00     0.224 C 
ATOM      8  O   UNL     1      23.314  55.193  -6.915  1.00  0.00    -0.303 OA
ENDBRANCH   6   7
ENDBRANCH   5   6
ENDBRANCH   1   5
TORSDOF 5
ENDMDL
MODEL 2
REMARK VINA RESULT:    -3.637      2.655      5.021
REMARK INTER + INTRA:          -4.860
REMARK INTER:                  -4.715
REMARK INTRA:                  -0.145
REMARK UNBOUND:                -0.160
REMARK SMILES CCCCCCC=O
REMARK SMILES IDX 4 1 3 2 2 3 1 4 5 5 6 6 7 7 8 8
REMARK H PARENT
REMARK Flexibility Score: inf
ROOT
ATOM      1  C   UNL     1      25.789  57.040  -8.795  1.00  0.00     0.000 C 
ENDROOT
BRANCH   1   2
ATOM      2  C   UNL     1      25.457  56.048  -7.670  1.00  0.00    -0.000 C 
BRANCH   2   3
ATOM      3  C   UNL     1      24.213  55.222  -8.017  1.00  0.00    -0.003 C 
ATOM      4  C   UNL     1      23.276  55.107  -6.819  1.00  0.00     0.004 C 
ENDBRANCH   2   3
ENDBRANCH   1   2
BRANCH   1   5
ATOM      5  C   UNL     1      25.408  58.486  -8.441  1.00  0.00     0.008 C 
BRANCH   5   6
ATOM      6  C   UNL     1      26.428  59.510  -8.958  1.00  0.00     0.072 C 
BRANCH   6   7
ATOM      7  C   UNL     1      27.328  58.893  -9.986  1.00  0.00     0.224 C 
ATOM      8  O   UNL     1      28.451  59.335 -10.170  1.00  0.00    -0.303 OA
ENDBRANCH   6   7
ENDBRANCH   5   6
ENDBRANCH   1   5
TORSDOF 5
ENDMDL
MODEL 3
REMARK VINA RESULT:    -3.466      2.435      5.185
REMARK INTER + INTRA:          -4.638
REMARK INTER:                  -4.511
REMARK INTRA:                  -0.127
REMARK UNBOUND:                -0.160
REMARK SMILES CCCCCCC=O
REMARK SMILES IDX 4 1 3 2 2 3 1 4 5 5 6 6 7 7 8 8
REMARK H PARENT
REMARK Flexibility Score: inf
ROOT
ATOM      1  C   UNL     1      25.438  55.544  -7.619  1.00  0.00     0.000 C 
ENDROOT
BRANCH   1   2
ATOM      2  C   UNL     1      24.239  55.917  -6.734  1.00  0.00    -0.000 C 
BRANCH   2   3
ATOM      3  C   UNL     1      23.080  54.932  -6.938  1.00  0.00    -0.003 C 
ATOM      4  C   UNL     1      22.520  54.457  -5.601  1.00  0.00     0.004 C 
ENDBRANCH   2   3
ENDBRANCH   1   2
BRANCH   1   5
ATOM      5  C   UNL     1      25.619  56.505  -8.805  1.00  0.00     0.008 C 
BRANCH   5   6
ATOM      6  C   UNL     1      25.358  57.968  -8.425  1.00  0.00     0.072 C 
BRANCH   6   7
ATOM      7  C   UNL     1      26.413  58.866  -9.000  1.00  0.00     0.224 C 
ATOM      8  O   UNL     1      26.992  58.559 -10.030  1.00  0.00    -0.303 OA
ENDBRANCH   6   7
ENDBRANCH   5   6
ENDBRANCH   1   5
TORSDOF 5
ENDMDL
MODEL 4
REMARK VINA RESULT:    -3.312     16.950     18.336
REMARK INTER + INTRA:          -4.440
REMARK INTER:                  -4.221
REMARK INTRA:                  -0.219
REMARK UNBOUND:                -0.160
REMARK SMILES CCCCCCC=O
REMARK SMILES IDX 4 1 3 2 2 3 1 4 5 5 6 6 7 7 8 8
REMARK H PARENT
REMARK Flexibility Score: inf
ROOT
ATOM      1  C   UNL     1      18.018  45.340  -0.115  1.00  0.00     0.000 C 
ENDROOT
BRANCH   1   2
ATOM      2  C   UNL     1      16.982  44.322   0.386  1.00  0.00    -0.000 C 
BRANCH   2   3
ATOM      3  C   UNL     1      15.652  45.011   0.714  1.00  0.00    -0.003 C 
ATOM      4  C   UNL     1      15.147  44.604   2.095  1.00  0.00     0.004 C 
ENDBRANCH   2   3
ENDBRANCH   1   2
BRANCH   1   5
ATOM      5  C   UNL     1      19.450  44.989   0.319  1.00  0.00     0.008 C 
BRANCH   5   6
ATOM      6  C   UNL     1      19.496  44.251   1.664  1.00  0.00     0.072 C 
BRANCH   6   7
ATOM      7  C   UNL     1      20.414  43.068   1.593  1.00  0.00     0.224 C 
ATOM      8  O   UNL     1      20.780  42.632   0.513  1.00  0.00    -0.303 OA
ENDBRANCH   6   7
ENDBRANCH   5   6
ENDBRANCH   1   5
TORSDOF 5
ENDMDL
MODEL 5
REMARK VINA RESULT:    -3.226     16.986     18.059
REMARK INTER + INTRA:          -4.329
REMARK INTER:                  -4.155
REMARK INTRA:                  -0.174
REMARK UNBOUND:                -0.160
REMARK SMILES CCCCCCC=O
REMARK SMILES IDX 4 1 3 2 2 3 1 4 5 5 6 6 7 7 8 8
REMARK H PARENT
REMARK Flexibility Score: inf
ROOT
ATOM      1  C   UNL     1      17.926  44.565   0.263  1.00  0.00     0.000 C 
ENDROOT
BRANCH   1   2
ATOM      2  C   UNL     1      19.433  44.731   0.516  1.00  0.00    -0.000 C 
BRANCH   2   3
ATOM      3  C   UNL     1      19.829  44.135   1.873  1.00  0.00    -0.003 C 
ATOM      4  C   UNL     1      18.655  43.403   2.517  1.00  0.00     0.004 C 
ENDBRANCH   2   3
ENDBRANCH   1   2
BRANCH   1   5
ATOM      5  C   UNL     1      17.330  45.732  -0.539  1.00  0.00     0.008 C 
BRANCH   5   6
ATOM      6  C   UNL     1      15.795  45.723  -0.543  1.00  0.00     0.072 C 
BRANCH   6   7
ATOM      7  C   UNL     1      15.260  45.238   0.771  1.00  0.00     0.224 C 
ATOM      8  O   UNL     1      14.492  45.930   1.420  1.00  0.00    -0.303 OA
ENDBRANCH   6   7
ENDBRANCH   5   6
ENDBRANCH   1   5
TORSDOF 5
ENDMDL
MODEL 6
REMARK VINA RESULT:    -3.225     17.105     19.130
REMARK INTER + INTRA:          -4.328
REMARK INTER:                  -3.964
REMARK INTRA:                  -0.363
REMARK UNBOUND:                -0.160
REMARK SMILES CCCCCCC=O
REMARK SMILES IDX 4 1 3 2 2 3 1 4 5 5 6 6 7 7 8 8
REMARK H PARENT
REMARK Flexibility Score: inf
ROOT
ATOM      1  C   UNL     1      17.594  43.442   2.106  1.00  0.00     0.000 C 
ENDROOT
BRANCH   1   2
ATOM      2  C   UNL     1      19.057  43.740   2.469  1.00  0.00    -0.000 C 
BRANCH   2   3
ATOM      3  C   UNL     1      19.909  43.921   1.207  1.00  0.00    -0.003 C 
ATOM      4  C   UNL     1      19.324  44.997   0.297  1.00  0.00     0.004 C 
ENDBRANCH   2   3
ENDBRANCH   1   2
BRANCH   1   5
ATOM      5  C   UNL     1      17.327  41.943   1.906  1.00  0.00     0.008 C 
BRANCH   5   6
ATOM      6  C   UNL     1      16.541  41.648   0.622  1.00  0.00     0.072 C 
BRANCH   6   7
ATOM      7  C   UNL     1      17.365  41.957  -0.592  1.00  0.00     0.224 C 
ATOM      8  O   UNL     1      18.383  41.325  -0.826  1.00  0.00    -0.303 OA
ENDBRANCH   6   7
ENDBRANCH   5   6
ENDBRANCH   1   5
TORSDOF 5
ENDMDL
MODEL 7
REMARK VINA RESULT:    -3.190     13.740     15.429
REMARK INTER + INTRA:          -4.282
REMARK INTER:                  -4.158
REMARK INTRA:                  -0.124
REMARK UNBOUND:                -0.160
REMARK SMILES CCCCCCC=O
REMARK SMILES IDX 4 1 3 2 2 3 1 4 5 5 6 6 7 7 8 8
REMARK H PARENT
REMARK Flexibility Score: inf
ROOT
ATOM      1  C   UNL     1      30.415  45.363   0.971  1.00  0.00     0.000 C 
ENDROOT
BRANCH   1   2
ATOM      2  C   UNL     1      31.839  44.786   1.012  1.00  0.00    -0.000 C 
BRANCH   2   3
ATOM      3  C   UNL     1      32.862  45.876   1.357  1.00  0.00    -0.003 C 
ATOM      4  C   UNL     1      32.719  47.078   0.430  1.00  0.00     0.004 C 
ENDBRANCH   2   3
ENDBRANCH   1   2
BRANCH   1   5
ATOM      5  C   UNL     1      29.579  44.793  -0.186  1.00  0.00     0.008 C 
BRANCH   5   6
ATOM      6  C   UNL     1      28.137  45.318  -0.187  1.00  0.00     0.072 C 
BRANCH   6   7
ATOM      7  C   UNL     1      28.047  46.633  -0.900  1.00  0.00     0.224 C 
ATOM      8  O   UNL     1      27.324  46.761  -1.874  1.00  0.00    -0.303 OA
ENDBRANCH   6   7
ENDBRANCH   5   6
ENDBRANCH   1   5
TORSDOF 5
ENDMDL
MODEL 8
REMARK VINA RESULT:    -3.172     17.402     18.771
REMARK INTER + INTRA:          -4.258
REMARK INTER:                  -3.933
REMARK INTRA:                  -0.325
REMARK UNBOUND:                -0.160
REMARK SMILES CCCCCCC=O
REMARK SMILES IDX 4 1 3 2 2 3 1 4 5 5 6 6 7 7 8 8
REMARK H PARENT
REMARK Flexibility Score: inf
ROOT
ATOM      1  C   UNL     1      16.847  43.099   1.365  1.00  0.00     0.000 C 
ENDROOT
BRANCH   1   2
ATOM      2  C   UNL     1      16.034  44.195   2.072  1.00  0.00    -0.000 C 
BRANCH   2   3
ATOM      3  C   UNL     1      15.190  44.986   1.065  1.00  0.00    -0.003 C 
ATOM      4  C   UNL     1      16.031  45.434  -0.126  1.00  0.00     0.004 C 
ENDBRANCH   2   3
ENDBRANCH   1   2
BRANCH   1   5
ATOM      5  C   UNL     1      18.139  42.742   2.117  1.00  0.00     0.008 C 
BRANCH   5   6
ATOM      6  C   UNL     1      19.179  43.870   2.071  1.00  0.00     0.072 C 
BRANCH   6   7
ATOM      7  C   UNL     1      19.545  44.201   0.656  1.00  0.00     0.224 C 
ATOM      8  O   UNL     1      19.471  45.350   0.250  1.00  0.00    -0.303 OA
ENDBRANCH   6   7
ENDBRANCH   5   6
ENDBRANCH   1   5
TORSDOF 5
ENDMDL
MODEL 9
REMARK VINA RESULT:    -3.142     17.023     18.883
REMARK INTER + INTRA:          -4.220
REMARK INTER:                  -3.876
REMARK INTRA:                  -0.344
REMARK UNBOUND:                -0.160
REMARK SMILES CCCCCCC=O
REMARK SMILES IDX 4 1 3 2 2 3 1 4 5 5 6 6 7 7 8 8
REMARK H PARENT
REMARK Flexibility Score: inf
ROOT
ATOM      1  C   UNL     1      17.781  42.524   1.682  1.00  0.00     0.000 C 
ENDROOT
BRANCH   1   2
ATOM      2  C   UNL     1      18.619  43.558   2.449  1.00  0.00    -0.000 C 
BRANCH   2   3
ATOM      3  C   UNL     1      19.818  44.022   1.612  1.00  0.00    -0.003 C 
ATOM      4  C   UNL     1      19.364  44.835   0.404  1.00  0.00     0.004 C 
ENDBRANCH   2   3
ENDBRANCH   1   2
BRANCH   1   5
ATOM      5  C   UNL     1      16.271  42.710   1.896  1.00  0.00     0.008 C 
BRANCH   5   6
ATOM      6  C   UNL     1      15.839  44.180   1.818  1.00  0.00     0.072 C 
BRANCH   6   7
ATOM      7  C   UNL     1      15.556  44.579   0.401  1.00  0.00     0.224 C 
ATOM      8  O   UNL     1      15.970  45.640  -0.038  1.00  0.00    -0.303 OA
ENDBRANCH   6   7
ENDBRANCH   5   6
ENDBRANCH   1   5
TORSDOF 5
ENDMDL
