MODEL 1
REMARK VINA RESULT:    -5.651      0.000      0.000
REMARK INTER + INTRA:          -8.118
REMARK INTER:                  -6.973
REMARK INTRA:                  -1.145
REMARK UNBOUND:                -1.145
REMARK SMILES CC(C)=CCC[C@@H](C)c1ccc(C)cc1
REMARK SMILES IDX 6 1 7 2 8 3 9 4 13 5 12 6 11 7 14 8 10 9 15 10 5 11 4 12
REMARK SMILES IDX 2 13 1 14 3 15
REMARK H PARENT
REMARK Flexibility Score: inf
ROOT
ATOM      1  C   UNL     1       8.120  -0.567   9.928  1.00  0.00     0.012 C 
ENDROOT
BRANCH   1   2
ATOM      2  C   UNL     1       9.004  -1.503  10.781  1.00  0.00     0.016 C 
ATOM      3  C   UNL     1       8.791  -2.967  10.378  1.00  0.00     0.013 C 
BRANCH   2   4
ATOM      4  C   UNL     1      10.475  -1.133  10.695  1.00  0.00    -0.045 A 
ATOM      5  C   UNL     1      14.658  -0.096  10.407  1.00  0.00     0.044 C 
ATOM      6  C   UNL     1      13.213  -0.485  10.511  1.00  0.00    -0.051 A 
ATOM      7  C   UNL     1      12.567  -0.475  11.755  1.00  0.00     0.004 A 
ATOM      8  C   UNL     1      12.480  -0.796   9.358  1.00  0.00     0.004 A 
ATOM      9  C   UNL     1      11.211  -0.803  11.849  1.00  0.00     0.004 A 
ATOM     10  C   UNL     1      11.125  -1.125   9.449  1.00  0.00     0.004 A 
ENDBRANCH   2   4
ENDBRANCH   1   2
BRANCH   1  11
ATOM     11  C   UNL     1       7.853   0.774  10.630  1.00  0.00     0.028 C 
BRANCH  11  12
ATOM     12  C   UNL     1       7.357   0.552  12.036  1.00  0.00    -0.028 C 
ATOM     13  C   UNL     1       7.940   1.070  13.141  1.00  0.00    -0.080 C 
ATOM     14  C   UNL     1       9.126   1.998  13.061  1.00  0.00     0.039 C 
ATOM     15  C   UNL     1       7.376   0.757  14.503  1.00  0.00     0.039 C 
ENDBRANCH  11  12
ENDBRANCH   1  11
TORSDOF 4
ENDMDL
MODEL 2
REMARK VINA RESULT:    -5.557      1.452      5.272
REMARK INTER + INTRA:          -8.001
REMARK INTER:                  -6.860
REMARK INTRA:                  -1.141
REMARK UNBOUND:                -1.145
REMARK SMILES CC(C)=CCC[C@@H](C)c1ccc(C)cc1
REMARK SMILES IDX 6 1 7 2 8 3 9 4 13 5 12 6 11 7 14 8 10 9 15 10 5 11 4 12
REMARK SMILES IDX 2 13 1 14 3 15
REMARK H PARENT
REMARK Flexibility Score: inf
ROOT
ATOM      1  C   UNL     1       7.596   0.331  10.456  1.00  0.00     0.012 C 
ENDROOT
BRANCH   1   2
ATOM      2  C   UNL     1       8.437   1.316  11.297  1.00  0.00     0.016 C 
ATOM      3  C   UNL     1       7.906   2.748  11.148  1.00  0.00     0.013 C 
BRANCH   2   4
ATOM      4  C   UNL     1       8.489   0.915  12.761  1.00  0.00    -0.045 A 
ATOM      5  C   UNL     1       8.595  -0.209  16.930  1.00  0.00     0.044 C 
ATOM      6  C   UNL     1       8.562   0.210  15.491  1.00  0.00    -0.051 A 
ATOM      7  C   UNL     1       9.742   0.232  14.735  1.00  0.00     0.004 A 
ATOM      8  C   UNL     1       7.343   0.518  14.871  1.00  0.00     0.004 A 
ATOM      9  C   UNL     1       9.709   0.589  13.383  1.00  0.00     0.004 A 
ATOM     10  C   UNL     1       7.307   0.875  13.521  1.00  0.00     0.004 A 
ENDBRANCH   2   4
ENDBRANCH   1   2
BRANCH   1  11
ATOM     11  C   UNL     1       8.304  -1.019  10.268  1.00  0.00     0.028 C 
BRANCH  11  12
ATOM     12  C   UNL     1       9.633  -0.834   9.581  1.00  0.00    -0.028 C 
ATOM     13  C   UNL     1      10.804  -1.331  10.040  1.00  0.00    -0.080 C 
ATOM     14  C   UNL     1      10.880  -2.197  11.273  1.00  0.00     0.039 C 
ATOM     15  C   UNL     1      12.081  -1.059   9.287  1.00  0.00     0.039 C 
ENDBRANCH  11  12
ENDBRANCH   1  11
TORSDOF 4
ENDMDL
MODEL 3
REMARK VINA RESULT:    -5.347      2.028      5.872
REMARK INTER + INTRA:          -7.743
REMARK INTER:                  -6.983
REMARK INTRA:                  -0.759
REMARK UNBOUND:                -1.145
REMARK SMILES CC(C)=CCC[C@@H](C)c1ccc(C)cc1
REMARK SMILES IDX 6 1 7 2 8 3 9 4 13 5 12 6 11 7 14 8 10 9 15 10 5 11 4 12
REMARK SMILES IDX 2 13 1 14 3 15
REMARK H PARENT
REMARK Flexibility Score: inf
ROOT
ATOM      1  C   UNL     1       6.997   1.480  11.770  1.00  0.00     0.012 C 
ENDROOT
BRANCH   1   2
ATOM      2  C   UNL     1       8.350   1.867  12.407  1.00  0.00     0.016 C 
ATOM      3  C   UNL     1       8.706   3.323  12.084  1.00  0.00     0.013 C 
BRANCH   2   4
ATOM      4  C   UNL     1       8.360   1.635  13.909  1.00  0.00    -0.045 A 
ATOM      5  C   UNL     1       8.362   0.939  18.171  1.00  0.00     0.044 C 
ATOM      6  C   UNL     1       8.334   1.193  16.694  1.00  0.00    -0.051 A 
ATOM      7  C   UNL     1       8.833   2.395  16.174  1.00  0.00     0.004 A 
ATOM      8  C   UNL     1       7.871   0.203  15.815  1.00  0.00     0.004 A 
ATOM      9  C   UNL     1       8.840   2.619  14.794  1.00  0.00     0.004 A 
ATOM     10  C   UNL     1       7.877   0.425  14.435  1.00  0.00     0.004 A 
ENDBRANCH   2   4
ENDBRANCH   1   2
BRANCH   1  11
ATOM     11  C   UNL     1       7.145   0.352  10.738  1.00  0.00     0.028 C 
BRANCH  11  12
ATOM     12  C   UNL     1       8.592  -0.043  10.583  1.00  0.00    -0.028 C 
ATOM     13  C   UNL     1       9.084  -0.743   9.535  1.00  0.00    -0.080 C 
ATOM     14  C   UNL     1       8.222  -1.144   8.364  1.00  0.00     0.039 C 
ATOM     15  C   UNL     1      10.545  -1.110   9.497  1.00  0.00     0.039 C 
ENDBRANCH  11  12
ENDBRANCH   1  11
TORSDOF 4
ENDMDL
MODEL 4
REMARK VINA RESULT:    -5.320      1.274      5.363
REMARK INTER + INTRA:          -7.709
REMARK INTER:                  -7.044
REMARK INTRA:                  -0.665
REMARK UNBOUND:                -1.145
REMARK SMILES CC(C)=CCC[C@@H](C)c1ccc(C)cc1
REMARK SMILES IDX 6 1 7 2 8 3 9 4 13 5 12 6 11 7 14 8 10 9 15 10 5 11 4 12
REMARK SMILES IDX 2 13 1 14 3 15
REMARK H PARENT
REMARK Flexibility Score: inf
ROOT
ATOM      1  C   UNL     1      10.664  -1.594   9.934  1.00  0.00     0.012 C 
ENDROOT
BRANCH   1   2
ATOM      2  C   UNL     1       9.509  -0.573   9.832  1.00  0.00     0.016 C 
ATOM      3  C   UNL     1       8.354  -1.140   8.998  1.00  0.00     0.013 C 
BRANCH   2   4
ATOM      4  C   UNL     1       9.015  -0.134  11.200  1.00  0.00    -0.045 A 
ATOM      5  C   UNL     1       7.572   1.131  15.070  1.00  0.00     0.044 C 
ATOM      6  C   UNL     1       8.080   0.721  13.720  1.00  0.00    -0.051 A 
ATOM      7  C   UNL     1       9.414   0.323  13.559  1.00  0.00     0.004 A 
ATOM      8  C   UNL     1       7.209   0.667  12.622  1.00  0.00     0.004 A 
ATOM      9  C   UNL     1       9.881  -0.094  12.309  1.00  0.00     0.004 A 
ATOM     10  C   UNL     1       7.674   0.250  11.372  1.00  0.00     0.004 A 
ENDBRANCH   2   4
ENDBRANCH   1   2
BRANCH   1  11
ATOM     11  C   UNL     1      11.941  -1.092   9.244  1.00  0.00     0.028 C 
BRANCH  11  12
ATOM     12  C   UNL     1      13.165  -1.708   9.874  1.00  0.00    -0.028 C 
ATOM     13  C   UNL     1      14.117  -1.009  10.533  1.00  0.00    -0.080 C 
ATOM     14  C   UNL     1      14.005   0.478  10.764  1.00  0.00     0.039 C 
ATOM     15  C   UNL     1      15.317  -1.724  11.098  1.00  0.00     0.039 C 
ENDBRANCH  11  12
ENDBRANCH   1  11
TORSDOF 4
ENDMDL
MODEL 5
REMARK VINA RESULT:    -5.251      2.474      4.971
REMARK INTER + INTRA:          -7.624
REMARK INTER:                  -6.640
REMARK INTRA:                  -0.983
REMARK UNBOUND:                -1.145
REMARK SMILES CC(C)=CCC[C@@H](C)c1ccc(C)cc1
REMARK SMILES IDX 6 1 7 2 8 3 9 4 13 5 12 6 11 7 14 8 10 9 15 10 5 11 4 12
REMARK SMILES IDX 2 13 1 14 3 15
REMARK H PARENT
REMARK Flexibility Score: inf
ROOT
ATOM      1  C   UNL     1       7.827   0.347  15.085  1.00  0.00     0.012 C 
ENDROOT
BRANCH   1   2
ATOM      2  C   UNL     1       7.762   1.406  13.962  1.00  0.00     0.016 C 
ATOM      3  C   UNL     1       8.836   2.481  14.166  1.00  0.00     0.013 C 
BRANCH   2   4
ATOM      4  C   UNL     1       7.886   0.782  12.582  1.00  0.00    -0.045 A 
ATOM      5  C   UNL     1       8.282  -0.994   8.665  1.00  0.00     0.044 C 
ATOM      6  C   UNL     1       8.155  -0.351  10.014  1.00  0.00    -0.051 A 
ATOM      7  C   UNL     1       6.957   0.272  10.389  1.00  0.00     0.004 A 
ATOM      8  C   UNL     1       9.209  -0.427  10.936  1.00  0.00     0.004 A 
ATOM      9  C   UNL     1       6.824   0.841  11.659  1.00  0.00     0.004 A 
ATOM     10  C   UNL     1       9.078   0.141  12.206  1.00  0.00     0.004 A 
ENDBRANCH   2   4
ENDBRANCH   1   2
BRANCH   1  11
ATOM     11  C   UNL     1       9.111   0.468  15.920  1.00  0.00     0.028 C 
BRANCH  11  12
ATOM     12  C   UNL     1      10.118  -0.576  15.506  1.00  0.00    -0.028 C 
ATOM     13  C   UNL     1      11.407  -0.311  15.195  1.00  0.00    -0.080 C 
ATOM     14  C   UNL     1      11.989   1.077  15.302  1.00  0.00     0.039 C 
ATOM     15  C   UNL     1      12.320  -1.430  14.764  1.00  0.00     0.039 C 
ENDBRANCH  11  12
ENDBRANCH   1  11
TORSDOF 4
ENDMDL
MODEL 6
REMARK VINA RESULT:    -5.180      1.554      3.060
REMARK INTER + INTRA:          -7.536
REMARK INTER:                  -6.888
REMARK INTRA:                  -0.648
REMARK UNBOUND:                -1.145
REMARK SMILES CC(C)=CCC[C@@H](C)c1ccc(C)cc1
REMARK SMILES IDX 6 1 7 2 8 3 9 4 13 5 12 6 11 7 14 8 10 9 15 10 5 11 4 12
REMARK SMILES IDX 2 13 1 14 3 15
REMARK H PARENT
REMARK Flexibility Score: inf
ROOT
ATOM      1  C   UNL     1       8.074   1.102  13.045  1.00  0.00     0.012 C 
ENDROOT
BRANCH   1   2
ATOM      2  C   UNL     1       7.982   0.042  11.925  1.00  0.00     0.016 C 
ATOM      3  C   UNL     1       7.095   0.539  10.777  1.00  0.00     0.013 C 
BRANCH   2   4
ATOM      4  C   UNL     1       9.353  -0.359  11.406  1.00  0.00    -0.045 A 
ATOM      5  C   UNL     1      13.268  -1.481   9.968  1.00  0.00     0.044 C 
ATOM      6  C   UNL     1      11.914  -1.063  10.460  1.00  0.00    -0.051 A 
ATOM      7  C   UNL     1      10.811  -1.088   9.596  1.00  0.00     0.004 A 
ATOM      8  C   UNL     1      11.728  -0.708  11.803  1.00  0.00     0.004 A 
ATOM      9  C   UNL     1       9.541  -0.732  10.062  1.00  0.00     0.004 A 
ATOM     10  C   UNL     1      10.461  -0.352  12.271  1.00  0.00     0.004 A 
ENDBRANCH   2   4
ENDBRANCH   1   2
BRANCH   1  11
ATOM     11  C   UNL     1       7.215   0.732  14.263  1.00  0.00     0.028 C 
BRANCH  11  12
ATOM     12  C   UNL     1       7.745   1.391  15.511  1.00  0.00    -0.028 C 
ATOM     13  C   UNL     1       8.414   0.742  16.492  1.00  0.00    -0.080 C 
ATOM     14  C   UNL     1       8.759  -0.722  16.392  1.00  0.00     0.039 C 
ATOM     15  C   UNL     1       8.873   1.497  17.713  1.00  0.00     0.039 C 
ENDBRANCH  11  12
ENDBRANCH   1  11
TORSDOF 4
ENDMDL
MODEL 7
REMARK VINA RESULT:    -5.044      1.894      4.171
REMARK INTER + INTRA:          -7.369
REMARK INTER:                  -6.346
REMARK INTRA:                  -1.022
REMARK UNBOUND:                -1.145
REMARK SMILES CC(C)=CCC[C@@H](C)c1ccc(C)cc1
REMARK SMILES IDX 6 1 7 2 8 3 9 4 13 5 12 6 11 7 14 8 10 9 15 10 5 11 4 12
REMARK SMILES IDX 2 13 1 14 3 15
REMARK H PARENT
REMARK Flexibility Score: inf
ROOT
ATOM      1  C   UNL     1      10.915  -1.092  14.464  1.00  0.00     0.012 C 
ENDROOT
BRANCH   1   2
ATOM      2  C   UNL     1      11.089   0.036  13.424  1.00  0.00     0.016 C 
ATOM      3  C   UNL     1      12.575   0.306  13.157  1.00  0.00     0.013 C 
BRANCH   2   4
ATOM      4  C   UNL     1      10.360  -0.269  12.126  1.00  0.00    -0.045 A 
ATOM      5  C   UNL     1       8.249  -1.124   8.456  1.00  0.00     0.044 C 
ATOM      6  C   UNL     1       8.972  -0.853   9.741  1.00  0.00    -0.051 A 
ATOM      7  C   UNL     1      10.305  -1.256   9.900  1.00  0.00     0.004 A 
ATOM      8  C   UNL     1       8.344  -0.137  10.769  1.00  0.00     0.004 A 
ATOM      9  C   UNL     1      10.993  -0.973  11.084  1.00  0.00     0.004 A 
ATOM     10  C   UNL     1       9.028   0.147  11.954  1.00  0.00     0.004 A 
ENDBRANCH   2   4
ENDBRANCH   1   2
BRANCH   1  11
ATOM     11  C   UNL     1       9.941  -0.698  15.585  1.00  0.00     0.028 C 
BRANCH  11  12
ATOM     12  C   UNL     1       9.949   0.794  15.801  1.00  0.00    -0.028 C 
ATOM     13  C   UNL     1       8.889   1.603  15.577  1.00  0.00    -0.080 C 
ATOM     14  C   UNL     1       7.547   1.065  15.147  1.00  0.00     0.039 C 
ATOM     15  C   UNL     1       9.018   3.088  15.798  1.00  0.00     0.039 C 
ENDBRANCH  11  12
ENDBRANCH   1  11
TORSDOF 4
ENDMDL
MODEL 8
REMARK VINA RESULT:    -5.038      2.353      4.646
REMARK INTER + INTRA:          -7.361
REMARK INTER:                  -6.539
REMARK INTRA:                  -0.822
REMARK UNBOUND:                -1.145
REMARK SMILES CC(C)=CCC[C@@H](C)c1ccc(C)cc1
REMARK SMILES IDX 6 1 7 2 8 3 9 4 13 5 12 6 11 7 14 8 10 9 15 10 5 11 4 12
REMARK SMILES IDX 2 13 1 14 3 15
REMARK H PARENT
REMARK Flexibility Score: inf
ROOT
ATOM      1  C   UNL     1       8.531   0.226  14.959  1.00  0.00     0.012 C 
ENDROOT
BRANCH   1   2
ATOM      2  C   UNL     1       9.312   0.984  13.863  1.00  0.00     0.016 C 
ATOM      3  C   UNL     1      10.811   1.016  14.187  1.00  0.00     0.013 C 
BRANCH   2   4
ATOM      4  C   UNL     1       9.075   0.395  12.483  1.00  0.00    -0.045 A 
ATOM      5  C   UNL     1       8.360  -1.266   8.561  1.00  0.00     0.044 C 
ATOM      6  C   UNL     1       8.595  -0.714   9.935  1.00  0.00    -0.051 A 
ATOM      7  C   UNL     1       9.774  -1.019  10.627  1.00  0.00     0.004 A 
ATOM      8  C   UNL     1       7.668   0.167  10.511  1.00  0.00     0.004 A 
ATOM      9  C   UNL     1      10.011  -0.476  11.893  1.00  0.00     0.004 A 
ATOM     10  C   UNL     1       7.902   0.711  11.776  1.00  0.00     0.004 A 
ENDBRANCH   2   4
ENDBRANCH   1   2
BRANCH   1  11
ATOM     11  C   UNL     1       7.704   1.173  15.840  1.00  0.00     0.028 C 
BRANCH  11  12
ATOM     12  C   UNL     1       8.427   1.470  17.130  1.00  0.00    -0.028 C 
ATOM     13  C   UNL     1       9.139   2.596  17.363  1.00  0.00    -0.080 C 
ATOM     14  C   UNL     1       9.220   3.717  16.357  1.00  0.00     0.039 C 
ATOM     15  C   UNL     1       9.848   2.776  18.681  1.00  0.00     0.039 C 
ENDBRANCH  11  12
ENDBRANCH   1  11
TORSDOF 4
ENDMDL
MODEL 9
REMARK VINA RESULT:    -4.982      1.608      3.432
REMARK INTER + INTRA:          -7.292
REMARK INTER:                  -6.171
REMARK INTRA:                  -1.122
REMARK UNBOUND:                -1.145
REMARK SMILES CC(C)=CCC[C@@H](C)c1ccc(C)cc1
REMARK SMILES IDX 6 1 7 2 8 3 9 4 13 5 12 6 11 7 14 8 10 9 15 10 5 11 4 12
REMARK SMILES IDX 2 13 1 14 3 15
REMARK H PARENT
REMARK Flexibility Score: inf
ROOT
ATOM      1  C   UNL     1       9.140   0.392  14.751  1.00  0.00     0.012 C 
ENDROOT
BRANCH   1   2
ATOM      2  C   UNL     1      10.468   1.096  14.399  1.00  0.00     0.016 C 
ATOM      3  C   UNL     1      11.390   1.162  15.623  1.00  0.00     0.013 C 
BRANCH   2   4
ATOM      4  C   UNL     1      11.176   0.428  13.232  1.00  0.00    -0.045 A 
ATOM      5  C   UNL     1      13.222  -1.442   9.920  1.00  0.00     0.044 C 
ATOM      6  C   UNL     1      12.502  -0.771  11.051  1.00  0.00    -0.051 A 
ATOM      7  C   UNL     1      11.176  -1.114  11.347  1.00  0.00     0.004 A 
ATOM      8  C   UNL     1      13.170   0.155  11.864  1.00  0.00     0.004 A 
ATOM      9  C   UNL     1      10.514  -0.515  12.423  1.00  0.00     0.004 A 
ATOM     10  C   UNL     1      12.511   0.755  12.941  1.00  0.00     0.004 A 
ENDBRANCH   2   4
ENDBRANCH   1   2
BRANCH   1  11
ATOM     11  C   UNL     1       7.918   1.265  14.426  1.00  0.00     0.028 C 
BRANCH  11  12
ATOM     12  C   UNL     1       7.186   0.732  13.220  1.00  0.00    -0.028 C 
ATOM     13  C   UNL     1       7.274   1.262  11.979  1.00  0.00    -0.080 C 
ATOM     14  C   UNL     1       8.189   2.420  11.665  1.00  0.00     0.039 C 
ATOM     15  C   UNL     1       6.473   0.666  10.850  1.00  0.00     0.039 C 
ENDBRANCH  11  12
ENDBRANCH   1  11
TORSDOF 4
ENDMDL
