MODEL 1
REMARK VINA RESULT:    -4.068      0.000      0.000
REMARK INTER + INTRA:          -6.423
REMARK INTER:                  -6.208
REMARK INTRA:                  -0.216
REMARK UNBOUND:                -0.216
REMARK SMILES CC1=CCC[C@@H](C)C(=O)C[C@H](C(C)C)C(=O)C1
REMARK SMILES IDX 8 1 9 2 6 3 7 4 5 5 4 6 3 7 2 8 1 9 10 11 11 12 15 13 16 14
REMARK SMILES IDX 17 15 12 17 13 18 14 19
REMARK H PARENT
REMARK Flexibility Score: 70.00
ROOT
ATOM      1  C   UNL     1     -13.003  12.126 -29.991  1.00  0.00     0.136 C 
ATOM      2  O   UNL     1     -12.575  12.010 -31.131  1.00  0.00    -0.299 OA
ENDROOT
BRANCH   1   3
ATOM      3  C   UNL     1     -12.049  12.650 -28.923  1.00  0.00     0.053 C 
ATOM      4  C   UNL     1     -12.598  12.640 -27.485  1.00  0.00     0.016 C 
BRANCH   3   5
ATOM      5  C   UNL     1     -11.426  14.024 -29.298  1.00  0.00     0.015 C 
BRANCH   5   6
ATOM      6  C   UNL     1     -12.396  15.218 -29.368  1.00  0.00     0.028 C 
BRANCH   6   7
ATOM      7  C   UNL     1     -12.612  15.699 -30.782  1.00  0.00    -0.028 C 
ATOM      8  C   UNL     1     -13.802  15.700 -31.426  1.00  0.00    -0.070 CG0
ATOM      9  C   UNL     1     -13.835  16.194 -32.850  1.00  0.00     0.039 C 
ATOM     10  G   UNL     1     -15.094  15.238 -30.775  1.00  0.00     0.000 G0
ENDBRANCH   6   7
ENDBRANCH   5   6
ENDBRANCH   3   5
ENDBRANCH   1   3
BRANCH   1  11
ATOM     11  C   UNL     1     -14.434  11.688 -29.730  1.00  0.00     0.087 C 
BRANCH  11  12
ATOM     12  C   UNL     1     -15.449  12.858 -29.654  1.00  0.00     0.066 C 
BRANCH  12  13
ATOM     13  C   UNL     1     -15.378  13.761 -30.881  1.00  0.00     0.140 C 
ATOM     14  O   UNL     1     -15.576  13.278 -31.986  1.00  0.00    -0.299 OA
BRANCH  13  15
ATOM     15  C   UNL     1     -15.112  15.250 -30.789  1.00  0.00     0.106 CG0
ATOM     16  G   UNL     1     -13.800  15.684 -31.419  1.00  0.00     0.000 G0
ENDBRANCH  13  15
ENDBRANCH  12  13
BRANCH  12  17
ATOM     17  C   UNL     1     -16.896  12.349 -29.363  1.00  0.00    -0.006 C 
ATOM     18  C   UNL     1     -16.981  11.667 -27.989  1.00  0.00     0.008 C 
ATOM     19  C   UNL     1     -17.984  13.433 -29.472  1.00  0.00     0.008 C 
ENDBRANCH  12  17
ENDBRANCH  11  12
ENDBRANCH   1  11
TORSDOF 1
ENDMDL
MODEL 2
REMARK VINA RESULT:    -3.344      1.939      4.853
REMARK INTER + INTRA:          -5.319
REMARK INTER:                  -5.395
REMARK INTRA:                   0.076
REMARK UNBOUND:                -0.216
REMARK SMILES CC1=CCC[C@@H](C)C(=O)C[C@H](C(C)C)C(=O)C1
REMARK SMILES IDX 8 1 9 2 6 3 7 4 5 5 4 6 3 7 2 8 1 9 10 11 11 12 15 13 16 14
REMARK SMILES IDX 17 15 12 17 13 18 14 19
REMARK H PARENT
REMARK Flexibility Score: 70.00
ROOT
ATOM      1  C   UNL     1     -16.221  13.107 -30.791  1.00  0.00     0.136 C 
ATOM      2  O   UNL     1     -16.903  13.869 -31.462  1.00  0.00    -0.299 OA
ENDROOT
BRANCH   1   3
ATOM      3  C   UNL     1     -16.902  12.367 -29.644  1.00  0.00     0.053 C 
ATOM      4  C   UNL     1     -18.303  11.813 -29.954  1.00  0.00     0.016 C 
BRANCH   3   5
ATOM      5  C   UNL     1     -16.875  13.171 -28.314  1.00  0.00     0.015 C 
BRANCH   5   6
ATOM      6  C   UNL     1     -15.976  12.611 -27.195  1.00  0.00     0.028 C 
BRANCH   6   7
ATOM      7  C   UNL     1     -14.934  11.655 -27.721  1.00  0.00    -0.028 C 
ATOM      8  C   UNL     1     -13.729  12.019 -28.217  1.00  0.00    -0.070 CG0
ATOM      9  C   UNL     1     -12.815  10.933 -28.725  1.00  0.00     0.039 C 
ATOM     10  G   UNL     1     -13.261  13.463 -28.273  1.00  0.00     0.000 G0
ENDBRANCH   6   7
ENDBRANCH   5   6
ENDBRANCH   3   5
ENDBRANCH   1   3
BRANCH   1  11
ATOM     11  C   UNL     1     -14.744  13.004 -31.128  1.00  0.00     0.087 C 
BRANCH  11  12
ATOM     12  C   UNL     1     -13.919  14.258 -30.743  1.00  0.00     0.066 C 
BRANCH  12  13
ATOM     13  C   UNL     1     -12.886  13.956 -29.661  1.00  0.00     0.140 C 
ATOM     14  O   UNL     1     -11.702  14.143 -29.900  1.00  0.00    -0.299 OA
BRANCH  13  15
ATOM     15  C   UNL     1     -13.267  13.470 -28.277  1.00  0.00     0.106 CG0
ATOM     16  G   UNL     1     -13.719  12.020 -28.233  1.00  0.00     0.000 G0
ENDBRANCH  13  15
ENDBRANCH  12  13
BRANCH  12  17
ATOM     17  C   UNL     1     -13.294  14.947 -31.996  1.00  0.00    -0.006 C 
ATOM     18  C   UNL     1     -13.660  14.195 -33.285  1.00  0.00     0.008 C 
ATOM     19  C   UNL     1     -13.651  16.437 -32.146  1.00  0.00     0.008 C 
ENDBRANCH  12  17
ENDBRANCH  11  12
ENDBRANCH   1  11
TORSDOF 1
ENDMDL
MODEL 3
REMARK VINA RESULT:    -3.310      1.803      2.620
REMARK INTER + INTRA:          -5.266
REMARK INTER:                  -5.167
REMARK INTRA:                  -0.099
REMARK UNBOUND:                -0.216
REMARK SMILES CC1=CCC[C@@H](C)C(=O)C[C@H](C(C)C)C(=O)C1
REMARK SMILES IDX 8 1 9 2 6 3 7 4 5 5 4 6 3 7 2 8 1 9 10 11 11 12 15 13 16 14
REMARK SMILES IDX 17 15 12 17 13 18 14 19
REMARK H PARENT
REMARK Flexibility Score: 70.00
ROOT
ATOM      1  C   UNL     1     -12.128  13.076 -29.722  1.00  0.00     0.136 C 
ATOM      2  O   UNL     1     -11.594  13.051 -28.622  1.00  0.00    -0.299 OA
ENDROOT
BRANCH   1   3
ATOM      3  C   UNL     1     -11.356  13.710 -30.874  1.00  0.00     0.053 C 
ATOM      4  C   UNL     1     -10.812  15.124 -30.606  1.00  0.00     0.016 C 
BRANCH   3   5
ATOM      5  C   UNL     1     -12.121  13.627 -32.225  1.00  0.00     0.015 C 
BRANCH   5   6
ATOM      6  C   UNL     1     -12.897  14.889 -32.649  1.00  0.00     0.028 C 
BRANCH   6   7
ATOM      7  C   UNL     1     -14.361  14.610 -32.881  1.00  0.00    -0.028 C 
ATOM      8  C   UNL     1     -15.323  14.684 -31.932  1.00  0.00    -0.070 CG0
ATOM      9  C   UNL     1     -16.738  14.349 -32.331  1.00  0.00     0.039 C 
ATOM     10  G   UNL     1     -15.039  15.097 -30.498  1.00  0.00     0.000 G0
ENDBRANCH   6   7
ENDBRANCH   5   6
ENDBRANCH   3   5
ENDBRANCH   1   3
BRANCH   1  11
ATOM     11  C   UNL     1     -13.537  12.520 -29.831  1.00  0.00     0.087 C 
BRANCH  11  12
ATOM     12  C   UNL     1     -14.530  13.103 -28.792  1.00  0.00     0.066 C 
BRANCH  12  13
ATOM     13  C   UNL     1     -15.481  14.120 -29.414  1.00  0.00     0.140 C 
ATOM     14  O   UNL     1     -16.638  14.168 -29.023  1.00  0.00    -0.299 OA
BRANCH  13  15
ATOM     15  C   UNL     1     -15.044  15.111 -30.474  1.00  0.00     0.106 CG0
ATOM     16  G   UNL     1     -15.349  14.671 -31.896  1.00  0.00     0.000 G0
ENDBRANCH  13  15
ENDBRANCH  12  13
BRANCH  12  17
ATOM     17  C   UNL     1     -15.278  11.976 -28.013  1.00  0.00    -0.006 C 
ATOM     18  C   UNL     1     -15.780  10.880 -28.965  1.00  0.00     0.008 C 
ATOM     19  C   UNL     1     -14.459  11.339 -26.875  1.00  0.00     0.008 C 
ENDBRANCH  12  17
ENDBRANCH  11  12
ENDBRANCH   1  11
TORSDOF 1
ENDMDL
MODEL 4
REMARK VINA RESULT:    -3.042      2.033      4.779
REMARK INTER + INTRA:          -4.858
REMARK INTER:                  -5.240
REMARK INTRA:                   0.382
REMARK UNBOUND:                -0.216
REMARK SMILES CC1=CCC[C@@H](C)C(=O)C[C@H](C(C)C)C(=O)C1
REMARK SMILES IDX 8 1 9 2 6 3 7 4 5 5 4 6 3 7 2 8 1 9 10 11 11 12 15 13 16 14
REMARK SMILES IDX 17 15 12 17 13 18 14 19
REMARK H PARENT
REMARK Flexibility Score: 70.00
ROOT
ATOM      1  C   UNL     1     -13.766  13.699 -32.157  1.00  0.00     0.136 C 
ATOM      2  O   UNL     1     -13.231  13.883 -33.241  1.00  0.00    -0.299 OA
ENDROOT
BRANCH   1   3
ATOM      3  C   UNL     1     -15.138  14.323 -31.926  1.00  0.00     0.053 C 
ATOM      4  C   UNL     1     -15.706  15.126 -33.109  1.00  0.00     0.016 C 
BRANCH   3   5
ATOM      5  C   UNL     1     -15.217  15.118 -30.592  1.00  0.00     0.015 C 
BRANCH   5   6
ATOM      6  C   UNL     1     -16.396  14.775 -29.661  1.00  0.00     0.028 C 
BRANCH   6   7
ATOM      7  C   UNL     1     -16.760  13.312 -29.712  1.00  0.00    -0.028 C 
ATOM      8  C   UNL     1     -16.135  12.334 -29.018  1.00  0.00    -0.070 CG0
ATOM      9  C   UNL     1     -16.614  10.916 -29.205  1.00  0.00     0.039 C 
ATOM     10  G   UNL     1     -14.990  12.605 -28.057  1.00  0.00     0.000 G0
ENDBRANCH   6   7
ENDBRANCH   5   6
ENDBRANCH   3   5
ENDBRANCH   1   3
BRANCH   1  11
ATOM     11  C   UNL     1     -12.993  12.907 -31.117  1.00  0.00     0.087 C 
BRANCH  11  12
ATOM     12  C   UNL     1     -13.077  13.493 -29.684  1.00  0.00     0.066 C 
BRANCH  12  13
ATOM     13  C   UNL     1     -13.608  12.476 -28.678  1.00  0.00     0.140 C 
ATOM     14  O   UNL     1     -12.890  11.546 -28.338  1.00  0.00    -0.299 OA
BRANCH  13  15
ATOM     15  C   UNL     1     -14.980  12.587 -28.045  1.00  0.00     0.106 CG0
ATOM     16  G   UNL     1     -16.128  12.326 -29.005  1.00  0.00     0.000 G0
ENDBRANCH  13  15
ENDBRANCH  12  13
BRANCH  12  17
ATOM     17  C   UNL     1     -11.724  14.129 -29.239  1.00  0.00    -0.006 C 
ATOM     18  C   UNL     1     -10.564  13.645 -30.123  1.00  0.00     0.008 C 
ATOM     19  C   UNL     1     -11.732  15.669 -29.192  1.00  0.00     0.008 C 
ENDBRANCH  12  17
ENDBRANCH  11  12
ENDBRANCH   1  11
TORSDOF 1
ENDMDL
MODEL 5
REMARK VINA RESULT:    -2.989      1.717      3.566
REMARK INTER + INTRA:          -4.776
REMARK INTER:                  -6.191
REMARK INTRA:                   1.414
REMARK UNBOUND:                -0.216
REMARK SMILES CC1=CCC[C@@H](C)C(=O)C[C@H](C(C)C)C(=O)C1
REMARK SMILES IDX 8 1 9 2 6 3 7 4 5 5 4 6 3 7 2 8 1 9 10 11 11 12 15 13 16 14
REMARK SMILES IDX 17 15 12 17 13 18 14 19
REMARK H PARENT
REMARK Flexibility Score: 70.00
ROOT
ATOM      1  C   UNL     1     -15.373  14.417 -32.025  1.00  0.00     0.136 C 
ATOM      2  O   UNL     1     -16.364  14.612 -32.714  1.00  0.00    -0.299 OA
ENDROOT
BRANCH   1   3
ATOM      3  C   UNL     1     -14.533  15.626 -31.629  1.00  0.00     0.053 C 
ATOM      4  C   UNL     1     -13.609  16.178 -32.729  1.00  0.00     0.016 C 
BRANCH   3   5
ATOM      5  C   UNL     1     -13.778  15.417 -30.286  1.00  0.00     0.015 C 
BRANCH   5   6
ATOM      6  C   UNL     1     -12.240  15.366 -30.368  1.00  0.00     0.028 C 
BRANCH   6   7
ATOM      7  C   UNL     1     -11.706  13.961 -30.248  1.00  0.00    -0.028 C 
ATOM      8  C   UNL     1     -12.305  12.960 -29.564  1.00  0.00    -0.070 CG0
ATOM      9  C   UNL     1     -11.620  11.617 -29.527  1.00  0.00     0.039 C 
ATOM     10  G   UNL     1     -13.634  13.129 -28.848  1.00  0.00     0.000 G0
ENDBRANCH   6   7
ENDBRANCH   5   6
ENDBRANCH   3   5
ENDBRANCH   1   3
BRANCH   1  11
ATOM     11  C   UNL     1     -15.037  12.979 -31.668  1.00  0.00     0.087 C 
BRANCH  11  12
ATOM     12  C   UNL     1     -15.722  12.472 -30.373  1.00  0.00     0.066 C 
BRANCH  12  13
ATOM     13  C   UNL     1     -14.711  12.148 -29.278  1.00  0.00     0.140 C 
ATOM     14  O   UNL     1     -14.741  11.046 -28.749  1.00  0.00    -0.299 OA
BRANCH  13  15
ATOM     15  C   UNL     1     -13.636  13.121 -28.840  1.00  0.00     0.106 CG0
ATOM     16  G   UNL     1     -12.312  12.948 -29.565  1.00  0.00     0.000 G0
ENDBRANCH  13  15
ENDBRANCH  12  13
BRANCH  12  17
ATOM     17  C   UNL     1     -16.840  13.448 -29.891  1.00  0.00    -0.006 C 
ATOM     18  C   UNL     1     -18.200  13.086 -30.509  1.00  0.00     0.008 C 
ATOM     19  C   UNL     1     -16.977  13.550 -28.361  1.00  0.00     0.008 C 
ENDBRANCH  12  17
ENDBRANCH  11  12
ENDBRANCH   1  11
TORSDOF 1
ENDMDL
MODEL 6
REMARK VINA RESULT:    -2.887      2.235      4.976
REMARK INTER + INTRA:          -4.621
REMARK INTER:                  -4.924
REMARK INTRA:                   0.303
REMARK UNBOUND:                -0.216
REMARK SMILES CC1=CCC[C@@H](C)C(=O)C[C@H](C(C)C)C(=O)C1
REMARK SMILES IDX 8 1 9 2 6 3 7 4 5 5 4 6 3 7 2 8 1 9 10 11 11 12 15 13 16 14
REMARK SMILES IDX 17 15 12 17 13 18 14 19
REMARK H PARENT
REMARK Flexibility Score: 70.00
ROOT
ATOM      1  C   UNL     1     -15.105  14.380 -32.113  1.00  0.00     0.136 C 
ATOM      2  O   UNL     1     -15.724  15.337 -32.558  1.00  0.00    -0.299 OA
ENDROOT
BRANCH   1   3
ATOM      3  C   UNL     1     -15.759  13.566 -31.002  1.00  0.00     0.053 C 
ATOM      4  C   UNL     1     -17.209  13.125 -31.271  1.00  0.00     0.016 C 
BRANCH   3   5
ATOM      5  C   UNL     1     -15.602  14.226 -29.603  1.00  0.00     0.015 C 
BRANCH   5   6
ATOM      6  C   UNL     1     -14.610  13.552 -28.637  1.00  0.00     0.028 C 
BRANCH   6   7
ATOM      7  C   UNL     1     -13.679  12.598 -29.344  1.00  0.00    -0.028 C 
ATOM      8  C   UNL     1     -12.489  12.939 -29.889  1.00  0.00    -0.070 CG0
ATOM      9  C   UNL     1     -11.693  11.862 -30.583  1.00  0.00     0.039 C 
ATOM     10  G   UNL     1     -11.922  14.347 -29.822  1.00  0.00     0.000 G0
ENDBRANCH   6   7
ENDBRANCH   5   6
ENDBRANCH   3   5
ENDBRANCH   1   3
BRANCH   1  11
ATOM     11  C   UNL     1     -13.718  14.120 -32.672  1.00  0.00     0.087 C 
BRANCH  11  12
ATOM     12  C   UNL     1     -12.661  15.177 -32.262  1.00  0.00     0.066 C 
BRANCH  12  13
ATOM     13  C   UNL     1     -12.592  15.363 -30.749  1.00  0.00     0.140 C 
ATOM     14  O   UNL     1     -13.128  16.339 -30.245  1.00  0.00    -0.299 OA
BRANCH  13  15
ATOM     15  C   UNL     1     -11.919  14.364 -29.830  1.00  0.00     0.106 CG0
ATOM     16  G   UNL     1     -12.492  12.959 -29.918  1.00  0.00     0.000 G0
ENDBRANCH  13  15
ENDBRANCH  12  13
BRANCH  12  17
ATOM     17  C   UNL     1     -11.267  14.879 -32.896  1.00  0.00    -0.006 C 
ATOM     18  C   UNL     1     -11.373  13.809 -33.994  1.00  0.00     0.008 C 
ATOM     19  C   UNL     1     -10.543  16.120 -33.451  1.00  0.00     0.008 C 
ENDBRANCH  12  17
ENDBRANCH  11  12
ENDBRANCH   1  11
TORSDOF 1
ENDMDL
MODEL 7
REMARK VINA RESULT:    -2.704      2.054      4.229
REMARK INTER + INTRA:          -4.343
REMARK INTER:                  -4.883
REMARK INTRA:                   0.541
REMARK UNBOUND:                -0.216
REMARK SMILES CC1=CCC[C@@H](C)C(=O)C[C@H](C(C)C)C(=O)C1
REMARK SMILES IDX 8 1 9 2 6 3 7 4 5 5 4 6 3 7 2 8 1 9 10 11 11 12 15 13 16 14
REMARK SMILES IDX 17 15 12 17 13 18 14 19
REMARK H PARENT
REMARK Flexibility Score: 70.00
ROOT
ATOM      1  C   UNL     1     -14.751  12.096 -30.484  1.00  0.00     0.136 C 
ATOM      2  O   UNL     1     -14.817  10.877 -30.561  1.00  0.00    -0.299 OA
ENDROOT
BRANCH   1   3
ATOM      3  C   UNL     1     -14.935  12.733 -29.111  1.00  0.00     0.053 C 
ATOM      4  C   UNL     1     -16.375  13.148 -28.764  1.00  0.00     0.016 C 
BRANCH   3   5
ATOM      5  C   UNL     1     -13.918  13.877 -28.840  1.00  0.00     0.015 C 
BRANCH   5   6
ATOM      6  C   UNL     1     -12.675  13.505 -28.010  1.00  0.00     0.028 C 
BRANCH   6   7
ATOM      7  C   UNL     1     -11.972  12.283 -28.547  1.00  0.00    -0.028 C 
ATOM      8  C   UNL     1     -11.286  12.234 -29.711  1.00  0.00    -0.070 CG0
ATOM      9  C   UNL     1     -10.662  10.920 -30.110  1.00  0.00     0.039 C 
ATOM     10  G   UNL     1     -11.110  13.439 -30.618  1.00  0.00     0.000 G0
ENDBRANCH   6   7
ENDBRANCH   5   6
ENDBRANCH   3   5
ENDBRANCH   1   3
BRANCH   1  11
ATOM     11  C   UNL     1     -14.542  12.870 -31.774  1.00  0.00     0.087 C 
BRANCH  11  12
ATOM     12  C   UNL     1     -13.493  14.007 -31.666  1.00  0.00     0.066 C 
BRANCH  12  13
ATOM     13  C   UNL     1     -12.065  13.486 -31.800  1.00  0.00     0.140 C 
ATOM     14  O   UNL     1     -11.667  13.122 -32.897  1.00  0.00    -0.299 OA
BRANCH  13  15
ATOM     15  C   UNL     1     -11.097  13.438 -30.636  1.00  0.00     0.106 CG0
ATOM     16  G   UNL     1     -11.280  12.234 -29.728  1.00  0.00     0.000 G0
ENDBRANCH  13  15
ENDBRANCH  12  13
BRANCH  12  17
ATOM     17  C   UNL     1     -13.803  15.175 -32.652  1.00  0.00    -0.006 C 
ATOM     18  C   UNL     1     -15.305  15.254 -32.967  1.00  0.00     0.008 C 
ATOM     19  C   UNL     1     -13.300  16.553 -32.183  1.00  0.00     0.008 C 
ENDBRANCH  12  17
ENDBRANCH  11  12
ENDBRANCH   1  11
TORSDOF 1
ENDMDL
MODEL 8
REMARK VINA RESULT:    -2.381      1.982      3.670
REMARK INTER + INTRA:          -3.850
REMARK INTER:                  -5.678
REMARK INTRA:                   1.828
REMARK UNBOUND:                -0.216
REMARK SMILES CC1=CCC[C@@H](C)C(=O)C[C@H](C(C)C)C(=O)C1
REMARK SMILES IDX 8 1 9 2 6 3 7 4 5 5 4 6 3 7 2 8 1 9 10 11 11 12 15 13 16 14
REMARK SMILES IDX 17 15 12 17 13 18 14 19
REMARK H PARENT
REMARK Flexibility Score: 70.00
ROOT
ATOM      1  C   UNL     1     -13.514  15.315 -32.182  1.00  0.00     0.136 C 
ATOM      2  O   UNL     1     -14.096  15.922 -33.070  1.00  0.00    -0.299 OA
ENDROOT
BRANCH   1   3
ATOM      3  C   UNL     1     -12.004  15.144 -32.310  1.00  0.00     0.053 C 
ATOM      4  C   UNL     1     -11.541  14.133 -33.373  1.00  0.00     0.016 C 
BRANCH   3   5
ATOM      5  C   UNL     1     -11.310  14.905 -30.939  1.00  0.00     0.015 C 
BRANCH   5   6
ATOM      6  C   UNL     1     -12.102  15.335 -29.689  1.00  0.00     0.028 C 
BRANCH   6   7
ATOM      7  C   UNL     1     -12.095  14.276 -28.615  1.00  0.00    -0.028 C 
ATOM      8  C   UNL     1     -12.360  12.965 -28.817  1.00  0.00    -0.070 CG0
ATOM      9  C   UNL     1     -12.332  12.044 -27.623  1.00  0.00     0.039 C 
ATOM     10  G   UNL     1     -12.671  12.388 -30.187  1.00  0.00     0.000 G0
ENDBRANCH   6   7
ENDBRANCH   5   6
ENDBRANCH   3   5
ENDBRANCH   1   3
BRANCH   1  11
ATOM     11  C   UNL     1     -14.355  14.740 -31.056  1.00  0.00     0.087 C 
BRANCH  11  12
ATOM     12  C   UNL     1     -14.878  13.306 -31.326  1.00  0.00     0.066 C 
BRANCH  12  13
ATOM     13  C   UNL     1     -14.145  12.260 -30.492  1.00  0.00     0.140 C 
ATOM     14  O   UNL     1     -14.760  11.285 -30.086  1.00  0.00    -0.299 OA
BRANCH  13  15
ATOM     15  C   UNL     1     -12.666  12.353 -30.175  1.00  0.00     0.106 CG0
ATOM     16  G   UNL     1     -12.361  12.967 -28.820  1.00  0.00     0.000 G0
ENDBRANCH  13  15
ENDBRANCH  12  13
BRANCH  12  17
ATOM     17  C   UNL     1     -16.429  13.218 -31.174  1.00  0.00    -0.006 C 
ATOM     18  C   UNL     1     -16.852  13.349 -29.702  1.00  0.00     0.008 C 
ATOM     19  C   UNL     1     -17.209  14.233 -32.029  1.00  0.00     0.008 C 
ENDBRANCH  12  17
ENDBRANCH  11  12
ENDBRANCH   1  11
TORSDOF 1
ENDMDL
MODEL 9
REMARK VINA RESULT:    -1.680     11.348     13.723
REMARK INTER + INTRA:          -2.779
REMARK INTER:                  -2.568
REMARK INTRA:                  -0.212
REMARK UNBOUND:                -0.216
REMARK SMILES CC1=CCC[C@@H](C)C(=O)C[C@H](C(C)C)C(=O)C1
REMARK SMILES IDX 8 1 9 2 6 3 7 4 5 5 4 6 3 7 2 8 1 9 10 11 11 12 15 13 16 14
REMARK SMILES IDX 17 15 12 17 13 18 14 19
REMARK H PARENT
REMARK Flexibility Score: 70.00
ROOT
ATOM      1  C   UNL     1     -25.945  20.287 -34.731  1.00  0.00     0.136 C 
ATOM      2  O   UNL     1     -25.629  21.035 -35.646  1.00  0.00    -0.299 OA
ENDROOT
BRANCH   1   3
ATOM      3  C   UNL     1     -27.382  20.352 -34.224  1.00  0.00     0.053 C 
ATOM      4  C   UNL     1     -27.724  21.579 -33.361  1.00  0.00     0.016 C 
BRANCH   3   5
ATOM      5  C   UNL     1     -27.842  19.025 -33.557  1.00  0.00     0.015 C 
BRANCH   5   6
ATOM      6  C   UNL     1     -27.816  18.991 -32.017  1.00  0.00     0.028 C 
BRANCH   6   7
ATOM      7  C   UNL     1     -27.450  17.629 -31.480  1.00  0.00    -0.028 C 
ATOM      8  C   UNL     1     -26.283  17.327 -30.867  1.00  0.00    -0.070 CG0
ATOM      9  C   UNL     1     -26.069  15.906 -30.411  1.00  0.00     0.039 C 
ATOM     10  G   UNL     1     -25.193  18.355 -30.612  1.00  0.00     0.000 G0
ENDBRANCH   6   7
ENDBRANCH   5   6
ENDBRANCH   3   5
ENDBRANCH   1   3
BRANCH   1  11
ATOM     11  C   UNL     1     -24.863  19.396 -34.146  1.00  0.00     0.087 C 
BRANCH  11  12
ATOM     12  C   UNL     1     -24.420  19.796 -32.716  1.00  0.00     0.066 C 
BRANCH  12  13
ATOM     13  C   UNL     1     -24.275  18.585 -31.800  1.00  0.00     0.140 C 
ATOM     14  O   UNL     1     -23.371  17.788 -32.006  1.00  0.00    -0.299 OA
BRANCH  13  15
ATOM     15  C   UNL     1     -25.182  18.343 -30.611  1.00  0.00     0.106 CG0
ATOM     16  G   UNL     1     -26.284  17.330 -30.869  1.00  0.00     0.000 G0
ENDBRANCH  13  15
ENDBRANCH  12  13
BRANCH  12  17
ATOM     17  C   UNL     1     -23.142  20.692 -32.736  1.00  0.00    -0.006 C 
ATOM     18  C   UNL     1     -22.439  20.627 -34.101  1.00  0.00     0.008 C 
ATOM     19  C   UNL     1     -23.390  22.162 -32.350  1.00  0.00     0.008 C 
ENDBRANCH  12  17
ENDBRANCH  11  12
ENDBRANCH   1  11
TORSDOF 1
ENDMDL
