MODEL 1
REMARK VINA RESULT:    -4.075      0.000      0.000
REMARK INTER + INTRA:         -17.523
REMARK INTER:                 -10.744
REMARK INTRA:                  -6.779
REMARK UNBOUND:                -6.779
REMARK SMILES CCCCCCCCCCCCCCCCCCCCCCCCCCCCCC(=O)[O-]
REMARK SMILES IDX 16 1 17 2 18 3 19 4 20 5 21 6 22 7 23 8 24 9 25 10 26 11
REMARK SMILES IDX 27 12 28 13 29 14 30 15 31 16 32 17 15 18 14 19 13 20 12 21
REMARK SMILES IDX 11 22 10 23 9 24 8 25 7 26 6 27 5 28 4 29 3 30 2 31 1 32
REMARK H PARENT
REMARK Flexibility Score: inf
ROOT
ATOM      1  C   UNL     1       9.285 -16.781  20.442  1.00  0.00     0.000 C 
ENDROOT
BRANCH   1   2
ATOM      2  C   UNL     1       8.706 -17.678  21.547  1.00  0.00     0.000 C 
BRANCH   2   3
ATOM      3  C   UNL     1       7.172 -17.618  21.622  1.00  0.00     0.000 C 
BRANCH   3   4
ATOM      4  C   UNL     1       6.645 -18.424  22.820  1.00  0.00     0.000 C 
BRANCH   4   5
ATOM      5  C   UNL     1       7.731 -19.295  23.470  1.00  0.00     0.000 C 
BRANCH   5   6
ATOM      6  C   UNL     1       7.983 -18.929  24.941  1.00  0.00     0.000 C 
BRANCH   6   7
ATOM      7  C   UNL     1       7.116 -17.738  25.365  1.00  0.00     0.000 C 
BRANCH   7   8
ATOM      8  C   UNL     1       7.986 -16.562  25.831  1.00  0.00     0.000 C 
BRANCH   8   9
ATOM      9  C   UNL     1       8.542 -15.729  24.663  1.00  0.00     0.000 C 
BRANCH   9  10
ATOM     10  C   UNL     1      10.079 -15.611  24.615  1.00  0.00     0.000 C 
BRANCH  10  11
ATOM     11  C   UNL     1      10.821 -16.906  24.233  1.00  0.00     0.000 C 
BRANCH  11  12
ATOM     12  C   UNL     1      11.819 -17.361  25.308  1.00  0.00     0.000 C 
BRANCH  12  13
ATOM     13  C   UNL     1      11.608 -18.841  25.661  1.00  0.00     0.006 C 
BRANCH  13  14
ATOM     14  C   UNL     1      10.989 -19.024  27.053  1.00  0.00     0.053 C 
BRANCH  14  15
ATOM     15  C   UNL     1      11.802 -19.953  27.904  1.00  0.00     0.041 C 
ATOM     16  O   UNL     1      13.052 -19.999  27.774  1.00  0.00    -0.550 OA
ATOM     17  O   UNL     1      11.172 -20.792  28.815  1.00  0.00    -0.550 OA
ENDBRANCH  14  15
ENDBRANCH  13  14
ENDBRANCH  12  13
ENDBRANCH  11  12
ENDBRANCH  10  11
ENDBRANCH   9  10
ENDBRANCH   8   9
ENDBRANCH   7   8
ENDBRANCH   6   7
ENDBRANCH   5   6
ENDBRANCH   4   5
ENDBRANCH   3   4
ENDBRANCH   2   3
ENDBRANCH   1   2
BRANCH   1  18
ATOM     18  C   UNL     1      10.793 -16.999  20.229  1.00  0.00     0.000 C 
BRANCH  18  19
ATOM     19  C   UNL     1      11.148 -17.337  18.770  1.00  0.00     0.000 C 
BRANCH  19  20
ATOM     20  C   UNL     1       9.991 -17.913  17.930  1.00  0.00     0.000 C 
BRANCH  20  21
ATOM     21  C   UNL     1       9.877 -19.448  17.944  1.00  0.00     0.000 C 
BRANCH  21  22
ATOM     22  C   UNL     1       8.534 -19.941  18.511  1.00  0.00     0.000 C 
BRANCH  22  23
ATOM     23  C   UNL     1       8.718 -20.784  19.789  1.00  0.00     0.000 C 
BRANCH  23  24
ATOM     24  C   UNL     1      10.191 -21.003  20.185  1.00  0.00    -0.000 C 
BRANCH  24  25
ATOM     25  C   UNL     1      10.430 -21.131  21.705  1.00  0.00    -0.000 C 
BRANCH  25  26
ATOM     26  C   UNL     1      11.509 -20.193  22.285  1.00  0.00    -0.000 C 
BRANCH  26  27
ATOM     27  C   UNL     1      12.850 -20.860  22.641  1.00  0.00    -0.000 C 
BRANCH  27  28
ATOM     28  C   UNL     1      14.032 -19.876  22.649  1.00  0.00    -0.000 C 
BRANCH  28  29
ATOM     29  C   UNL     1      13.731 -18.582  21.876  1.00  0.00    -0.000 C 
BRANCH  29  30
ATOM     30  C   UNL     1      14.174 -17.323  22.638  1.00  0.00    -0.000 C 
BRANCH  30  31
ATOM     31  C   UNL     1      13.809 -16.055  21.857  1.00  0.00    -0.003 C 
ATOM     32  C   UNL     1      13.577 -14.876  22.798  1.00  0.00     0.004 C 
ENDBRANCH  30  31
ENDBRANCH  29  30
ENDBRANCH  28  29
ENDBRANCH  27  28
ENDBRANCH  26  27
ENDBRANCH  25  26
ENDBRANCH  24  25
ENDBRANCH  23  24
ENDBRANCH  22  23
ENDBRANCH  21  22
ENDBRANCH  20  21
ENDBRANCH  19  20
ENDBRANCH  18  19
ENDBRANCH   1  18
TORSDOF 28
ENDMDL
MODEL 2
REMARK VINA RESULT:    -4.063      2.646      4.991
REMARK INTER + INTRA:         -17.494
REMARK INTER:                 -10.659
REMARK INTRA:                  -6.835
REMARK UNBOUND:                -6.779
REMARK SMILES CCCCCCCCCCCCCCCCCCCCCCCCCCCCCC(=O)[O-]
REMARK SMILES IDX 16 1 17 2 18 3 19 4 20 5 21 6 22 7 23 8 24 9 25 10 26 11
REMARK SMILES IDX 27 12 28 13 29 14 30 15 31 16 32 17 15 18 14 19 13 20 12 21
REMARK SMILES IDX 11 22 10 23 9 24 8 25 7 26 6 27 5 28 4 29 3 30 2 31 1 32
REMARK H PARENT
REMARK Flexibility Score: inf
ROOT
ATOM      1  C   UNL     1      11.278 -21.118  22.000  1.00  0.00     0.000 C 
ENDROOT
BRANCH   1   2
ATOM      2  C   UNL     1      10.564 -19.768  22.169  1.00  0.00     0.000 C 
BRANCH   2   3
ATOM      3  C   UNL     1      10.773 -19.153  23.562  1.00  0.00     0.000 C 
BRANCH   3   4
ATOM      4  C   UNL     1      10.952 -17.629  23.471  1.00  0.00     0.000 C 
BRANCH   4   5
ATOM      5  C   UNL     1      10.540 -16.907  24.763  1.00  0.00     0.000 C 
BRANCH   5   6
ATOM      6  C   UNL     1       9.609 -17.753  25.644  1.00  0.00     0.000 C 
BRANCH   6   7
ATOM      7  C   UNL     1       8.291 -17.018  25.912  1.00  0.00     0.000 C 
BRANCH   7   8
ATOM      8  C   UNL     1       7.091 -17.845  25.427  1.00  0.00     0.000 C 
BRANCH   8   9
ATOM      9  C   UNL     1       7.412 -19.344  25.296  1.00  0.00     0.000 C 
BRANCH   9  10
ATOM     10  C   UNL     1       7.066 -19.972  23.930  1.00  0.00     0.000 C 
BRANCH  10  11
ATOM     11  C   UNL     1       6.386 -19.019  22.929  1.00  0.00     0.000 C 
BRANCH  11  12
ATOM     12  C   UNL     1       7.282 -18.677  21.729  1.00  0.00     0.000 C 
BRANCH  12  13
ATOM     13  C   UNL     1       7.113 -17.206  21.320  1.00  0.00     0.006 C 
BRANCH  13  14
ATOM     14  C   UNL     1       8.008 -16.267  22.141  1.00  0.00     0.053 C 
BRANCH  14  15
ATOM     15  C   UNL     1       7.204 -15.259  22.904  1.00  0.00     0.041 C 
ATOM     16  O   UNL     1       5.949 -15.343  22.935  1.00  0.00    -0.550 OA
ATOM     17  O   UNL     1       7.840 -14.208  23.551  1.00  0.00    -0.550 OA
ENDBRANCH  14  15
ENDBRANCH  13  14
ENDBRANCH  12  13
ENDBRANCH  11  12
ENDBRANCH  10  11
ENDBRANCH   9  10
ENDBRANCH   8   9
ENDBRANCH   7   8
ENDBRANCH   6   7
ENDBRANCH   5   6
ENDBRANCH   4   5
ENDBRANCH   3   4
ENDBRANCH   2   3
ENDBRANCH   1   2
BRANCH   1  18
ATOM     18  C   UNL     1      10.413 -22.161  21.271  1.00  0.00     0.000 C 
BRANCH  18  19
ATOM     19  C   UNL     1       8.977 -21.671  21.014  1.00  0.00     0.000 C 
BRANCH  19  20
ATOM     20  C   UNL     1       8.576 -21.558  19.530  1.00  0.00     0.000 C 
BRANCH  20  21
ATOM     21  C   UNL     1       8.888 -20.201  18.873  1.00  0.00     0.000 C 
BRANCH  21  22
ATOM     22  C   UNL     1      10.326 -20.119  18.328  1.00  0.00     0.000 C 
BRANCH  22  23
ATOM     23  C   UNL     1      10.815 -18.663  18.200  1.00  0.00     0.000 C 
BRANCH  23  24
ATOM     24  C   UNL     1      10.048 -17.666  19.089  1.00  0.00    -0.000 C 
BRANCH  24  25
ATOM     25  C   UNL     1      10.950 -16.712  19.901  1.00  0.00    -0.000 C 
BRANCH  25  26
ATOM     26  C   UNL     1      11.971 -15.904  19.073  1.00  0.00    -0.000 C 
BRANCH  26  27
ATOM     27  C   UNL     1      13.351 -15.704  19.727  1.00  0.00    -0.000 C 
BRANCH  27  28
ATOM     28  C   UNL     1      13.358 -16.023  21.232  1.00  0.00    -0.000 C 
BRANCH  28  29
ATOM     29  C   UNL     1      14.368 -17.122  21.601  1.00  0.00    -0.000 C 
BRANCH  29  30
ATOM     30  C   UNL     1      13.840 -18.533  21.297  1.00  0.00    -0.000 C 
BRANCH  30  31
ATOM     31  C   UNL     1      14.651 -19.190  20.175  1.00  0.00    -0.003 C 
ATOM     32  C   UNL     1      13.846 -20.286  19.482  1.00  0.00     0.004 C 
ENDBRANCH  30  31
ENDBRANCH  29  30
ENDBRANCH  28  29
ENDBRANCH  27  28
ENDBRANCH  26  27
ENDBRANCH  25  26
ENDBRANCH  24  25
ENDBRANCH  23  24
ENDBRANCH  22  23
ENDBRANCH  21  22
ENDBRANCH  20  21
ENDBRANCH  19  20
ENDBRANCH  18  19
ENDBRANCH   1  18
TORSDOF 28
ENDMDL
MODEL 3
REMARK VINA RESULT:    -4.061      2.056      6.148
REMARK INTER + INTRA:         -17.487
REMARK INTER:                 -10.934
REMARK INTRA:                  -6.553
REMARK UNBOUND:                -6.779
REMARK SMILES CCCCCCCCCCCCCCCCCCCCCCCCCCCCCC(=O)[O-]
REMARK SMILES IDX 16 1 17 2 18 3 19 4 20 5 21 6 22 7 23 8 24 9 25 10 26 11
REMARK SMILES IDX 27 12 28 13 29 14 30 15 31 16 32 17 15 18 14 19 13 20 12 21
REMARK SMILES IDX 11 22 10 23 9 24 8 25 7 26 6 27 5 28 4 29 3 30 2 31 1 32
REMARK H PARENT
REMARK Flexibility Score: inf
ROOT
ATOM      1  C   UNL     1       8.668 -21.237  20.093  1.00  0.00     0.000 C 
ENDROOT
BRANCH   1   2
ATOM      2  C   UNL     1       8.672 -20.590  18.699  1.00  0.00     0.000 C 
BRANCH   2   3
ATOM      3  C   UNL     1      10.087 -20.262  18.197  1.00  0.00     0.000 C 
BRANCH   3   4
ATOM      4  C   UNL     1      11.155 -20.839  19.138  1.00  0.00     0.000 C 
BRANCH   4   5
ATOM      5  C   UNL     1      12.211 -19.799  19.543  1.00  0.00     0.000 C 
BRANCH   5   6
ATOM      6  C   UNL     1      13.542 -19.984  18.797  1.00  0.00     0.000 C 
BRANCH   6   7
ATOM      7  C   UNL     1      13.828 -18.786  17.884  1.00  0.00     0.000 C 
BRANCH   7   8
ATOM      8  C   UNL     1      13.185 -17.506  18.437  1.00  0.00     0.000 C 
BRANCH   8   9
ATOM      9  C   UNL     1      14.185 -16.608  19.185  1.00  0.00     0.000 C 
BRANCH   9  10
ATOM     10  C   UNL     1      13.968 -16.513  20.709  1.00  0.00     0.000 C 
BRANCH  10  11
ATOM     11  C   UNL     1      14.634 -17.631  21.533  1.00  0.00     0.000 C 
BRANCH  11  12
ATOM     12  C   UNL     1      13.916 -17.899  22.864  1.00  0.00     0.000 C 
BRANCH  12  13
ATOM     13  C   UNL     1      13.464 -19.364  22.958  1.00  0.00     0.006 C 
BRANCH  13  14
ATOM     14  C   UNL     1      13.390 -19.859  24.409  1.00  0.00     0.053 C 
BRANCH  14  15
ATOM     15  C   UNL     1      14.741 -19.876  25.059  1.00  0.00     0.041 C 
ATOM     16  O   UNL     1      14.853 -19.649  26.291  1.00  0.00    -0.550 OA
ATOM     17  O   UNL     1      15.877 -20.109  24.295  1.00  0.00    -0.550 OA
ENDBRANCH  14  15
ENDBRANCH  13  14
ENDBRANCH  12  13
ENDBRANCH  11  12
ENDBRANCH  10  11
ENDBRANCH   9  10
ENDBRANCH   8   9
ENDBRANCH   7   8
ENDBRANCH   6   7
ENDBRANCH   5   6
ENDBRANCH   4   5
ENDBRANCH   3   4
ENDBRANCH   2   3
ENDBRANCH   1   2
BRANCH   1  18
ATOM     18  C   UNL     1       7.538 -20.705  20.992  1.00  0.00     0.000 C 
BRANCH  18  19
ATOM     19  C   UNL     1       8.056 -20.119  22.318  1.00  0.00     0.000 C 
BRANCH  19  20
ATOM     20  C   UNL     1       9.569 -19.830  22.362  1.00  0.00     0.000 C 
BRANCH  20  21
ATOM     21  C   UNL     1       9.947 -18.387  22.743  1.00  0.00     0.000 C 
BRANCH  21  22
ATOM     22  C   UNL     1      10.482 -17.575  21.549  1.00  0.00     0.000 C 
BRANCH  22  23
ATOM     23  C   UNL     1      10.647 -16.081  21.892  1.00  0.00     0.000 C 
BRANCH  23  24
ATOM     24  C   UNL     1      10.880 -15.806  23.389  1.00  0.00    -0.000 C 
BRANCH  24  25
ATOM     25  C   UNL     1       9.938 -14.742  23.995  1.00  0.00    -0.000 C 
BRANCH  25  26
ATOM     26  C   UNL     1       8.970 -15.259  25.080  1.00  0.00    -0.000 C 
BRANCH  26  27
ATOM     27  C   UNL     1       7.756 -16.056  24.565  1.00  0.00    -0.000 C 
BRANCH  27  28
ATOM     28  C   UNL     1       7.152 -15.471  23.276  1.00  0.00    -0.000 C 
BRANCH  28  29
ATOM     29  C   UNL     1       6.851 -16.548  22.221  1.00  0.00    -0.000 C 
BRANCH  29  30
ATOM     30  C   UNL     1       7.112 -16.059  20.788  1.00  0.00    -0.000 C 
BRANCH  30  31
ATOM     31  C   UNL     1       7.261 -17.242  19.825  1.00  0.00    -0.003 C 
ATOM     32  C   UNL     1       8.202 -16.900  18.674  1.00  0.00     0.004 C 
ENDBRANCH  30  31
ENDBRANCH  29  30
ENDBRANCH  28  29
ENDBRANCH  27  28
ENDBRANCH  26  27
ENDBRANCH  25  26
ENDBRANCH  24  25
ENDBRANCH  23  24
ENDBRANCH  22  23
ENDBRANCH  21  22
ENDBRANCH  20  21
ENDBRANCH  19  20
ENDBRANCH  18  19
ENDBRANCH   1  18
TORSDOF 28
ENDMDL
MODEL 4
REMARK VINA RESULT:    -4.057      2.692      6.571
REMARK INTER + INTRA:         -17.477
REMARK INTER:                 -10.869
REMARK INTRA:                  -6.608
REMARK UNBOUND:                -6.779
REMARK SMILES CCCCCCCCCCCCCCCCCCCCCCCCCCCCCC(=O)[O-]
REMARK SMILES IDX 16 1 17 2 18 3 19 4 20 5 21 6 22 7 23 8 24 9 25 10 26 11
REMARK SMILES IDX 27 12 28 13 29 14 30 15 31 16 32 17 15 18 14 19 13 20 12 21
REMARK SMILES IDX 11 22 10 23 9 24 8 25 7 26 6 27 5 28 4 29 3 30 2 31 1 32
REMARK H PARENT
REMARK Flexibility Score: inf
ROOT
ATOM      1  C   UNL     1       7.026 -17.992  22.703  1.00  0.00     0.000 C 
ENDROOT
BRANCH   1   2
ATOM      2  C   UNL     1       6.764 -16.489  22.895  1.00  0.00     0.000 C 
BRANCH   2   3
ATOM      3  C   UNL     1       6.856 -15.695  21.583  1.00  0.00     0.000 C 
BRANCH   3   4
ATOM      4  C   UNL     1       7.090 -16.630  20.386  1.00  0.00     0.000 C 
BRANCH   4   5
ATOM      5  C   UNL     1       7.724 -15.908  19.186  1.00  0.00     0.000 C 
BRANCH   5   6
ATOM      6  C   UNL     1       8.458 -16.868  18.238  1.00  0.00     0.000 C 
BRANCH   6   7
ATOM      7  C   UNL     1       7.989 -18.312  18.449  1.00  0.00     0.000 C 
BRANCH   7   8
ATOM      8  C   UNL     1       9.169 -19.292  18.368  1.00  0.00     0.000 C 
BRANCH   8   9
ATOM      9  C   UNL     1      10.344 -18.746  17.538  1.00  0.00     0.000 C 
BRANCH   9  10
ATOM     10  C   UNL     1      11.667 -18.569  18.311  1.00  0.00     0.000 C 
BRANCH  10  11
ATOM     11  C   UNL     1      12.940 -18.893  17.507  1.00  0.00     0.000 C 
BRANCH  11  12
ATOM     12  C   UNL     1      14.036 -19.544  18.362  1.00  0.00     0.000 C 
BRANCH  12  13
ATOM     13  C   UNL     1      13.427 -20.296  19.555  1.00  0.00     0.006 C 
BRANCH  13  14
ATOM     14  C   UNL     1      14.096 -19.920  20.884  1.00  0.00     0.053 C 
BRANCH  14  15
ATOM     15  C   UNL     1      14.769 -18.583  20.808  1.00  0.00     0.041 C 
ATOM     16  O   UNL     1      14.098 -17.527  20.943  1.00  0.00    -0.550 OA
ATOM     17  O   UNL     1      16.132 -18.504  20.551  1.00  0.00    -0.550 OA
ENDBRANCH  14  15
ENDBRANCH  13  14
ENDBRANCH  12  13
ENDBRANCH  11  12
ENDBRANCH  10  11
ENDBRANCH   9  10
ENDBRANCH   8   9
ENDBRANCH   7   8
ENDBRANCH   6   7
ENDBRANCH   5   6
ENDBRANCH   4   5
ENDBRANCH   3   4
ENDBRANCH   2   3
ENDBRANCH   1   2
BRANCH   1  18
ATOM     18  C   UNL     1       7.484 -18.685  23.998  1.00  0.00     0.000 C 
BRANCH  18  19
ATOM     19  C   UNL     1       7.746 -17.693  25.146  1.00  0.00     0.000 C 
BRANCH  19  20
ATOM     20  C   UNL     1       9.132 -17.810  25.812  1.00  0.00     0.000 C 
BRANCH  20  21
ATOM     21  C   UNL     1       9.990 -16.533  25.758  1.00  0.00     0.000 C 
BRANCH  21  22
ATOM     22  C   UNL     1       9.198 -15.301  25.282  1.00  0.00     0.000 C 
BRANCH  22  23
ATOM     23  C   UNL     1       9.757 -14.726  23.966  1.00  0.00     0.000 C 
BRANCH  23  24
ATOM     24  C   UNL     1      10.811 -15.623  23.290  1.00  0.00    -0.000 C 
BRANCH  24  25
ATOM     25  C   UNL     1      10.402 -16.147  21.896  1.00  0.00    -0.000 C 
BRANCH  25  26
ATOM     26  C   UNL     1      10.656 -17.650  21.655  1.00  0.00    -0.000 C 
BRANCH  26  27
ATOM     27  C   UNL     1      11.280 -18.418  22.835  1.00  0.00    -0.000 C 
BRANCH  27  28
ATOM     28  C   UNL     1      11.004 -19.930  22.787  1.00  0.00    -0.000 C 
BRANCH  28  29
ATOM     29  C   UNL     1       9.897 -20.299  21.786  1.00  0.00    -0.000 C 
BRANCH  29  30
ATOM     30  C   UNL     1      10.114 -21.680  21.150  1.00  0.00    -0.000 C 
BRANCH  30  31
ATOM     31  C   UNL     1       8.784 -22.279  20.677  1.00  0.00    -0.003 C 
ATOM     32  C   UNL     1       7.601 -21.446  21.161  1.00  0.00     0.004 C 
ENDBRANCH  30  31
ENDBRANCH  29  30
ENDBRANCH  28  29
ENDBRANCH  27  28
ENDBRANCH  26  27
ENDBRANCH  25  26
ENDBRANCH  24  25
ENDBRANCH  23  24
ENDBRANCH  22  23
ENDBRANCH  21  22
ENDBRANCH  20  21
ENDBRANCH  19  20
ENDBRANCH  18  19
ENDBRANCH   1  18
TORSDOF 28
ENDMDL
MODEL 5
REMARK VINA RESULT:    -4.041      2.893      4.056
REMARK INTER + INTRA:         -17.435
REMARK INTER:                 -11.523
REMARK INTRA:                  -5.912
REMARK UNBOUND:                -6.779
REMARK SMILES CCCCCCCCCCCCCCCCCCCCCCCCCCCCCC(=O)[O-]
REMARK SMILES IDX 16 1 17 2 18 3 19 4 20 5 21 6 22 7 23 8 24 9 25 10 26 11
REMARK SMILES IDX 27 12 28 13 29 14 30 15 31 16 32 17 15 18 14 19 13 20 12 21
REMARK SMILES IDX 11 22 10 23 9 24 8 25 7 26 6 27 5 28 4 29 3 30 2 31 1 32
REMARK H PARENT
REMARK Flexibility Score: inf
ROOT
ATOM      1  C   UNL     1       9.790 -20.391  17.956  1.00  0.00     0.000 C 
ENDROOT
BRANCH   1   2
ATOM      2  C   UNL     1       8.597 -20.402  18.924  1.00  0.00     0.000 C 
BRANCH   2   3
ATOM      3  C   UNL     1       8.260 -19.006  19.472  1.00  0.00     0.000 C 
BRANCH   3   4
ATOM      4  C   UNL     1       7.267 -19.097  20.642  1.00  0.00     0.000 C 
BRANCH   4   5
ATOM      5  C   UNL     1       7.322 -20.454  21.360  1.00  0.00     0.000 C 
BRANCH   5   6
ATOM      6  C   UNL     1       7.055 -20.337  22.869  1.00  0.00     0.000 C 
BRANCH   6   7
ATOM      7  C   UNL     1       7.406 -18.935  23.380  1.00  0.00     0.000 C 
BRANCH   7   8
ATOM      8  C   UNL     1       7.815 -18.976  24.860  1.00  0.00     0.000 C 
BRANCH   8   9
ATOM      9  C   UNL     1       7.099 -17.910  25.708  1.00  0.00     0.000 C 
BRANCH   9  10
ATOM     10  C   UNL     1       7.850 -16.571  25.848  1.00  0.00     0.000 C 
BRANCH  10  11
ATOM     11  C   UNL     1       9.386 -16.683  25.860  1.00  0.00     0.000 C 
BRANCH  11  12
ATOM     12  C   UNL     1      10.053 -15.847  24.758  1.00  0.00     0.000 C 
BRANCH  12  13
ATOM     13  C   UNL     1       9.005 -15.071  23.947  1.00  0.00     0.006 C 
BRANCH  13  14
ATOM     14  C   UNL     1       8.859 -15.611  22.518  1.00  0.00     0.053 C 
BRANCH  14  15
ATOM     15  C   UNL     1       7.434 -15.573  22.053  1.00  0.00     0.041 C 
ATOM     16  O   UNL     1       7.166 -15.661  20.826  1.00  0.00    -0.550 OA
ATOM     17  O   UNL     1       6.407 -15.403  22.972  1.00  0.00    -0.550 OA
ENDBRANCH  14  15
ENDBRANCH  13  14
ENDBRANCH  12  13
ENDBRANCH  11  12
ENDBRANCH  10  11
ENDBRANCH   9  10
ENDBRANCH   8   9
ENDBRANCH   7   8
ENDBRANCH   6   7
ENDBRANCH   5   6
ENDBRANCH   4   5
ENDBRANCH   3   4
ENDBRANCH   2   3
ENDBRANCH   1   2
BRANCH   1  18
ATOM     18  C   UNL     1      10.288 -18.969  17.641  1.00  0.00     0.000 C 
BRANCH  18  19
ATOM     19  C   UNL     1      11.517 -18.958  16.714  1.00  0.00     0.000 C 
BRANCH  19  20
ATOM     20  C   UNL     1      12.815 -18.423  17.350  1.00  0.00     0.000 C 
BRANCH  20  21
ATOM     21  C   UNL     1      12.978 -18.724  18.851  1.00  0.00     0.000 C 
BRANCH  21  22
ATOM     22  C   UNL     1      13.450 -20.163  19.123  1.00  0.00     0.000 C 
BRANCH  22  23
ATOM     23  C   UNL     1      13.162 -20.604  20.572  1.00  0.00     0.000 C 
BRANCH  23  24
ATOM     24  C   UNL     1      11.915 -21.496  20.717  1.00  0.00    -0.000 C 
BRANCH  24  25
ATOM     25  C   UNL     1      10.908 -21.014  21.784  1.00  0.00    -0.000 C 
BRANCH  25  26
ATOM     26  C   UNL     1      10.867 -19.488  22.012  1.00  0.00    -0.000 C 
BRANCH  26  27
ATOM     27  C   UNL     1      11.270 -19.014  23.421  1.00  0.00    -0.000 C 
BRANCH  27  28
ATOM     28  C   UNL     1      12.776 -18.726  23.554  1.00  0.00    -0.000 C 
BRANCH  28  29
ATOM     29  C   UNL     1      13.116 -17.243  23.336  1.00  0.00    -0.000 C 
BRANCH  29  30
ATOM     30  C   UNL     1      12.467 -16.669  22.068  1.00  0.00    -0.000 C 
BRANCH  30  31
ATOM     31  C   UNL     1      12.737 -15.164  21.948  1.00  0.00    -0.003 C 
ATOM     32  C   UNL     1      13.811 -14.717  22.935  1.00  0.00     0.004 C 
ENDBRANCH  30  31
ENDBRANCH  29  30
ENDBRANCH  28  29
ENDBRANCH  27  28
ENDBRANCH  26  27
ENDBRANCH  25  26
ENDBRANCH  24  25
ENDBRANCH  23  24
ENDBRANCH  22  23
ENDBRANCH  21  22
ENDBRANCH  20  21
ENDBRANCH  19  20
ENDBRANCH  18  19
ENDBRANCH   1  18
TORSDOF 28
ENDMDL
MODEL 6
REMARK VINA RESULT:    -4.025      2.501      5.652
REMARK INTER + INTRA:         -17.393
REMARK INTER:                 -11.244
REMARK INTRA:                  -6.150
REMARK UNBOUND:                -6.779
REMARK SMILES CCCCCCCCCCCCCCCCCCCCCCCCCCCCCC(=O)[O-]
REMARK SMILES IDX 16 1 17 2 18 3 19 4 20 5 21 6 22 7 23 8 24 9 25 10 26 11
REMARK SMILES IDX 27 12 28 13 29 14 30 15 31 16 32 17 15 18 14 19 13 20 12 21
REMARK SMILES IDX 11 22 10 23 9 24 8 25 7 26 6 27 5 28 4 29 3 30 2 31 1 32
REMARK H PARENT
REMARK Flexibility Score: inf
ROOT
ATOM      1  C   UNL     1       9.621 -15.872  24.904  1.00  0.00     0.000 C 
ENDROOT
BRANCH   1   2
ATOM      2  C   UNL     1       8.697 -14.770  24.363  1.00  0.00     0.000 C 
BRANCH   2   3
ATOM      3  C   UNL     1       7.579 -15.318  23.461  1.00  0.00     0.000 C 
BRANCH   3   4
ATOM      4  C   UNL     1       8.155 -15.916  22.168  1.00  0.00     0.000 C 
BRANCH   4   5
ATOM      5  C   UNL     1       7.124 -16.747  21.389  1.00  0.00     0.000 C 
BRANCH   5   6
ATOM      6  C   UNL     1       7.351 -16.701  19.870  1.00  0.00     0.000 C 
BRANCH   6   7
ATOM      7  C   UNL     1       7.459 -18.116  19.290  1.00  0.00     0.000 C 
BRANCH   7   8
ATOM      8  C   UNL     1       8.842 -18.350  18.665  1.00  0.00     0.000 C 
BRANCH   8   9
ATOM      9  C   UNL     1       9.030 -19.788  18.150  1.00  0.00     0.000 C 
BRANCH   9  10
ATOM     10  C   UNL     1      10.469 -20.150  17.731  1.00  0.00     0.000 C 
BRANCH  10  11
ATOM     11  C   UNL     1      11.289 -18.988  17.141  1.00  0.00     0.000 C 
BRANCH  11  12
ATOM     12  C   UNL     1      12.377 -18.480  18.098  1.00  0.00     0.000 C 
BRANCH  12  13
ATOM     13  C   UNL     1      13.605 -19.403  18.073  1.00  0.00     0.006 C 
BRANCH  13  14
ATOM     14  C   UNL     1      13.789 -20.162  19.394  1.00  0.00     0.053 C 
BRANCH  14  15
ATOM     15  C   UNL     1      14.673 -19.413  20.345  1.00  0.00     0.041 C 
ATOM     16  O   UNL     1      14.917 -19.884  21.486  1.00  0.00    -0.550 OA
ATOM     17  O   UNL     1      15.196 -18.178  19.984  1.00  0.00    -0.550 OA
ENDBRANCH  14  15
ENDBRANCH  13  14
ENDBRANCH  12  13
ENDBRANCH  11  12
ENDBRANCH  10  11
ENDBRANCH   9  10
ENDBRANCH   8   9
ENDBRANCH   7   8
ENDBRANCH   6   7
ENDBRANCH   5   6
ENDBRANCH   4   5
ENDBRANCH   3   4
ENDBRANCH   2   3
ENDBRANCH   1   2
BRANCH   1  18
ATOM     18  C   UNL     1       8.879 -16.890  25.787  1.00  0.00     0.000 C 
BRANCH  18  19
ATOM     19  C   UNL     1       9.235 -18.348  25.446  1.00  0.00     0.000 C 
BRANCH  19  20
ATOM     20  C   UNL     1       8.630 -18.882  24.133  1.00  0.00     0.000 C 
BRANCH  20  21
ATOM     21  C   UNL     1       7.127 -19.211  24.195  1.00  0.00     0.000 C 
BRANCH  21  22
ATOM     22  C   UNL     1       6.644 -20.024  22.980  1.00  0.00     0.000 C 
BRANCH  22  23
ATOM     23  C   UNL     1       7.806 -20.420  22.047  1.00  0.00     0.000 C 
BRANCH  23  24
ATOM     24  C   UNL     1       7.619 -21.788  21.364  1.00  0.00    -0.000 C 
BRANCH  24  25
ATOM     25  C   UNL     1       8.935 -22.552  21.099  1.00  0.00    -0.000 C 
BRANCH  25  26
ATOM     26  C   UNL     1      10.166 -21.666  20.812  1.00  0.00    -0.000 C 
BRANCH  26  27
ATOM     27  C   UNL     1      11.252 -21.661  21.904  1.00  0.00    -0.000 C 
BRANCH  27  28
ATOM     28  C   UNL     1      11.588 -20.250  22.415  1.00  0.00    -0.000 C 
BRANCH  28  29
ATOM     29  C   UNL     1      11.139 -19.145  21.445  1.00  0.00    -0.000 C 
BRANCH  29  30
ATOM     30  C   UNL     1      11.359 -17.735  22.014  1.00  0.00    -0.000 C 
BRANCH  30  31
ATOM     31  C   UNL     1      12.349 -17.766  23.185  1.00  0.00    -0.003 C 
ATOM     32  C   UNL     1      13.561 -16.884  22.904  1.00  0.00     0.004 C 
ENDBRANCH  30  31
ENDBRANCH  29  30
ENDBRANCH  28  29
ENDBRANCH  27  28
ENDBRANCH  26  27
ENDBRANCH  25  26
ENDBRANCH  24  25
ENDBRANCH  23  24
ENDBRANCH  22  23
ENDBRANCH  21  22
ENDBRANCH  20  21
ENDBRANCH  19  20
ENDBRANCH  18  19
ENDBRANCH   1  18
TORSDOF 28
ENDMDL
MODEL 7
REMARK VINA RESULT:    -4.009      2.249      6.423
REMARK INTER + INTRA:         -17.352
REMARK INTER:                 -11.320
REMARK INTRA:                  -6.032
REMARK UNBOUND:                -6.779
REMARK SMILES CCCCCCCCCCCCCCCCCCCCCCCCCCCCCC(=O)[O-]
REMARK SMILES IDX 16 1 17 2 18 3 19 4 20 5 21 6 22 7 23 8 24 9 25 10 26 11
REMARK SMILES IDX 27 12 28 13 29 14 30 15 31 16 32 17 15 18 14 19 13 20 12 21
REMARK SMILES IDX 11 22 10 23 9 24 8 25 7 26 6 27 5 28 4 29 3 30 2 31 1 32
REMARK H PARENT
REMARK Flexibility Score: inf
ROOT
ATOM      1  C   UNL     1      11.878 -21.249  20.677  1.00  0.00     0.000 C 
ENDROOT
BRANCH   1   2
ATOM      2  C   UNL     1      10.808 -20.685  19.729  1.00  0.00     0.000 C 
BRANCH   2   3
ATOM      3  C   UNL     1      11.319 -20.503  18.291  1.00  0.00     0.000 C 
BRANCH   3   4
ATOM      4  C   UNL     1      10.234 -19.892  17.392  1.00  0.00     0.000 C 
BRANCH   4   5
ATOM      5  C   UNL     1      10.196 -18.358  17.468  1.00  0.00     0.000 C 
BRANCH   5   6
ATOM      6  C   UNL     1       8.912 -17.828  18.125  1.00  0.00     0.000 C 
BRANCH   6   7
ATOM      7  C   UNL     1       9.180 -17.375  19.565  1.00  0.00     0.000 C 
BRANCH   7   8
ATOM      8  C   UNL     1      10.667 -17.051  19.772  1.00  0.00     0.000 C 
BRANCH   8   9
ATOM      9  C   UNL     1      10.933 -16.263  21.067  1.00  0.00     0.000 C 
BRANCH   9  10
ATOM     10  C   UNL     1      12.421 -16.024  21.395  1.00  0.00     0.000 C 
BRANCH  10  11
ATOM     11  C   UNL     1      13.359 -17.199  21.061  1.00  0.00     0.000 C 
BRANCH  11  12
ATOM     12  C   UNL     1      14.427 -17.434  22.138  1.00  0.00     0.000 C 
BRANCH  12  13
ATOM     13  C   UNL     1      15.476 -18.449  21.659  1.00  0.00     0.006 C 
BRANCH  13  14
ATOM     14  C   UNL     1      15.546 -19.686  22.565  1.00  0.00     0.053 C 
BRANCH  14  15
ATOM     15  C   UNL     1      16.929 -19.907  23.097  1.00  0.00     0.041 C 
ATOM     16  O   UNL     1      17.843 -19.078  22.848  1.00  0.00    -0.550 OA
ATOM     17  O   UNL     1      17.216 -21.047  23.837  1.00  0.00    -0.550 OA
ENDBRANCH  14  15
ENDBRANCH  13  14
ENDBRANCH  12  13
ENDBRANCH  11  12
ENDBRANCH  10  11
ENDBRANCH   9  10
ENDBRANCH   8   9
ENDBRANCH   7   8
ENDBRANCH   6   7
ENDBRANCH   5   6
ENDBRANCH   4   5
ENDBRANCH   3   4
ENDBRANCH   2   3
ENDBRANCH   1   2
BRANCH   1  18
ATOM     18  C   UNL     1      11.706 -20.760  22.125  1.00  0.00     0.000 C 
BRANCH  18  19
ATOM     19  C   UNL     1      10.654 -19.645  22.258  1.00  0.00     0.000 C 
BRANCH  19  20
ATOM     20  C   UNL     1      10.605 -18.948  23.632  1.00  0.00     0.000 C 
BRANCH  20  21
ATOM     21  C   UNL     1      11.947 -18.898  24.385  1.00  0.00     0.000 C 
BRANCH  21  22
ATOM     22  C   UNL     1      12.171 -17.562  25.117  1.00  0.00     0.000 C 
BRANCH  22  23
ATOM     23  C   UNL     1      11.121 -16.504  24.725  1.00  0.00     0.000 C 
BRANCH  23  24
ATOM     24  C   UNL     1      10.086 -16.213  25.828  1.00  0.00    -0.000 C 
BRANCH  24  25
ATOM     25  C   UNL     1       8.826 -15.467  25.338  1.00  0.00    -0.000 C 
BRANCH  25  26
ATOM     26  C   UNL     1       7.749 -16.354  24.678  1.00  0.00    -0.000 C 
BRANCH  26  27
ATOM     27  C   UNL     1       7.760 -16.381  23.138  1.00  0.00    -0.000 C 
BRANCH  27  28
ATOM     28  C   UNL     1       7.109 -17.646  22.552  1.00  0.00    -0.000 C 
BRANCH  28  29
ATOM     29  C   UNL     1       6.835 -18.720  23.616  1.00  0.00    -0.000 C 
BRANCH  29  30
ATOM     30  C   UNL     1       6.755 -20.134  23.021  1.00  0.00    -0.000 C 
BRANCH  30  31
ATOM     31  C   UNL     1       7.082 -20.116  21.523  1.00  0.00    -0.003 C 
ATOM     32  C   UNL     1       7.576 -21.480  21.050  1.00  0.00     0.004 C 
ENDBRANCH  30  31
ENDBRANCH  29  30
ENDBRANCH  28  29
ENDBRANCH  27  28
ENDBRANCH  26  27
ENDBRANCH  25  26
ENDBRANCH  24  25
ENDBRANCH  23  24
ENDBRANCH  22  23
ENDBRANCH  21  22
ENDBRANCH  20  21
ENDBRANCH  19  20
ENDBRANCH  18  19
ENDBRANCH   1  18
TORSDOF 28
ENDMDL
MODEL 8
REMARK VINA RESULT:    -3.944      2.123      6.310
REMARK INTER + INTRA:         -17.179
REMARK INTER:                 -11.118
REMARK INTRA:                  -6.061
REMARK UNBOUND:                -6.779
REMARK SMILES CCCCCCCCCCCCCCCCCCCCCCCCCCCCCC(=O)[O-]
REMARK SMILES IDX 16 1 17 2 18 3 19 4 20 5 21 6 22 7 23 8 24 9 25 10 26 11
REMARK SMILES IDX 27 12 28 13 29 14 30 15 31 16 32 17 15 18 14 19 13 20 12 21
REMARK SMILES IDX 11 22 10 23 9 24 8 25 7 26 6 27 5 28 4 29 3 30 2 31 1 32
REMARK H PARENT
REMARK Flexibility Score: inf
ROOT
ATOM      1  C   UNL     1       9.718 -19.231  22.752  1.00  0.00     0.000 C 
ENDROOT
BRANCH   1   2
ATOM      2  C   UNL     1      11.211 -19.564  22.900  1.00  0.00     0.000 C 
BRANCH   2   3
ATOM      3  C   UNL     1      11.910 -18.712  23.971  1.00  0.00     0.000 C 
BRANCH   3   4
ATOM      4  C   UNL     1      11.526 -17.230  23.835  1.00  0.00     0.000 C 
BRANCH   4   5
ATOM      5  C   UNL     1      12.746 -16.318  23.636  1.00  0.00     0.000 C 
BRANCH   5   6
ATOM      6  C   UNL     1      12.781 -15.671  22.243  1.00  0.00     0.000 C 
BRANCH   6   7
ATOM      7  C   UNL     1      11.450 -15.875  21.510  1.00  0.00     0.000 C 
BRANCH   7   8
ATOM      8  C   UNL     1      11.683 -16.280  20.047  1.00  0.00     0.000 C 
BRANCH   8   9
ATOM      9  C   UNL     1      11.875 -17.796  19.870  1.00  0.00     0.000 C 
BRANCH   9  10
ATOM     10  C   UNL     1      13.229 -18.219  19.263  1.00  0.00     0.000 C 
BRANCH  10  11
ATOM     11  C   UNL     1      14.452 -17.977  20.167  1.00  0.00     0.000 C 
BRANCH  11  12
ATOM     12  C   UNL     1      14.618 -19.057  21.246  1.00  0.00     0.000 C 
BRANCH  12  13
ATOM     13  C   UNL     1      15.394 -18.510  22.454  1.00  0.00     0.006 C 
BRANCH  13  14
ATOM     14  C   UNL     1      16.683 -19.299  22.724  1.00  0.00     0.053 C 
BRANCH  14  15
ATOM     15  C   UNL     1      16.538 -20.212  23.903  1.00  0.00     0.041 C 
ATOM     16  O   UNL     1      15.585 -20.059  24.710  1.00  0.00    -0.550 OA
ATOM     17  O   UNL     1      17.478 -21.210  24.129  1.00  0.00    -0.550 OA
ENDBRANCH  14  15
ENDBRANCH  13  14
ENDBRANCH  12  13
ENDBRANCH  11  12
ENDBRANCH  10  11
ENDBRANCH   9  10
ENDBRANCH   8   9
ENDBRANCH   7   8
ENDBRANCH   6   7
ENDBRANCH   5   6
ENDBRANCH   4   5
ENDBRANCH   3   4
ENDBRANCH   2   3
ENDBRANCH   1   2
BRANCH   1  18
ATOM     18  C   UNL     1       8.918 -20.369  22.093  1.00  0.00     0.000 C 
BRANCH  18  19
ATOM     19  C   UNL     1       7.404 -20.093  22.063  1.00  0.00     0.000 C 
BRANCH  19  20
ATOM     20  C   UNL     1       6.837 -19.400  23.317  1.00  0.00     0.000 C 
BRANCH  20  21
ATOM     21  C   UNL     1       6.720 -20.298  24.562  1.00  0.00     0.000 C 
BRANCH  21  22
ATOM     22  C   UNL     1       7.188 -19.597  25.850  1.00  0.00     0.000 C 
BRANCH  22  23
ATOM     23  C   UNL     1       7.063 -18.064  25.754  1.00  0.00     0.000 C 
BRANCH  23  24
ATOM     24  C   UNL     1       8.416 -17.329  25.706  1.00  0.00    -0.000 C 
BRANCH  24  25
ATOM     25  C   UNL     1       8.312 -15.794  25.834  1.00  0.00    -0.000 C 
BRANCH  25  26
ATOM     26  C   UNL     1       8.387 -15.013  24.505  1.00  0.00    -0.000 C 
BRANCH  26  27
ATOM     27  C   UNL     1       8.307 -15.868  23.226  1.00  0.00    -0.000 C 
BRANCH  27  28
ATOM     28  C   UNL     1       6.921 -15.828  22.558  1.00  0.00    -0.000 C 
BRANCH  28  29
ATOM     29  C   UNL     1       7.004 -15.805  21.023  1.00  0.00    -0.000 C 
BRANCH  29  30
ATOM     30  C   UNL     1       8.032 -16.805  20.473  1.00  0.00    -0.000 C 
BRANCH  30  31
ATOM     31  C   UNL     1       7.560 -17.398  19.141  1.00  0.00    -0.003 C 
ATOM     32  C   UNL     1       8.320 -18.679  18.808  1.00  0.00     0.004 C 
ENDBRANCH  30  31
ENDBRANCH  29  30
ENDBRANCH  28  29
ENDBRANCH  27  28
ENDBRANCH  26  27
ENDBRANCH  25  26
ENDBRANCH  24  25
ENDBRANCH  23  24
ENDBRANCH  22  23
ENDBRANCH  21  22
ENDBRANCH  20  21
ENDBRANCH  19  20
ENDBRANCH  18  19
ENDBRANCH   1  18
TORSDOF 28
ENDMDL
MODEL 9
REMARK VINA RESULT:    -3.919      1.594      5.108
REMARK INTER + INTRA:         -17.113
REMARK INTER:                 -10.846
REMARK INTRA:                  -6.267
REMARK UNBOUND:                -6.779
REMARK SMILES CCCCCCCCCCCCCCCCCCCCCCCCCCCCCC(=O)[O-]
REMARK SMILES IDX 16 1 17 2 18 3 19 4 20 5 21 6 22 7 23 8 24 9 25 10 26 11
REMARK SMILES IDX 27 12 28 13 29 14 30 15 31 16 32 17 15 18 14 19 13 20 12 21
REMARK SMILES IDX 11 22 10 23 9 24 8 25 7 26 6 27 5 28 4 29 3 30 2 31 1 32
REMARK H PARENT
REMARK Flexibility Score: inf
ROOT
ATOM      1  C   UNL     1       9.662 -18.459  21.711  1.00  0.00     0.000 C 
ENDROOT
BRANCH   1   2
ATOM      2  C   UNL     1       9.280 -19.853  22.233  1.00  0.00     0.000 C 
BRANCH   2   3
ATOM      3  C   UNL     1       7.778 -20.150  22.098  1.00  0.00     0.000 C 
BRANCH   3   4
ATOM      4  C   UNL     1       7.517 -21.196  21.003  1.00  0.00     0.000 C 
BRANCH   4   5
ATOM      5  C   UNL     1       8.779 -21.533  20.194  1.00  0.00     0.000 C 
BRANCH   5   6
ATOM      6  C   UNL     1       8.688 -21.068  18.733  1.00  0.00     0.000 C 
BRANCH   6   7
ATOM      7  C   UNL     1       9.902 -20.210  18.354  1.00  0.00     0.000 C 
BRANCH   7   8
ATOM      8  C   UNL     1      11.191 -20.784  18.961  1.00  0.00     0.000 C 
BRANCH   8   9
ATOM      9  C   UNL     1      12.406 -19.860  18.766  1.00  0.00     0.000 C 
BRANCH   9  10
ATOM     10  C   UNL     1      13.428 -19.870  19.921  1.00  0.00     0.000 C 
BRANCH  10  11
ATOM     11  C   UNL     1      12.838 -20.167  21.312  1.00  0.00     0.000 C 
BRANCH  11  12
ATOM     12  C   UNL     1      13.616 -19.489  22.448  1.00  0.00     0.000 C 
BRANCH  12  13
ATOM     13  C   UNL     1      12.944 -19.747  23.805  1.00  0.00     0.006 C 
BRANCH  13  14
ATOM     14  C   UNL     1      13.508 -18.849  24.914  1.00  0.00     0.053 C 
BRANCH  14  15
ATOM     15  C   UNL     1      13.807 -19.626  26.160  1.00  0.00     0.041 C 
ATOM     16  O   UNL     1      12.967 -19.672  27.095  1.00  0.00    -0.550 OA
ATOM     17  O   UNL     1      15.030 -20.270  26.301  1.00  0.00    -0.550 OA
ENDBRANCH  14  15
ENDBRANCH  13  14
ENDBRANCH  12  13
ENDBRANCH  11  12
ENDBRANCH  10  11
ENDBRANCH   9  10
ENDBRANCH   8   9
ENDBRANCH   7   8
ENDBRANCH   6   7
ENDBRANCH   5   6
ENDBRANCH   4   5
ENDBRANCH   3   4
ENDBRANCH   2   3
ENDBRANCH   1   2
BRANCH   1  18
ATOM     18  C   UNL     1       8.529 -17.791  20.913  1.00  0.00     0.000 C 
BRANCH  18  19
ATOM     19  C   UNL     1       8.269 -16.337  21.347  1.00  0.00     0.000 C 
BRANCH  19  20
ATOM     20  C   UNL     1       6.813 -16.019  21.738  1.00  0.00     0.000 C 
BRANCH  20  21
ATOM     21  C   UNL     1       6.549 -15.929  23.252  1.00  0.00     0.000 C 
BRANCH  21  22
ATOM     22  C   UNL     1       6.336 -17.308  23.903  1.00  0.00     0.000 C 
BRANCH  22  23
ATOM     23  C   UNL     1       7.062 -17.427  25.258  1.00  0.00     0.000 C 
BRANCH  23  24
ATOM     24  C   UNL     1       8.593 -17.550  25.137  1.00  0.00    -0.000 C 
BRANCH  24  25
ATOM     25  C   UNL     1       9.369 -16.285  25.563  1.00  0.00    -0.000 C 
BRANCH  25  26
ATOM     26  C   UNL     1      10.071 -15.523  24.419  1.00  0.00    -0.000 C 
BRANCH  26  27
ATOM     27  C   UNL     1      11.422 -16.105  23.963  1.00  0.00    -0.000 C 
BRANCH  27  28
ATOM     28  C   UNL     1      12.133 -15.232  22.914  1.00  0.00    -0.000 C 
BRANCH  28  29
ATOM     29  C   UNL     1      12.632 -16.043  21.708  1.00  0.00    -0.000 C 
BRANCH  29  30
ATOM     30  C   UNL     1      11.749 -15.854  20.465  1.00  0.00    -0.000 C 
BRANCH  30  31
ATOM     31  C   UNL     1      12.519 -16.210  19.188  1.00  0.00    -0.003 C 
ATOM     32  C   UNL     1      11.576 -16.345  17.995  1.00  0.00     0.004 C 
ENDBRANCH  30  31
ENDBRANCH  29  30
ENDBRANCH  28  29
ENDBRANCH  27  28
ENDBRANCH  26  27
ENDBRANCH  25  26
ENDBRANCH  24  25
ENDBRANCH  23  24
ENDBRANCH  22  23
ENDBRANCH  21  22
ENDBRANCH  20  21
ENDBRANCH  19  20
ENDBRANCH  18  19
ENDBRANCH   1  18
TORSDOF 28
ENDMDL
