MODEL 1
REMARK VINA RESULT:    -3.751      0.000      0.000
REMARK INTER + INTRA:          -7.894
REMARK INTER:                  -6.492
REMARK INTRA:                  -1.402
REMARK UNBOUND:                -1.402
REMARK SMILES CCCCCCCCCCCCCCO
REMARK SMILES IDX 8 1 7 2 6 3 5 4 4 5 3 6 2 7 1 8 9 9 10 10 11 11 12 12 13 13
REMARK SMILES IDX 14 14 15 15
REMARK H PARENT 15 16
REMARK Flexibility Score: inf
ROOT
ATOM      1  C   UNL     1     178.652 177.442 168.390  1.00  0.00     0.000 C 
ENDROOT
BRANCH   1   2
ATOM      2  C   UNL     1     177.711 176.583 167.527  1.00  0.00    -0.000 C 
BRANCH   2   3
ATOM      3  C   UNL     1     176.443 176.156 168.285  1.00  0.00    -0.000 C 
BRANCH   3   4
ATOM      4  C   UNL     1     175.839 174.852 167.743  1.00  0.00    -0.000 C 
BRANCH   4   5
ATOM      5  C   UNL     1     176.436 173.633 168.456  1.00  0.00    -0.000 C 
BRANCH   5   6
ATOM      6  C   UNL     1     176.657 173.921 169.949  1.00  0.00    -0.000 C 
BRANCH   6   7
ATOM      7  C   UNL     1     178.104 173.653 170.394  1.00  0.00    -0.003 C 
ATOM      8  C   UNL     1     178.995 173.172 169.249  1.00  0.00     0.004 C 
ENDBRANCH   6   7
ENDBRANCH   5   6
ENDBRANCH   4   5
ENDBRANCH   3   4
ENDBRANCH   2   3
ENDBRANCH   1   2
BRANCH   1   9
ATOM      9  C   UNL     1     178.467 177.203 169.900  1.00  0.00     0.000 C 
BRANCH   9  10
ATOM     10  C   UNL     1     178.379 178.478 170.761  1.00  0.00     0.000 C 
BRANCH  10  11
ATOM     11  C   UNL     1     177.546 178.280 172.039  1.00  0.00     0.000 C 
BRANCH  11  12
ATOM     12  C   UNL     1     176.162 178.945 171.949  1.00  0.00     0.002 C 
BRANCH  12  13
ATOM     13  C   UNL     1     175.318 178.402 170.785  1.00  0.00     0.028 C 
BRANCH  13  14
ATOM     14  C   UNL     1     174.878 179.533 169.852  1.00  0.00     0.156 C 
BRANCH  14  15
ATOM     15  O   UNL     1     173.498 179.461 169.620  1.00  0.00    -0.396 OA
ATOM     16  H   UNL     1     173.239 180.312 169.179  1.00  0.00     0.210 HD
ENDBRANCH  14  15
ENDBRANCH  13  14
ENDBRANCH  12  13
ENDBRANCH  11  12
ENDBRANCH  10  11
ENDBRANCH   9  10
ENDBRANCH   1   9
TORSDOF 13
ENDMDL
MODEL 2
REMARK VINA RESULT:    -3.576      1.851      4.757
REMARK INTER + INTRA:          -7.591
REMARK INTER:                  -5.948
REMARK INTRA:                  -1.643
REMARK UNBOUND:                -1.402
REMARK SMILES CCCCCCCCCCCCCCO
REMARK SMILES IDX 8 1 7 2 6 3 5 4 4 5 3 6 2 7 1 8 9 9 10 10 11 11 12 12 13 13
REMARK SMILES IDX 14 14 15 15
REMARK H PARENT 15 16
REMARK Flexibility Score: inf
ROOT
ATOM      1  C   UNL     1     177.051 177.392 167.505  1.00  0.00     0.000 C 
ENDROOT
BRANCH   1   2
ATOM      2  C   UNL     1     175.707 178.101 167.749  1.00  0.00    -0.000 C 
BRANCH   2   3
ATOM      3  C   UNL     1     175.809 179.628 167.597  1.00  0.00    -0.000 C 
BRANCH   3   4
ATOM      4  C   UNL     1     175.371 180.381 168.861  1.00  0.00    -0.000 C 
BRANCH   4   5
ATOM      5  C   UNL     1     174.888 179.406 169.942  1.00  0.00    -0.000 C 
BRANCH   5   6
ATOM      6  C   UNL     1     175.691 179.580 171.240  1.00  0.00    -0.000 C 
BRANCH   6   7
ATOM      7  C   UNL     1     176.256 178.251 171.767  1.00  0.00    -0.003 C 
ATOM      8  C   UNL     1     177.666 178.394 172.339  1.00  0.00     0.004 C 
ENDBRANCH   6   7
ENDBRANCH   5   6
ENDBRANCH   4   5
ENDBRANCH   3   4
ENDBRANCH   2   3
ENDBRANCH   1   2
BRANCH   1   9
ATOM      9  C   UNL     1     178.123 177.761 168.546  1.00  0.00     0.000 C 
BRANCH   9  10
ATOM     10  C   UNL     1     178.816 176.566 169.227  1.00  0.00     0.000 C 
BRANCH  10  11
ATOM     11  C   UNL     1     177.822 175.568 169.845  1.00  0.00     0.000 C 
BRANCH  11  12
ATOM     12  C   UNL     1     177.810 174.216 169.111  1.00  0.00     0.002 C 
BRANCH  12  13
ATOM     13  C   UNL     1     176.392 173.653 168.929  1.00  0.00     0.028 C 
BRANCH  13  14
ATOM     14  C   UNL     1     175.867 173.931 167.518  1.00  0.00     0.156 C 
BRANCH  14  15
ATOM     15  O   UNL     1     174.694 174.694 167.579  1.00  0.00    -0.396 OA
ATOM     16  H   UNL     1     174.775 175.278 168.378  1.00  0.00     0.210 HD
ENDBRANCH  14  15
ENDBRANCH  13  14
ENDBRANCH  12  13
ENDBRANCH  11  12
ENDBRANCH  10  11
ENDBRANCH   9  10
ENDBRANCH   1   9
TORSDOF 13
ENDMDL
MODEL 3
REMARK VINA RESULT:    -3.536     12.959     15.074
REMARK INTER + INTRA:          -7.522
REMARK INTER:                  -6.294
REMARK INTRA:                  -1.228
REMARK UNBOUND:                -1.402
REMARK SMILES CCCCCCCCCCCCCCO
REMARK SMILES IDX 8 1 7 2 6 3 5 4 4 5 3 6 2 7 1 8 9 9 10 10 11 11 12 12 13 13
REMARK SMILES IDX 14 14 15 15
REMARK H PARENT 15 16
REMARK Flexibility Score: inf
ROOT
ATOM      1  C   UNL     1     161.291 177.488 170.094  1.00  0.00     0.000 C 
ENDROOT
BRANCH   1   2
ATOM      2  C   UNL     1     160.440 177.909 168.884  1.00  0.00    -0.000 C 
BRANCH   2   3
ATOM      3  C   UNL     1     159.300 176.920 168.592  1.00  0.00    -0.000 C 
BRANCH   3   4
ATOM      4  C   UNL     1     159.501 176.154 167.276  1.00  0.00    -0.000 C 
BRANCH   4   5
ATOM      5  C   UNL     1     160.516 176.867 166.375  1.00  0.00    -0.000 C 
BRANCH   5   6
ATOM      6  C   UNL     1     160.908 175.984 165.180  1.00  0.00    -0.000 C 
BRANCH   6   7
ATOM      7  C   UNL     1     162.408 176.062 164.856  1.00  0.00    -0.003 C 
ATOM      8  C   UNL     1     162.777 177.316 164.064  1.00  0.00     0.004 C 
ENDBRANCH   6   7
ENDBRANCH   5   6
ENDBRANCH   4   5
ENDBRANCH   3   4
ENDBRANCH   2   3
ENDBRANCH   1   2
BRANCH   1   9
ATOM      9  C   UNL     1     162.772 177.889 169.955  1.00  0.00     0.000 C 
BRANCH   9  10
ATOM     10  C   UNL     1     163.208 178.315 168.541  1.00  0.00     0.000 C 
BRANCH  10  11
ATOM     11  C   UNL     1     164.607 177.796 168.164  1.00  0.00     0.000 C 
BRANCH  11  12
ATOM     12  C   UNL     1     165.096 178.347 166.813  1.00  0.00     0.002 C 
BRANCH  12  13
ATOM     13  C   UNL     1     166.063 177.392 166.098  1.00  0.00     0.028 C 
BRANCH  13  14
ATOM     14  C   UNL     1     165.653 175.933 166.312  1.00  0.00     0.156 C 
BRANCH  14  15
ATOM     15  O   UNL     1     166.771 175.158 166.646  1.00  0.00    -0.396 OA
ATOM     16  H   UNL     1     166.730 175.008 167.626  1.00  0.00     0.210 HD
ENDBRANCH  14  15
ENDBRANCH  13  14
ENDBRANCH  12  13
ENDBRANCH  11  12
ENDBRANCH  10  11
ENDBRANCH   9  10
ENDBRANCH   1   9
TORSDOF 13
ENDMDL
MODEL 4
REMARK VINA RESULT:    -3.493      2.093      5.597
REMARK INTER + INTRA:          -7.447
REMARK INTER:                  -6.288
REMARK INTRA:                  -1.159
REMARK UNBOUND:                -1.402
REMARK SMILES CCCCCCCCCCCCCCO
REMARK SMILES IDX 8 1 7 2 6 3 5 4 4 5 3 6 2 7 1 8 9 9 10 10 11 11 12 12 13 13
REMARK SMILES IDX 14 14 15 15
REMARK H PARENT 15 16
REMARK Flexibility Score: inf
ROOT
ATOM      1  C   UNL     1     177.194 176.943 170.228  1.00  0.00     0.000 C 
ENDROOT
BRANCH   1   2
ATOM      2  C   UNL     1     177.402 177.829 171.468  1.00  0.00    -0.000 C 
BRANCH   2   3
ATOM      3  C   UNL     1     176.109 178.531 171.914  1.00  0.00    -0.000 C 
BRANCH   3   4
ATOM      4  C   UNL     1     176.226 180.062 171.891  1.00  0.00    -0.000 C 
BRANCH   4   5
ATOM      5  C   UNL     1     175.612 180.641 170.611  1.00  0.00    -0.000 C 
BRANCH   5   6
ATOM      6  C   UNL     1     174.589 179.669 170.002  1.00  0.00    -0.000 C 
BRANCH   6   7
ATOM      7  C   UNL     1     174.870 179.367 168.521  1.00  0.00    -0.003 C 
ATOM      8  C   UNL     1     176.211 179.928 168.048  1.00  0.00     0.004 C 
ENDBRANCH   6   7
ENDBRANCH   5   6
ENDBRANCH   4   5
ENDBRANCH   3   4
ENDBRANCH   2   3
ENDBRANCH   1   2
BRANCH   1   9
ATOM      9  C   UNL     1     178.394 176.021 169.941  1.00  0.00     0.000 C 
BRANCH   9  10
ATOM     10  C   UNL     1     178.342 174.642 170.626  1.00  0.00     0.000 C 
BRANCH  10  11
ATOM     11  C   UNL     1     177.326 173.688 169.974  1.00  0.00     0.000 C 
BRANCH  11  12
ATOM     12  C   UNL     1     177.679 173.358 168.514  1.00  0.00     0.002 C 
BRANCH  12  13
ATOM     13  C   UNL     1     176.733 174.034 167.509  1.00  0.00     0.028 C 
BRANCH  13  14
ATOM     14  C   UNL     1     175.290 174.020 168.017  1.00  0.00     0.156 C 
BRANCH  14  15
ATOM     15  O   UNL     1     174.396 174.004 166.939  1.00  0.00    -0.396 OA
ATOM     16  H   UNL     1     173.511 173.743 167.307  1.00  0.00     0.210 HD
ENDBRANCH  14  15
ENDBRANCH  13  14
ENDBRANCH  12  13
ENDBRANCH  11  12
ENDBRANCH  10  11
ENDBRANCH   9  10
ENDBRANCH   1   9
TORSDOF 13
ENDMDL
MODEL 5
REMARK VINA RESULT:    -3.456     13.183     15.208
REMARK INTER + INTRA:          -7.383
REMARK INTER:                  -5.575
REMARK INTRA:                  -1.808
REMARK UNBOUND:                -1.402
REMARK SMILES CCCCCCCCCCCCCCO
REMARK SMILES IDX 8 1 7 2 6 3 5 4 4 5 3 6 2 7 1 8 9 9 10 10 11 11 12 12 13 13
REMARK SMILES IDX 14 14 15 15
REMARK H PARENT 15 16
REMARK Flexibility Score: inf
ROOT
ATOM      1  C   UNL     1     163.203 179.507 167.924  1.00  0.00     0.000 C 
ENDROOT
BRANCH   1   2
ATOM      2  C   UNL     1     164.540 179.569 167.165  1.00  0.00    -0.000 C 
BRANCH   2   3
ATOM      3  C   UNL     1     165.516 178.463 167.600  1.00  0.00    -0.000 C 
BRANCH   3   4
ATOM      4  C   UNL     1     165.949 177.562 166.434  1.00  0.00    -0.000 C 
BRANCH   4   5
ATOM      5  C   UNL     1     165.035 176.336 166.319  1.00  0.00    -0.000 C 
BRANCH   5   6
ATOM      6  C   UNL     1     164.051 176.490 165.149  1.00  0.00    -0.000 C 
BRANCH   6   7
ATOM      7  C   UNL     1     162.587 176.556 165.613  1.00  0.00    -0.003 C 
ATOM      8  C   UNL     1     161.803 177.679 164.934  1.00  0.00     0.004 C 
ENDBRANCH   6   7
ENDBRANCH   5   6
ENDBRANCH   4   5
ENDBRANCH   3   4
ENDBRANCH   2   3
ENDBRANCH   1   2
BRANCH   1   9
ATOM      9  C   UNL     1     163.125 178.325 168.908  1.00  0.00     0.000 C 
BRANCH   9  10
ATOM     10  C   UNL     1     161.700 177.869 169.275  1.00  0.00     0.000 C 
BRANCH  10  11
ATOM     11  C   UNL     1     160.638 178.352 168.272  1.00  0.00     0.000 C 
BRANCH  11  12
ATOM     12  C   UNL     1     159.241 177.784 168.573  1.00  0.00     0.002 C 
BRANCH  12  13
ATOM     13  C   UNL     1     159.195 176.250 168.492  1.00  0.00     0.028 C 
BRANCH  13  14
ATOM     14  C   UNL     1     159.123 175.779 167.037  1.00  0.00     0.156 C 
BRANCH  14  15
ATOM     15  O   UNL     1     159.864 174.602 166.872  1.00  0.00    -0.396 OA
ATOM     16  H   UNL     1     160.100 174.284 167.782  1.00  0.00     0.210 HD
ENDBRANCH  14  15
ENDBRANCH  13  14
ENDBRANCH  12  13
ENDBRANCH  11  12
ENDBRANCH  10  11
ENDBRANCH   9  10
ENDBRANCH   1   9
TORSDOF 13
ENDMDL
MODEL 6
REMARK VINA RESULT:    -3.300     11.550     13.643
REMARK INTER + INTRA:          -7.113
REMARK INTER:                  -5.105
REMARK INTRA:                  -2.009
REMARK UNBOUND:                -1.402
REMARK SMILES CCCCCCCCCCCCCCO
REMARK SMILES IDX 8 1 7 2 6 3 5 4 4 5 3 6 2 7 1 8 9 9 10 10 11 11 12 12 13 13
REMARK SMILES IDX 14 14 15 15
REMARK H PARENT 15 16
REMARK Flexibility Score: inf
ROOT
ATOM      1  C   UNL     1     164.879 177.882 167.866  1.00  0.00     0.000 C 
ENDROOT
BRANCH   1   2
ATOM      2  C   UNL     1     165.991 178.849 167.424  1.00  0.00    -0.000 C 
BRANCH   2   3
ATOM      3  C   UNL     1     165.436 180.132 166.783  1.00  0.00    -0.000 C 
BRANCH   3   4
ATOM      4  C   UNL     1     165.559 180.131 165.252  1.00  0.00    -0.000 C 
BRANCH   4   5
ATOM      5  C   UNL     1     164.240 179.707 164.595  1.00  0.00    -0.000 C 
BRANCH   5   6
ATOM      6  C   UNL     1     163.040 180.082 165.477  1.00  0.00    -0.000 C 
BRANCH   6   7
ATOM      7  C   UNL     1     162.040 178.925 165.639  1.00  0.00    -0.003 C 
ATOM      8  C   UNL     1     162.221 177.837 164.580  1.00  0.00     0.004 C 
ENDBRANCH   6   7
ENDBRANCH   5   6
ENDBRANCH   4   5
ENDBRANCH   3   4
ENDBRANCH   2   3
ENDBRANCH   1   2
BRANCH   1   9
ATOM      9  C   UNL     1     164.781 176.631 166.974  1.00  0.00     0.000 C 
BRANCH   9  10
ATOM     10  C   UNL     1     165.995 176.380 166.058  1.00  0.00     0.000 C 
BRANCH  10  11
ATOM     11  C   UNL     1     165.612 176.278 164.571  1.00  0.00     0.000 C 
BRANCH  11  12
ATOM     12  C   UNL     1     166.671 176.901 163.646  1.00  0.00     0.002 C 
BRANCH  12  13
ATOM     13  C   UNL     1     167.295 175.877 162.685  1.00  0.00     0.028 C 
BRANCH  13  14
ATOM     14  C   UNL     1     167.024 174.446 163.155  1.00  0.00     0.156 C 
BRANCH  14  15
ATOM     15  O   UNL     1     168.147 173.931 163.815  1.00  0.00    -0.396 OA
ATOM     16  H   UNL     1     168.737 174.703 164.018  1.00  0.00     0.210 HD
ENDBRANCH  14  15
ENDBRANCH  13  14
ENDBRANCH  12  13
ENDBRANCH  11  12
ENDBRANCH  10  11
ENDBRANCH   9  10
ENDBRANCH   1   9
TORSDOF 13
ENDMDL
MODEL 7
REMARK VINA RESULT:    -3.270      1.733      3.104
REMARK INTER + INTRA:          -7.062
REMARK INTER:                  -5.759
REMARK INTRA:                  -1.302
REMARK UNBOUND:                -1.402
REMARK SMILES CCCCCCCCCCCCCCO
REMARK SMILES IDX 8 1 7 2 6 3 5 4 4 5 3 6 2 7 1 8 9 9 10 10 11 11 12 12 13 13
REMARK SMILES IDX 14 14 15 15
REMARK H PARENT 15 16
REMARK Flexibility Score: inf
ROOT
ATOM      1  C   UNL     1     177.287 178.116 171.738  1.00  0.00     0.000 C 
ENDROOT
BRANCH   1   2
ATOM      2  C   UNL     1     175.844 177.760 171.343  1.00  0.00    -0.000 C 
BRANCH   2   3
ATOM      3  C   UNL     1     175.760 176.457 170.531  1.00  0.00    -0.000 C 
BRANCH   3   4
ATOM      4  C   UNL     1     177.053 176.154 169.759  1.00  0.00    -0.000 C 
BRANCH   4   5
ATOM      5  C   UNL     1     177.617 174.783 170.149  1.00  0.00    -0.000 C 
BRANCH   5   6
ATOM      6  C   UNL     1     176.925 173.659 169.364  1.00  0.00    -0.000 C 
BRANCH   6   7
ATOM      7  C   UNL     1     176.566 174.075 167.929  1.00  0.00    -0.003 C 
ATOM      8  C   UNL     1     175.071 173.956 167.636  1.00  0.00     0.004 C 
ENDBRANCH   6   7
ENDBRANCH   5   6
ENDBRANCH   4   5
ENDBRANCH   3   4
ENDBRANCH   2   3
ENDBRANCH   1   2
BRANCH   1   9
ATOM      9  C   UNL     1     177.583 179.624 171.634  1.00  0.00     0.000 C 
BRANCH   9  10
ATOM     10  C   UNL     1     176.347 180.527 171.465  1.00  0.00     0.000 C 
BRANCH  10  11
ATOM     11  C   UNL     1     176.136 180.989 170.013  1.00  0.00     0.000 C 
BRANCH  11  12
ATOM     12  C   UNL     1     177.278 180.548 169.082  1.00  0.00     0.002 C 
BRANCH  12  13
ATOM     13  C   UNL     1     176.825 179.521 168.033  1.00  0.00     0.028 C 
BRANCH  13  14
ATOM     14  C   UNL     1     175.337 179.683 167.712  1.00  0.00     0.156 C 
BRANCH  14  15
ATOM     15  O   UNL     1     174.676 178.456 167.847  1.00  0.00    -0.396 OA
ATOM     16  H   UNL     1     173.707 178.661 167.914  1.00  0.00     0.210 HD
ENDBRANCH  14  15
ENDBRANCH  13  14
ENDBRANCH  12  13
ENDBRANCH  11  12
ENDBRANCH  10  11
ENDBRANCH   9  10
ENDBRANCH   1   9
TORSDOF 13
ENDMDL
MODEL 8
REMARK VINA RESULT:    -3.255     12.979     15.100
REMARK INTER + INTRA:          -7.035
REMARK INTER:                  -5.370
REMARK INTRA:                  -1.666
REMARK UNBOUND:                -1.402
REMARK SMILES CCCCCCCCCCCCCCO
REMARK SMILES IDX 8 1 7 2 6 3 5 4 4 5 3 6 2 7 1 8 9 9 10 10 11 11 12 12 13 13
REMARK SMILES IDX 14 14 15 15
REMARK H PARENT 15 16
REMARK Flexibility Score: inf
ROOT
ATOM      1  C   UNL     1     162.851 179.493 167.507  1.00  0.00     0.000 C 
ENDROOT
BRANCH   1   2
ATOM      2  C   UNL     1     163.171 178.501 168.638  1.00  0.00    -0.000 C 
BRANCH   2   3
ATOM      3  C   UNL     1     164.473 177.722 168.388  1.00  0.00    -0.000 C 
BRANCH   3   4
ATOM      4  C   UNL     1     165.486 178.514 167.550  1.00  0.00    -0.000 C 
BRANCH   4   5
ATOM      5  C   UNL     1     165.956 177.698 166.340  1.00  0.00    -0.000 C 
BRANCH   5   6
ATOM      6  C   UNL     1     165.022 176.505 166.083  1.00  0.00    -0.000 C 
BRANCH   6   7
ATOM      7  C   UNL     1     164.291 176.608 164.735  1.00  0.00    -0.003 C 
ATOM      8  C   UNL     1     164.578 177.921 164.006  1.00  0.00     0.004 C 
ENDBRANCH   6   7
ENDBRANCH   5   6
ENDBRANCH   4   5
ENDBRANCH   3   4
ENDBRANCH   2   3
ENDBRANCH   1   2
BRANCH   1   9
ATOM      9  C   UNL     1     161.973 178.880 166.401  1.00  0.00     0.000 C 
BRANCH   9  10
ATOM     10  C   UNL     1     161.323 177.527 166.751  1.00  0.00     0.000 C 
BRANCH  10  11
ATOM     11  C   UNL     1     159.808 177.635 166.993  1.00  0.00     0.000 C 
BRANCH  11  12
ATOM     12  C   UNL     1     159.318 176.683 168.097  1.00  0.00     0.002 C 
BRANCH  12  13
ATOM     13  C   UNL     1     159.979 176.961 169.456  1.00  0.00     0.028 C 
BRANCH  13  14
ATOM     14  C   UNL     1     159.411 178.232 170.093  1.00  0.00     0.156 C 
BRANCH  14  15
ATOM     15  O   UNL     1     159.991 178.446 171.350  1.00  0.00    -0.396 OA
ATOM     16  H   UNL     1     160.922 178.103 171.296  1.00  0.00     0.210 HD
ENDBRANCH  14  15
ENDBRANCH  13  14
ENDBRANCH  12  13
ENDBRANCH  11  12
ENDBRANCH  10  11
ENDBRANCH   9  10
ENDBRANCH   1   9
TORSDOF 13
ENDMDL
MODEL 9
REMARK VINA RESULT:    -3.247     13.366     15.472
REMARK INTER + INTRA:          -7.022
REMARK INTER:                  -5.359
REMARK INTRA:                  -1.663
REMARK UNBOUND:                -1.402
REMARK SMILES CCCCCCCCCCCCCCO
REMARK SMILES IDX 8 1 7 2 6 3 5 4 4 5 3 6 2 7 1 8 9 9 10 10 11 11 12 12 13 13
REMARK SMILES IDX 14 14 15 15
REMARK H PARENT 15 16
REMARK Flexibility Score: inf
ROOT
ATOM      1  C   UNL     1     160.027 177.412 168.162  1.00  0.00     0.000 C 
ENDROOT
BRANCH   1   2
ATOM      2  C   UNL     1     159.145 176.156 168.052  1.00  0.00    -0.000 C 
BRANCH   2   3
ATOM      3  C   UNL     1     159.540 175.259 166.868  1.00  0.00    -0.000 C 
BRANCH   3   4
ATOM      4  C   UNL     1     160.131 176.053 165.694  1.00  0.00    -0.000 C 
BRANCH   4   5
ATOM      5  C   UNL     1     161.503 175.499 165.291  1.00  0.00    -0.000 C 
BRANCH   5   6
ATOM      6  C   UNL     1     162.537 176.628 165.161  1.00  0.00    -0.000 C 
BRANCH   6   7
ATOM      7  C   UNL     1     161.884 178.008 164.980  1.00  0.00    -0.003 C 
ATOM      8  C   UNL     1     162.901 179.104 164.659  1.00  0.00     0.004 C 
ENDBRANCH   6   7
ENDBRANCH   5   6
ENDBRANCH   4   5
ENDBRANCH   3   4
ENDBRANCH   2   3
ENDBRANCH   1   2
BRANCH   1   9
ATOM      9  C   UNL     1     160.505 177.686 169.599  1.00  0.00     0.000 C 
BRANCH   9  10
ATOM     10  C   UNL     1     162.033 177.714 169.790  1.00  0.00     0.000 C 
BRANCH  10  11
ATOM     11  C   UNL     1     162.776 178.326 168.590  1.00  0.00     0.000 C 
BRANCH  11  12
ATOM     12  C   UNL     1     164.132 177.649 168.328  1.00  0.00     0.002 C 
BRANCH  12  13
ATOM     13  C   UNL     1     165.114 178.559 167.575  1.00  0.00     0.028 C 
BRANCH  13  14
ATOM     14  C   UNL     1     165.881 177.775 166.507  1.00  0.00     0.156 C 
BRANCH  14  15
ATOM     15  O   UNL     1     165.929 176.416 166.844  1.00  0.00    -0.396 OA
ATOM     16  H   UNL     1     166.715 176.034 166.373  1.00  0.00     0.210 HD
ENDBRANCH  14  15
ENDBRANCH  13  14
ENDBRANCH  12  13
ENDBRANCH  11  12
ENDBRANCH  10  11
ENDBRANCH   9  10
ENDBRANCH   1   9
TORSDOF 13
ENDMDL
