MODEL 1
REMARK VINA RESULT:    -4.145      0.000      0.000
REMARK INTER + INTRA:          -4.266
REMARK INTER:                  -4.266
REMARK INTRA:                   0.000
REMARK UNBOUND:                 0.000
REMARK SMILES C=C1[C@H](O)C[C@]23C[C@H]1C(C)(C)[C@@H]2CC[C@H]3C
REMARK SMILES IDX 16 1 15 2 14 3 13 4 12 5 6 6 7 7 8 8 9 9 10 10 11 11 2 12
REMARK SMILES IDX 1 13 3 14 5 15 4 16
REMARK H PARENT 4 17
REMARK Flexibility Score: inf
ROOT
ATOM      1  C   UNL     1     136.081 124.070 143.811  1.00  0.00     0.008 C 
ATOM      2  C   UNL     1     135.489 124.718 142.548  1.00  0.00    -0.008 C 
ATOM      3  C   UNL     1     133.967 124.406 142.377  1.00  0.00     0.004 C 
ATOM      4  C   UNL     1     133.815 123.439 141.176  1.00  0.00     0.005 C 
ATOM      5  C   UNL     1     135.242 122.990 140.951  1.00  0.00     0.002 C 
ATOM      6  C   UNL     1     136.106 124.214 141.220  1.00  0.00    -0.020 C 
ATOM      7  C   UNL     1     137.481 123.566 141.108  1.00  0.00     0.016 C 
ATOM      8  C   UNL     1     137.321 122.853 139.736  1.00  0.00     0.023 C 
ATOM      9  C   UNL     1     135.845 122.286 139.717  1.00  0.00    -0.025 C 
ATOM     10  C   UNL     1     135.885 120.753 139.922  1.00  0.00     0.012 C 
ATOM     11  C   UNL     1     135.026 122.560 138.429  1.00  0.00     0.012 C 
ATOM     12  C   UNL     1     137.525 123.909 138.674  1.00  0.00    -0.045 C 
ATOM     13  C   UNL     1     138.142 123.610 137.520  1.00  0.00     0.011 C 
ATOM     14  C   UNL     1     136.973 125.301 138.915  1.00  0.00     0.140 C 
ATOM     15  C   UNL     1     135.992 125.367 140.129  1.00  0.00     0.044 C 
ENDROOT
BRANCH  14  16
ATOM     16  O   UNL     1     138.042 126.187 139.136  1.00  0.00    -0.389 OA
ATOM     17  H   UNL     1     138.862 125.636 139.240  1.00  0.00     0.211 HD
ENDBRANCH  14  16
TORSDOF 1
ENDMDL
MODEL 2
REMARK VINA RESULT:    -3.999      1.618      4.330
REMARK INTER + INTRA:          -4.116
REMARK INTER:                  -4.116
REMARK INTRA:                   0.000
REMARK UNBOUND:                 0.000
REMARK SMILES C=C1[C@H](O)C[C@]23C[C@H]1C(C)(C)[C@@H]2CC[C@H]3C
REMARK SMILES IDX 16 1 15 2 14 3 13 4 12 5 6 6 7 7 8 8 9 9 10 10 11 11 2 12
REMARK SMILES IDX 1 13 3 14 5 15 4 16
REMARK H PARENT 4 17
REMARK Flexibility Score: inf
ROOT
ATOM      1  C   UNL     1     136.274 124.869 138.396  1.00  0.00     0.008 C 
ATOM      2  C   UNL     1     136.510 123.741 139.415  1.00  0.00    -0.008 C 
ATOM      3  C   UNL     1     135.590 122.504 139.155  1.00  0.00     0.004 C 
ATOM      4  C   UNL     1     134.543 122.446 140.296  1.00  0.00     0.005 C 
ATOM      5  C   UNL     1     134.697 123.810 140.933  1.00  0.00     0.002 C 
ATOM      6  C   UNL     1     136.185 124.123 140.880  1.00  0.00    -0.020 C 
ATOM      7  C   UNL     1     136.147 125.556 141.402  1.00  0.00     0.016 C 
ATOM      8  C   UNL     1     135.311 125.339 142.695  1.00  0.00     0.023 C 
ATOM      9  C   UNL     1     134.193 124.288 142.311  1.00  0.00    -0.025 C 
ATOM     10  C   UNL     1     132.834 125.016 142.178  1.00  0.00     0.012 C 
ATOM     11  C   UNL     1     133.994 123.113 143.302  1.00  0.00     0.012 C 
ATOM     12  C   UNL     1     136.260 124.787 143.734  1.00  0.00    -0.045 C 
ATOM     13  C   UNL     1     136.137 125.131 145.025  1.00  0.00     0.011 C 
ATOM     14  C   UNL     1     137.321 123.795 143.298  1.00  0.00     0.140 C 
ATOM     15  C   UNL     1     137.090 123.248 141.854  1.00  0.00     0.044 C 
ENDROOT
BRANCH  14  16
ATOM     16  O   UNL     1     138.582 124.415 143.361  1.00  0.00    -0.389 OA
ATOM     17  H   UNL     1     138.782 124.573 144.320  1.00  0.00     0.211 HD
ENDBRANCH  14  16
TORSDOF 1
ENDMDL
MODEL 3
REMARK VINA RESULT:    -3.411      1.632      2.571
REMARK INTER + INTRA:          -3.511
REMARK INTER:                  -3.511
REMARK INTRA:                   0.000
REMARK UNBOUND:                 0.000
REMARK SMILES C=C1[C@H](O)C[C@]23C[C@H]1C(C)(C)[C@@H]2CC[C@H]3C
REMARK SMILES IDX 16 1 15 2 14 3 13 4 12 5 6 6 7 7 8 8 9 9 10 10 11 11 2 12
REMARK SMILES IDX 1 13 3 14 5 15 4 16
REMARK H PARENT 4 17
REMARK Flexibility Score: inf
ROOT
ATOM      1  C   UNL     1     133.170 122.255 142.266  1.00  0.00     0.008 C 
ATOM      2  C   UNL     1     134.213 123.369 142.465  1.00  0.00    -0.008 C 
ATOM      3  C   UNL     1     133.575 124.795 142.417  1.00  0.00     0.004 C 
ATOM      4  C   UNL     1     134.039 125.477 141.105  1.00  0.00     0.005 C 
ATOM      5  C   UNL     1     134.616 124.310 140.332  1.00  0.00     0.002 C 
ATOM      6  C   UNL     1     135.303 123.430 141.367  1.00  0.00    -0.020 C 
ATOM      7  C   UNL     1     135.681 122.256 140.471  1.00  0.00     0.016 C 
ATOM      8  C   UNL     1     136.389 123.025 139.320  1.00  0.00     0.023 C 
ATOM      9  C   UNL     1     135.538 124.339 139.095  1.00  0.00    -0.025 C 
ATOM     10  C   UNL     1     134.715 124.196 137.792  1.00  0.00     0.012 C 
ATOM     11  C   UNL     1     136.340 125.662 138.993  1.00  0.00     0.012 C 
ATOM     12  C   UNL     1     137.784 123.344 139.809  1.00  0.00    -0.045 C 
ATOM     13  C   UNL     1     138.826 123.326 138.964  1.00  0.00     0.011 C 
ATOM     14  C   UNL     1     137.976 123.734 141.262  1.00  0.00     0.140 C 
ATOM     15  C   UNL     1     136.631 124.044 141.993  1.00  0.00     0.044 C 
ENDROOT
BRANCH  14  16
ATOM     16  O   UNL     1     138.637 122.691 141.933  1.00  0.00    -0.389 OA
ATOM     17  H   UNL     1     139.577 122.980 142.068  1.00  0.00     0.211 HD
ENDBRANCH  14  16
TORSDOF 1
ENDMDL
MODEL 4
REMARK VINA RESULT:    -2.228      1.787      4.166
REMARK INTER + INTRA:          -2.293
REMARK INTER:                  -2.293
REMARK INTRA:                   0.000
REMARK UNBOUND:                 0.000
REMARK SMILES C=C1[C@H](O)C[C@]23C[C@H]1C(C)(C)[C@@H]2CC[C@H]3C
REMARK SMILES IDX 16 1 15 2 14 3 13 4 12 5 6 6 7 7 8 8 9 9 10 10 11 11 2 12
REMARK SMILES IDX 1 13 3 14 5 15 4 16
REMARK H PARENT 4 17
REMARK Flexibility Score: inf
ROOT
ATOM      1  C   UNL     1     134.896 122.251 138.156  1.00  0.00     0.008 C 
ATOM      2  C   UNL     1     135.260 123.669 138.628  1.00  0.00    -0.008 C 
ATOM      3  C   UNL     1     136.354 124.331 137.729  1.00  0.00     0.004 C 
ATOM      4  C   UNL     1     137.661 124.412 138.558  1.00  0.00     0.005 C 
ATOM      5  C   UNL     1     137.349 123.502 139.727  1.00  0.00     0.002 C 
ATOM      6  C   UNL     1     135.878 123.734 140.046  1.00  0.00    -0.020 C 
ATOM      7  C   UNL     1     135.693 122.657 141.110  1.00  0.00     0.016 C 
ATOM      8  C   UNL     1     136.888 123.003 142.041  1.00  0.00     0.023 C 
ATOM      9  C   UNL     1     138.083 123.390 141.079  1.00  0.00    -0.025 C 
ATOM     10  C   UNL     1     139.111 122.234 141.053  1.00  0.00     0.012 C 
ATOM     11  C   UNL     1     138.853 124.687 141.437  1.00  0.00     0.012 C 
ATOM     12  C   UNL     1     136.452 124.178 142.886  1.00  0.00    -0.045 C 
ATOM     13  C   UNL     1     136.844 124.286 144.165  1.00  0.00     0.011 C 
ATOM     14  C   UNL     1     135.604 125.261 142.246  1.00  0.00     0.140 C 
ATOM     15  C   UNL     1     135.547 125.151 140.689  1.00  0.00     0.044 C 
ENDROOT
BRANCH  14  16
ATOM     16  O   UNL     1     134.298 125.186 142.762  1.00  0.00    -0.389 OA
ATOM     17  H   UNL     1     134.051 126.098 143.067  1.00  0.00     0.211 HD
ENDBRANCH  14  16
TORSDOF 1
ENDMDL
MODEL 5
REMARK VINA RESULT:    -2.087      1.800      3.195
REMARK INTER + INTRA:          -2.148
REMARK INTER:                  -2.148
REMARK INTRA:                   0.000
REMARK UNBOUND:                 0.000
REMARK SMILES C=C1[C@H](O)C[C@]23C[C@H]1C(C)(C)[C@@H]2CC[C@H]3C
REMARK SMILES IDX 16 1 15 2 14 3 13 4 12 5 6 6 7 7 8 8 9 9 10 10 11 11 2 12
REMARK SMILES IDX 1 13 3 14 5 15 4 16
REMARK H PARENT 4 17
REMARK Flexibility Score: inf
ROOT
ATOM      1  C   UNL     1     133.456 125.584 141.959  1.00  0.00     0.008 C 
ATOM      2  C   UNL     1     134.195 124.242 141.828  1.00  0.00    -0.008 C 
ATOM      3  C   UNL     1     135.169 123.981 143.023  1.00  0.00     0.004 C 
ATOM      4  C   UNL     1     136.618 124.100 142.486  1.00  0.00     0.005 C 
ATOM      5  C   UNL     1     136.400 124.747 141.135  1.00  0.00     0.002 C 
ATOM      6  C   UNL     1     135.118 124.136 140.589  1.00  0.00    -0.020 C 
ATOM      7  C   UNL     1     134.963 124.988 139.333  1.00  0.00     0.016 C 
ATOM      8  C   UNL     1     136.383 124.811 138.724  1.00  0.00     0.023 C 
ATOM      9  C   UNL     1     137.383 124.847 139.950  1.00  0.00    -0.025 C 
ATOM     10  C   UNL     1     138.124 126.205 139.963  1.00  0.00     0.012 C 
ATOM     11  C   UNL     1     138.458 123.732 139.984  1.00  0.00     0.012 C 
ATOM     12  C   UNL     1     136.394 123.465 138.037  1.00  0.00    -0.045 C 
ATOM     13  C   UNL     1     137.078 123.284 136.897  1.00  0.00     0.011 C 
ATOM     14  C   UNL     1     135.660 122.308 138.688  1.00  0.00     0.140 C 
ATOM     15  C   UNL     1     135.232 122.608 140.160  1.00  0.00     0.044 C 
ENDROOT
BRANCH  14  16
ATOM     16  O   UNL     1     134.517 122.005 137.928  1.00  0.00    -0.389 OA
ATOM     17  H   UNL     1     134.094 121.208 138.341  1.00  0.00     0.211 HD
ENDBRANCH  14  16
TORSDOF 1
ENDMDL
MODEL 6
REMARK VINA RESULT:    -1.526      1.530      3.120
REMARK INTER + INTRA:          -1.571
REMARK INTER:                  -1.571
REMARK INTRA:                   0.000
REMARK UNBOUND:                 0.000
REMARK SMILES C=C1[C@H](O)C[C@]23C[C@H]1C(C)(C)[C@@H]2CC[C@H]3C
REMARK SMILES IDX 16 1 15 2 14 3 13 4 12 5 6 6 7 7 8 8 9 9 10 10 11 11 2 12
REMARK SMILES IDX 1 13 3 14 5 15 4 16
REMARK H PARENT 4 17
REMARK Flexibility Score: inf
ROOT
ATOM      1  C   UNL     1     138.772 121.502 141.505  1.00  0.00     0.008 C 
ATOM      2  C   UNL     1     138.589 122.999 141.198  1.00  0.00    -0.008 C 
ATOM      3  C   UNL     1     138.613 123.877 142.491  1.00  0.00     0.004 C 
ATOM      4  C   UNL     1     137.177 124.406 142.729  1.00  0.00     0.005 C 
ATOM      5  C   UNL     1     136.364 123.544 141.787  1.00  0.00     0.002 C 
ATOM      6  C   UNL     1     137.230 123.359 140.549  1.00  0.00    -0.020 C 
ATOM      7  C   UNL     1     136.355 122.366 139.792  1.00  0.00     0.016 C 
ATOM      8  C   UNL     1     134.999 123.124 139.844  1.00  0.00     0.023 C 
ATOM      9  C   UNL     1     134.921 123.765 141.288  1.00  0.00    -0.025 C 
ATOM     10  C   UNL     1     133.913 122.964 142.146  1.00  0.00     0.012 C 
ATOM     11  C   UNL     1     134.501 125.256 141.350  1.00  0.00     0.012 C 
ATOM     12  C   UNL     1     135.055 124.184 138.767  1.00  0.00    -0.045 C 
ATOM     13  C   UNL     1     133.957 124.507 138.066  1.00  0.00     0.011 C 
ATOM     14  C   UNL     1     136.363 124.913 138.530  1.00  0.00     0.140 C 
ATOM     15  C   UNL     1     137.415 124.664 139.658  1.00  0.00     0.044 C 
ENDROOT
BRANCH  14  16
ATOM     16  O   UNL     1     136.901 124.501 137.298  1.00  0.00    -0.389 OA
ATOM     17  H   UNL     1     137.020 125.315 136.743  1.00  0.00     0.211 HD
ENDBRANCH  14  16
TORSDOF 1
ENDMDL
MODEL 7
REMARK VINA RESULT:    -1.482      1.585      2.035
REMARK INTER + INTRA:          -1.526
REMARK INTER:                  -1.526
REMARK INTRA:                   0.000
REMARK UNBOUND:                 0.000
REMARK SMILES C=C1[C@H](O)C[C@]23C[C@H]1C(C)(C)[C@@H]2CC[C@H]3C
REMARK SMILES IDX 16 1 15 2 14 3 13 4 12 5 6 6 7 7 8 8 9 9 10 10 11 11 2 12
REMARK SMILES IDX 1 13 3 14 5 15 4 16
REMARK H PARENT 4 17
REMARK Flexibility Score: inf
ROOT
ATOM      1  C   UNL     1     134.695 126.012 143.035  1.00  0.00     0.008 C 
ATOM      2  C   UNL     1     133.999 125.109 142.001  1.00  0.00    -0.008 C 
ATOM      3  C   UNL     1     133.522 123.756 142.620  1.00  0.00     0.004 C 
ATOM      4  C   UNL     1     134.421 122.631 142.048  1.00  0.00     0.005 C 
ATOM      5  C   UNL     1     135.551 123.420 141.423  1.00  0.00     0.002 C 
ATOM      6  C   UNL     1     134.905 124.663 140.828  1.00  0.00    -0.020 C 
ATOM      7  C   UNL     1     136.166 125.402 140.392  1.00  0.00     0.016 C 
ATOM      8  C   UNL     1     136.866 124.270 139.588  1.00  0.00     0.023 C 
ATOM      9  C   UNL     1     136.610 122.942 140.407  1.00  0.00    -0.025 C 
ATOM     10  C   UNL     1     137.915 122.527 141.126  1.00  0.00     0.012 C 
ATOM     11  C   UNL     1     136.123 121.719 139.587  1.00  0.00     0.012 C 
ATOM     12  C   UNL     1     136.197 124.226 138.233  1.00  0.00    -0.045 C 
ATOM     13  C   UNL     1     136.906 123.950 137.128  1.00  0.00     0.011 C 
ATOM     14  C   UNL     1     134.699 124.449 138.152  1.00  0.00     0.140 C 
ATOM     15  C   UNL     1     133.998 124.399 139.548  1.00  0.00     0.044 C 
ENDROOT
BRANCH  14  16
ATOM     16  O   UNL     1     134.452 125.697 137.555  1.00  0.00    -0.389 OA
ATOM     17  H   UNL     1     133.467 125.802 137.493  1.00  0.00     0.211 HD
ENDBRANCH  14  16
TORSDOF 1
ENDMDL
