MODEL 1
REMARK VINA RESULT:    -3.704      0.000      0.000
REMARK INTER + INTRA:          -4.855
REMARK INTER:                  -5.220
REMARK INTRA:                   0.364
REMARK UNBOUND:                 0.364
REMARK SMILES CC1=CCC(=C(C)C)C(=O)CC(C)=CCC1
REMARK SMILES IDX 12 1 14 2 13 3 15 4 16 5 2 6 1 7 3 8 11 10 9 11 10 12 5 13
REMARK SMILES IDX 6 14 7 15 8 16 4 17
REMARK H PARENT
REMARK Flexibility Score: 60.00
ROOT
ATOM      1  C   UNL     1      50.423  23.786  20.587  1.00  0.00    -0.070 C 
ATOM      2  C   UNL     1      50.299  23.244  19.353  1.00  0.00    -0.027 C 
ATOM      3  C   UNL     1      49.642  23.164  21.716  1.00  0.00     0.039 C 
ENDROOT
BRANCH   2   4
ATOM      4  C   UNL     1      51.049  23.699  18.122  1.00  0.00     0.032 C 
BRANCH   4   5
ATOM      5  C   UNL     1      50.307  24.827  17.391  1.00  0.00     0.034 C 
BRANCH   5   6
ATOM      6  C   UNL     1      51.161  26.065  17.158  1.00  0.00    -0.077 C 
ATOM      7  C   UNL     1      52.256  26.009  16.123  1.00  0.00     0.039 C 
ATOM      8  C   UNL     1      50.978  27.231  17.820  1.00  0.00    -0.023 CG0
ATOM      9  G   UNL     1      49.984  27.458  18.936  1.00  0.00     0.000 G0
ENDBRANCH   5   6
ENDBRANCH   4   5
ENDBRANCH   2   4
BRANCH   1  10
ATOM     10  C   UNL     1      51.304  24.985  20.877  1.00  0.00     0.111 C 
BRANCH  10  11
ATOM     11  C   UNL     1      50.479  26.210  21.156  1.00  0.00     0.163 C 
ATOM     12  O   UNL     1      49.668  26.202  22.121  1.00  0.00    -0.294 OA
BRANCH  11  13
ATOM     13  C   UNL     1      50.619  27.438  20.333  1.00  0.00    -0.002 C 
ATOM     14  C   UNL     1      51.302  28.512  20.813  1.00  0.00    -0.069 C 
ATOM     15  C   UNL     1      51.413  29.789  20.012  1.00  0.00     0.039 C 
ATOM     16  C   UNL     1      52.012  28.456  22.149  1.00  0.00     0.039 C 
BRANCH  13  17
ATOM     17  C   UNL     1      49.991  27.477  18.944  1.00  0.00     0.066 CG0
ATOM     18  G   UNL     1      50.976  27.230  17.824  1.00  0.00     0.000 G0
ENDBRANCH  13  17
ENDBRANCH  11  13
ENDBRANCH  10  11
ENDBRANCH   1  10
TORSDOF 0
ENDMDL
MODEL 2
REMARK VINA RESULT:    -3.661      2.701      3.911
REMARK INTER + INTRA:          -4.795
REMARK INTER:                  -5.271
REMARK INTRA:                   0.477
REMARK UNBOUND:                 0.364
REMARK SMILES CC1=CCC(=C(C)C)C(=O)CC(C)=CCC1
REMARK SMILES IDX 12 1 14 2 13 3 15 4 16 5 2 6 1 7 3 8 11 10 9 11 10 12 5 13
REMARK SMILES IDX 6 14 7 15 8 16 4 17
REMARK H PARENT
REMARK Flexibility Score: 60.00
ROOT
ATOM      1  C   UNL     1      48.913  22.778  20.701  1.00  0.00    -0.070 C 
ATOM      2  C   UNL     1      50.012  22.965  19.933  1.00  0.00    -0.027 C 
ATOM      3  C   UNL     1      47.939  21.703  20.294  1.00  0.00     0.039 C 
ENDROOT
BRANCH   2   4
ATOM      4  C   UNL     1      51.119  23.953  20.222  1.00  0.00     0.032 C 
BRANCH   4   5
ATOM      5  C   UNL     1      50.723  25.381  19.821  1.00  0.00     0.034 C 
BRANCH   5   6
ATOM      6  C   UNL     1      50.828  26.384  20.960  1.00  0.00    -0.077 C 
ATOM      7  C   UNL     1      52.185  26.677  21.549  1.00  0.00     0.039 C 
ATOM      8  C   UNL     1      49.765  27.049  21.467  1.00  0.00    -0.023 CG0
ATOM      9  G   UNL     1      48.325  26.840  21.059  1.00  0.00     0.000 G0
ENDBRANCH   5   6
ENDBRANCH   4   5
ENDBRANCH   2   4
BRANCH   1  10
ATOM     10  C   UNL     1      48.624  23.600  21.941  1.00  0.00     0.111 C 
BRANCH  10  11
ATOM     11  C   UNL     1      47.429  24.489  21.737  1.00  0.00     0.163 C 
ATOM     12  O   UNL     1      46.339  23.981  21.359  1.00  0.00    -0.294 OA
BRANCH  11  13
ATOM     13  C   UNL     1      47.502  25.950  21.994  1.00  0.00    -0.002 C 
ATOM     14  C   UNL     1      46.858  26.492  23.063  1.00  0.00    -0.069 C 
ATOM     15  C   UNL     1      46.878  27.982  23.313  1.00  0.00     0.039 C 
ATOM     16  C   UNL     1      46.134  25.620  24.065  1.00  0.00     0.039 C 
BRANCH  13  17
ATOM     17  C   UNL     1      48.308  26.832  21.046  1.00  0.00     0.066 CG0
ATOM     18  G   UNL     1      49.745  27.028  21.473  1.00  0.00     0.000 G0
ENDBRANCH  13  17
ENDBRANCH  11  13
ENDBRANCH  10  11
ENDBRANCH   1  10
TORSDOF 0
ENDMDL
MODEL 3
REMARK VINA RESULT:    -3.488      2.743      4.289
REMARK INTER + INTRA:          -4.552
REMARK INTER:                  -4.910
REMARK INTRA:                   0.358
REMARK UNBOUND:                 0.364
REMARK SMILES CC1=CCC(=C(C)C)C(=O)CC(C)=CCC1
REMARK SMILES IDX 12 1 14 2 13 3 15 4 16 5 2 6 1 7 3 8 11 10 9 11 10 12 5 13
REMARK SMILES IDX 6 14 7 15 8 16 4 17
REMARK H PARENT
REMARK Flexibility Score: 60.00
ROOT
ATOM      1  C   UNL     1      48.674  23.264  21.146  1.00  0.00    -0.070 C 
ATOM      2  C   UNL     1      47.364  23.505  21.385  1.00  0.00    -0.027 C 
ATOM      3  C   UNL     1      49.027  22.270  20.069  1.00  0.00     0.039 C 
ENDROOT
BRANCH   2   4
ATOM      4  C   UNL     1      46.830  24.509  22.381  1.00  0.00     0.032 C 
BRANCH   4   5
ATOM      5  C   UNL     1      46.720  25.912  21.766  1.00  0.00     0.034 C 
BRANCH   5   6
ATOM      6  C   UNL     1      47.334  27.005  22.629  1.00  0.00    -0.077 C 
ATOM      7  C   UNL     1      46.581  27.481  23.844  1.00  0.00     0.039 C 
ATOM      8  C   UNL     1      48.539  27.565  22.374  1.00  0.00    -0.023 CG0
ATOM      9  G   UNL     1      49.406  27.271  21.171  1.00  0.00     0.000 G0
ENDBRANCH   5   6
ENDBRANCH   4   5
ENDBRANCH   2   4
BRANCH   1  10
ATOM     10  C   UNL     1      49.791  23.946  21.911  1.00  0.00     0.111 C 
BRANCH  10  11
ATOM     11  C   UNL     1      50.513  24.941  21.045  1.00  0.00     0.163 C 
ATOM     12  O   UNL     1      51.031  24.557  19.962  1.00  0.00    -0.294 OA
BRANCH  11  13
ATOM     13  C   UNL     1      50.606  26.372  21.429  1.00  0.00    -0.002 C 
ATOM     14  C   UNL     1      51.737  26.856  22.010  1.00  0.00    -0.069 C 
ATOM     15  C   UNL     1      51.832  28.297  22.455  1.00  0.00     0.039 C 
ATOM     16  C   UNL     1      52.957  25.980  22.196  1.00  0.00     0.039 C 
BRANCH  13  17
ATOM     17  C   UNL     1      49.419  27.292  21.162  1.00  0.00     0.066 CG0
ATOM     18  G   UNL     1      48.570  27.560  22.383  1.00  0.00     0.000 G0
ENDBRANCH  13  17
ENDBRANCH  11  13
ENDBRANCH  10  11
ENDBRANCH   1  10
TORSDOF 0
ENDMDL
MODEL 4
REMARK VINA RESULT:    -3.432      1.774      3.844
REMARK INTER + INTRA:          -4.472
REMARK INTER:                  -4.940
REMARK INTRA:                   0.468
REMARK UNBOUND:                 0.364
REMARK SMILES CC1=CCC(=C(C)C)C(=O)CC(C)=CCC1
REMARK SMILES IDX 12 1 14 2 13 3 15 4 16 5 2 6 1 7 3 8 11 10 9 11 10 12 5 13
REMARK SMILES IDX 6 14 7 15 8 16 4 17
REMARK H PARENT
REMARK Flexibility Score: 60.00
ROOT
ATOM      1  C   UNL     1      50.460  23.448  20.067  1.00  0.00    -0.070 C 
ATOM      2  C   UNL     1      50.525  24.077  21.265  1.00  0.00    -0.027 C 
ATOM      3  C   UNL     1      49.490  22.304  19.920  1.00  0.00     0.039 C 
ENDROOT
BRANCH   2   4
ATOM      4  C   UNL     1      51.392  25.276  21.573  1.00  0.00     0.032 C 
BRANCH   4   5
ATOM      5  C   UNL     1      50.548  26.500  21.957  1.00  0.00     0.034 C 
BRANCH   5   6
ATOM      6  C   UNL     1      49.405  26.779  20.992  1.00  0.00    -0.077 C 
ATOM      7  C   UNL     1      47.987  26.688  21.497  1.00  0.00     0.039 C 
ATOM      8  C   UNL     1      49.592  27.125  19.697  1.00  0.00    -0.023 CG0
ATOM      9  G   UNL     1      50.927  27.199  18.994  1.00  0.00     0.000 G0
ENDBRANCH   5   6
ENDBRANCH   4   5
ENDBRANCH   2   4
BRANCH   1  10
ATOM     10  C   UNL     1      51.315  23.843  18.880  1.00  0.00     0.111 C 
BRANCH  10  11
ATOM     11  C   UNL     1      50.596  24.823  17.995  1.00  0.00     0.163 C 
ATOM     12  O   UNL     1      49.545  24.461  17.400  1.00  0.00    -0.294 OA
BRANCH  11  13
ATOM     13  C   UNL     1      51.087  26.213  17.826  1.00  0.00    -0.002 C 
ATOM     14  C   UNL     1      51.662  26.601  16.655  1.00  0.00    -0.069 C 
ATOM     15  C   UNL     1      52.213  27.997  16.481  1.00  0.00     0.039 C 
ATOM     16  C   UNL     1      51.734  25.663  15.470  1.00  0.00     0.039 C 
BRANCH  13  17
ATOM     17  C   UNL     1      50.935  27.201  18.978  1.00  0.00     0.066 CG0
ATOM     18  G   UNL     1      49.590  27.133  19.664  1.00  0.00     0.000 G0
ENDBRANCH  13  17
ENDBRANCH  11  13
ENDBRANCH  10  11
ENDBRANCH   1  10
TORSDOF 0
ENDMDL
MODEL 5
REMARK VINA RESULT:    -3.326     10.655     12.161
REMARK INTER + INTRA:          -4.323
REMARK INTER:                  -4.791
REMARK INTRA:                   0.468
REMARK UNBOUND:                 0.364
REMARK SMILES CC1=CCC(=C(C)C)C(=O)CC(C)=CCC1
REMARK SMILES IDX 12 1 14 2 13 3 15 4 16 5 2 6 1 7 3 8 11 10 9 11 10 12 5 13
REMARK SMILES IDX 6 14 7 15 8 16 4 17
REMARK H PARENT
REMARK Flexibility Score: 60.00
ROOT
ATOM      1  C   UNL     1      41.289  23.042  22.993  1.00  0.00    -0.070 C 
ATOM      2  C   UNL     1      40.421  22.397  23.807  1.00  0.00    -0.027 C 
ATOM      3  C   UNL     1      41.931  22.258  21.878  1.00  0.00     0.039 C 
ENDROOT
BRANCH   2   4
ATOM      4  C   UNL     1      39.643  23.038  24.934  1.00  0.00     0.032 C 
BRANCH   4   5
ATOM      5  C   UNL     1      38.135  23.054  24.643  1.00  0.00     0.034 C 
BRANCH   5   6
ATOM      6  C   UNL     1      37.796  23.425  23.207  1.00  0.00    -0.077 C 
ATOM      7  C   UNL     1      37.283  22.353  22.280  1.00  0.00     0.039 C 
ATOM      8  C   UNL     1      37.914  24.680  22.715  1.00  0.00    -0.023 CG0
ATOM      9  G   UNL     1      38.474  25.867  23.466  1.00  0.00     0.000 G0
ENDBRANCH   5   6
ENDBRANCH   4   5
ENDBRANCH   2   4
BRANCH   1  10
ATOM     10  C   UNL     1      41.641  24.507  23.157  1.00  0.00     0.111 C 
BRANCH  10  11
ATOM     11  C   UNL     1      40.754  25.377  22.310  1.00  0.00     0.163 C 
ATOM     12  O   UNL     1      40.781  25.250  21.055  1.00  0.00    -0.294 OA
BRANCH  11  13
ATOM     13  C   UNL     1      39.831  26.364  22.922  1.00  0.00    -0.002 C 
ATOM     14  C   UNL     1      40.183  27.676  23.002  1.00  0.00    -0.069 C 
ATOM     15  C   UNL     1      39.279  28.688  23.667  1.00  0.00     0.039 C 
ATOM     16  C   UNL     1      41.473  28.179  22.391  1.00  0.00     0.039 C 
BRANCH  13  17
ATOM     17  C   UNL     1      38.483  25.890  23.456  1.00  0.00     0.066 CG0
ATOM     18  G   UNL     1      37.930  24.687  22.729  1.00  0.00     0.000 G0
ENDBRANCH  13  17
ENDBRANCH  11  13
ENDBRANCH  10  11
ENDBRANCH   1  10
TORSDOF 0
ENDMDL
MODEL 6
REMARK VINA RESULT:    -3.288     11.904     13.267
REMARK INTER + INTRA:          -4.269
REMARK INTER:                  -4.739
REMARK INTRA:                   0.470
REMARK UNBOUND:                 0.364
REMARK SMILES CC1=CCC(=C(C)C)C(=O)CC(C)=CCC1
REMARK SMILES IDX 12 1 14 2 13 3 15 4 16 5 2 6 1 7 3 8 11 10 9 11 10 12 5 13
REMARK SMILES IDX 6 14 7 15 8 16 4 17
REMARK H PARENT
REMARK Flexibility Score: 60.00
ROOT
ATOM      1  C   UNL     1      39.560  23.075  26.409  1.00  0.00    -0.070 C 
ATOM      2  C   UNL     1      40.010  24.193  27.026  1.00  0.00    -0.027 C 
ATOM      3  C   UNL     1      40.076  21.744  26.891  1.00  0.00     0.039 C 
ENDROOT
BRANCH   2   4
ATOM      4  C   UNL     1      39.556  25.602  26.716  1.00  0.00     0.032 C 
BRANCH   4   5
ATOM      5  C   UNL     1      40.272  26.167  25.480  1.00  0.00     0.034 C 
BRANCH   5   6
ATOM      6  C   UNL     1      39.367  26.995  24.580  1.00  0.00    -0.077 C 
ATOM      7  C   UNL     1      38.734  28.245  25.137  1.00  0.00     0.039 C 
ATOM      8  C   UNL     1      39.111  26.680  23.289  1.00  0.00    -0.023 CG0
ATOM      9  G   UNL     1      39.595  25.437  22.578  1.00  0.00     0.000 G0
ENDBRANCH   5   6
ENDBRANCH   4   5
ENDBRANCH   2   4
BRANCH   1  10
ATOM     10  C   UNL     1      38.570  23.107  25.262  1.00  0.00     0.111 C 
BRANCH  10  11
ATOM     11  C   UNL     1      39.274  23.237  23.940  1.00  0.00     0.163 C 
ATOM     12  O   UNL     1      40.291  22.528  23.711  1.00  0.00    -0.294 OA
BRANCH  11  13
ATOM     13  C   UNL     1      38.781  24.165  22.892  1.00  0.00    -0.002 C 
ATOM     14  C   UNL     1      37.624  23.897  22.227  1.00  0.00    -0.069 C 
ATOM     15  C   UNL     1      37.132  24.802  21.121  1.00  0.00     0.039 C 
ATOM     16  C   UNL     1      36.766  22.707  22.596  1.00  0.00     0.039 C 
BRANCH  13  17
ATOM     17  C   UNL     1      39.585  25.421  22.573  1.00  0.00     0.066 CG0
ATOM     18  G   UNL     1      39.092  26.657  23.290  1.00  0.00     0.000 G0
ENDBRANCH  13  17
ENDBRANCH  11  13
ENDBRANCH  10  11
ENDBRANCH   1  10
TORSDOF 0
ENDMDL
MODEL 7
REMARK VINA RESULT:    -3.167      8.953     10.599
REMARK INTER + INTRA:          -4.099
REMARK INTER:                  -4.479
REMARK INTRA:                   0.380
REMARK UNBOUND:                 0.364
REMARK SMILES CC1=CCC(=C(C)C)C(=O)CC(C)=CCC1
REMARK SMILES IDX 12 1 14 2 13 3 15 4 16 5 2 6 1 7 3 8 11 10 9 11 10 12 5 13
REMARK SMILES IDX 6 14 7 15 8 16 4 17
REMARK H PARENT
REMARK Flexibility Score: 60.00
ROOT
ATOM      1  C   UNL     1      43.438  23.454  21.219  1.00  0.00    -0.070 C 
ATOM      2  C   UNL     1      42.983  22.210  21.497  1.00  0.00    -0.027 C 
ATOM      3  C   UNL     1      44.927  23.654  21.102  1.00  0.00     0.039 C 
ENDROOT
BRANCH   2   4
ATOM      4  C   UNL     1      41.526  21.816  21.591  1.00  0.00     0.032 C 
BRANCH   4   5
ATOM      5  C   UNL     1      41.000  21.932  23.029  1.00  0.00     0.034 C 
BRANCH   5   6
ATOM      6  C   UNL     1      39.756  22.798  23.154  1.00  0.00    -0.077 C 
ATOM      7  C   UNL     1      38.426  22.226  22.732  1.00  0.00     0.039 C 
ATOM      8  C   UNL     1      39.772  24.059  23.644  1.00  0.00    -0.023 CG0
ATOM      9  G   UNL     1      41.010  24.825  24.049  1.00  0.00     0.000 G0
ENDBRANCH   5   6
ENDBRANCH   4   5
ENDBRANCH   2   4
BRANCH   1  10
ATOM     10  C   UNL     1      42.520  24.645  21.025  1.00  0.00     0.111 C 
BRANCH  10  11
ATOM     11  C   UNL     1      42.618  25.600  22.182  1.00  0.00     0.163 C 
ATOM     12  O   UNL     1      43.712  26.186  22.408  1.00  0.00    -0.294 OA
BRANCH  11  13
ATOM     13  C   UNL     1      41.447  25.885  23.048  1.00  0.00    -0.002 C 
ATOM     14  C   UNL     1      40.779  27.065  22.933  1.00  0.00    -0.069 C 
ATOM     15  C   UNL     1      39.616  27.395  23.840  1.00  0.00     0.039 C 
ATOM     16  C   UNL     1      41.148  28.073  21.866  1.00  0.00     0.039 C 
BRANCH  13  17
ATOM     17  C   UNL     1      41.002  24.839  24.064  1.00  0.00     0.066 CG0
ATOM     18  G   UNL     1      39.772  24.067  23.644  1.00  0.00     0.000 G0
ENDBRANCH  13  17
ENDBRANCH  11  13
ENDBRANCH  10  11
ENDBRANCH   1  10
TORSDOF 0
ENDMDL
MODEL 8
REMARK VINA RESULT:    -3.075     12.305     13.689
REMARK INTER + INTRA:          -3.969
REMARK INTER:                  -4.616
REMARK INTRA:                   0.647
REMARK UNBOUND:                 0.364
REMARK SMILES CC1=CCC(=C(C)C)C(=O)CC(C)=CCC1
REMARK SMILES IDX 12 1 14 2 13 3 15 4 16 5 2 6 1 7 3 8 11 10 9 11 10 12 5 13
REMARK SMILES IDX 6 14 7 15 8 16 4 17
REMARK H PARENT
REMARK Flexibility Score: 60.00
ROOT
ATOM      1  C   UNL     1      38.225  33.376  20.998  1.00  0.00    -0.070 C 
ATOM      2  C   UNL     1      37.341  32.694  21.763  1.00  0.00    -0.027 C 
ATOM      3  C   UNL     1      37.992  34.851  20.790  1.00  0.00     0.039 C 
ENDROOT
BRANCH   2   4
ATOM      4  C   UNL     1      37.451  31.230  22.124  1.00  0.00     0.032 C 
BRANCH   4   5
ATOM      5  C   UNL     1      37.540  31.027  23.644  1.00  0.00     0.034 C 
BRANCH   5   6
ATOM      6  C   UNL     1      38.884  30.486  24.108  1.00  0.00    -0.077 C 
ATOM      7  C   UNL     1      38.990  29.031  24.489  1.00  0.00     0.039 C 
ATOM      8  C   UNL     1      40.005  31.240  24.181  1.00  0.00    -0.023 CG0
ATOM      9  G   UNL     1      40.081  32.725  23.910  1.00  0.00     0.000 G0
ENDBRANCH   5   6
ENDBRANCH   4   5
ENDBRANCH   2   4
BRANCH   1  10
ATOM     10  C   UNL     1      39.427  32.724  20.344  1.00  0.00     0.111 C 
BRANCH  10  11
ATOM     11  C   UNL     1      40.423  32.268  21.374  1.00  0.00     0.163 C 
ATOM     12  O   UNL     1      41.025  31.172  21.208  1.00  0.00    -0.294 OA
BRANCH  11  13
ATOM     13  C   UNL     1      40.730  33.092  22.569  1.00  0.00    -0.002 C 
ATOM     14  C   UNL     1      41.573  34.156  22.472  1.00  0.00    -0.069 C 
ATOM     15  C   UNL     1      41.937  34.977  23.687  1.00  0.00     0.039 C 
ATOM     16  C   UNL     1      42.145  34.582  21.137  1.00  0.00     0.039 C 
BRANCH  13  17
ATOM     17  C   UNL     1      40.086  32.734  23.905  1.00  0.00     0.066 CG0
ATOM     18  G   UNL     1      40.001  31.247  24.159  1.00  0.00     0.000 G0
ENDBRANCH  13  17
ENDBRANCH  11  13
ENDBRANCH  10  11
ENDBRANCH   1  10
TORSDOF 0
ENDMDL
MODEL 9
REMARK VINA RESULT:    -3.005     10.298     12.323
REMARK INTER + INTRA:          -3.871
REMARK INTER:                  -4.280
REMARK INTRA:                   0.409
REMARK UNBOUND:                 0.364
REMARK SMILES CC1=CCC(=C(C)C)C(=O)CC(C)=CCC1
REMARK SMILES IDX 12 1 14 2 13 3 15 4 16 5 2 6 1 7 3 8 11 10 9 11 10 12 5 13
REMARK SMILES IDX 6 14 7 15 8 16 4 17
REMARK H PARENT
REMARK Flexibility Score: 60.00
ROOT
ATOM      1  C   UNL     1      39.464  25.602  25.459  1.00  0.00    -0.070 C 
ATOM      2  C   UNL     1      38.266  25.008  25.671  1.00  0.00    -0.027 C 
ATOM      3  C   UNL     1      40.101  26.341  26.607  1.00  0.00     0.039 C 
ENDROOT
BRANCH   2   4
ATOM      4  C   UNL     1      37.514  24.178  24.655  1.00  0.00     0.032 C 
BRANCH   4   5
ATOM      5  C   UNL     1      38.056  22.743  24.584  1.00  0.00     0.034 C 
BRANCH   5   6
ATOM      6  C   UNL     1      38.334  22.267  23.166  1.00  0.00    -0.077 C 
ATOM      7  C   UNL     1      37.169  22.004  22.245  1.00  0.00     0.039 C 
ATOM      8  C   UNL     1      39.580  22.082  22.673  1.00  0.00    -0.023 CG0
ATOM      9  G   UNL     1      40.863  22.225  23.460  1.00  0.00     0.000 G0
ENDBRANCH   5   6
ENDBRANCH   4   5
ENDBRANCH   2   4
BRANCH   1  10
ATOM     10  C   UNL     1      40.183  25.558  24.125  1.00  0.00     0.111 C 
BRANCH  10  11
ATOM     11  C   UNL     1      41.396  24.672  24.192  1.00  0.00     0.163 C 
ATOM     12  O   UNL     1      42.253  24.866  25.096  1.00  0.00    -0.294 OA
BRANCH  11  13
ATOM     13  C   UNL     1      41.592  23.559  23.229  1.00  0.00    -0.002 C 
ATOM     14  C   UNL     1      42.408  23.719  22.152  1.00  0.00    -0.069 C 
ATOM     15  C   UNL     1      42.581  22.617  21.133  1.00  0.00     0.039 C 
ATOM     16  C   UNL     1      43.205  24.991  21.955  1.00  0.00     0.039 C 
BRANCH  13  17
ATOM     17  C   UNL     1      40.871  22.237  23.465  1.00  0.00     0.066 CG0
ATOM     18  G   UNL     1      39.586  22.097  22.681  1.00  0.00     0.000 G0
ENDBRANCH  13  17
ENDBRANCH  11  13
ENDBRANCH  10  11
ENDBRANCH   1  10
TORSDOF 0
ENDMDL
