MODEL 1
REMARK VINA RESULT:    25.044      0.000      0.000
REMARK INTER + INTRA:          29.854
REMARK INTER:                  29.436
REMARK INTRA:                   0.418
REMARK UNBOUND:                 0.418
REMARK SMILES O=c1c(O)c(-c2ccc(O)cc2)oc2cc(O)cc(O)c12
REMARK SMILES IDX 5 1 3 2 2 3 1 4 21 5 19 6 18 7 16 8 15 9 14 10 13 11 6 12
REMARK SMILES IDX 7 13 8 14 9 15 12 16 11 17 10 18 4 20 20 22 17 24
REMARK H PARENT 10 19 4 21 20 23 17 25
REMARK Flexibility Score: inf
ROOT
ATOM      1  C   UNL     1      -5.462  -2.446  12.990  1.00  0.00     0.180 A 
ATOM      2  C   UNL     1      -6.271  -1.911  11.968  1.00  0.00     0.208 A 
ATOM      3  C   UNL     1      -7.666  -1.942  12.121  1.00  0.00     0.238 A 
ATOM      4  O   UNL     1      -8.400  -1.475  11.208  1.00  0.00    -0.285 OA
ATOM      5  C   UNL     1      -8.227  -2.485  13.295  1.00  0.00     0.111 A 
ATOM      6  C   UNL     1      -9.622  -2.549  13.529  1.00  0.00     0.134 A 
ATOM      7  C   UNL     1     -10.101  -3.097  14.729  1.00  0.00     0.093 A 
ATOM      8  C   UNL     1      -9.214  -3.579  15.697  1.00  0.00     0.123 A 
ATOM      9  C   UNL     1      -7.838  -3.518  15.471  1.00  0.00     0.094 A 
ATOM     10  C   UNL     1      -7.339  -2.977  14.281  1.00  0.00     0.146 A 
ATOM     11  O   UNL     1      -6.026  -2.936  14.090  1.00  0.00    -0.452 OA
ENDROOT
BRANCH   1  12
ATOM     12  C   UNL     1      -3.985  -2.468  12.894  1.00  0.00     0.021 A 
ATOM     13  C   UNL     1      -3.330  -1.520  12.091  1.00  0.00     0.016 A 
ATOM     14  C   UNL     1      -1.934  -1.509  12.004  1.00  0.00     0.047 A 
ATOM     15  C   UNL     1      -1.177  -2.434  12.727  1.00  0.00     0.115 A 
ATOM     16  C   UNL     1      -3.216  -3.384  13.636  1.00  0.00     0.016 A 
ATOM     17  C   UNL     1      -1.821  -3.370  13.546  1.00  0.00     0.047 A 
BRANCH  15  18
ATOM     18  O   UNL     1       0.213  -2.412  12.631  1.00  0.00    -0.508 OA
ATOM     19  H   UNL     1       0.762  -3.262  12.688  1.00  0.00     0.293 HD
ENDBRANCH  15  18
ENDBRANCH   1  12
BRANCH   2  20
ATOM     20  O   UNL     1      -5.689  -1.334  10.837  1.00  0.00    -0.502 OA
ATOM     21  H   UNL     1      -6.208  -0.738  10.204  1.00  0.00     0.293 HD
ENDBRANCH   2  20
BRANCH   6  22
ATOM     22  O   UNL     1     -10.531  -2.076  12.582  1.00  0.00    -0.507 OA
ATOM     23  H   UNL     1     -10.224  -1.632  11.724  1.00  0.00     0.293 HD
ENDBRANCH   6  22
BRANCH   8  24
ATOM     24  O   UNL     1      -9.689  -4.122  16.889  1.00  0.00    -0.508 OA
ATOM     25  H   UNL     1      -9.089  -4.659  17.503  1.00  0.00     0.293 HD
ENDBRANCH   8  24
TORSDOF 5
ENDMDL
MODEL 2
REMARK VINA RESULT:    26.507     10.229     11.043
REMARK INTER + INTRA:          31.574
REMARK INTER:                  31.814
REMARK INTRA:                  -0.240
REMARK UNBOUND:                 0.418
REMARK SMILES O=c1c(O)c(-c2ccc(O)cc2)oc2cc(O)cc(O)c12
REMARK SMILES IDX 5 1 3 2 2 3 1 4 21 5 19 6 18 7 16 8 15 9 14 10 13 11 6 12
REMARK SMILES IDX 7 13 8 14 9 15 12 16 11 17 10 18 4 20 20 22 17 24
REMARK H PARENT 10 19 4 21 20 23 17 25
REMARK Flexibility Score: inf
ROOT
ATOM      1  C   UNL     1      -5.786   7.476  16.572  1.00  0.00     0.180 A 
ATOM      2  C   UNL     1      -5.406   6.550  17.563  1.00  0.00     0.208 A 
ATOM      3  C   UNL     1      -5.751   5.200  17.398  1.00  0.00     0.238 A 
ATOM      4  O   UNL     1      -5.425   4.364  18.284  1.00  0.00    -0.285 OA
ATOM      5  C   UNL     1      -6.448   4.795  16.242  1.00  0.00     0.111 A 
ATOM      6  C   UNL     1      -6.829   3.453  15.996  1.00  0.00     0.134 A 
ATOM      7  C   UNL     1      -7.514   3.129  14.816  1.00  0.00     0.093 A 
ATOM      8  C   UNL     1      -7.824   4.119  13.877  1.00  0.00     0.123 A 
ATOM      9  C   UNL     1      -7.451   5.442  14.113  1.00  0.00     0.094 A 
ATOM     10  C   UNL     1      -6.768   5.787  15.285  1.00  0.00     0.146 A 
ATOM     11  O   UNL     1      -6.430   7.055  15.487  1.00  0.00    -0.452 OA
ENDROOT
BRANCH   1  12
ATOM     12  C   UNL     1      -5.477   8.920  16.683  1.00  0.00     0.021 A 
ATOM     13  C   UNL     1      -6.480   9.812  17.095  1.00  0.00     0.016 A 
ATOM     14  C   UNL     1      -6.203  11.176  17.228  1.00  0.00     0.047 A 
ATOM     15  C   UNL     1      -4.921  11.663  16.964  1.00  0.00     0.115 A 
ATOM     16  C   UNL     1      -4.182   9.413  16.437  1.00  0.00     0.016 A 
ATOM     17  C   UNL     1      -3.909  10.778  16.572  1.00  0.00     0.047 A 
BRANCH  15  18
ATOM     18  O   UNL     1      -4.659  13.025  17.100  1.00  0.00    -0.508 OA
ATOM     19  H   UNL     1      -3.712  13.382  17.130  1.00  0.00     0.293 HD
ENDBRANCH  15  18
ENDBRANCH   1  12
BRANCH   2  20
ATOM     20  O   UNL     1      -4.672   6.970  18.676  1.00  0.00    -0.502 OA
ATOM     21  H   UNL     1      -4.630   6.430  19.532  1.00  0.00     0.293 HD
ENDBRANCH   2  20
BRANCH   6  22
ATOM     22  O   UNL     1      -6.534   2.444  16.915  1.00  0.00    -0.507 OA
ATOM     23  H   UNL     1      -7.252   2.027  17.497  1.00  0.00     0.293 HD
ENDBRANCH   6  22
BRANCH   8  24
ATOM     24  O   UNL     1      -8.503   3.797  12.704  1.00  0.00    -0.508 OA
ATOM     25  H   UNL     1      -9.515   3.816  12.655  1.00  0.00     0.293 HD
ENDBRANCH   8  24
TORSDOF 5
ENDMDL
MODEL 3
REMARK VINA RESULT:    27.000     13.200     14.955
REMARK INTER + INTRA:          32.153
REMARK INTER:                  31.817
REMARK INTRA:                   0.336
REMARK UNBOUND:                 0.418
REMARK SMILES O=c1c(O)c(-c2ccc(O)cc2)oc2cc(O)cc(O)c12
REMARK SMILES IDX 5 1 3 2 2 3 1 4 21 5 19 6 18 7 16 8 15 9 14 10 13 11 6 12
REMARK SMILES IDX 7 13 8 14 9 15 12 16 11 17 10 18 4 20 20 22 17 24
REMARK H PARENT 10 19 4 21 20 23 17 25
REMARK Flexibility Score: inf
ROOT
ATOM      1  C   UNL     1     -10.502   8.475  19.176  1.00  0.00     0.180 A 
ATOM      2  C   UNL     1      -9.120   8.672  19.360  1.00  0.00     0.208 A 
ATOM      3  C   UNL     1      -8.538   9.865  18.903  1.00  0.00     0.238 A 
ATOM      4  O   UNL     1      -7.299  10.047  19.052  1.00  0.00    -0.285 OA
ATOM      5  C   UNL     1      -9.346  10.845  18.291  1.00  0.00     0.111 A 
ATOM      6  C   UNL     1      -8.839  12.075  17.807  1.00  0.00     0.134 A 
ATOM      7  C   UNL     1      -9.710  13.003  17.218  1.00  0.00     0.093 A 
ATOM      8  C   UNL     1     -11.077  12.725  17.104  1.00  0.00     0.123 A 
ATOM      9  C   UNL     1     -11.582  11.514  17.580  1.00  0.00     0.094 A 
ATOM     10  C   UNL     1     -10.729  10.575  18.169  1.00  0.00     0.146 A 
ATOM     11  O   UNL     1     -11.235   9.429  18.608  1.00  0.00    -0.452 OA
ENDROOT
BRANCH   1  12
ATOM     12  C   UNL     1     -11.186   7.237  19.613  1.00  0.00     0.021 A 
ATOM     13  C   UNL     1     -10.720   6.554  20.749  1.00  0.00     0.016 A 
ATOM     14  C   UNL     1     -11.365   5.394  21.192  1.00  0.00     0.047 A 
ATOM     15  C   UNL     1     -12.489   4.912  20.516  1.00  0.00     0.115 A 
ATOM     16  C   UNL     1     -12.330   6.757  18.948  1.00  0.00     0.016 A 
ATOM     17  C   UNL     1     -12.972   5.598  19.395  1.00  0.00     0.047 A 
BRANCH  15  18
ATOM     18  O   UNL     1     -13.121   3.756  20.968  1.00  0.00    -0.508 OA
ATOM     19  H   UNL     1     -12.605   2.900  21.135  1.00  0.00     0.293 HD
ENDBRANCH  15  18
ENDBRANCH   1  12
BRANCH   2  20
ATOM     20  O   UNL     1      -8.351   7.706  20.014  1.00  0.00    -0.502 OA
ATOM     21  H   UNL     1      -8.749   7.055  20.679  1.00  0.00     0.293 HD
ENDBRANCH   2  20
BRANCH   6  22
ATOM     22  O   UNL     1      -7.480  12.380  17.906  1.00  0.00    -0.507 OA
ATOM     23  H   UNL     1      -7.029  13.019  17.260  1.00  0.00     0.293 HD
ENDBRANCH   6  22
BRANCH   8  24
ATOM     24  O   UNL     1     -11.943  13.647  16.521  1.00  0.00    -0.508 OA
ATOM     25  H   UNL     1     -12.889  13.774  16.861  1.00  0.00     0.293 HD
ENDBRANCH   8  24
TORSDOF 5
ENDMDL
MODEL 4
REMARK VINA RESULT:    27.887     10.038     10.548
REMARK INTER + INTRA:          33.195
REMARK INTER:                  33.435
REMARK INTRA:                  -0.240
REMARK UNBOUND:                 0.418
REMARK SMILES O=c1c(O)c(-c2ccc(O)cc2)oc2cc(O)cc(O)c12
REMARK SMILES IDX 5 1 3 2 2 3 1 4 21 5 19 6 18 7 16 8 15 9 14 10 13 11 6 12
REMARK SMILES IDX 7 13 8 14 9 15 12 16 11 17 10 18 4 20 20 22 17 24
REMARK H PARENT 10 19 4 21 20 23 17 25
REMARK Flexibility Score: inf
ROOT
ATOM      1  C   UNL     1      -6.049   7.440  16.042  1.00  0.00     0.180 A 
ATOM      2  C   UNL     1      -6.771   7.190  14.859  1.00  0.00     0.208 A 
ATOM      3  C   UNL     1      -7.103   5.865  14.535  1.00  0.00     0.238 A 
ATOM      4  O   UNL     1      -7.741   5.628  13.473  1.00  0.00    -0.285 OA
ATOM      5  C   UNL     1      -6.729   4.820  15.404  1.00  0.00     0.111 A 
ATOM      6  C   UNL     1      -7.030   3.459  15.153  1.00  0.00     0.134 A 
ATOM      7  C   UNL     1      -6.630   2.478  16.073  1.00  0.00     0.093 A 
ATOM      8  C   UNL     1      -5.938   2.831  17.236  1.00  0.00     0.123 A 
ATOM      9  C   UNL     1      -5.640   4.171  17.488  1.00  0.00     0.094 A 
ATOM     10  C   UNL     1      -6.028   5.164  16.583  1.00  0.00     0.146 A 
ATOM     11  O   UNL     1      -5.726   6.430  16.845  1.00  0.00    -0.452 OA
ENDROOT
BRANCH   1  12
ATOM     12  C   UNL     1      -5.643   8.807  16.443  1.00  0.00     0.021 A 
ATOM     13  C   UNL     1      -4.323   9.230  16.218  1.00  0.00     0.016 A 
ATOM     14  C   UNL     1      -3.925  10.524  16.569  1.00  0.00     0.047 A 
ATOM     15  C   UNL     1      -4.842  11.414  17.134  1.00  0.00     0.115 A 
ATOM     16  C   UNL     1      -6.568   9.714  16.994  1.00  0.00     0.016 A 
ATOM     17  C   UNL     1      -6.166  11.007  17.343  1.00  0.00     0.047 A 
BRANCH  15  18
ATOM     18  O   UNL     1      -4.432  12.700  17.479  1.00  0.00    -0.508 OA
ATOM     19  H   UNL     1      -5.100  13.444  17.642  1.00  0.00     0.293 HD
ENDBRANCH  15  18
ENDBRANCH   1  12
BRANCH   2  20
ATOM     20  O   UNL     1      -7.172   8.249  14.040  1.00  0.00    -0.502 OA
ATOM     21  H   UNL     1      -8.101   8.651  14.090  1.00  0.00     0.293 HD
ENDBRANCH   2  20
BRANCH   6  22
ATOM     22  O   UNL     1      -7.719   3.077  14.001  1.00  0.00    -0.507 OA
ATOM     23  H   UNL     1      -8.474   3.636  13.621  1.00  0.00     0.293 HD
ENDBRANCH   6  22
BRANCH   8  24
ATOM     24  O   UNL     1      -5.542   1.857  18.150  1.00  0.00    -0.508 OA
ATOM     25  H   UNL     1      -5.290   2.095  19.102  1.00  0.00     0.293 HD
ENDBRANCH   8  24
TORSDOF 5
ENDMDL
