MODEL 1
REMARK VINA RESULT:    -2.888      0.000      0.000
REMARK INTER + INTRA:          -3.612
REMARK INTER:                  -3.563
REMARK INTRA:                  -0.048
REMARK UNBOUND:                -0.048
REMARK SMILES CCCCCC(=O)[O-]
REMARK SMILES IDX 4 1 5 2 6 3 7 4 8 5 3 6 2 7 1 8
REMARK H PARENT
REMARK Flexibility Score: inf
ROOT
ATOM      1  C   UNL     1       4.569 -52.815  10.221  1.00  0.00     0.006 C 
ENDROOT
BRANCH   1   2
ATOM      2  C   UNL     1       3.710 -51.909  11.113  1.00  0.00     0.053 C 
BRANCH   2   3
ATOM      3  C   UNL     1       3.047 -50.820  10.327  1.00  0.00     0.041 C 
ATOM      4  O   UNL     1       2.571 -49.814  10.915  1.00  0.00    -0.550 OA
ATOM      5  O   UNL     1       2.985 -50.900   8.941  1.00  0.00    -0.550 OA
ENDBRANCH   2   3
ENDBRANCH   1   2
BRANCH   1   6
ATOM      6  C   UNL     1       5.879 -53.231  10.905  1.00  0.00     0.000 C 
BRANCH   6   7
ATOM      7  C   UNL     1       7.040 -53.247   9.904  1.00  0.00    -0.003 C 
ATOM      8  C   UNL     1       8.263 -53.947  10.487  1.00  0.00     0.004 C 
ENDBRANCH   6   7
ENDBRANCH   1   6
TORSDOF 4
ENDMDL
MODEL 2
REMARK VINA RESULT:    -2.548      3.350      5.531
REMARK INTER + INTRA:          -3.192
REMARK INTER:                  -3.049
REMARK INTRA:                  -0.143
REMARK UNBOUND:                -0.048
REMARK SMILES CCCCCC(=O)[O-]
REMARK SMILES IDX 4 1 5 2 6 3 7 4 8 5 3 6 2 7 1 8
REMARK H PARENT
REMARK Flexibility Score: inf
ROOT
ATOM      1  C   UNL     1       0.904 -49.887  11.096  1.00  0.00     0.006 C 
ENDROOT
BRANCH   1   2
ATOM      2  C   UNL     1       2.438 -49.892  11.120  1.00  0.00     0.053 C 
BRANCH   2   3
ATOM      3  C   UNL     1       3.009 -50.779  10.056  1.00  0.00     0.041 C 
ATOM      4  O   UNL     1       2.884 -50.472   8.842  1.00  0.00    -0.550 OA
ATOM      5  O   UNL     1       3.708 -51.928  10.407  1.00  0.00    -0.550 OA
ENDBRANCH   2   3
ENDBRANCH   1   2
BRANCH   1   6
ATOM      6  C   UNL     1       0.322 -51.273  10.785  1.00  0.00     0.000 C 
BRANCH   6   7
ATOM      7  C   UNL     1      -0.906 -51.161   9.875  1.00  0.00    -0.003 C 
ATOM      8  C   UNL     1      -1.037 -49.756   9.294  1.00  0.00     0.004 C 
ENDBRANCH   6   7
ENDBRANCH   1   6
TORSDOF 4
ENDMDL
MODEL 3
REMARK VINA RESULT:    -2.431      2.691      4.951
REMARK INTER + INTRA:          -3.047
REMARK INTER:                  -2.979
REMARK INTRA:                  -0.068
REMARK UNBOUND:                -0.048
REMARK SMILES CCCCCC(=O)[O-]
REMARK SMILES IDX 4 1 5 2 6 3 7 4 8 5 3 6 2 7 1 8
REMARK H PARENT
REMARK Flexibility Score: inf
ROOT
ATOM      1  C   UNL     1       3.125 -51.145  10.162  1.00  0.00     0.006 C 
ENDROOT
BRANCH   1   2
ATOM      2  C   UNL     1       4.095 -51.846  11.124  1.00  0.00     0.053 C 
BRANCH   2   3
ATOM      3  C   UNL     1       4.530 -53.180  10.600  1.00  0.00     0.041 C 
ATOM      4  O   UNL     1       3.944 -54.230  10.973  1.00  0.00    -0.550 OA
ATOM      5  O   UNL     1       5.562 -53.261   9.672  1.00  0.00    -0.550 OA
ENDBRANCH   2   3
ENDBRANCH   1   2
BRANCH   1   6
ATOM      6  C   UNL     1       2.478 -49.903  10.793  1.00  0.00     0.000 C 
BRANCH   6   7
ATOM      7  C   UNL     1       0.998 -50.154  11.104  1.00  0.00    -0.003 C 
ATOM      8  C   UNL     1       0.184 -50.311   9.823  1.00  0.00     0.004 C 
ENDBRANCH   6   7
ENDBRANCH   1   6
TORSDOF 4
ENDMDL
MODEL 4
REMARK VINA RESULT:    -2.402      3.174      4.983
REMARK INTER + INTRA:          -3.012
REMARK INTER:                  -2.966
REMARK INTRA:                  -0.046
REMARK UNBOUND:                -0.048
REMARK SMILES CCCCCC(=O)[O-]
REMARK SMILES IDX 4 1 5 2 6 3 7 4 8 5 3 6 2 7 1 8
REMARK H PARENT
REMARK Flexibility Score: inf
ROOT
ATOM      1  C   UNL     1       5.313 -52.506  11.124  1.00  0.00     0.006 C 
ENDROOT
BRANCH   1   2
ATOM      2  C   UNL     1       6.202 -53.254  10.122  1.00  0.00     0.053 C 
BRANCH   2   3
ATOM      3  C   UNL     1       7.631 -53.298  10.570  1.00  0.00     0.041 C 
ATOM      4  O   UNL     1       8.202 -54.404  10.755  1.00  0.00    -0.550 OA
ATOM      5  O   UNL     1       8.341 -52.117  10.750  1.00  0.00    -0.550 OA
ENDBRANCH   2   3
ENDBRANCH   1   2
BRANCH   1   6
ATOM      6  C   UNL     1       3.905 -52.243  10.569  1.00  0.00     0.000 C 
BRANCH   6   7
ATOM      7  C   UNL     1       3.396 -50.862  10.998  1.00  0.00    -0.003 C 
ATOM      8  C   UNL     1       2.156 -50.461  10.205  1.00  0.00     0.004 C 
ENDBRANCH   6   7
ENDBRANCH   1   6
TORSDOF 4
ENDMDL
MODEL 5
REMARK VINA RESULT:    -2.387      2.603      3.886
REMARK INTER + INTRA:          -2.993
REMARK INTER:                  -2.893
REMARK INTRA:                  -0.100
REMARK UNBOUND:                -0.048
REMARK SMILES CCCCCC(=O)[O-]
REMARK SMILES IDX 4 1 5 2 6 3 7 4 8 5 3 6 2 7 1 8
REMARK H PARENT
REMARK Flexibility Score: inf
ROOT
ATOM      1  C   UNL     1       1.886 -50.009  10.589  1.00  0.00     0.006 C 
ENDROOT
BRANCH   1   2
ATOM      2  C   UNL     1       0.531 -50.683  10.847  1.00  0.00     0.053 C 
BRANCH   2   3
ATOM      3  C   UNL     1      -0.405 -50.512   9.689  1.00  0.00     0.041 C 
ATOM      4  O   UNL     1      -0.706 -51.499   8.968  1.00  0.00    -0.550 OA
ATOM      5  O   UNL     1      -0.971 -49.270   9.428  1.00  0.00    -0.550 OA
ENDBRANCH   2   3
ENDBRANCH   1   2
BRANCH   1   6
ATOM      6  C   UNL     1       2.896 -50.965   9.940  1.00  0.00     0.000 C 
BRANCH   6   7
ATOM      7  C   UNL     1       3.599 -51.822  10.998  1.00  0.00    -0.003 C 
ATOM      8  C   UNL     1       4.465 -52.899  10.352  1.00  0.00     0.004 C 
ENDBRANCH   6   7
ENDBRANCH   1   6
TORSDOF 4
ENDMDL
MODEL 6
REMARK VINA RESULT:    -2.231      1.943      2.717
REMARK INTER + INTRA:          -2.801
REMARK INTER:                  -2.704
REMARK INTRA:                  -0.097
REMARK UNBOUND:                -0.048
REMARK SMILES CCCCCC(=O)[O-]
REMARK SMILES IDX 4 1 5 2 6 3 7 4 8 5 3 6 2 7 1 8
REMARK H PARENT
REMARK Flexibility Score: inf
ROOT
ATOM      1  C   UNL     1       6.850 -52.914  11.120  1.00  0.00     0.006 C 
ENDROOT
BRANCH   1   2
ATOM      2  C   UNL     1       5.763 -53.330  10.119  1.00  0.00     0.053 C 
BRANCH   2   3
ATOM      3  C   UNL     1       4.393 -52.961  10.600  1.00  0.00     0.041 C 
ATOM      4  O   UNL     1       3.986 -51.774  10.502  1.00  0.00    -0.550 OA
ATOM      5  O   UNL     1       3.553 -53.937  11.124  1.00  0.00    -0.550 OA
ENDBRANCH   2   3
ENDBRANCH   1   2
BRANCH   1   6
ATOM      6  C   UNL     1       8.098 -53.803  11.025  1.00  0.00     0.000 C 
BRANCH   6   7
ATOM      7  C   UNL     1       9.376 -52.957  11.046  1.00  0.00    -0.003 C 
ATOM      8  C   UNL     1       9.061 -51.476  10.864  1.00  0.00     0.004 C 
ENDBRANCH   6   7
ENDBRANCH   1   6
TORSDOF 4
ENDMDL
MODEL 7
REMARK VINA RESULT:    -2.116      4.190      5.065
REMARK INTER + INTRA:          -2.659
REMARK INTER:                  -2.808
REMARK INTRA:                   0.149
REMARK UNBOUND:                -0.048
REMARK SMILES CCCCCC(=O)[O-]
REMARK SMILES IDX 4 1 5 2 6 3 7 4 8 5 3 6 2 7 1 8
REMARK H PARENT
REMARK Flexibility Score: inf
ROOT
ATOM      1  C   UNL     1       0.719 -49.751  11.125  1.00  0.00     0.006 C 
ENDROOT
BRANCH   1   2
ATOM      2  C   UNL     1      -0.771 -49.680  10.765  1.00  0.00     0.053 C 
BRANCH   2   3
ATOM      3  C   UNL     1      -1.000 -49.887   9.299  1.00  0.00     0.041 C 
ATOM      4  O   UNL     1      -1.118 -51.052   8.835  1.00  0.00    -0.550 OA
ATOM      5  O   UNL     1      -1.118 -48.793   8.451  1.00  0.00    -0.550 OA
ENDBRANCH   2   3
ENDBRANCH   1   2
BRANCH   1   6
ATOM      6  C   UNL     1       1.454 -50.851  10.344  1.00  0.00     0.000 C 
BRANCH   6   7
ATOM      7  C   UNL     1       2.760 -50.318   9.745  1.00  0.00    -0.003 C 
ATOM      8  C   UNL     1       2.931 -50.776   8.299  1.00  0.00     0.004 C 
ENDBRANCH   6   7
ENDBRANCH   1   6
TORSDOF 4
ENDMDL
MODEL 8
REMARK VINA RESULT:    -1.269      3.659      4.866
REMARK INTER + INTRA:          -1.614
REMARK INTER:                  -1.633
REMARK INTRA:                   0.018
REMARK UNBOUND:                -0.048
REMARK SMILES CCCCCC(=O)[O-]
REMARK SMILES IDX 4 1 5 2 6 3 7 4 8 5 3 6 2 7 1 8
REMARK H PARENT
REMARK Flexibility Score: inf
ROOT
ATOM      1  C   UNL     1       6.000 -52.538  10.860  1.00  0.00     0.006 C 
ENDROOT
BRANCH   1   2
ATOM      2  C   UNL     1       6.988 -53.268   9.940  1.00  0.00     0.053 C 
BRANCH   2   3
ATOM      3  C   UNL     1       8.166 -53.799  10.697  1.00  0.00     0.041 C 
ATOM      4  O   UNL     1       9.129 -53.040  10.982  1.00  0.00    -0.550 OA
ATOM      5  O   UNL     1       8.185 -55.123  11.118  1.00  0.00    -0.550 OA
ENDBRANCH   2   3
ENDBRANCH   1   2
BRANCH   1   6
ATOM      6  C   UNL     1       4.655 -52.267  10.171  1.00  0.00     0.000 C 
BRANCH   6   7
ATOM      7  C   UNL     1       3.539 -53.113  10.794  1.00  0.00    -0.003 C 
ATOM      8  C   UNL     1       4.031 -54.519  11.124  1.00  0.00     0.004 C 
ENDBRANCH   6   7
ENDBRANCH   1   6
TORSDOF 4
ENDMDL
MODEL 9
REMARK VINA RESULT:    -1.118      3.744      4.859
REMARK INTER + INTRA:          -1.428
REMARK INTER:                  -1.790
REMARK INTRA:                   0.362
REMARK UNBOUND:                -0.048
REMARK SMILES CCCCCC(=O)[O-]
REMARK SMILES IDX 4 1 5 2 6 3 7 4 8 5 3 6 2 7 1 8
REMARK H PARENT
REMARK Flexibility Score: inf
ROOT
ATOM      1  C   UNL     1       0.658 -49.787  10.212  1.00  0.00     0.006 C 
ENDROOT
BRANCH   1   2
ATOM      2  C   UNL     1      -0.582 -50.598  10.615  1.00  0.00     0.053 C 
BRANCH   2   3
ATOM      3  C   UNL     1      -0.339 -52.073  10.515  1.00  0.00     0.041 C 
ATOM      4  O   UNL     1      -1.125 -52.800   9.852  1.00  0.00    -0.550 OA
ATOM      5  O   UNL     1       0.774 -52.639  11.124  1.00  0.00    -0.550 OA
ENDBRANCH   2   3
ENDBRANCH   1   2
BRANCH   1   6
ATOM      6  C   UNL     1       1.567 -50.558   9.244  1.00  0.00     0.000 C 
BRANCH   6   7
ATOM      7  C   UNL     1       2.968 -50.742   9.836  1.00  0.00    -0.003 C 
ATOM      8  C   UNL     1       3.226 -49.748  10.964  1.00  0.00     0.004 C 
ENDBRANCH   6   7
ENDBRANCH   1   6
TORSDOF 4
ENDMDL
