MODEL 1
REMARK VINA RESULT:    -3.774      0.000      0.000
REMARK INTER + INTRA:          -5.731
REMARK INTER:                  -5.318
REMARK INTRA:                  -0.413
REMARK UNBOUND:                -0.413
REMARK SMILES CCCCCCCCC(=O)[O-]
REMARK SMILES IDX 6 1 7 2 8 3 9 4 10 5 11 6 5 7 4 8 3 9 2 10 1 11
REMARK H PARENT
REMARK Flexibility Score: inf
ROOT
ATOM      1  C   UNL     1      -2.603  15.507  -5.907  1.00  0.00     0.000 C 
ENDROOT
BRANCH   1   2
ATOM      2  C   UNL     1      -3.364  14.357  -5.228  1.00  0.00     0.006 C 
BRANCH   2   3
ATOM      3  C   UNL     1      -3.040  12.988  -5.840  1.00  0.00     0.053 C 
BRANCH   3   4
ATOM      4  C   UNL     1      -2.419  12.092  -4.815  1.00  0.00     0.041 C 
ATOM      5  O   UNL     1      -3.090  11.159  -4.298  1.00  0.00    -0.550 OA
ATOM      6  O   UNL     1      -1.084  12.253  -4.467  1.00  0.00    -0.550 OA
ENDBRANCH   3   4
ENDBRANCH   2   3
ENDBRANCH   1   2
BRANCH   1   7
ATOM      7  C   UNL     1      -2.130  16.576  -4.906  1.00  0.00     0.000 C 
BRANCH   7   8
ATOM      8  C   UNL     1      -0.639  16.440  -4.557  1.00  0.00    -0.000 C 
BRANCH   8   9
ATOM      9  C   UNL     1      -0.393  15.531  -3.344  1.00  0.00    -0.000 C 
BRANCH   9  10
ATOM     10  C   UNL     1      -0.900  16.187  -2.055  1.00  0.00    -0.003 C 
ATOM     11  C   UNL     1       0.010  15.862  -0.874  1.00  0.00     0.004 C 
ENDBRANCH   9  10
ENDBRANCH   8   9
ENDBRANCH   7   8
ENDBRANCH   1   7
TORSDOF 7
ENDMDL
MODEL 2
REMARK VINA RESULT:    -3.638      2.210      4.389
REMARK INTER + INTRA:          -5.540
REMARK INTER:                  -4.876
REMARK INTRA:                  -0.664
REMARK UNBOUND:                -0.413
REMARK SMILES CCCCCCCCC(=O)[O-]
REMARK SMILES IDX 6 1 7 2 8 3 9 4 10 5 11 6 5 7 4 8 3 9 2 10 1 11
REMARK H PARENT
REMARK Flexibility Score: inf
ROOT
ATOM      1  C   UNL     1      -1.250  16.984  -5.580  1.00  0.00     0.000 C 
ENDROOT
BRANCH   1   2
ATOM      2  C   UNL     1      -0.325  17.166  -4.367  1.00  0.00     0.006 C 
BRANCH   2   3
ATOM      3  C   UNL     1      -0.090  15.860  -3.598  1.00  0.00     0.053 C 
BRANCH   3   4
ATOM      4  C   UNL     1      -0.834  15.877  -2.301  1.00  0.00     0.041 C 
ATOM      5  O   UNL     1      -0.206  15.940  -1.210  1.00  0.00    -0.550 OA
ATOM      6  O   UNL     1      -2.223  15.874  -2.295  1.00  0.00    -0.550 OA
ENDBRANCH   3   4
ENDBRANCH   2   3
ENDBRANCH   1   2
BRANCH   1   7
ATOM      7  C   UNL     1      -1.492  15.503  -5.922  1.00  0.00     0.000 C 
BRANCH   7   8
ATOM      8  C   UNL     1      -2.987  15.149  -5.988  1.00  0.00    -0.000 C 
BRANCH   8   9
ATOM      9  C   UNL     1      -3.354  13.950  -5.101  1.00  0.00    -0.000 C 
BRANCH   9  10
ATOM     10  C   UNL     1      -2.162  12.999  -4.945  1.00  0.00    -0.003 C 
ATOM     11  C   UNL     1      -2.621  11.596  -4.560  1.00  0.00     0.004 C 
ENDBRANCH   9  10
ENDBRANCH   8   9
ENDBRANCH   7   8
ENDBRANCH   1   7
TORSDOF 7
ENDMDL
MODEL 3
REMARK VINA RESULT:    -3.473      1.163      1.791
REMARK INTER + INTRA:          -5.307
REMARK INTER:                  -4.877
REMARK INTRA:                  -0.431
REMARK UNBOUND:                -0.413
REMARK SMILES CCCCCCCCC(=O)[O-]
REMARK SMILES IDX 6 1 7 2 8 3 9 4 10 5 11 6 5 7 4 8 3 9 2 10 1 11
REMARK H PARENT
REMARK Flexibility Score: inf
ROOT
ATOM      1  C   UNL     1      -2.865  15.496  -5.863  1.00  0.00     0.000 C 
ENDROOT
BRANCH   1   2
ATOM      2  C   UNL     1      -3.249  14.387  -4.870  1.00  0.00     0.006 C 
BRANCH   2   3
ATOM      3  C   UNL     1      -3.165  12.985  -5.485  1.00  0.00     0.053 C 
BRANCH   3   4
ATOM      4  C   UNL     1      -2.258  12.113  -4.677  1.00  0.00     0.041 C 
ATOM      5  O   UNL     1      -2.656  10.990  -4.267  1.00  0.00    -0.550 OA
ATOM      6  O   UNL     1      -0.955  12.516  -4.416  1.00  0.00    -0.550 OA
ENDBRANCH   3   4
ENDBRANCH   2   3
ENDBRANCH   1   2
BRANCH   1   7
ATOM      7  C   UNL     1      -1.912  16.536  -5.248  1.00  0.00     0.000 C 
BRANCH   7   8
ATOM      8  C   UNL     1      -1.390  16.113  -3.865  1.00  0.00    -0.000 C 
BRANCH   8   9
ATOM      9  C   UNL     1       0.082  16.491  -3.644  1.00  0.00    -0.000 C 
BRANCH   9  10
ATOM     10  C   UNL     1       0.435  17.780  -4.396  1.00  0.00    -0.003 C 
ATOM     11  C   UNL     1       1.931  17.856  -4.688  1.00  0.00     0.004 C 
ENDBRANCH   9  10
ENDBRANCH   8   9
ENDBRANCH   7   8
ENDBRANCH   1   7
TORSDOF 7
ENDMDL
MODEL 4
REMARK VINA RESULT:    -3.464     16.492     18.805
REMARK INTER + INTRA:          -5.294
REMARK INTER:                  -4.740
REMARK INTRA:                  -0.554
REMARK UNBOUND:                -0.413
REMARK SMILES CCCCCCCCC(=O)[O-]
REMARK SMILES IDX 6 1 7 2 8 3 9 4 10 5 11 6 5 7 4 8 3 9 2 10 1 11
REMARK H PARENT
REMARK Flexibility Score: inf
ROOT
ATOM      1  C   UNL     1       2.066   5.337  11.621  1.00  0.00     0.000 C 
ENDROOT
BRANCH   1   2
ATOM      2  C   UNL     1       2.784   5.513  12.969  1.00  0.00     0.006 C 
BRANCH   2   3
ATOM      3  C   UNL     1       1.858   6.048  14.069  1.00  0.00     0.053 C 
BRANCH   3   4
ATOM      4  C   UNL     1       1.640   7.518  13.898  1.00  0.00     0.041 C 
ATOM      5  O   UNL     1       2.624   8.296  13.782  1.00  0.00    -0.550 OA
ATOM      6  O   UNL     1       0.349   8.024  13.816  1.00  0.00    -0.550 OA
ENDBRANCH   3   4
ENDBRANCH   2   3
ENDBRANCH   1   2
BRANCH   1   7
ATOM      7  C   UNL     1       0.735   4.574  11.756  1.00  0.00     0.000 C 
BRANCH   7   8
ATOM      8  C   UNL     1      -0.422   5.273  11.024  1.00  0.00    -0.000 C 
BRANCH   8   9
ATOM      9  C   UNL     1      -0.098   6.728  10.653  1.00  0.00    -0.000 C 
BRANCH   9  10
ATOM     10  C   UNL     1      -0.890   7.167   9.416  1.00  0.00    -0.003 C 
ATOM     11  C   UNL     1      -0.139   8.240   8.632  1.00  0.00     0.004 C 
ENDBRANCH   9  10
ENDBRANCH   8   9
ENDBRANCH   7   8
ENDBRANCH   1   7
TORSDOF 7
ENDMDL
MODEL 5
REMARK VINA RESULT:    -3.433      1.595      2.306
REMARK INTER + INTRA:          -5.251
REMARK INTER:                  -4.637
REMARK INTRA:                  -0.614
REMARK UNBOUND:                -0.413
REMARK SMILES CCCCCCCCC(=O)[O-]
REMARK SMILES IDX 6 1 7 2 8 3 9 4 10 5 11 6 5 7 4 8 3 9 2 10 1 11
REMARK H PARENT
REMARK Flexibility Score: inf
ROOT
ATOM      1  C   UNL     1      -2.364  15.942  -6.125  1.00  0.00     0.000 C 
ENDROOT
BRANCH   1   2
ATOM      2  C   UNL     1      -2.697  15.068  -4.906  1.00  0.00     0.006 C 
BRANCH   2   3
ATOM      3  C   UNL     1      -1.871  13.776  -4.858  1.00  0.00     0.053 C 
BRANCH   3   4
ATOM      4  C   UNL     1      -2.734  12.593  -5.162  1.00  0.00     0.041 C 
ATOM      5  O   UNL     1      -3.572  12.644  -6.102  1.00  0.00    -0.550 OA
ATOM      6  O   UNL     1      -2.580  11.416  -4.441  1.00  0.00    -0.550 OA
ENDBRANCH   3   4
ENDBRANCH   2   3
ENDBRANCH   1   2
BRANCH   1   7
ATOM      7  C   UNL     1      -2.956  17.359  -6.016  1.00  0.00     0.000 C 
BRANCH   7   8
ATOM      8  C   UNL     1      -1.878  18.454  -6.053  1.00  0.00    -0.000 C 
BRANCH   8   9
ATOM      9  C   UNL     1      -0.451  17.885  -6.010  1.00  0.00    -0.000 C 
BRANCH   9  10
ATOM     10  C   UNL     1       0.209  18.164  -4.656  1.00  0.00    -0.003 C 
ATOM     11  C   UNL     1       0.423  16.874  -3.869  1.00  0.00     0.004 C 
ENDBRANCH   9  10
ENDBRANCH   8   9
ENDBRANCH   7   8
ENDBRANCH   1   7
TORSDOF 7
ENDMDL
MODEL 6
REMARK VINA RESULT:    -3.430      3.307      5.107
REMARK INTER + INTRA:          -5.247
REMARK INTER:                  -4.768
REMARK INTRA:                  -0.479
REMARK UNBOUND:                -0.413
REMARK SMILES CCCCCCCCC(=O)[O-]
REMARK SMILES IDX 6 1 7 2 8 3 9 4 10 5 11 6 5 7 4 8 3 9 2 10 1 11
REMARK H PARENT
REMARK Flexibility Score: inf
ROOT
ATOM      1  C   UNL     1      -1.855  15.811  -3.682  1.00  0.00     0.000 C 
ENDROOT
BRANCH   1   2
ATOM      2  C   UNL     1      -0.428  16.192  -3.253  1.00  0.00     0.006 C 
BRANCH   2   3
ATOM      3  C   UNL     1       0.582  16.097  -4.404  1.00  0.00     0.053 C 
BRANCH   3   4
ATOM      4  C   UNL     1       1.299  17.398  -4.577  1.00  0.00     0.041 C 
ATOM      5  O   UNL     1       0.657  18.482  -4.576  1.00  0.00    -0.550 OA
ATOM      6  O   UNL     1       2.684  17.420  -4.688  1.00  0.00    -0.550 OA
ENDBRANCH   3   4
ENDBRANCH   2   3
ENDBRANCH   1   2
BRANCH   1   7
ATOM      7  C   UNL     1      -2.150  16.183  -5.146  1.00  0.00     0.000 C 
BRANCH   7   8
ATOM      8  C   UNL     1      -2.891  15.068  -5.900  1.00  0.00    -0.000 C 
BRANCH   8   9
ATOM      9  C   UNL     1      -3.310  13.908  -4.984  1.00  0.00    -0.000 C 
BRANCH   9  10
ATOM     10  C   UNL     1      -2.602  12.609  -5.387  1.00  0.00    -0.003 C 
ATOM     11  C   UNL     1      -2.914  11.482  -4.407  1.00  0.00     0.004 C 
ENDBRANCH   9  10
ENDBRANCH   8   9
ENDBRANCH   7   8
ENDBRANCH   1   7
TORSDOF 7
ENDMDL
MODEL 7
REMARK VINA RESULT:    -3.395      1.409      2.550
REMARK INTER + INTRA:          -5.197
REMARK INTER:                  -4.830
REMARK INTRA:                  -0.367
REMARK UNBOUND:                -0.413
REMARK SMILES CCCCCCCCC(=O)[O-]
REMARK SMILES IDX 6 1 7 2 8 3 9 4 10 5 11 6 5 7 4 8 3 9 2 10 1 11
REMARK H PARENT
REMARK Flexibility Score: inf
ROOT
ATOM      1  C   UNL     1      -2.892  14.792  -4.192  1.00  0.00     0.000 C 
ENDROOT
BRANCH   1   2
ATOM      2  C   UNL     1      -2.707  14.406  -5.668  1.00  0.00     0.006 C 
BRANCH   2   3
ATOM      3  C   UNL     1      -3.013  12.927  -5.938  1.00  0.00     0.053 C 
BRANCH   3   4
ATOM      4  C   UNL     1      -2.435  12.070  -4.857  1.00  0.00     0.041 C 
ATOM      5  O   UNL     1      -3.156  11.221  -4.267  1.00  0.00    -0.550 OA
ATOM      6  O   UNL     1      -1.088  12.170  -4.534  1.00  0.00    -0.550 OA
ENDBRANCH   3   4
ENDBRANCH   2   3
ENDBRANCH   1   2
BRANCH   1   7
ATOM      7  C   UNL     1      -1.882  15.856  -3.728  1.00  0.00     0.000 C 
BRANCH   7   8
ATOM      8  C   UNL     1      -0.884  16.243  -4.832  1.00  0.00    -0.000 C 
BRANCH   8   9
ATOM      9  C   UNL     1      -0.321  17.661  -4.653  1.00  0.00    -0.000 C 
BRANCH   9  10
ATOM     10  C   UNL     1      -0.670  18.544  -5.857  1.00  0.00    -0.003 C 
ATOM     11  C   UNL     1      -2.155  18.896  -5.871  1.00  0.00     0.004 C 
ENDBRANCH   9  10
ENDBRANCH   8   9
ENDBRANCH   7   8
ENDBRANCH   1   7
TORSDOF 7
ENDMDL
MODEL 8
REMARK VINA RESULT:    -3.337      3.359      5.368
REMARK INTER + INTRA:          -5.116
REMARK INTER:                  -4.731
REMARK INTRA:                  -0.385
REMARK UNBOUND:                -0.413
REMARK SMILES CCCCCCCCC(=O)[O-]
REMARK SMILES IDX 6 1 7 2 8 3 9 4 10 5 11 6 5 7 4 8 3 9 2 10 1 11
REMARK H PARENT
REMARK Flexibility Score: inf
ROOT
ATOM      1  C   UNL     1      -2.095  16.950  -5.530  1.00  0.00     0.000 C 
ENDROOT
BRANCH   1   2
ATOM      2  C   UNL     1      -0.973  17.955  -5.832  1.00  0.00     0.006 C 
BRANCH   2   3
ATOM      3  C   UNL     1      -0.071  18.220  -4.619  1.00  0.00     0.053 C 
BRANCH   3   4
ATOM      4  C   UNL     1       1.366  18.019  -4.983  1.00  0.00     0.041 C 
ATOM      5  O   UNL     1       1.898  18.727  -5.880  1.00  0.00    -0.550 OA
ATOM      6  O   UNL     1       2.133  17.085  -4.299  1.00  0.00    -0.550 OA
ENDBRANCH   3   4
ENDBRANCH   2   3
ENDBRANCH   1   2
BRANCH   1   7
ATOM      7  C   UNL     1      -1.782  16.063  -4.312  1.00  0.00     0.000 C 
BRANCH   7   8
ATOM      8  C   UNL     1      -2.511  14.711  -4.363  1.00  0.00    -0.000 C 
BRANCH   8   9
ATOM      9  C   UNL     1      -3.137  14.425  -5.737  1.00  0.00    -0.000 C 
BRANCH   9  10
ATOM     10  C   UNL     1      -3.210  12.917  -6.002  1.00  0.00    -0.003 C 
ATOM     11  C   UNL     1      -2.551  12.126  -4.875  1.00  0.00     0.004 C 
ENDBRANCH   9  10
ENDBRANCH   8   9
ENDBRANCH   7   8
ENDBRANCH   1   7
TORSDOF 7
ENDMDL
MODEL 9
REMARK VINA RESULT:    -3.273      3.034      5.059
REMARK INTER + INTRA:          -5.025
REMARK INTER:                  -4.595
REMARK INTRA:                  -0.430
REMARK UNBOUND:                -0.413
REMARK SMILES CCCCCCCCC(=O)[O-]
REMARK SMILES IDX 6 1 7 2 8 3 9 4 10 5 11 6 5 7 4 8 3 9 2 10 1 11
REMARK H PARENT
REMARK Flexibility Score: inf
ROOT
ATOM      1  C   UNL     1      -0.420  16.341  -3.956  1.00  0.00     0.000 C 
ENDROOT
BRANCH   1   2
ATOM      2  C   UNL     1      -0.163  17.710  -4.607  1.00  0.00     0.006 C 
BRANCH   2   3
ATOM      3  C   UNL     1      -0.793  17.832  -6.000  1.00  0.00     0.053 C 
BRANCH   3   4
ATOM      4  C   UNL     1      -2.261  18.095  -5.888  1.00  0.00     0.041 C 
ATOM      5  O   UNL     1      -2.679  19.257  -5.640  1.00  0.00    -0.550 OA
ATOM      6  O   UNL     1      -3.170  17.069  -6.106  1.00  0.00    -0.550 OA
ENDBRANCH   3   4
ENDBRANCH   2   3
ENDBRANCH   1   2
BRANCH   1   7
ATOM      7  C   UNL     1      -0.116  15.169  -4.906  1.00  0.00     0.000 C 
BRANCH   7   8
ATOM      8  C   UNL     1      -0.881  13.890  -4.528  1.00  0.00    -0.000 C 
BRANCH   8   9
ATOM      9  C   UNL     1      -2.381  13.979  -4.845  1.00  0.00    -0.000 C 
BRANCH   9  10
ATOM     10  C   UNL     1      -2.917  12.632  -5.342  1.00  0.00    -0.003 C 
ATOM     11  C   UNL     1      -2.350  11.476  -4.523  1.00  0.00     0.004 C 
ENDBRANCH   9  10
ENDBRANCH   8   9
ENDBRANCH   7   8
ENDBRANCH   1   7
TORSDOF 7
ENDMDL
