MODEL 1
REMARK VINA RESULT:    72.393      0.000      0.000
REMARK INTER + INTRA:         114.066
REMARK INTER:                 114.714
REMARK INTRA:                  -0.648
REMARK UNBOUND:                -0.648
REMARK SMILES C[C@H]1O[C@@H](O[C@@H]2[C@H](Oc3cc(O)c4c(c3)O[C@@H](c3ccc(O)cc3)CC4=O)O[C@H](CO)[C@H](O)[C@H]2O)[C@@H](O)[C@@H](O)[C@H]1O
REMARK SMILES IDX 6 1 34 2 32 3 29 4 28 5 7 6 5 7 4 8 1 9 2 10 40 11 3 12
REMARK SMILES IDX 38 13 36 14 41 15 39 17 37 19 35 21 8 23 9 24 10 25 15 26
REMARK SMILES IDX 11 27 14 28 13 29 16 30 26 31 17 32 27 33 25 34 12 35 18 37
REMARK SMILES IDX 19 38 24 39 20 40 23 41 21 42 22 43 33 45 30 47 31 48
REMARK H PARENT 41 16 39 18 37 20 35 22 12 36 22 44 33 46 31 49
REMARK Flexibility Score: inf
ROOT
ATOM      1  C   UNL     1       8.948   8.721  16.627  1.00  0.00     0.221 C 
ATOM      2  C   UNL     1       9.838   8.130  15.471  1.00  0.00     0.181 C 
ATOM      3  C   UNL     1       9.450   6.673  15.531  1.00  0.00     0.177 C 
ATOM      4  C   UNL     1       9.996   6.122  16.907  1.00  0.00     0.179 C 
ATOM      5  O   UNL     1       9.583   6.846  18.087  1.00  0.00    -0.332 OA
ATOM      6  C   UNL     1       9.532   8.281  17.987  1.00  0.00     0.339 C 
ENDROOT
BRANCH   1   7
ATOM      7  O   UNL     1       8.442  10.044  16.395  1.00  0.00    -0.337 OA
BRANCH   7   8
ATOM      8  C   UNL     1       7.019  10.011  16.106  1.00  0.00     0.282 C 
ATOM      9  C   UNL     1       6.817   7.050  14.144  1.00  0.00     0.041 C 
ATOM     10  C   UNL     1       5.943   8.091  14.885  1.00  0.00     0.150 C 
ATOM     11  C   UNL     1       5.161   9.062  13.957  1.00  0.00     0.174 C 
ATOM     12  O   UNL     1       6.571   8.638  16.054  1.00  0.00    -0.344 OA
ATOM     13  C   UNL     1       5.046  10.433  14.607  1.00  0.00     0.179 C 
ATOM     14  C   UNL     1       6.457  10.943  14.954  1.00  0.00     0.202 C 
BRANCH  11  15
ATOM     15  O   UNL     1       5.727   9.220  12.655  1.00  0.00    -0.388 OA
ATOM     16  H   UNL     1       5.014   8.971  11.970  1.00  0.00     0.211 HD
ENDBRANCH  11  15
BRANCH  13  17
ATOM     17  O   UNL     1       4.359  11.337  13.837  1.00  0.00    -0.387 OA
ATOM     18  H   UNL     1       4.651  12.251  14.109  1.00  0.00     0.211 HD
ENDBRANCH  13  17
BRANCH  14  19
ATOM     19  O   UNL     1       7.276  10.946  13.795  1.00  0.00    -0.385 OA
ATOM     20  H   UNL     1       8.013  11.652  13.657  1.00  0.00     0.211 HD
ENDBRANCH  14  19
ENDBRANCH   7   8
ENDBRANCH   1   7
BRANCH   2  21
ATOM     21  O   UNL     1       9.579   8.743  14.224  1.00  0.00    -0.387 OA
ATOM     22  H   UNL     1      10.258   9.465  14.058  1.00  0.00     0.211 HD
ENDBRANCH   2  21
BRANCH   6  23
ATOM     23  O   UNL     1      10.779   8.913  18.296  1.00  0.00    -0.462 OA
BRANCH  23  24
ATOM     24  C   UNL     1      11.423  10.014  17.646  1.00  0.00     0.130 A 
ATOM     25  C   UNL     1      12.736   9.832  17.127  1.00  0.00     0.093 A 
ATOM     26  C   UNL     1      10.896  11.337  17.612  1.00  0.00     0.094 A 
ATOM     27  C   UNL     1      13.544  10.981  16.857  1.00  0.00     0.133 A 
ATOM     28  C   UNL     1      11.783  12.466  17.573  1.00  0.00     0.138 A 
ATOM     29  C   UNL     1      13.064  12.285  17.147  1.00  0.00     0.102 A 
ATOM     30  O   UNL     1      11.355  13.695  18.069  1.00  0.00    -0.484 OA
ATOM     31  C   UNL     1      13.927  13.464  17.314  1.00  0.00     0.174 C 
ATOM     32  C   UNL     1      12.204  14.696  18.671  1.00  0.00     0.211 C 
ATOM     33  O   UNL     1      14.782  13.793  16.454  1.00  0.00    -0.294 OA
ATOM     34  C   UNL     1      13.687  14.272  18.575  1.00  0.00     0.131 C 
BRANCH  27  35
ATOM     35  O   UNL     1      14.871  10.689  16.554  1.00  0.00    -0.507 OA
ATOM     36  H   UNL     1      15.616  11.378  16.597  1.00  0.00     0.293 HD
ENDBRANCH  27  35
BRANCH  32  37
ATOM     37  C   UNL     1      11.728  14.919  20.111  1.00  0.00    -0.007 A 
ATOM     38  C   UNL     1      11.198  13.855  20.850  1.00  0.00     0.011 A 
ATOM     39  C   UNL     1      11.807  16.194  20.729  1.00  0.00     0.011 A 
ATOM     40  C   UNL     1      11.021  13.954  22.258  1.00  0.00     0.046 A 
ATOM     41  C   UNL     1      11.591  16.337  22.099  1.00  0.00     0.046 A 
ATOM     42  C   UNL     1      11.264  15.199  22.875  1.00  0.00     0.115 A 
BRANCH  42  43
ATOM     43  O   UNL     1      11.228  15.296  24.258  1.00  0.00    -0.508 OA
ATOM     44  H   UNL     1      11.969  14.889  24.858  1.00  0.00     0.293 HD
ENDBRANCH  42  43
ENDBRANCH  32  37
ENDBRANCH  23  24
ENDBRANCH   6  23
BRANCH   3  45
ATOM     45  O   UNL     1       9.911   5.991  14.407  1.00  0.00    -0.387 OA
ATOM     46  H   UNL     1      10.375   6.634  13.814  1.00  0.00     0.211 HD
ENDBRANCH   3  45
BRANCH   4  47
ATOM     47  C   UNL     1      11.501   5.876  16.880  1.00  0.00     0.191 C 
BRANCH  47  48
ATOM     48  O   UNL     1      12.173   6.592  17.883  1.00  0.00    -0.394 OA
ATOM     49  H   UNL     1      13.121   6.640  17.625  1.00  0.00     0.210 HD
ENDBRANCH  47  48
ENDBRANCH   4  47
TORSDOF 14
ENDMDL
MODEL 2
REMARK VINA RESULT:    75.308      2.744      8.861
REMARK INTER + INTRA:         118.685
REMARK INTER:                 118.596
REMARK INTRA:                   0.089
REMARK UNBOUND:                -0.648
REMARK SMILES C[C@H]1O[C@@H](O[C@@H]2[C@H](Oc3cc(O)c4c(c3)O[C@@H](c3ccc(O)cc3)CC4=O)O[C@H](CO)[C@H](O)[C@H]2O)[C@@H](O)[C@@H](O)[C@H]1O
REMARK SMILES IDX 6 1 34 2 32 3 29 4 28 5 7 6 5 7 4 8 1 9 2 10 40 11 3 12
REMARK SMILES IDX 38 13 36 14 41 15 39 17 37 19 35 21 8 23 9 24 10 25 15 26
REMARK SMILES IDX 11 27 14 28 13 29 16 30 26 31 17 32 27 33 25 34 12 35 18 37
REMARK SMILES IDX 19 38 24 39 20 40 23 41 21 42 22 43 33 45 30 47 31 48
REMARK H PARENT 41 16 39 18 37 20 35 22 12 36 22 44 33 46 31 49
REMARK Flexibility Score: inf
ROOT
ATOM      1  C   UNL     1      10.905   9.207  16.741  1.00  0.00     0.221 C 
ATOM      2  C   UNL     1      10.977   8.127  17.884  1.00  0.00     0.181 C 
ATOM      3  C   UNL     1      11.380   6.905  17.095  1.00  0.00     0.177 C 
ATOM      4  C   UNL     1      10.157   6.555  16.159  1.00  0.00     0.179 C 
ATOM      5  O   UNL     1       9.685   7.623  15.309  1.00  0.00    -0.332 OA
ATOM      6  C   UNL     1       9.652   8.945  15.879  1.00  0.00     0.339 C 
ENDROOT
BRANCH   1   7
ATOM      7  O   UNL     1      11.320  10.528  17.119  1.00  0.00    -0.337 OA
BRANCH   7   8
ATOM      8  C   UNL     1      12.648  10.505  17.708  1.00  0.00     0.282 C 
ATOM      9  C   UNL     1      13.806  13.753  16.835  1.00  0.00     0.041 C 
ATOM     10  C   UNL     1      14.142  12.531  17.723  1.00  0.00     0.150 C 
ATOM     11  C   UNL     1      15.358  11.692  17.241  1.00  0.00     0.174 C 
ATOM     12  O   UNL     1      12.981  11.826  18.190  1.00  0.00    -0.344 OA
ATOM     13  C   UNL     1      15.140  10.220  17.559  1.00  0.00     0.179 C 
ATOM     14  C   UNL     1      13.811   9.762  16.930  1.00  0.00     0.202 C 
BRANCH  11  15
ATOM     15  O   UNL     1      15.651  11.820  15.849  1.00  0.00    -0.388 OA
ATOM     16  H   UNL     1      16.548  12.297  15.759  1.00  0.00     0.211 HD
ENDBRANCH  11  15
BRANCH  13  17
ATOM     17  O   UNL     1      16.185   9.424  17.162  1.00  0.00    -0.387 OA
ATOM     18  H   UNL     1      15.837   8.495  17.057  1.00  0.00     0.211 HD
ENDBRANCH  13  17
BRANCH  14  19
ATOM     19  O   UNL     1      13.807  10.035  15.537  1.00  0.00    -0.385 OA
ATOM     20  H   UNL     1      13.901  10.993  15.175  1.00  0.00     0.211 HD
ENDBRANCH  14  19
ENDBRANCH   7   8
ENDBRANCH   1   7
BRANCH   2  21
ATOM     21  O   UNL     1      11.892   8.481  18.903  1.00  0.00    -0.387 OA
ATOM     22  H   UNL     1      11.388   8.837  19.696  1.00  0.00     0.211 HD
ENDBRANCH   2  21
BRANCH   6  23
ATOM     23  O   UNL     1       8.427   9.234  16.562  1.00  0.00    -0.462 OA
BRANCH  23  24
ATOM     24  C   UNL     1       7.146   9.575  16.022  1.00  0.00     0.130 A 
ATOM     25  C   UNL     1       6.125   8.584  16.000  1.00  0.00     0.093 A 
ATOM     26  C   UNL     1       6.862  10.806  15.362  1.00  0.00     0.094 A 
ATOM     27  C   UNL     1       5.011   8.752  15.119  1.00  0.00     0.133 A 
ATOM     28  C   UNL     1       5.882  10.853  14.315  1.00  0.00     0.138 A 
ATOM     29  C   UNL     1       4.944   9.867  14.242  1.00  0.00     0.102 A 
ATOM     30  O   UNL     1       5.967  11.839  13.335  1.00  0.00    -0.484 OA
ATOM     31  C   UNL     1       4.104   9.920  13.037  1.00  0.00     0.174 C 
ATOM     32  C   UNL     1       5.526  11.700  11.967  1.00  0.00     0.211 C 
ATOM     33  O   UNL     1       2.875   9.664  13.067  1.00  0.00    -0.294 OA
ATOM     34  C   UNL     1       4.818  10.340  11.766  1.00  0.00     0.131 C 
BRANCH  27  35
ATOM     35  O   UNL     1       4.183   7.636  15.023  1.00  0.00    -0.507 OA
ATOM     36  H   UNL     1       3.864   7.108  15.830  1.00  0.00     0.293 HD
ENDBRANCH  27  35
BRANCH  32  37
ATOM     37  C   UNL     1       6.741  11.893  11.053  1.00  0.00    -0.007 A 
ATOM     38  C   UNL     1       8.036  11.805  11.576  1.00  0.00     0.011 A 
ATOM     39  C   UNL     1       6.591  12.166   9.668  1.00  0.00     0.011 A 
ATOM     40  C   UNL     1       9.168  11.691  10.721  1.00  0.00     0.046 A 
ATOM     41  C   UNL     1       7.687  12.111   8.809  1.00  0.00     0.046 A 
ATOM     42  C   UNL     1       8.967  11.805   9.330  1.00  0.00     0.115 A 
BRANCH  42  43
ATOM     43  O   UNL     1      10.025  11.568   8.464  1.00  0.00    -0.508 OA
ATOM     44  H   UNL     1       9.882  11.176   7.515  1.00  0.00     0.293 HD
ENDBRANCH  42  43
ENDBRANCH  32  37
ENDBRANCH  23  24
ENDBRANCH   6  23
BRANCH   3  45
ATOM     45  O   UNL     1      11.777   5.876  17.945  1.00  0.00    -0.387 OA
ATOM     46  H   UNL     1      12.125   5.129  17.398  1.00  0.00     0.211 HD
ENDBRANCH   3  45
BRANCH   4  47
ATOM     47  C   UNL     1       9.020   5.876  16.917  1.00  0.00     0.191 C 
BRANCH  47  48
ATOM     48  O   UNL     1       8.802   6.458  18.176  1.00  0.00    -0.394 OA
ATOM     49  H   UNL     1       8.200   5.861  18.674  1.00  0.00     0.210 HD
ENDBRANCH  47  48
ENDBRANCH   4  47
TORSDOF 14
ENDMDL
