MODEL 1
REMARK VINA RESULT:    -4.795      0.000      0.000
REMARK INTER + INTRA:         -10.482
REMARK INTER:                  -8.439
REMARK INTRA:                  -2.043
REMARK UNBOUND:                -2.043
REMARK SMILES CCCCCCC=CCCCCCCCC(=O)[O-]
REMARK SMILES IDX 10 1 11 2 12 3 13 4 14 5 15 6 16 7 17 8 18 9 9 10 8 11 7 12
REMARK SMILES IDX 6 13 5 14 4 15 3 16 2 17 1 18
REMARK H PARENT
REMARK Flexibility Score: inf
ROOT
ATOM      1  C   UNL     1      20.300  42.075   1.884  1.00  0.00     0.004 C 
ENDROOT
BRANCH   1   2
ATOM      2  C   UNL     1      19.766  40.728   2.402  1.00  0.00     0.000 C 
BRANCH   2   3
ATOM      3  C   UNL     1      20.406  40.305   3.735  1.00  0.00     0.000 C 
BRANCH   3   4
ATOM      4  C   UNL     1      21.467  41.305   4.223  1.00  0.00     0.000 C 
BRANCH   4   5
ATOM      5  C   UNL     1      22.818  40.632   4.524  1.00  0.00     0.006 C 
BRANCH   5   6
ATOM      6  C   UNL     1      22.747  39.105   4.389  1.00  0.00     0.053 C 
BRANCH   6   7
ATOM      7  C   UNL     1      24.030  38.449   4.795  1.00  0.00     0.041 C 
ATOM      8  O   UNL     1      24.215  37.224   4.570  1.00  0.00    -0.550 OA
ATOM      9  O   UNL     1      25.036  39.197   5.394  1.00  0.00    -0.550 OA
ENDBRANCH   6   7
ENDBRANCH   5   6
ENDBRANCH   4   5
ENDBRANCH   3   4
ENDBRANCH   2   3
ENDBRANCH   1   2
BRANCH   1  10
ATOM     10  C   UNL     1      21.090  41.965   0.564  1.00  0.00     0.027 C 
BRANCH  10  11
ATOM     11  C   UNL     1      22.583  41.970   0.787  1.00  0.00    -0.031 C 
ATOM     12  C   UNL     1      23.338  40.864   0.925  1.00  0.00    -0.031 C 
BRANCH  12  13
ATOM     13  C   UNL     1      22.829  39.452   0.784  1.00  0.00     0.027 C 
BRANCH  13  14
ATOM     14  C   UNL     1      23.950  38.405   0.910  1.00  0.00     0.004 C 
BRANCH  14  15
ATOM     15  C   UNL     1      23.432  36.968   1.127  1.00  0.00     0.000 C 
BRANCH  15  16
ATOM     16  C   UNL     1      24.563  35.928   1.130  1.00  0.00    -0.000 C 
BRANCH  16  17
ATOM     17  C   UNL     1      24.489  35.033  -0.112  1.00  0.00    -0.003 C 
ATOM     18  C   UNL     1      23.090  35.047  -0.720  1.00  0.00     0.004 C 
ENDBRANCH  16  17
ENDBRANCH  15  16
ENDBRANCH  14  15
ENDBRANCH  13  14
ENDBRANCH  12  13
ENDBRANCH  10  11
ENDBRANCH   1  10
TORSDOF 13
ENDMDL
MODEL 2
REMARK VINA RESULT:    -4.718      2.449      3.152
REMARK INTER + INTRA:         -10.347
REMARK INTER:                  -8.870
REMARK INTRA:                  -1.477
REMARK UNBOUND:                -2.043
REMARK SMILES CCCCCCC=CCCCCCCCC(=O)[O-]
REMARK SMILES IDX 10 1 11 2 12 3 13 4 14 5 15 6 16 7 17 8 18 9 9 10 8 11 7 12
REMARK SMILES IDX 6 13 5 14 4 15 3 16 2 17 1 18
REMARK H PARENT
REMARK Flexibility Score: inf
ROOT
ATOM      1  C   UNL     1      21.379  42.357   0.627  1.00  0.00     0.004 C 
ENDROOT
BRANCH   1   2
ATOM      2  C   UNL     1      20.443  42.594   1.824  1.00  0.00     0.000 C 
BRANCH   2   3
ATOM      3  C   UNL     1      18.985  42.204   1.528  1.00  0.00     0.000 C 
BRANCH   3   4
ATOM      4  C   UNL     1      18.521  40.991   2.351  1.00  0.00     0.000 C 
BRANCH   4   5
ATOM      5  C   UNL     1      19.166  40.945   3.748  1.00  0.00     0.006 C 
BRANCH   5   6
ATOM      6  C   UNL     1      19.812  39.584   4.042  1.00  0.00     0.053 C 
BRANCH   6   7
ATOM      7  C   UNL     1      18.997  38.775   5.003  1.00  0.00     0.041 C 
ATOM      8  O   UNL     1      18.238  39.347   5.828  1.00  0.00    -0.550 OA
ATOM      9  O   UNL     1      19.050  37.387   4.966  1.00  0.00    -0.550 OA
ENDBRANCH   6   7
ENDBRANCH   5   6
ENDBRANCH   4   5
ENDBRANCH   3   4
ENDBRANCH   2   3
ENDBRANCH   1   2
BRANCH   1  10
ATOM     10  C   UNL     1      22.436  41.260   0.869  1.00  0.00     0.027 C 
BRANCH  10  11
ATOM     11  C   UNL     1      21.838  39.875   0.855  1.00  0.00    -0.031 C 
ATOM     12  C   UNL     1      22.554  38.734   0.822  1.00  0.00    -0.031 C 
BRANCH  12  13
ATOM     13  C   UNL     1      24.058  38.661   0.891  1.00  0.00     0.027 C 
BRANCH  13  14
ATOM     14  C   UNL     1      24.553  37.666   1.956  1.00  0.00     0.004 C 
BRANCH  14  15
ATOM     15  C   UNL     1      24.151  36.204   1.673  1.00  0.00     0.000 C 
BRANCH  15  16
ATOM     16  C   UNL     1      24.966  35.580   0.530  1.00  0.00    -0.000 C 
BRANCH  16  17
ATOM     17  C   UNL     1      24.067  34.754  -0.397  1.00  0.00    -0.003 C 
ATOM     18  C   UNL     1      22.689  35.393  -0.541  1.00  0.00     0.004 C 
ENDBRANCH  16  17
ENDBRANCH  15  16
ENDBRANCH  14  15
ENDBRANCH  13  14
ENDBRANCH  12  13
ENDBRANCH  10  11
ENDBRANCH   1  10
TORSDOF 13
ENDMDL
MODEL 3
REMARK VINA RESULT:    -4.682      4.104      6.295
REMARK INTER + INTRA:         -10.284
REMARK INTER:                  -9.039
REMARK INTRA:                  -1.245
REMARK UNBOUND:                -2.043
REMARK SMILES CCCCCCC=CCCCCCCCC(=O)[O-]
REMARK SMILES IDX 10 1 11 2 12 3 13 4 14 5 15 6 16 7 17 8 18 9 9 10 8 11 7 12
REMARK SMILES IDX 6 13 5 14 4 15 3 16 2 17 1 18
REMARK H PARENT
REMARK Flexibility Score: inf
ROOT
ATOM      1  C   UNL     1      26.012  38.570   7.022  1.00  0.00     0.004 C 
ENDROOT
BRANCH   1   2
ATOM      2  C   UNL     1      26.556  37.208   7.486  1.00  0.00     0.000 C 
BRANCH   2   3
ATOM      3  C   UNL     1      26.277  36.930   8.972  1.00  0.00     0.000 C 
BRANCH   3   4
ATOM      4  C   UNL     1      25.672  38.143   9.696  1.00  0.00     0.000 C 
BRANCH   4   5
ATOM      5  C   UNL     1      26.297  38.375  11.083  1.00  0.00     0.006 C 
BRANCH   5   6
ATOM      6  C   UNL     1      27.785  38.740  10.993  1.00  0.00     0.053 C 
BRANCH   6   7
ATOM      7  C   UNL     1      28.000  40.034  10.270  1.00  0.00     0.041 C 
ATOM      8  O   UNL     1      27.664  41.122  10.805  1.00  0.00    -0.550 OA
ATOM      9  O   UNL     1      28.602  40.040   9.018  1.00  0.00    -0.550 OA
ENDBRANCH   6   7
ENDBRANCH   5   6
ENDBRANCH   4   5
ENDBRANCH   3   4
ENDBRANCH   2   3
ENDBRANCH   1   2
BRANCH   1  10
ATOM     10  C   UNL     1      24.887  38.467   5.971  1.00  0.00     0.027 C 
BRANCH  10  11
ATOM     11  C   UNL     1      24.909  37.150   5.235  1.00  0.00    -0.031 C 
ATOM     12  C   UNL     1      23.987  36.763   4.333  1.00  0.00    -0.031 C 
BRANCH  12  13
ATOM     13  C   UNL     1      22.845  37.621   3.849  1.00  0.00     0.027 C 
BRANCH  13  14
ATOM     14  C   UNL     1      23.276  38.619   2.760  1.00  0.00     0.004 C 
BRANCH  14  15
ATOM     15  C   UNL     1      24.253  38.022   1.725  1.00  0.00     0.000 C 
BRANCH  15  16
ATOM     16  C   UNL     1      23.534  37.219   0.631  1.00  0.00    -0.000 C 
BRANCH  16  17
ATOM     17  C   UNL     1      23.960  35.746   0.662  1.00  0.00    -0.003 C 
ATOM     18  C   UNL     1      23.547  35.025  -0.617  1.00  0.00     0.004 C 
ENDBRANCH  16  17
ENDBRANCH  15  16
ENDBRANCH  14  15
ENDBRANCH  13  14
ENDBRANCH  12  13
ENDBRANCH  10  11
ENDBRANCH   1  10
TORSDOF 13
ENDMDL
MODEL 4
REMARK VINA RESULT:    -4.626      1.526      2.268
REMARK INTER + INTRA:         -10.185
REMARK INTER:                  -8.447
REMARK INTRA:                  -1.737
REMARK UNBOUND:                -2.043
REMARK SMILES CCCCCCC=CCCCCCCCC(=O)[O-]
REMARK SMILES IDX 10 1 11 2 12 3 13 4 14 5 15 6 16 7 17 8 18 9 9 10 8 11 7 12
REMARK SMILES IDX 6 13 5 14 4 15 3 16 2 17 1 18
REMARK H PARENT
REMARK Flexibility Score: inf
ROOT
ATOM      1  C   UNL     1      21.714  42.739   1.011  1.00  0.00     0.004 C 
ENDROOT
BRANCH   1   2
ATOM      2  C   UNL     1      20.282  42.281   1.339  1.00  0.00     0.000 C 
BRANCH   2   3
ATOM      3  C   UNL     1      19.696  42.992   2.570  1.00  0.00     0.000 C 
BRANCH   3   4
ATOM      4  C   UNL     1      19.258  42.007   3.666  1.00  0.00     0.000 C 
BRANCH   4   5
ATOM      5  C   UNL     1      19.461  40.538   3.254  1.00  0.00     0.006 C 
BRANCH   5   6
ATOM      6  C   UNL     1      19.995  39.681   4.410  1.00  0.00     0.053 C 
BRANCH   6   7
ATOM      7  C   UNL     1      21.385  39.192   4.146  1.00  0.00     0.041 C 
ATOM      8  O   UNL     1      22.354  39.996   4.160  1.00  0.00    -0.550 OA
ATOM      9  O   UNL     1      21.617  37.842   3.915  1.00  0.00    -0.550 OA
ENDBRANCH   6   7
ENDBRANCH   5   6
ENDBRANCH   4   5
ENDBRANCH   3   4
ENDBRANCH   2   3
ENDBRANCH   1   2
BRANCH   1  10
ATOM     10  C   UNL     1      22.713  41.579   0.826  1.00  0.00     0.027 C 
BRANCH  10  11
ATOM     11  C   UNL     1      22.022  40.244   0.689  1.00  0.00    -0.031 C 
ATOM     12  C   UNL     1      22.657  39.057   0.640  1.00  0.00    -0.031 C 
BRANCH  12  13
ATOM     13  C   UNL     1      24.143  38.869   0.808  1.00  0.00     0.027 C 
BRANCH  13  14
ATOM     14  C   UNL     1      24.489  37.864   1.921  1.00  0.00     0.004 C 
BRANCH  14  15
ATOM     15  C   UNL     1      23.958  36.440   1.656  1.00  0.00     0.000 C 
BRANCH  15  16
ATOM     16  C   UNL     1      24.987  35.551   0.941  1.00  0.00    -0.000 C 
BRANCH  16  17
ATOM     17  C   UNL     1      24.506  35.177  -0.466  1.00  0.00    -0.003 C 
ATOM     18  C   UNL     1      22.982  35.179  -0.546  1.00  0.00     0.004 C 
ENDBRANCH  16  17
ENDBRANCH  15  16
ENDBRANCH  14  15
ENDBRANCH  13  14
ENDBRANCH  12  13
ENDBRANCH  10  11
ENDBRANCH   1  10
TORSDOF 13
ENDMDL
MODEL 5
REMARK VINA RESULT:    -4.621      3.140      4.038
REMARK INTER + INTRA:         -10.177
REMARK INTER:                  -8.504
REMARK INTRA:                  -1.673
REMARK UNBOUND:                -2.043
REMARK SMILES CCCCCCC=CCCCCCCCC(=O)[O-]
REMARK SMILES IDX 10 1 11 2 12 3 13 4 14 5 15 6 16 7 17 8 18 9 9 10 8 11 7 12
REMARK SMILES IDX 6 13 5 14 4 15 3 16 2 17 1 18
REMARK H PARENT
REMARK Flexibility Score: inf
ROOT
ATOM      1  C   UNL     1      21.471  43.462   1.616  1.00  0.00     0.004 C 
ENDROOT
BRANCH   1   2
ATOM      2  C   UNL     1      21.888  43.282   3.086  1.00  0.00     0.000 C 
BRANCH   2   3
ATOM      3  C   UNL     1      20.705  42.926   4.002  1.00  0.00     0.000 C 
BRANCH   3   4
ATOM      4  C   UNL     1      20.389  41.422   3.998  1.00  0.00     0.000 C 
BRANCH   4   5
ATOM      5  C   UNL     1      18.882  41.136   3.871  1.00  0.00     0.006 C 
BRANCH   5   6
ATOM      6  C   UNL     1      18.165  42.184   3.010  1.00  0.00     0.053 C 
BRANCH   6   7
ATOM      7  C   UNL     1      17.942  41.699   1.611  1.00  0.00     0.041 C 
ATOM      8  O   UNL     1      18.062  42.490   0.639  1.00  0.00    -0.550 OA
ATOM      9  O   UNL     1      17.634  40.365   1.376  1.00  0.00    -0.550 OA
ENDBRANCH   6   7
ENDBRANCH   5   6
ENDBRANCH   4   5
ENDBRANCH   3   4
ENDBRANCH   2   3
ENDBRANCH   1   2
BRANCH   1  10
ATOM     10  C   UNL     1      22.212  42.528   0.638  1.00  0.00     0.027 C 
BRANCH  10  11
ATOM     11  C   UNL     1      21.445  41.256   0.368  1.00  0.00    -0.031 C 
ATOM     12  C   UNL     1      21.852  40.026   0.736  1.00  0.00    -0.031 C 
BRANCH  12  13
ATOM     13  C   UNL     1      23.084  39.737   1.555  1.00  0.00     0.027 C 
BRANCH  13  14
ATOM     14  C   UNL     1      24.095  38.849   0.808  1.00  0.00     0.004 C 
BRANCH  14  15
ATOM     15  C   UNL     1      24.447  37.547   1.556  1.00  0.00     0.000 C 
BRANCH  15  16
ATOM     16  C   UNL     1      23.500  36.391   1.203  1.00  0.00    -0.000 C 
BRANCH  16  17
ATOM     17  C   UNL     1      24.134  35.460   0.162  1.00  0.00    -0.003 C 
ATOM     18  C   UNL     1      23.105  35.001  -0.867  1.00  0.00     0.004 C 
ENDBRANCH  16  17
ENDBRANCH  15  16
ENDBRANCH  14  15
ENDBRANCH  13  14
ENDBRANCH  12  13
ENDBRANCH  10  11
ENDBRANCH   1  10
TORSDOF 13
ENDMDL
MODEL 6
REMARK VINA RESULT:    -4.582      1.933      2.838
REMARK INTER + INTRA:         -10.107
REMARK INTER:                  -8.657
REMARK INTRA:                  -1.450
REMARK UNBOUND:                -2.043
REMARK SMILES CCCCCCC=CCCCCCCCC(=O)[O-]
REMARK SMILES IDX 10 1 11 2 12 3 13 4 14 5 15 6 16 7 17 8 18 9 9 10 8 11 7 12
REMARK SMILES IDX 6 13 5 14 4 15 3 16 2 17 1 18
REMARK H PARENT
REMARK Flexibility Score: inf
ROOT
ATOM      1  C   UNL     1      21.944  41.153   3.652  1.00  0.00     0.004 C 
ENDROOT
BRANCH   1   2
ATOM      2  C   UNL     1      22.172  40.201   4.839  1.00  0.00     0.000 C 
BRANCH   2   3
ATOM      3  C   UNL     1      23.009  38.967   4.462  1.00  0.00     0.000 C 
BRANCH   3   4
ATOM      4  C   UNL     1      24.449  39.049   4.991  1.00  0.00     0.000 C 
BRANCH   4   5
ATOM      5  C   UNL     1      24.862  37.789   5.774  1.00  0.00     0.006 C 
BRANCH   5   6
ATOM      6  C   UNL     1      25.859  38.107   6.897  1.00  0.00     0.053 C 
BRANCH   6   7
ATOM      7  C   UNL     1      26.385  36.863   7.544  1.00  0.00     0.041 C 
ATOM      8  O   UNL     1      26.499  36.799   8.796  1.00  0.00    -0.550 OA
ATOM      9  O   UNL     1      26.719  35.761   6.767  1.00  0.00    -0.550 OA
ENDBRANCH   6   7
ENDBRANCH   5   6
ENDBRANCH   4   5
ENDBRANCH   3   4
ENDBRANCH   2   3
ENDBRANCH   1   2
BRANCH   1  10
ATOM     10  C   UNL     1      20.857  40.675   2.668  1.00  0.00     0.027 C 
BRANCH  10  11
ATOM     11  C   UNL     1      21.146  41.093   1.247  1.00  0.00    -0.031 C 
ATOM     12  C   UNL     1      21.880  40.378   0.374  1.00  0.00    -0.031 C 
BRANCH  12  13
ATOM     13  C   UNL     1      22.447  39.008   0.648  1.00  0.00     0.027 C 
BRANCH  13  14
ATOM     14  C   UNL     1      23.940  39.050   1.017  1.00  0.00     0.004 C 
BRANCH  14  15
ATOM     15  C   UNL     1      24.501  37.690   1.483  1.00  0.00     0.000 C 
BRANCH  15  16
ATOM     16  C   UNL     1      23.524  36.532   1.230  1.00  0.00    -0.000 C 
BRANCH  16  17
ATOM     17  C   UNL     1      24.129  35.505   0.265  1.00  0.00    -0.003 C 
ATOM     18  C   UNL     1      23.106  35.056  -0.774  1.00  0.00     0.004 C 
ENDBRANCH  16  17
ENDBRANCH  15  16
ENDBRANCH  14  15
ENDBRANCH  13  14
ENDBRANCH  12  13
ENDBRANCH  10  11
ENDBRANCH   1  10
TORSDOF 13
ENDMDL
MODEL 7
REMARK VINA RESULT:    -4.540      2.391      5.431
REMARK INTER + INTRA:         -10.033
REMARK INTER:                  -8.104
REMARK INTRA:                  -1.929
REMARK UNBOUND:                -2.043
REMARK SMILES CCCCCCC=CCCCCCCCC(=O)[O-]
REMARK SMILES IDX 10 1 11 2 12 3 13 4 14 5 15 6 16 7 17 8 18 9 9 10 8 11 7 12
REMARK SMILES IDX 6 13 5 14 4 15 3 16 2 17 1 18
REMARK H PARENT
REMARK Flexibility Score: inf
ROOT
ATOM      1  C   UNL     1      21.896  40.102   0.613  1.00  0.00     0.004 C 
ENDROOT
BRANCH   1   2
ATOM      2  C   UNL     1      23.268  40.122   1.307  1.00  0.00     0.000 C 
BRANCH   2   3
ATOM      3  C   UNL     1      24.129  38.895   0.964  1.00  0.00     0.000 C 
BRANCH   3   4
ATOM      4  C   UNL     1      24.487  38.061   2.204  1.00  0.00     0.000 C 
BRANCH   4   5
ATOM      5  C   UNL     1      24.309  36.550   1.971  1.00  0.00     0.006 C 
BRANCH   5   6
ATOM      6  C   UNL     1      23.385  36.253   0.782  1.00  0.00     0.053 C 
BRANCH   6   7
ATOM      7  C   UNL     1      23.979  35.238  -0.146  1.00  0.00     0.041 C 
ATOM      8  O   UNL     1      25.137  34.790   0.063  1.00  0.00    -0.550 OA
ATOM      9  O   UNL     1      23.242  34.764  -1.223  1.00  0.00    -0.550 OA
ENDBRANCH   6   7
ENDBRANCH   5   6
ENDBRANCH   4   5
ENDBRANCH   3   4
ENDBRANCH   2   3
ENDBRANCH   1   2
BRANCH   1  10
ATOM     10  C   UNL     1      21.359  41.502   0.252  1.00  0.00     0.027 C 
BRANCH  10  11
ATOM     11  C   UNL     1      21.731  42.541   1.282  1.00  0.00    -0.031 C 
ATOM     12  C   UNL     1      20.850  43.339   1.916  1.00  0.00    -0.031 C 
BRANCH  12  13
ATOM     13  C   UNL     1      19.352  43.254   1.768  1.00  0.00     0.027 C 
BRANCH  13  14
ATOM     14  C   UNL     1      18.694  42.423   2.884  1.00  0.00     0.004 C 
BRANCH  14  15
ATOM     15  C   UNL     1      18.529  40.931   2.530  1.00  0.00     0.000 C 
BRANCH  15  16
ATOM     16  C   UNL     1      19.014  40.002   3.653  1.00  0.00    -0.000 C 
BRANCH  16  17
ATOM     17  C   UNL     1      20.510  40.202   3.923  1.00  0.00    -0.003 C 
ATOM     18  C   UNL     1      21.212  38.867   4.153  1.00  0.00     0.004 C 
ENDBRANCH  16  17
ENDBRANCH  15  16
ENDBRANCH  14  15
ENDBRANCH  13  14
ENDBRANCH  12  13
ENDBRANCH  10  11
ENDBRANCH   1  10
TORSDOF 13
ENDMDL
MODEL 8
REMARK VINA RESULT:    -4.533      2.202      3.258
REMARK INTER + INTRA:         -10.022
REMARK INTER:                  -8.363
REMARK INTRA:                  -1.659
REMARK UNBOUND:                -2.043
REMARK SMILES CCCCCCC=CCCCCCCCC(=O)[O-]
REMARK SMILES IDX 10 1 11 2 12 3 13 4 14 5 15 6 16 7 17 8 18 9 9 10 8 11 7 12
REMARK SMILES IDX 6 13 5 14 4 15 3 16 2 17 1 18
REMARK H PARENT
REMARK Flexibility Score: inf
ROOT
ATOM      1  C   UNL     1      21.852  40.705   0.622  1.00  0.00     0.004 C 
ENDROOT
BRANCH   1   2
ATOM      2  C   UNL     1      21.884  42.092   1.286  1.00  0.00     0.000 C 
BRANCH   2   3
ATOM      3  C   UNL     1      20.553  42.462   1.961  1.00  0.00     0.000 C 
BRANCH   3   4
ATOM      4  C   UNL     1      19.541  41.305   1.941  1.00  0.00     0.000 C 
BRANCH   4   5
ATOM      5  C   UNL     1      18.958  41.008   3.334  1.00  0.00     0.006 C 
BRANCH   5   6
ATOM      6  C   UNL     1      19.632  39.799   3.998  1.00  0.00     0.053 C 
BRANCH   6   7
ATOM      7  C   UNL     1      19.546  39.862   5.491  1.00  0.00     0.041 C 
ATOM      8  O   UNL     1      18.499  39.491   6.083  1.00  0.00    -0.550 OA
ATOM      9  O   UNL     1      20.636  40.301   6.233  1.00  0.00    -0.550 OA
ENDBRANCH   6   7
ENDBRANCH   5   6
ENDBRANCH   4   5
ENDBRANCH   3   4
ENDBRANCH   2   3
ENDBRANCH   1   2
BRANCH   1  10
ATOM     10  C   UNL     1      22.949  39.746   1.127  1.00  0.00     0.027 C 
BRANCH  10  11
ATOM     11  C   UNL     1      23.268  39.957   2.587  1.00  0.00    -0.031 C 
ATOM     12  C   UNL     1      23.166  39.008   3.536  1.00  0.00    -0.031 C 
BRANCH  12  13
ATOM     13  C   UNL     1      22.812  37.566   3.276  1.00  0.00     0.027 C 
BRANCH  13  14
ATOM     14  C   UNL     1      24.020  36.624   3.420  1.00  0.00     0.004 C 
BRANCH  14  15
ATOM     15  C   UNL     1      24.734  36.325   2.086  1.00  0.00     0.000 C 
BRANCH  15  16
ATOM     16  C   UNL     1      23.762  36.262   0.898  1.00  0.00    -0.000 C 
BRANCH  16  17
ATOM     17  C   UNL     1      24.178  35.169  -0.094  1.00  0.00    -0.003 C 
ATOM     18  C   UNL     1      23.015  34.774  -0.999  1.00  0.00     0.004 C 
ENDBRANCH  16  17
ENDBRANCH  15  16
ENDBRANCH  14  15
ENDBRANCH  13  14
ENDBRANCH  12  13
ENDBRANCH  10  11
ENDBRANCH   1  10
TORSDOF 13
ENDMDL
MODEL 9
REMARK VINA RESULT:    -4.474      2.953      3.341
REMARK INTER + INTRA:          -9.917
REMARK INTER:                  -9.035
REMARK INTRA:                  -0.882
REMARK UNBOUND:                -2.043
REMARK SMILES CCCCCCC=CCCCCCCCC(=O)[O-]
REMARK SMILES IDX 10 1 11 2 12 3 13 4 14 5 15 6 16 7 17 8 18 9 9 10 8 11 7 12
REMARK SMILES IDX 6 13 5 14 4 15 3 16 2 17 1 18
REMARK H PARENT
REMARK Flexibility Score: inf
ROOT
ATOM      1  C   UNL     1      20.053  41.412   2.496  1.00  0.00     0.004 C 
ENDROOT
BRANCH   1   2
ATOM      2  C   UNL     1      18.951  40.371   2.759  1.00  0.00     0.000 C 
BRANCH   2   3
ATOM      3  C   UNL     1      18.877  39.940   4.233  1.00  0.00     0.000 C 
BRANCH   3   4
ATOM      4  C   UNL     1      19.753  38.713   4.533  1.00  0.00     0.000 C 
BRANCH   4   5
ATOM      5  C   UNL     1      18.970  37.585   5.230  1.00  0.00     0.006 C 
BRANCH   5   6
ATOM      6  C   UNL     1      19.602  36.208   4.987  1.00  0.00     0.053 C 
BRANCH   6   7
ATOM      7  C   UNL     1      18.888  35.127   5.738  1.00  0.00     0.041 C 
ATOM      8  O   UNL     1      17.974  34.465   5.180  1.00  0.00    -0.550 OA
ATOM      9  O   UNL     1      19.253  34.828   7.045  1.00  0.00    -0.550 OA
ENDBRANCH   6   7
ENDBRANCH   5   6
ENDBRANCH   4   5
ENDBRANCH   3   4
ENDBRANCH   2   3
ENDBRANCH   1   2
BRANCH   1  10
ATOM     10  C   UNL     1      20.569  41.421   1.043  1.00  0.00     0.027 C 
BRANCH  10  11
ATOM     11  C   UNL     1      22.068  41.580   0.968  1.00  0.00    -0.031 C 
ATOM     12  C   UNL     1      22.946  40.559   0.984  1.00  0.00    -0.031 C 
BRANCH  12  13
ATOM     13  C   UNL     1      22.568  39.099   0.985  1.00  0.00     0.027 C 
BRANCH  13  14
ATOM     14  C   UNL     1      23.630  38.214   1.661  1.00  0.00     0.004 C 
BRANCH  14  15
ATOM     15  C   UNL     1      23.322  36.705   1.578  1.00  0.00     0.000 C 
BRANCH  15  16
ATOM     16  C   UNL     1      24.546  35.876   1.161  1.00  0.00    -0.000 C 
BRANCH  16  17
ATOM     17  C   UNL     1      24.429  35.420  -0.298  1.00  0.00    -0.003 C 
ATOM     18  C   UNL     1      22.985  35.081  -0.655  1.00  0.00     0.004 C 
ENDBRANCH  16  17
ENDBRANCH  15  16
ENDBRANCH  14  15
ENDBRANCH  13  14
ENDBRANCH  12  13
ENDBRANCH  10  11
ENDBRANCH   1  10
TORSDOF 13
ENDMDL
