MODEL 1
REMARK VINA RESULT:    -2.613      0.000      0.000
REMARK INTER + INTRA:          -3.148
REMARK INTER:                  -3.071
REMARK INTRA:                  -0.077
REMARK UNBOUND:                -0.077
REMARK SMILES CCCCC(=O)[O-]
REMARK SMILES IDX 4 1 5 2 6 3 7 4 3 5 2 6 1 7
REMARK H PARENT
REMARK Flexibility Score: inf
ROOT
ATOM      1  C   UNL     1       2.752 108.512 181.801  1.00  0.00     0.053 C 
ENDROOT
BRANCH   1   2
ATOM      2  C   UNL     1       2.266 109.296 182.981  1.00  0.00     0.041 C 
ATOM      3  O   UNL     1       1.387 108.814 183.743  1.00  0.00    -0.550 OA
ATOM      4  O   UNL     1       2.758 110.573 183.222  1.00  0.00    -0.550 OA
ENDBRANCH   1   2
BRANCH   1   5
ATOM      5  C   UNL     1       3.639 107.323 182.207  1.00  0.00     0.006 C 
BRANCH   5   6
ATOM      6  C   UNL     1       4.764 107.693 183.191  1.00  0.00    -0.003 C 
ATOM      7  C   UNL     1       5.873 106.644 183.260  1.00  0.00     0.004 C 
ENDBRANCH   5   6
ENDBRANCH   1   5
TORSDOF 3
ENDMDL
MODEL 2
REMARK VINA RESULT:    -2.531      2.742      4.109
REMARK INTER + INTRA:          -3.052
REMARK INTER:                  -3.033
REMARK INTRA:                  -0.019
REMARK UNBOUND:                -0.077
REMARK SMILES CCCCC(=O)[O-]
REMARK SMILES IDX 4 1 5 2 6 3 7 4 3 5 2 6 1 7
REMARK H PARENT
REMARK Flexibility Score: inf
ROOT
ATOM      1  C   UNL     1       3.362 110.350 182.911  1.00  0.00     0.053 C 
ENDROOT
BRANCH   1   2
ATOM      2  C   UNL     1       2.367 109.242 182.755  1.00  0.00     0.041 C 
ATOM      3  O   UNL     1       2.435 108.463 181.766  1.00  0.00    -0.550 OA
ATOM      4  O   UNL     1       1.342 109.085 183.681  1.00  0.00    -0.550 OA
ENDBRANCH   1   2
BRANCH   1   5
ATOM      5  C   UNL     1       2.904 111.416 183.921  1.00  0.00     0.006 C 
BRANCH   5   6
ATOM      6  C   UNL     1       3.967 112.489 184.216  1.00  0.00    -0.003 C 
ATOM      7  C   UNL     1       3.412 113.694 184.976  1.00  0.00     0.004 C 
ENDBRANCH   5   6
ENDBRANCH   1   5
TORSDOF 3
ENDMDL
MODEL 3
REMARK VINA RESULT:    -2.516      3.563      4.882
REMARK INTER + INTRA:          -3.034
REMARK INTER:                  -3.013
REMARK INTRA:                  -0.021
REMARK UNBOUND:                -0.077
REMARK SMILES CCCCC(=O)[O-]
REMARK SMILES IDX 4 1 5 2 6 3 7 4 3 5 2 6 1 7
REMARK H PARENT
REMARK Flexibility Score: inf
ROOT
ATOM      1  C   UNL     1       3.914 111.664 183.481  1.00  0.00     0.053 C 
ENDROOT
BRANCH   1   2
ATOM      2  C   UNL     1       3.201 110.478 182.908  1.00  0.00     0.041 C 
ATOM      3  O   UNL     1       2.106 110.098 183.401  1.00  0.00    -0.550 OA
ATOM      4  O   UNL     1       3.760 109.770 181.851  1.00  0.00    -0.550 OA
ENDBRANCH   1   2
BRANCH   1   5
ATOM      5  C   UNL     1       3.022 112.489 184.425  1.00  0.00     0.006 C 
BRANCH   5   6
ATOM      6  C   UNL     1       3.743 113.683 185.076  1.00  0.00    -0.003 C 
ATOM      7  C   UNL     1       3.927 114.867 184.127  1.00  0.00     0.004 C 
ENDBRANCH   5   6
ENDBRANCH   1   5
TORSDOF 3
ENDMDL
MODEL 4
REMARK VINA RESULT:    -2.506      1.208      1.854
REMARK INTER + INTRA:          -3.023
REMARK INTER:                  -3.007
REMARK INTRA:                  -0.016
REMARK UNBOUND:                -0.077
REMARK SMILES CCCCC(=O)[O-]
REMARK SMILES IDX 4 1 5 2 6 3 7 4 3 5 2 6 1 7
REMARK H PARENT
REMARK Flexibility Score: inf
ROOT
ATOM      1  C   UNL     1       2.779 108.346 181.685  1.00  0.00     0.053 C 
ENDROOT
BRANCH   1   2
ATOM      2  C   UNL     1       2.346 109.240 182.805  1.00  0.00     0.041 C 
ATOM      3  O   UNL     1       1.379 108.910 183.542  1.00  0.00    -0.550 OA
ATOM      4  O   UNL     1       2.987 110.455 183.019  1.00  0.00    -0.550 OA
ENDBRANCH   1   2
BRANCH   1   5
ATOM      5  C   UNL     1       3.658 107.179 182.167  1.00  0.00     0.006 C 
BRANCH   5   6
ATOM      6  C   UNL     1       4.281 106.356 181.024  1.00  0.00    -0.003 C 
ATOM      7  C   UNL     1       3.259 105.511 180.265  1.00  0.00     0.004 C 
ENDBRANCH   5   6
ENDBRANCH   1   5
TORSDOF 3
ENDMDL
MODEL 5
REMARK VINA RESULT:    -2.403      3.677      4.575
REMARK INTER + INTRA:          -2.901
REMARK INTER:                  -2.881
REMARK INTRA:                  -0.021
REMARK UNBOUND:                -0.077
REMARK SMILES CCCCC(=O)[O-]
REMARK SMILES IDX 4 1 5 2 6 3 7 4 3 5 2 6 1 7
REMARK H PARENT
REMARK Flexibility Score: inf
ROOT
ATOM      1  C   UNL     1       4.054 105.821 180.401  1.00  0.00     0.053 C 
ENDROOT
BRANCH   1   2
ATOM      2  C   UNL     1       3.701 106.871 181.409  1.00  0.00     0.041 C 
ATOM      3  O   UNL     1       4.236 106.859 182.549  1.00  0.00    -0.550 OA
ATOM      4  O   UNL     1       2.757 107.845 181.104  1.00  0.00    -0.550 OA
ENDBRANCH   1   2
BRANCH   1   5
ATOM      5  C   UNL     1       2.817 105.085 179.857  1.00  0.00     0.006 C 
BRANCH   5   6
ATOM      6  C   UNL     1       2.971 104.600 178.405  1.00  0.00    -0.003 C 
ATOM      7  C   UNL     1       1.727 104.849 177.552  1.00  0.00     0.004 C 
ENDBRANCH   5   6
ENDBRANCH   1   5
TORSDOF 3
ENDMDL
MODEL 6
REMARK VINA RESULT:    -2.388      1.844      3.234
REMARK INTER + INTRA:          -2.884
REMARK INTER:                  -2.828
REMARK INTRA:                  -0.056
REMARK UNBOUND:                -0.077
REMARK SMILES CCCCC(=O)[O-]
REMARK SMILES IDX 4 1 5 2 6 3 7 4 3 5 2 6 1 7
REMARK H PARENT
REMARK Flexibility Score: inf
ROOT
ATOM      1  C   UNL     1       2.877 108.086 181.721  1.00  0.00     0.053 C 
ENDROOT
BRANCH   1   2
ATOM      2  C   UNL     1       2.406 109.137 182.678  1.00  0.00     0.041 C 
ATOM      3  O   UNL     1       1.370 108.946 183.369  1.00  0.00    -0.550 OA
ATOM      4  O   UNL     1       3.090 110.342 182.786  1.00  0.00    -0.550 OA
ENDBRANCH   1   2
BRANCH   1   5
ATOM      5  C   UNL     1       2.489 108.396 180.265  1.00  0.00     0.006 C 
BRANCH   5   6
ATOM      6  C   UNL     1       1.044 108.001 179.910  1.00  0.00    -0.003 C 
ATOM      7  C   UNL     1       0.954 106.701 179.112  1.00  0.00     0.004 C 
ENDBRANCH   5   6
ENDBRANCH   1   5
TORSDOF 3
ENDMDL
MODEL 7
REMARK VINA RESULT:    -2.294      1.374      1.753
REMARK INTER + INTRA:          -2.773
REMARK INTER:                  -2.680
REMARK INTRA:                  -0.093
REMARK UNBOUND:                -0.077
REMARK SMILES CCCCC(=O)[O-]
REMARK SMILES IDX 4 1 5 2 6 3 7 4 3 5 2 6 1 7
REMARK H PARENT
REMARK Flexibility Score: inf
ROOT
ATOM      1  C   UNL     1       3.756 106.897 182.101  1.00  0.00     0.053 C 
ENDROOT
BRANCH   1   2
ATOM      2  C   UNL     1       3.038 108.192 182.321  1.00  0.00     0.041 C 
ATOM      3  O   UNL     1       2.405 108.391 183.392  1.00  0.00    -0.550 OA
ATOM      4  O   UNL     1       3.036 109.168 181.332  1.00  0.00    -0.550 OA
ENDBRANCH   1   2
BRANCH   1   5
ATOM      5  C   UNL     1       5.286 107.061 182.109  1.00  0.00     0.006 C 
BRANCH   5   6
ATOM      6  C   UNL     1       5.906 107.042 183.518  1.00  0.00    -0.003 C 
ATOM      7  C   UNL     1       6.264 108.434 184.037  1.00  0.00     0.004 C 
ENDBRANCH   5   6
ENDBRANCH   1   5
TORSDOF 3
ENDMDL
MODEL 8
REMARK VINA RESULT:    -2.281      2.505      3.718
REMARK INTER + INTRA:          -2.758
REMARK INTER:                  -2.654
REMARK INTRA:                  -0.104
REMARK UNBOUND:                -0.077
REMARK SMILES CCCCC(=O)[O-]
REMARK SMILES IDX 4 1 5 2 6 3 7 4 3 5 2 6 1 7
REMARK H PARENT
REMARK Flexibility Score: inf
ROOT
ATOM      1  C   UNL     1       4.748 110.970 183.291  1.00  0.00     0.053 C 
ENDROOT
BRANCH   1   2
ATOM      2  C   UNL     1       4.248 112.072 184.173  1.00  0.00     0.041 C 
ATOM      3  O   UNL     1       5.062 112.804 184.796  1.00  0.00    -0.550 OA
ATOM      4  O   UNL     1       2.882 112.273 184.335  1.00  0.00    -0.550 OA
ENDBRANCH   1   2
BRANCH   1   5
ATOM      5  C   UNL     1       3.651 110.401 182.375  1.00  0.00     0.006 C 
BRANCH   5   6
ATOM      6  C   UNL     1       3.159 109.002 182.788  1.00  0.00    -0.003 C 
ATOM      7  C   UNL     1       1.708 108.991 183.267  1.00  0.00     0.004 C 
ENDBRANCH   5   6
ENDBRANCH   1   5
TORSDOF 3
ENDMDL
MODEL 9
REMARK VINA RESULT:    -2.231      2.534      3.408
REMARK INTER + INTRA:          -2.699
REMARK INTER:                  -2.610
REMARK INTRA:                  -0.089
REMARK UNBOUND:                -0.077
REMARK SMILES CCCCC(=O)[O-]
REMARK SMILES IDX 4 1 5 2 6 3 7 4 3 5 2 6 1 7
REMARK H PARENT
REMARK Flexibility Score: inf
ROOT
ATOM      1  C   UNL     1       2.591 108.487 181.386  1.00  0.00     0.053 C 
ENDROOT
BRANCH   1   2
ATOM      2  C   UNL     1       3.392 107.222 181.430  1.00  0.00     0.041 C 
ATOM      3  O   UNL     1       3.262 106.359 180.521  1.00  0.00    -0.550 OA
ATOM      4  O   UNL     1       4.258 106.978 182.489  1.00  0.00    -0.550 OA
ENDBRANCH   1   2
BRANCH   1   5
ATOM      5  C   UNL     1       2.209 108.992 182.788  1.00  0.00     0.006 C 
BRANCH   5   6
ATOM      6  C   UNL     1       2.828 110.354 183.148  1.00  0.00    -0.003 C 
ATOM      7  C   UNL     1       3.985 110.752 182.231  1.00  0.00     0.004 C 
ENDBRANCH   5   6
ENDBRANCH   1   5
TORSDOF 3
ENDMDL
