MODEL 1
REMARK VINA RESULT:    -4.347      0.000      0.000
REMARK INTER + INTRA:          -7.754
REMARK INTER:                  -6.888
REMARK INTRA:                  -0.866
REMARK UNBOUND:                -0.866
REMARK SMILES CCCCCCCCCCCC(=O)[O-]
REMARK SMILES IDX 7 1 8 2 9 3 10 4 11 5 12 6 13 7 14 8 6 9 5 10 4 11 3 12 2 13
REMARK SMILES IDX 1 14
REMARK H PARENT
REMARK Flexibility Score: inf
ROOT
ATOM      1  C   UNL     1     -10.654   2.610  17.759  1.00  0.00     0.000 C 
ENDROOT
BRANCH   1   2
ATOM      2  C   UNL     1     -10.559   3.272  16.374  1.00  0.00     0.000 C 
BRANCH   2   3
ATOM      3  C   UNL     1      -9.671   2.482  15.395  1.00  0.00     0.000 C 
BRANCH   3   4
ATOM      4  C   UNL     1      -9.919   0.960  15.424  1.00  0.00     0.006 C 
BRANCH   4   5
ATOM      5  C   UNL     1     -10.473   0.438  14.092  1.00  0.00     0.053 C 
BRANCH   5   6
ATOM      6  C   UNL     1     -11.959   0.275  14.170  1.00  0.00     0.041 C 
ATOM      7  O   UNL     1     -12.583  -0.293  13.236  1.00  0.00    -0.550 OA
ATOM      8  O   UNL     1     -12.647   0.705  15.296  1.00  0.00    -0.550 OA
ENDBRANCH   5   6
ENDBRANCH   4   5
ENDBRANCH   3   4
ENDBRANCH   2   3
ENDBRANCH   1   2
BRANCH   1   9
ATOM      9  C   UNL     1      -9.497   3.017  18.685  1.00  0.00     0.000 C 
BRANCH   9  10
ATOM     10  C   UNL     1      -9.132   1.910  19.691  1.00  0.00    -0.000 C 
BRANCH  10  11
ATOM     11  C   UNL     1      -9.084   0.512  19.047  1.00  0.00    -0.000 C 
BRANCH  11  12
ATOM     12  C   UNL     1      -8.870  -0.656  20.031  1.00  0.00    -0.000 C 
BRANCH  12  13
ATOM     13  C   UNL     1     -10.058  -1.627  20.156  1.00  0.00    -0.003 C 
ATOM     14  C   UNL     1     -11.410  -0.915  20.164  1.00  0.00     0.004 C 
ENDBRANCH  12  13
ENDBRANCH  11  12
ENDBRANCH  10  11
ENDBRANCH   9  10
ENDBRANCH   1   9
TORSDOF 10
ENDMDL
MODEL 2
REMARK VINA RESULT:    -4.291      3.003      5.462
REMARK INTER + INTRA:          -7.666
REMARK INTER:                  -6.406
REMARK INTRA:                  -1.261
REMARK UNBOUND:                -0.866
REMARK SMILES CCCCCCCCCCCC(=O)[O-]
REMARK SMILES IDX 7 1 8 2 9 3 10 4 11 5 12 6 13 7 14 8 6 9 5 10 4 11 3 12 2 13
REMARK SMILES IDX 1 14
REMARK H PARENT
REMARK Flexibility Score: inf
ROOT
ATOM      1  C   UNL     1     -11.545   2.499  19.042  1.00  0.00     0.000 C 
ENDROOT
BRANCH   1   2
ATOM      2  C   UNL     1     -10.169   2.979  19.534  1.00  0.00     0.000 C 
BRANCH   2   3
ATOM      3  C   UNL     1      -9.062   1.929  19.324  1.00  0.00     0.000 C 
BRANCH   3   4
ATOM      4  C   UNL     1      -9.597   0.527  18.965  1.00  0.00     0.006 C 
BRANCH   4   5
ATOM      5  C   UNL     1      -8.927  -0.578  19.792  1.00  0.00     0.053 C 
BRANCH   5   6
ATOM      6  C   UNL     1      -9.531  -0.650  21.159  1.00  0.00     0.041 C 
ATOM      7  O   UNL     1     -10.759  -0.424  21.319  1.00  0.00    -0.550 OA
ATOM      8  O   UNL     1      -8.750  -1.016  22.247  1.00  0.00    -0.550 OA
ENDBRANCH   5   6
ENDBRANCH   4   5
ENDBRANCH   3   4
ENDBRANCH   2   3
ENDBRANCH   1   2
BRANCH   1   9
ATOM      9  C   UNL     1     -12.096   3.367  17.899  1.00  0.00     0.000 C 
BRANCH   9  10
ATOM     10  C   UNL     1     -11.964   2.684  16.527  1.00  0.00    -0.000 C 
BRANCH  10  11
ATOM     11  C   UNL     1     -10.783   3.225  15.701  1.00  0.00    -0.000 C 
BRANCH  11  12
ATOM     12  C   UNL     1      -9.524   2.334  15.695  1.00  0.00    -0.000 C 
BRANCH  12  13
ATOM     13  C   UNL     1      -9.778   0.854  15.358  1.00  0.00    -0.003 C 
ATOM     14  C   UNL     1      -9.894   0.597  13.856  1.00  0.00     0.004 C 
ENDBRANCH  12  13
ENDBRANCH  11  12
ENDBRANCH  10  11
ENDBRANCH   9  10
ENDBRANCH   1   9
TORSDOF 10
ENDMDL
MODEL 3
REMARK VINA RESULT:    -4.224      1.704      2.297
REMARK INTER + INTRA:          -7.559
REMARK INTER:                  -6.844
REMARK INTRA:                  -0.715
REMARK UNBOUND:                -0.866
REMARK SMILES CCCCCCCCCCCC(=O)[O-]
REMARK SMILES IDX 7 1 8 2 9 3 10 4 11 5 12 6 13 7 14 8 6 9 5 10 4 11 3 12 2 13
REMARK SMILES IDX 1 14
REMARK H PARENT
REMARK Flexibility Score: inf
ROOT
ATOM      1  C   UNL     1     -10.775   1.120  18.870  1.00  0.00     0.000 C 
ENDROOT
BRANCH   1   2
ATOM      2  C   UNL     1     -11.250   2.532  18.486  1.00  0.00     0.000 C 
BRANCH   2   3
ATOM      3  C   UNL     1     -11.754   2.617  17.034  1.00  0.00     0.000 C 
BRANCH   3   4
ATOM      4  C   UNL     1     -11.309   1.431  16.153  1.00  0.00     0.006 C 
BRANCH   4   5
ATOM      5  C   UNL     1     -12.447   0.912  15.265  1.00  0.00     0.053 C 
BRANCH   5   6
ATOM      6  C   UNL     1     -11.895   0.196  14.072  1.00  0.00     0.041 C 
ATOM      7  O   UNL     1     -10.656   0.199  13.850  1.00  0.00    -0.550 OA
ATOM      8  O   UNL     1     -12.744  -0.516  13.235  1.00  0.00    -0.550 OA
ENDBRANCH   5   6
ENDBRANCH   4   5
ENDBRANCH   3   4
ENDBRANCH   2   3
ENDBRANCH   1   2
BRANCH   1   9
ATOM      9  C   UNL     1      -9.262   1.062  19.139  1.00  0.00     0.000 C 
BRANCH   9  10
ATOM     10  C   UNL     1      -8.781  -0.358  19.483  1.00  0.00    -0.000 C 
BRANCH  10  11
ATOM     11  C   UNL     1      -9.538  -0.972  20.675  1.00  0.00    -0.000 C 
BRANCH  11  12
ATOM     12  C   UNL     1      -8.777  -0.951  22.016  1.00  0.00    -0.000 C 
BRANCH  12  13
ATOM     13  C   UNL     1      -9.489  -0.200  23.155  1.00  0.00    -0.003 C 
ATOM     14  C   UNL     1     -10.559   0.768  22.653  1.00  0.00     0.004 C 
ENDBRANCH  12  13
ENDBRANCH  11  12
ENDBRANCH  10  11
ENDBRANCH   9  10
ENDBRANCH   1   9
TORSDOF 10
ENDMDL
MODEL 4
REMARK VINA RESULT:    -4.161      1.579      2.001
REMARK INTER + INTRA:          -7.459
REMARK INTER:                  -6.234
REMARK INTRA:                  -1.225
REMARK UNBOUND:                -0.866
REMARK SMILES CCCCCCCCCCCC(=O)[O-]
REMARK SMILES IDX 7 1 8 2 9 3 10 4 11 5 12 6 13 7 14 8 6 9 5 10 4 11 3 12 2 13
REMARK SMILES IDX 1 14
REMARK H PARENT
REMARK Flexibility Score: inf
ROOT
ATOM      1  C   UNL     1     -11.010   3.912  18.424  1.00  0.00     0.000 C 
ENDROOT
BRANCH   1   2
ATOM      2  C   UNL     1     -12.365   3.500  17.823  1.00  0.00     0.000 C 
BRANCH   2   3
ATOM      3  C   UNL     1     -12.251   3.038  16.359  1.00  0.00     0.000 C 
BRANCH   3   4
ATOM      4  C   UNL     1     -11.797   1.571  16.206  1.00  0.00     0.006 C 
BRANCH   4   5
ATOM      5  C   UNL     1     -10.390   1.460  15.603  1.00  0.00     0.053 C 
BRANCH   5   6
ATOM      6  C   UNL     1     -10.425   0.667  14.334  1.00  0.00     0.041 C 
ATOM      7  O   UNL     1     -11.525   0.280  13.861  1.00  0.00    -0.550 OA
ATOM      8  O   UNL     1      -9.247   0.399  13.650  1.00  0.00    -0.550 OA
ENDBRANCH   5   6
ENDBRANCH   4   5
ENDBRANCH   3   4
ENDBRANCH   2   3
ENDBRANCH   1   2
BRANCH   1   9
ATOM      9  C   UNL     1     -10.542   2.952  19.530  1.00  0.00     0.000 C 
BRANCH   9  10
ATOM     10  C   UNL     1      -9.136   2.388  19.261  1.00  0.00    -0.000 C 
BRANCH  10  11
ATOM     11  C   UNL     1      -9.130   0.858  19.085  1.00  0.00    -0.000 C 
BRANCH  11  12
ATOM     12  C   UNL     1     -10.475   0.160  19.372  1.00  0.00    -0.000 C 
BRANCH  12  13
ATOM     13  C   UNL     1     -10.532  -0.618  20.699  1.00  0.00    -0.003 C 
ATOM     14  C   UNL     1      -9.148  -0.936  21.263  1.00  0.00     0.004 C 
ENDBRANCH  12  13
ENDBRANCH  11  12
ENDBRANCH  10  11
ENDBRANCH   9  10
ENDBRANCH   1   9
TORSDOF 10
ENDMDL
MODEL 5
REMARK VINA RESULT:    -4.158      1.735      3.053
REMARK INTER + INTRA:          -7.454
REMARK INTER:                  -6.133
REMARK INTRA:                  -1.321
REMARK UNBOUND:                -0.866
REMARK SMILES CCCCCCCCCCCC(=O)[O-]
REMARK SMILES IDX 7 1 8 2 9 3 10 4 11 5 12 6 13 7 14 8 6 9 5 10 4 11 3 12 2 13
REMARK SMILES IDX 1 14
REMARK H PARENT
REMARK Flexibility Score: inf
ROOT
ATOM      1  C   UNL     1     -12.072   4.013  18.550  1.00  0.00     0.000 C 
ENDROOT
BRANCH   1   2
ATOM      2  C   UNL     1     -12.191   3.240  17.225  1.00  0.00     0.000 C 
BRANCH   2   3
ATOM      3  C   UNL     1     -11.242   3.773  16.137  1.00  0.00     0.000 C 
BRANCH   3   4
ATOM      4  C   UNL     1     -10.306   2.697  15.550  1.00  0.00     0.006 C 
BRANCH   4   5
ATOM      5  C   UNL     1     -10.910   1.290  15.643  1.00  0.00     0.053 C 
BRANCH   5   6
ATOM      6  C   UNL     1     -10.683   0.536  14.370  1.00  0.00     0.041 C 
ATOM      7  O   UNL     1      -9.519   0.416  13.906  1.00  0.00    -0.550 OA
ATOM      8  O   UNL     1     -11.749  -0.075  13.724  1.00  0.00    -0.550 OA
ENDBRANCH   5   6
ENDBRANCH   4   5
ENDBRANCH   3   4
ENDBRANCH   2   3
ENDBRANCH   1   2
BRANCH   1   9
ATOM      9  C   UNL     1     -11.896   3.080  19.760  1.00  0.00     0.000 C 
BRANCH   9  10
ATOM     10  C   UNL     1     -11.182   1.768  19.391  1.00  0.00    -0.000 C 
BRANCH  10  11
ATOM     11  C   UNL     1      -9.755   1.684  19.964  1.00  0.00    -0.000 C 
BRANCH  11  12
ATOM     12  C   UNL     1      -8.623   1.863  18.932  1.00  0.00    -0.000 C 
BRANCH  12  13
ATOM     13  C   UNL     1      -8.202   3.321  18.675  1.00  0.00    -0.003 C 
ATOM     14  C   UNL     1      -6.708   3.556  18.890  1.00  0.00     0.004 C 
ENDBRANCH  12  13
ENDBRANCH  11  12
ENDBRANCH  10  11
ENDBRANCH   9  10
ENDBRANCH   1   9
TORSDOF 10
ENDMDL
MODEL 6
REMARK VINA RESULT:    -4.155      1.727      3.024
REMARK INTER + INTRA:          -7.450
REMARK INTER:                  -6.373
REMARK INTRA:                  -1.076
REMARK UNBOUND:                -0.866
REMARK SMILES CCCCCCCCCCCC(=O)[O-]
REMARK SMILES IDX 7 1 8 2 9 3 10 4 11 5 12 6 13 7 14 8 6 9 5 10 4 11 3 12 2 13
REMARK SMILES IDX 1 14
REMARK H PARENT
REMARK Flexibility Score: inf
ROOT
ATOM      1  C   UNL     1      -9.561   0.613  18.646  1.00  0.00     0.000 C 
ENDROOT
BRANCH   1   2
ATOM      2  C   UNL     1      -8.999   2.016  18.928  1.00  0.00     0.000 C 
BRANCH   2   3
ATOM      3  C   UNL     1      -9.126   2.962  17.720  1.00  0.00     0.000 C 
BRANCH   3   4
ATOM      4  C   UNL     1      -9.491   2.243  16.405  1.00  0.00     0.006 C 
BRANCH   4   5
ATOM      5  C   UNL     1     -10.627   2.951  15.654  1.00  0.00     0.053 C 
BRANCH   5   6
ATOM      6  C   UNL     1     -11.957   2.474  16.146  1.00  0.00     0.041 C 
ATOM      7  O   UNL     1     -12.709   3.253  16.791  1.00  0.00    -0.550 OA
ATOM      8  O   UNL     1     -12.388   1.188  15.851  1.00  0.00    -0.550 OA
ENDBRANCH   5   6
ENDBRANCH   4   5
ENDBRANCH   3   4
ENDBRANCH   2   3
ENDBRANCH   1   2
BRANCH   1   9
ATOM      9  C   UNL     1      -8.753  -0.494  19.343  1.00  0.00     0.000 C 
BRANCH   9  10
ATOM     10  C   UNL     1      -9.570  -1.227  20.422  1.00  0.00    -0.000 C 
BRANCH  10  11
ATOM     11  C   UNL     1      -9.185  -0.805  21.852  1.00  0.00    -0.000 C 
BRANCH  11  12
ATOM     12  C   UNL     1     -10.118   0.236  22.502  1.00  0.00    -0.000 C 
BRANCH  12  13
ATOM     13  C   UNL     1     -11.527   0.318  21.889  1.00  0.00    -0.003 C 
ATOM     14  C   UNL     1     -11.872   1.714  21.373  1.00  0.00     0.004 C 
ENDBRANCH  12  13
ENDBRANCH  11  12
ENDBRANCH  10  11
ENDBRANCH   9  10
ENDBRANCH   1   9
TORSDOF 10
ENDMDL
MODEL 7
REMARK VINA RESULT:    -4.139      1.863      3.085
REMARK INTER + INTRA:          -7.425
REMARK INTER:                  -6.100
REMARK INTRA:                  -1.325
REMARK UNBOUND:                -0.866
REMARK SMILES CCCCCCCCCCCC(=O)[O-]
REMARK SMILES IDX 7 1 8 2 9 3 10 4 11 5 12 6 13 7 14 8 6 9 5 10 4 11 3 12 2 13
REMARK SMILES IDX 1 14
REMARK H PARENT
REMARK Flexibility Score: inf
ROOT
ATOM      1  C   UNL     1      -9.048   2.046  19.208  1.00  0.00     0.000 C 
ENDROOT
BRANCH   1   2
ATOM      2  C   UNL     1     -10.215   2.825  19.838  1.00  0.00     0.000 C 
BRANCH   2   3
ATOM      3  C   UNL     1     -11.527   2.678  19.045  1.00  0.00     0.000 C 
BRANCH   3   4
ATOM      4  C   UNL     1     -11.784   3.830  18.052  1.00  0.00     0.006 C 
BRANCH   4   5
ATOM      5  C   UNL     1     -12.519   3.356  16.792  1.00  0.00     0.053 C 
BRANCH   5   6
ATOM      6  C   UNL     1     -11.718   2.311  16.080  1.00  0.00     0.041 C 
ATOM      7  O   UNL     1     -12.193   1.157  15.911  1.00  0.00    -0.550 OA
ATOM      8  O   UNL     1     -10.469   2.625  15.561  1.00  0.00    -0.550 OA
ENDBRANCH   5   6
ENDBRANCH   4   5
ENDBRANCH   3   4
ENDBRANCH   2   3
ENDBRANCH   1   2
BRANCH   1   9
ATOM      9  C   UNL     1      -9.486   0.682  18.651  1.00  0.00     0.000 C 
BRANCH   9  10
ATOM     10  C   UNL     1      -8.767  -0.492  19.339  1.00  0.00    -0.000 C 
BRANCH  10  11
ATOM     11  C   UNL     1      -9.592  -1.108  20.484  1.00  0.00    -0.000 C 
BRANCH  11  12
ATOM     12  C   UNL     1      -9.129  -0.727  21.904  1.00  0.00    -0.000 C 
BRANCH  12  13
ATOM     13  C   UNL     1     -10.066   0.235  22.656  1.00  0.00    -0.003 C 
ATOM     14  C   UNL     1     -11.481   0.260  22.080  1.00  0.00     0.004 C 
ENDBRANCH  12  13
ENDBRANCH  11  12
ENDBRANCH  10  11
ENDBRANCH   9  10
ENDBRANCH   1   9
TORSDOF 10
ENDMDL
MODEL 8
REMARK VINA RESULT:    -4.103      1.237      2.061
REMARK INTER + INTRA:          -7.367
REMARK INTER:                  -6.306
REMARK INTRA:                  -1.061
REMARK UNBOUND:                -0.866
REMARK SMILES CCCCCCCCCCCC(=O)[O-]
REMARK SMILES IDX 7 1 8 2 9 3 10 4 11 5 12 6 13 7 14 8 6 9 5 10 4 11 3 12 2 13
REMARK SMILES IDX 1 14
REMARK H PARENT
REMARK Flexibility Score: inf
ROOT
ATOM      1  C   UNL     1      -9.341   2.476  19.755  1.00  0.00     0.000 C 
ENDROOT
BRANCH   1   2
ATOM      2  C   UNL     1     -10.276   2.458  18.534  1.00  0.00     0.000 C 
BRANCH   2   3
ATOM      3  C   UNL     1      -9.847   1.432  17.469  1.00  0.00     0.000 C 
BRANCH   3   4
ATOM      4  C   UNL     1      -9.853   1.991  16.031  1.00  0.00     0.006 C 
BRANCH   4   5
ATOM      5  C   UNL     1      -9.913   0.878  14.977  1.00  0.00     0.053 C 
BRANCH   5   6
ATOM      6  C   UNL     1     -11.332   0.588  14.601  1.00  0.00     0.041 C 
ATOM      7  O   UNL     1     -11.591  -0.306  13.753  1.00  0.00    -0.550 OA
ATOM      8  O   UNL     1     -12.369   1.269  15.223  1.00  0.00    -0.550 OA
ENDBRANCH   5   6
ENDBRANCH   4   5
ENDBRANCH   3   4
ENDBRANCH   2   3
ENDBRANCH   1   2
BRANCH   1   9
ATOM      9  C   UNL     1     -10.111   2.432  21.085  1.00  0.00     0.000 C 
BRANCH   9  10
ATOM     10  C   UNL     1     -11.495   1.776  20.941  1.00  0.00    -0.000 C 
BRANCH  10  11
ATOM     11  C   UNL     1     -11.499   0.294  21.357  1.00  0.00    -0.000 C 
BRANCH  11  12
ATOM     12  C   UNL     1     -11.364  -0.714  20.197  1.00  0.00    -0.000 C 
BRANCH  12  13
ATOM     13  C   UNL     1     -10.063  -1.535  20.198  1.00  0.00    -0.003 C 
ATOM     14  C   UNL     1      -9.059  -1.060  21.247  1.00  0.00     0.004 C 
ENDBRANCH  12  13
ENDBRANCH  11  12
ENDBRANCH  10  11
ENDBRANCH   9  10
ENDBRANCH   1   9
TORSDOF 10
ENDMDL
MODEL 9
REMARK VINA RESULT:    -4.028      2.906      5.278
REMARK INTER + INTRA:          -7.249
REMARK INTER:                  -6.142
REMARK INTRA:                  -1.107
REMARK UNBOUND:                -0.866
REMARK SMILES CCCCCCCCCCCC(=O)[O-]
REMARK SMILES IDX 7 1 8 2 9 3 10 4 11 5 12 6 13 7 14 8 6 9 5 10 4 11 3 12 2 13
REMARK SMILES IDX 1 14
REMARK H PARENT
REMARK Flexibility Score: inf
ROOT
ATOM      1  C   UNL     1     -12.399   3.768  19.176  1.00  0.00     0.000 C 
ENDROOT
BRANCH   1   2
ATOM      2  C   UNL     1     -11.624   2.912  20.192  1.00  0.00     0.000 C 
BRANCH   2   3
ATOM      3  C   UNL     1     -11.146   1.573  19.602  1.00  0.00     0.000 C 
BRANCH   3   4
ATOM      4  C   UNL     1      -9.611   1.415  19.589  1.00  0.00     0.006 C 
BRANCH   4   5
ATOM      5  C   UNL     1      -9.176   0.020  19.121  1.00  0.00     0.053 C 
BRANCH   5   6
ATOM      6  C   UNL     1      -9.383  -0.986  20.209  1.00  0.00     0.041 C 
ATOM      7  O   UNL     1      -8.708  -0.919  21.269  1.00  0.00    -0.550 OA
ATOM      8  O   UNL     1     -10.357  -1.967  20.073  1.00  0.00    -0.550 OA
ENDBRANCH   5   6
ENDBRANCH   4   5
ENDBRANCH   3   4
ENDBRANCH   2   3
ENDBRANCH   1   2
BRANCH   1   9
ATOM      9  C   UNL     1     -11.656   3.904  17.837  1.00  0.00     0.000 C 
BRANCH   9  10
ATOM     10  C   UNL     1     -12.485   3.383  16.649  1.00  0.00    -0.000 C 
BRANCH  10  11
ATOM     11  C   UNL     1     -11.865   2.138  15.989  1.00  0.00    -0.000 C 
BRANCH  11  12
ATOM     12  C   UNL     1     -10.324   2.072  16.032  1.00  0.00    -0.000 C 
BRANCH  12  13
ATOM     13  C   UNL     1      -9.709   0.819  15.385  1.00  0.00    -0.003 C 
ATOM     14  C   UNL     1     -10.419   0.405  14.097  1.00  0.00     0.004 C 
ENDBRANCH  12  13
ENDBRANCH  11  12
ENDBRANCH  10  11
ENDBRANCH   9  10
ENDBRANCH   1   9
TORSDOF 10
ENDMDL
