MODEL 1
REMARK VINA RESULT:    -4.405      0.000      0.000
REMARK INTER + INTRA:          -7.732
REMARK INTER:                  -6.723
REMARK INTRA:                  -1.009
REMARK UNBOUND:                -1.009
REMARK SMILES O=C([O-])CCCCCCCCC(=O)[O-]
REMARK SMILES IDX 7 1 6 2 5 3 4 4 2 5 1 6 3 7 8 8 9 9 10 10 11 11 12 12 13 13
REMARK SMILES IDX 14 14
REMARK H PARENT
REMARK Flexibility Score: inf
ROOT
ATOM      1  C   UNL     1     123.471 177.496 120.644  1.00  0.00     0.000 C 
ENDROOT
BRANCH   1   2
ATOM      2  C   UNL     1     124.467 178.462 119.978  1.00  0.00     0.000 C 
BRANCH   2   3
ATOM      3  C   UNL     1     125.919 177.965 120.065  1.00  0.00     0.006 C 
BRANCH   3   4
ATOM      4  C   UNL     1     126.379 177.251 118.787  1.00  0.00     0.053 C 
BRANCH   4   5
ATOM      5  C   UNL     1     126.771 175.839 119.092  1.00  0.00     0.041 C 
ATOM      6  O   UNL     1     127.622 175.250 118.375  1.00  0.00    -0.550 OA
ATOM      7  O   UNL     1     126.232 175.191 120.196  1.00  0.00    -0.550 OA
ENDBRANCH   4   5
ENDBRANCH   3   4
ENDBRANCH   2   3
ENDBRANCH   1   2
BRANCH   1   8
ATOM      8  C   UNL     1     122.365 177.032 119.682  1.00  0.00     0.000 C 
BRANCH   8   9
ATOM      9  C   UNL     1     122.782 175.809 118.846  1.00  0.00     0.000 C 
BRANCH   9  10
ATOM     10  C   UNL     1     123.141 176.179 117.397  1.00  0.00     0.006 C 
BRANCH  10  11
ATOM     11  C   UNL     1     122.087 177.079 116.738  1.00  0.00     0.053 C 
BRANCH  11  12
ATOM     12  C   UNL     1     122.735 178.284 116.134  1.00  0.00     0.041 C 
ATOM     13  O   UNL     1     123.912 178.599 116.455  1.00  0.00    -0.550 OA
ATOM     14  O   UNL     1     122.022 179.091 115.257  1.00  0.00    -0.550 OA
ENDBRANCH  11  12
ENDBRANCH  10  11
ENDBRANCH   9  10
ENDBRANCH   8   9
ENDBRANCH   1   8
TORSDOF 9
ENDMDL
MODEL 2
REMARK VINA RESULT:    -4.355      8.460      9.837
REMARK INTER + INTRA:          -7.655
REMARK INTER:                  -6.784
REMARK INTRA:                  -0.871
REMARK UNBOUND:                -1.009
REMARK SMILES O=C([O-])CCCCCCCCC(=O)[O-]
REMARK SMILES IDX 7 1 6 2 5 3 4 4 2 5 1 6 3 7 8 8 9 9 10 10 11 11 12 12 13 13
REMARK SMILES IDX 14 14
REMARK H PARENT
REMARK Flexibility Score: inf
ROOT
ATOM      1  C   UNL     1     119.279 177.019 124.725  1.00  0.00     0.000 C 
ENDROOT
BRANCH   1   2
ATOM      2  C   UNL     1     120.700 176.614 124.292  1.00  0.00     0.000 C 
BRANCH   2   3
ATOM      3  C   UNL     1     121.610 176.286 125.486  1.00  0.00     0.006 C 
BRANCH   3   4
ATOM      4  C   UNL     1     122.490 177.471 125.904  1.00  0.00     0.053 C 
BRANCH   4   5
ATOM      5  C   UNL     1     121.914 178.148 127.109  1.00  0.00     0.041 C 
ATOM      6  O   UNL     1     122.218 179.342 127.370  1.00  0.00    -0.550 OA
ATOM      7  O   UNL     1     121.003 177.477 127.915  1.00  0.00    -0.550 OA
ENDBRANCH   4   5
ENDBRANCH   3   4
ENDBRANCH   2   3
ENDBRANCH   1   2
BRANCH   1   8
ATOM      8  C   UNL     1     118.962 178.490 124.410  1.00  0.00     0.000 C 
BRANCH   8   9
ATOM      9  C   UNL     1     118.753 179.335 125.678  1.00  0.00     0.000 C 
BRANCH   9  10
ATOM     10  C   UNL     1     117.714 178.721 126.632  1.00  0.00     0.006 C 
BRANCH  10  11
ATOM     11  C   UNL     1     116.295 179.252 126.382  1.00  0.00     0.053 C 
BRANCH  11  12
ATOM     12  C   UNL     1     115.368 178.125 126.052  1.00  0.00     0.041 C 
ATOM     13  O   UNL     1     115.717 177.237 125.230  1.00  0.00    -0.550 OA
ATOM     14  O   UNL     1     114.099 178.083 126.613  1.00  0.00    -0.550 OA
ENDBRANCH  11  12
ENDBRANCH  10  11
ENDBRANCH   9  10
ENDBRANCH   8   9
ENDBRANCH   1   8
TORSDOF 9
ENDMDL
MODEL 3
REMARK VINA RESULT:    -4.296      9.532     10.913
REMARK INTER + INTRA:          -7.565
REMARK INTER:                  -6.870
REMARK INTRA:                  -0.695
REMARK UNBOUND:                -1.009
REMARK SMILES O=C([O-])CCCCCCCCC(=O)[O-]
REMARK SMILES IDX 7 1 6 2 5 3 4 4 2 5 1 6 3 7 8 8 9 9 10 10 11 11 12 12 13 13
REMARK SMILES IDX 14 14
REMARK H PARENT
REMARK Flexibility Score: inf
ROOT
ATOM      1  C   UNL     1     120.502 177.454 126.288  1.00  0.00     0.000 C 
ENDROOT
BRANCH   1   2
ATOM      2  C   UNL     1     121.460 178.432 126.992  1.00  0.00     0.000 C 
BRANCH   2   3
ATOM      3  C   UNL     1     121.564 178.172 128.503  1.00  0.00     0.006 C 
BRANCH   3   4
ATOM      4  C   UNL     1     120.306 177.508 129.078  1.00  0.00     0.053 C 
BRANCH   4   5
ATOM      5  C   UNL     1     120.677 176.328 129.920  1.00  0.00     0.041 C 
ATOM      6  O   UNL     1     120.237 175.184 129.634  1.00  0.00    -0.550 OA
ATOM      7  O   UNL     1     121.549 176.484 130.990  1.00  0.00    -0.550 OA
ENDBRANCH   4   5
ENDBRANCH   3   4
ENDBRANCH   2   3
ENDBRANCH   1   2
BRANCH   1   8
ATOM      8  C   UNL     1     119.572 178.157 125.286  1.00  0.00     0.000 C 
BRANCH   8   9
ATOM      9  C   UNL     1     118.808 179.335 125.915  1.00  0.00     0.000 C 
BRANCH   9  10
ATOM     10  C   UNL     1     117.656 178.874 126.824  1.00  0.00     0.006 C 
BRANCH  10  11
ATOM     11  C   UNL     1     116.297 179.437 126.388  1.00  0.00     0.053 C 
BRANCH  11  12
ATOM     12  C   UNL     1     115.375 178.326 125.995  1.00  0.00     0.041 C 
ATOM     13  O   UNL     1     114.456 177.959 126.774  1.00  0.00    -0.550 OA
ATOM     14  O   UNL     1     115.561 177.662 124.789  1.00  0.00    -0.550 OA
ENDBRANCH  11  12
ENDBRANCH  10  11
ENDBRANCH   9  10
ENDBRANCH   8   9
ENDBRANCH   1   8
TORSDOF 9
ENDMDL
MODEL 4
REMARK VINA RESULT:    -4.290      9.075     11.017
REMARK INTER + INTRA:          -7.556
REMARK INTER:                  -6.513
REMARK INTRA:                  -1.042
REMARK UNBOUND:                -1.009
REMARK SMILES O=C([O-])CCCCCCCCC(=O)[O-]
REMARK SMILES IDX 7 1 6 2 5 3 4 4 2 5 1 6 3 7 8 8 9 9 10 10 11 11 12 12 13 13
REMARK SMILES IDX 14 14
REMARK H PARENT
REMARK Flexibility Score: inf
ROOT
ATOM      1  C   UNL     1     117.832 175.852 127.984  1.00  0.00     0.000 C 
ENDROOT
BRANCH   1   2
ATOM      2  C   UNL     1     117.487 175.700 126.491  1.00  0.00     0.000 C 
BRANCH   2   3
ATOM      3  C   UNL     1     116.005 175.982 126.196  1.00  0.00     0.006 C 
BRANCH   3   4
ATOM      4  C   UNL     1     115.506 177.275 126.853  1.00  0.00     0.053 C 
BRANCH   4   5
ATOM      5  C   UNL     1     115.292 178.336 125.819  1.00  0.00     0.041 C 
ATOM      6  O   UNL     1     115.531 179.541 126.091  1.00  0.00    -0.550 OA
ATOM      7  O   UNL     1     114.876 177.987 124.541  1.00  0.00    -0.550 OA
ENDBRANCH   4   5
ENDBRANCH   3   4
ENDBRANCH   2   3
ENDBRANCH   1   2
BRANCH   1   8
ATOM      8  C   UNL     1     119.072 176.730 128.216  1.00  0.00     0.000 C 
BRANCH   8   9
ATOM      9  C   UNL     1     118.841 178.198 127.816  1.00  0.00     0.000 C 
BRANCH   9  10
ATOM     10  C   UNL     1     119.732 178.637 126.642  1.00  0.00     0.006 C 
BRANCH  10  11
ATOM     11  C   UNL     1     118.922 179.140 125.439  1.00  0.00     0.053 C 
BRANCH  11  12
ATOM     12  C   UNL     1     119.063 178.198 124.286  1.00  0.00     0.041 C 
ATOM     13  O   UNL     1     118.064 177.917 123.571  1.00  0.00    -0.550 OA
ATOM     14  O   UNL     1     120.285 177.591 124.029  1.00  0.00    -0.550 OA
ENDBRANCH  11  12
ENDBRANCH  10  11
ENDBRANCH   9  10
ENDBRANCH   8   9
ENDBRANCH   1   8
TORSDOF 9
ENDMDL
MODEL 5
REMARK VINA RESULT:    -4.267     10.199     12.362
REMARK INTER + INTRA:          -7.521
REMARK INTER:                  -6.588
REMARK INTRA:                  -0.933
REMARK UNBOUND:                -1.009
REMARK SMILES O=C([O-])CCCCCCCCC(=O)[O-]
REMARK SMILES IDX 7 1 6 2 5 3 4 4 2 5 1 6 3 7 8 8 9 9 10 10 11 11 12 12 13 13
REMARK SMILES IDX 14 14
REMARK H PARENT
REMARK Flexibility Score: inf
ROOT
ATOM      1  C   UNL     1     117.554 175.039 129.827  1.00  0.00     0.000 C 
ENDROOT
BRANCH   1   2
ATOM      2  C   UNL     1     116.165 175.662 129.597  1.00  0.00     0.000 C 
BRANCH   2   3
ATOM      3  C   UNL     1     116.009 176.252 128.186  1.00  0.00     0.006 C 
BRANCH   3   4
ATOM      4  C   UNL     1     117.035 175.692 127.193  1.00  0.00     0.053 C 
BRANCH   4   5
ATOM      5  C   UNL     1     117.007 176.475 125.917  1.00  0.00     0.041 C 
ATOM      6  O   UNL     1     118.066 176.654 125.261  1.00  0.00    -0.550 OA
ATOM      7  O   UNL     1     115.802 176.965 125.429  1.00  0.00    -0.550 OA
ENDBRANCH   4   5
ENDBRANCH   3   4
ENDBRANCH   2   3
ENDBRANCH   1   2
BRANCH   1   8
ATOM      8  C   UNL     1     118.261 175.614 131.065  1.00  0.00     0.000 C 
BRANCH   8   9
ATOM      9  C   UNL     1     119.614 176.263 130.725  1.00  0.00     0.000 C 
BRANCH   9  10
ATOM     10  C   UNL     1     119.472 177.733 130.297  1.00  0.00     0.006 C 
BRANCH  10  11
ATOM     11  C   UNL     1     119.433 177.905 128.773  1.00  0.00     0.053 C 
BRANCH  11  12
ATOM     12  C   UNL     1     120.701 177.403 128.159  1.00  0.00     0.041 C 
ATOM     13  O   UNL     1     120.675 176.432 127.356  1.00  0.00    -0.550 OA
ATOM     14  O   UNL     1     121.917 177.972 128.511  1.00  0.00    -0.550 OA
ENDBRANCH  11  12
ENDBRANCH  10  11
ENDBRANCH   9  10
ENDBRANCH   8   9
ENDBRANCH   1   8
TORSDOF 9
ENDMDL
MODEL 6
REMARK VINA RESULT:    -4.252      8.229     10.442
REMARK INTER + INTRA:          -7.498
REMARK INTER:                  -6.462
REMARK INTRA:                  -1.035
REMARK UNBOUND:                -1.009
REMARK SMILES O=C([O-])CCCCCCCCC(=O)[O-]
REMARK SMILES IDX 7 1 6 2 5 3 4 4 2 5 1 6 3 7 8 8 9 9 10 10 11 11 12 12 13 13
REMARK SMILES IDX 14 14
REMARK H PARENT
REMARK Flexibility Score: inf
ROOT
ATOM      1  C   UNL     1     121.391 178.560 127.102  1.00  0.00     0.000 C 
ENDROOT
BRANCH   1   2
ATOM      2  C   UNL     1     121.851 177.556 126.029  1.00  0.00     0.000 C 
BRANCH   2   3
ATOM      3  C   UNL     1     120.753 177.249 124.998  1.00  0.00     0.006 C 
BRANCH   3   4
ATOM      4  C   UNL     1     119.512 178.135 125.172  1.00  0.00     0.053 C 
BRANCH   4   5
ATOM      5  C   UNL     1     118.757 178.232 123.884  1.00  0.00     0.041 C 
ATOM      6  O   UNL     1     117.554 177.866 123.827  1.00  0.00    -0.550 OA
ATOM      7  O   UNL     1     119.367 178.773 122.760  1.00  0.00    -0.550 OA
ENDBRANCH   4   5
ENDBRANCH   3   4
ENDBRANCH   2   3
ENDBRANCH   1   2
BRANCH   1   8
ATOM      8  C   UNL     1     121.984 178.256 128.487  1.00  0.00     0.000 C 
BRANCH   8   9
ATOM      9  C   UNL     1     120.908 177.891 129.524  1.00  0.00     0.000 C 
BRANCH   9  10
ATOM     10  C   UNL     1     119.493 177.868 128.923  1.00  0.00     0.006 C 
BRANCH  10  11
ATOM     11  C   UNL     1     118.780 176.526 129.138  1.00  0.00     0.053 C 
BRANCH  11  12
ATOM     12  C   UNL     1     118.903 175.669 127.919  1.00  0.00     0.041 C 
ATOM     13  O   UNL     1     119.972 175.044 127.689  1.00  0.00    -0.550 OA
ATOM     14  O   UNL     1     117.857 175.600 127.008  1.00  0.00    -0.550 OA
ENDBRANCH  11  12
ENDBRANCH  10  11
ENDBRANCH   9  10
ENDBRANCH   8   9
ENDBRANCH   1   8
TORSDOF 9
ENDMDL
MODEL 7
REMARK VINA RESULT:    -4.249      9.504     11.852
REMARK INTER + INTRA:          -7.493
REMARK INTER:                  -6.629
REMARK INTRA:                  -0.865
REMARK UNBOUND:                -1.009
REMARK SMILES O=C([O-])CCCCCCCCC(=O)[O-]
REMARK SMILES IDX 7 1 6 2 5 3 4 4 2 5 1 6 3 7 8 8 9 9 10 10 11 11 12 12 13 13
REMARK SMILES IDX 14 14
REMARK H PARENT
REMARK Flexibility Score: inf
ROOT
ATOM      1  C   UNL     1     119.123 177.862 125.479  1.00  0.00     0.000 C 
ENDROOT
BRANCH   1   2
ATOM      2  C   UNL     1     118.522 179.232 125.841  1.00  0.00     0.000 C 
BRANCH   2   3
ATOM      3  C   UNL     1     117.335 179.117 126.811  1.00  0.00     0.006 C 
BRANCH   3   4
ATOM      4  C   UNL     1     116.043 179.719 126.241  1.00  0.00     0.053 C 
BRANCH   4   5
ATOM      5  C   UNL     1     115.122 178.633 125.780  1.00  0.00     0.041 C 
ATOM      6  O   UNL     1     115.097 178.297 124.567  1.00  0.00    -0.550 OA
ATOM      7  O   UNL     1     114.327 177.959 126.698  1.00  0.00    -0.550 OA
ENDBRANCH   4   5
ENDBRANCH   3   4
ENDBRANCH   2   3
ENDBRANCH   1   2
BRANCH   1   8
ATOM      8  C   UNL     1     120.632 177.786 125.764  1.00  0.00     0.000 C 
BRANCH   8   9
ATOM      9  C   UNL     1     121.047 178.634 126.978  1.00  0.00     0.000 C 
BRANCH   9  10
ATOM     10  C   UNL     1     121.229 177.792 128.252  1.00  0.00     0.006 C 
BRANCH  10  11
ATOM     11  C   UNL     1     119.983 177.796 129.147  1.00  0.00     0.053 C 
BRANCH  11  12
ATOM     12  C   UNL     1     119.219 176.520 128.983  1.00  0.00     0.041 C 
ATOM     13  O   UNL     1     117.990 176.477 129.259  1.00  0.00    -0.550 OA
ATOM     14  O   UNL     1     119.873 175.366 128.574  1.00  0.00    -0.550 OA
ENDBRANCH  11  12
ENDBRANCH  10  11
ENDBRANCH   9  10
ENDBRANCH   8   9
ENDBRANCH   1   8
TORSDOF 9
ENDMDL
MODEL 8
REMARK VINA RESULT:    -4.185      8.798     10.134
REMARK INTER + INTRA:          -7.395
REMARK INTER:                  -6.708
REMARK INTRA:                  -0.688
REMARK UNBOUND:                -1.009
REMARK SMILES O=C([O-])CCCCCCCCC(=O)[O-]
REMARK SMILES IDX 7 1 6 2 5 3 4 4 2 5 1 6 3 7 8 8 9 9 10 10 11 11 12 12 13 13
REMARK SMILES IDX 14 14
REMARK H PARENT
REMARK Flexibility Score: inf
ROOT
ATOM      1  C   UNL     1     120.375 177.077 128.907  1.00  0.00     0.000 C 
ENDROOT
BRANCH   1   2
ATOM      2  C   UNL     1     121.623 177.961 128.735  1.00  0.00     0.000 C 
BRANCH   2   3
ATOM      3  C   UNL     1     121.691 178.625 127.351  1.00  0.00     0.006 C 
BRANCH   3   4
ATOM      4  C   UNL     1     122.444 177.773 126.321  1.00  0.00     0.053 C 
BRANCH   4   5
ATOM      5  C   UNL     1     121.485 176.933 125.538  1.00  0.00     0.041 C 
ATOM      6  O   UNL     1     121.419 175.692 125.740  1.00  0.00    -0.550 OA
ATOM      7  O   UNL     1     120.629 177.528 124.620  1.00  0.00    -0.550 OA
ENDBRANCH   4   5
ENDBRANCH   3   4
ENDBRANCH   2   3
ENDBRANCH   1   2
BRANCH   1   8
ATOM      8  C   UNL     1     119.078 177.898 128.999  1.00  0.00     0.000 C 
BRANCH   8   9
ATOM      9  C   UNL     1     118.098 177.585 127.855  1.00  0.00     0.000 C 
BRANCH   9  10
ATOM     10  C   UNL     1     118.081 178.680 126.775  1.00  0.00     0.006 C 
BRANCH  10  11
ATOM     11  C   UNL     1     116.686 179.281 126.563  1.00  0.00     0.053 C 
BRANCH  11  12
ATOM     12  C   UNL     1     115.791 178.294 125.883  1.00  0.00     0.041 C 
ATOM     13  O   UNL     1     116.140 177.767 124.794  1.00  0.00    -0.550 OA
ATOM     14  O   UNL     1     114.548 177.994 126.426  1.00  0.00    -0.550 OA
ENDBRANCH  11  12
ENDBRANCH  10  11
ENDBRANCH   9  10
ENDBRANCH   8   9
ENDBRANCH   1   8
TORSDOF 9
ENDMDL
MODEL 9
REMARK VINA RESULT:    -4.166      8.662     10.936
REMARK INTER + INTRA:          -7.367
REMARK INTER:                  -6.323
REMARK INTRA:                  -1.045
REMARK UNBOUND:                -1.009
REMARK SMILES O=C([O-])CCCCCCCCC(=O)[O-]
REMARK SMILES IDX 7 1 6 2 5 3 4 4 2 5 1 6 3 7 8 8 9 9 10 10 11 11 12 12 13 13
REMARK SMILES IDX 14 14
REMARK H PARENT
REMARK Flexibility Score: inf
ROOT
ATOM      1  C   UNL     1     121.331 176.682 125.504  1.00  0.00     0.000 C 
ENDROOT
BRANCH   1   2
ATOM      2  C   UNL     1     120.538 177.498 124.467  1.00  0.00     0.000 C 
BRANCH   2   3
ATOM      3  C   UNL     1     119.035 177.554 124.783  1.00  0.00     0.006 C 
BRANCH   3   4
ATOM      4  C   UNL     1     118.619 178.868 125.456  1.00  0.00     0.053 C 
BRANCH   4   5
ATOM      5  C   UNL     1     117.165 178.835 125.811  1.00  0.00     0.041 C 
ATOM      6  O   UNL     1     116.363 178.148 125.127  1.00  0.00    -0.550 OA
ATOM      7  O   UNL     1     116.706 179.524 126.926  1.00  0.00    -0.550 OA
ENDBRANCH   4   5
ENDBRANCH   3   4
ENDBRANCH   2   3
ENDBRANCH   1   2
BRANCH   1   8
ATOM      8  C   UNL     1     122.407 177.518 126.216  1.00  0.00     0.000 C 
BRANCH   8   9
ATOM      9  C   UNL     1     121.808 178.535 127.203  1.00  0.00     0.000 C 
BRANCH   9  10
ATOM     10  C   UNL     1     121.464 177.905 128.563  1.00  0.00     0.006 C 
BRANCH  10  11
ATOM     11  C   UNL     1     119.956 177.899 128.848  1.00  0.00     0.053 C 
BRANCH  11  12
ATOM     12  C   UNL     1     119.383 176.541 128.591  1.00  0.00     0.041 C 
ATOM     13  O   UNL     1     118.219 176.422 128.125  1.00  0.00    -0.550 OA
ATOM     14  O   UNL     1     120.115 175.405 128.912  1.00  0.00    -0.550 OA
ENDBRANCH  11  12
ENDBRANCH  10  11
ENDBRANCH   9  10
ENDBRANCH   8   9
ENDBRANCH   1   8
TORSDOF 9
ENDMDL
