MODEL 1
REMARK VINA RESULT:    -3.661      0.000      0.000
REMARK INTER + INTRA:          -5.042
REMARK INTER:                  -4.410
REMARK INTRA:                  -0.633
REMARK UNBOUND:                -0.633
REMARK SMILES O=c1ccn([C@@H]2O[C@@H](CO)[C@H](O)[C@H]2O)c(=O)[nH]1
REMARK SMILES IDX 6 1 13 2 11 3 8 4 7 5 5 6 3 7 4 8 2 9 17 10 1 11 15 12 16 14
REMARK SMILES IDX 14 15 12 17 9 19 10 20
REMARK H PARENT 17 13 14 16 12 18 10 21
REMARK Flexibility Score: inf
ROOT
ATOM      1  C   UNL     1     173.895 163.130 163.480  1.00  0.00     0.255 C 
ATOM      2  C   UNL     1     174.732 163.094 162.204  1.00  0.00     0.196 C 
ATOM      3  C   UNL     1     174.329 164.372 161.524  1.00  0.00     0.179 C 
ATOM      4  C   UNL     1     172.890 164.552 162.002  1.00  0.00     0.178 C 
ATOM      5  O   UNL     1     172.743 163.918 163.256  1.00  0.00    -0.347 OA
ENDROOT
BRANCH   1   6
ATOM      6  N   UNL     1     173.515 161.765 163.900  1.00  0.00    -0.271 N 
ATOM      7  C   UNL     1     171.954 159.943 163.837  1.00  0.00     0.090 A 
ATOM      8  C   UNL     1     172.325 161.236 163.479  1.00  0.00     0.099 A 
ATOM      9  C   UNL     1     172.825 159.194 164.620  1.00  0.00     0.253 A 
ATOM     10  N   UNL     1     174.009 159.729 165.014  1.00  0.00    -0.274 N 
ATOM     11  O   UNL     1     172.515 158.020 164.961  1.00  0.00    -0.269 OA
ATOM     12  C   UNL     1     174.364 160.995 164.658  1.00  0.00     0.330 A 
ATOM     13  H   UNL     1     174.662 159.155 165.596  1.00  0.00     0.175 HD
ATOM     14  O   UNL     1     175.482 161.445 165.031  1.00  0.00    -0.248 OA
ENDBRANCH   1   6
BRANCH   2  15
ATOM     15  O   UNL     1     176.105 163.093 162.488  1.00  0.00    -0.386 OA
ATOM     16  H   UNL     1     176.571 162.998 161.616  1.00  0.00     0.211 HD
ENDBRANCH   2  15
BRANCH   3  17
ATOM     17  O   UNL     1     174.380 164.250 160.127  1.00  0.00    -0.387 OA
ATOM     18  H   UNL     1     174.043 165.109 159.759  1.00  0.00     0.211 HD
ENDBRANCH   3  17
BRANCH   4  19
ATOM     19  C   UNL     1     172.496 166.030 162.124  1.00  0.00     0.191 C 
BRANCH  19  20
ATOM     20  O   UNL     1     172.484 166.649 160.865  1.00  0.00    -0.394 OA
ATOM     21  H   UNL     1     172.492 167.628 161.031  1.00  0.00     0.210 HD
ENDBRANCH  19  20
ENDBRANCH   4  19
TORSDOF 5
ENDMDL
MODEL 2
REMARK VINA RESULT:    -3.643      8.832     10.822
REMARK INTER + INTRA:          -5.021
REMARK INTER:                  -4.390
REMARK INTRA:                  -0.631
REMARK UNBOUND:                -0.633
REMARK SMILES O=c1ccn([C@@H]2O[C@@H](CO)[C@H](O)[C@H]2O)c(=O)[nH]1
REMARK SMILES IDX 6 1 13 2 11 3 8 4 7 5 5 6 3 7 4 8 2 9 17 10 1 11 15 12 16 14
REMARK SMILES IDX 14 15 12 17 9 19 10 20
REMARK H PARENT 17 13 14 16 12 18 10 21
REMARK Flexibility Score: inf
ROOT
ATOM      1  C   UNL     1     172.869 162.100 172.522  1.00  0.00     0.255 C 
ATOM      2  C   UNL     1     172.894 161.274 173.805  1.00  0.00     0.196 C 
ATOM      3  C   UNL     1     171.612 161.684 174.472  1.00  0.00     0.179 C 
ATOM      4  C   UNL     1     171.436 163.118 173.980  1.00  0.00     0.178 C 
ATOM      5  O   UNL     1     172.079 163.254 172.730  1.00  0.00    -0.347 OA
ENDROOT
BRANCH   1   6
ATOM      6  N   UNL     1     174.237 162.476 172.109  1.00  0.00    -0.271 N 
ATOM      7  C   UNL     1     176.059 164.036 172.172  1.00  0.00     0.090 A 
ATOM      8  C   UNL     1     174.763 163.669 172.524  1.00  0.00     0.099 A 
ATOM      9  C   UNL     1     176.813 163.159 171.401  1.00  0.00     0.253 A 
ATOM     10  N   UNL     1     176.280 161.972 171.012  1.00  0.00    -0.274 N 
ATOM     11  O   UNL     1     177.989 163.466 171.066  1.00  0.00    -0.269 OA
ATOM     12  C   UNL     1     175.012 161.621 171.362  1.00  0.00     0.330 A 
ATOM     13  H   UNL     1     176.857 161.314 170.439  1.00  0.00     0.175 HD
ATOM     14  O   UNL     1     174.563 160.500 170.995  1.00  0.00    -0.248 OA
ENDBRANCH   1   6
BRANCH   2  15
ATOM     15  O   UNL     1     172.898 159.898 173.534  1.00  0.00    -0.386 OA
ATOM     16  H   UNL     1     173.151 159.802 172.579  1.00  0.00     0.211 HD
ENDBRANCH   2  15
BRANCH   3  17
ATOM     17  O   UNL     1     171.723 161.645 175.870  1.00  0.00    -0.387 OA
ATOM     18  H   UNL     1     171.962 160.711 176.107  1.00  0.00     0.211 HD
ENDBRANCH   3  17
BRANCH   4  19
ATOM     19  C   UNL     1     169.959 163.512 173.844  1.00  0.00     0.191 C 
BRANCH  19  20
ATOM     20  O   UNL     1     169.337 163.561 175.100  1.00  0.00    -0.394 OA
ATOM     21  H   UNL     1     168.359 163.598 174.931  1.00  0.00     0.210 HD
ENDBRANCH  19  20
ENDBRANCH   4  19
TORSDOF 5
ENDMDL
MODEL 3
REMARK VINA RESULT:    -3.643     13.855     15.257
REMARK INTER + INTRA:          -5.021
REMARK INTER:                  -4.382
REMARK INTRA:                  -0.639
REMARK UNBOUND:                -0.633
REMARK SMILES O=c1ccn([C@@H]2O[C@@H](CO)[C@H](O)[C@H]2O)c(=O)[nH]1
REMARK SMILES IDX 6 1 13 2 11 3 8 4 7 5 5 6 3 7 4 8 2 9 17 10 1 11 15 12 16 14
REMARK SMILES IDX 14 15 12 17 9 19 10 20
REMARK H PARENT 17 13 14 16 12 18 10 21
REMARK Flexibility Score: inf
ROOT
ATOM      1  C   UNL     1     162.113 163.136 172.523  1.00  0.00     0.255 C 
ATOM      2  C   UNL     1     161.299 163.113 173.815  1.00  0.00     0.196 C 
ATOM      3  C   UNL     1     161.715 164.397 174.474  1.00  0.00     0.179 C 
ATOM      4  C   UNL     1     163.145 164.572 173.968  1.00  0.00     0.178 C 
ATOM      5  O   UNL     1     163.268 163.926 172.718  1.00  0.00    -0.347 OA
ENDROOT
BRANCH   1   6
ATOM      6  N   UNL     1     162.484 161.767 172.109  1.00  0.00    -0.271 N 
ATOM      7  C   UNL     1     164.041 159.941 172.168  1.00  0.00     0.090 A 
ATOM      8  C   UNL     1     163.678 161.238 172.520  1.00  0.00     0.099 A 
ATOM      9  C   UNL     1     163.159 159.188 171.401  1.00  0.00     0.253 A 
ATOM     10  N   UNL     1     161.971 159.723 171.016  1.00  0.00    -0.274 N 
ATOM     11  O   UNL     1     163.462 158.012 171.065  1.00  0.00    -0.269 OA
ATOM     12  C   UNL     1     161.624 160.993 171.367  1.00  0.00     0.330 A 
ATOM     13  H   UNL     1     161.310 159.147 170.446  1.00  0.00     0.175 HD
ATOM     14  O   UNL     1     160.503 161.444 171.004  1.00  0.00    -0.248 OA
ENDBRANCH   1   6
BRANCH   2  15
ATOM     15  O   UNL     1     159.921 163.109 173.556  1.00  0.00    -0.386 OA
ATOM     16  H   UNL     1     159.742 163.897 172.979  1.00  0.00     0.211 HD
ENDBRANCH   2  15
BRANCH   3  17
ATOM     17  O   UNL     1     161.690 164.289 175.873  1.00  0.00    -0.387 OA
ATOM     18  H   UNL     1     161.909 163.344 176.085  1.00  0.00     0.211 HD
ENDBRANCH   3  17
BRANCH   4  19
ATOM     19  C   UNL     1     163.538 166.048 173.825  1.00  0.00     0.191 C 
BRANCH  19  20
ATOM     20  O   UNL     1     163.547 166.686 175.074  1.00  0.00    -0.394 OA
ATOM     21  H   UNL     1     162.716 167.228 175.122  1.00  0.00     0.210 HD
ENDBRANCH  19  20
ENDBRANCH   4  19
TORSDOF 5
ENDMDL
MODEL 4
REMARK VINA RESULT:    -3.641     10.638     11.768
REMARK INTER + INTRA:          -5.018
REMARK INTER:                  -4.387
REMARK INTRA:                  -0.631
REMARK UNBOUND:                -0.633
REMARK SMILES O=c1ccn([C@@H]2O[C@@H](CO)[C@H](O)[C@H]2O)c(=O)[nH]1
REMARK SMILES IDX 6 1 13 2 11 3 8 4 7 5 5 6 3 7 4 8 2 9 17 10 1 11 15 12 16 14
REMARK SMILES IDX 14 15 12 17 9 19 10 20
REMARK H PARENT 17 13 14 16 12 18 10 21
REMARK Flexibility Score: inf
ROOT
ATOM      1  C   UNL     1     163.110 162.114 163.463  1.00  0.00     0.255 C 
ATOM      2  C   UNL     1     163.088 161.301 162.171  1.00  0.00     0.196 C 
ATOM      3  C   UNL     1     164.370 161.721 161.510  1.00  0.00     0.179 C 
ATOM      4  C   UNL     1     164.542 163.150 162.016  1.00  0.00     0.178 C 
ATOM      5  O   UNL     1     163.897 163.272 163.267  1.00  0.00    -0.347 OA
ENDROOT
BRANCH   1   6
ATOM      6  N   UNL     1     161.741 162.481 163.878  1.00  0.00    -0.271 N 
ATOM      7  C   UNL     1     159.912 164.034 163.824  1.00  0.00     0.090 A 
ATOM      8  C   UNL     1     161.209 163.674 163.470  1.00  0.00     0.099 A 
ATOM      9  C   UNL     1     159.162 163.149 164.590  1.00  0.00     0.253 A 
ATOM     10  N   UNL     1     159.699 161.962 164.972  1.00  0.00    -0.274 N 
ATOM     11  O   UNL     1     157.985 163.449 164.927  1.00  0.00    -0.269 OA
ATOM     12  C   UNL     1     160.969 161.618 164.619  1.00  0.00     0.330 A 
ATOM     13  H   UNL     1     159.125 161.298 165.541  1.00  0.00     0.175 HD
ATOM     14  O   UNL     1     161.423 160.497 164.980  1.00  0.00    -0.248 OA
ENDBRANCH   1   6
BRANCH   2  15
ATOM     15  O   UNL     1     163.088 159.922 162.429  1.00  0.00    -0.386 OA
ATOM     16  H   UNL     1     162.291 159.743 162.993  1.00  0.00     0.211 HD
ENDBRANCH   2  15
BRANCH   3  17
ATOM     17  O   UNL     1     164.260 161.696 160.111  1.00  0.00    -0.387 OA
ATOM     18  H   UNL     1     163.415 161.218 159.905  1.00  0.00     0.211 HD
ENDBRANCH   3  17
BRANCH   4  19
ATOM     19  C   UNL     1     166.017 163.547 162.157  1.00  0.00     0.191 C 
BRANCH  19  20
ATOM     20  O   UNL     1     166.641 163.604 160.903  1.00  0.00    -0.394 OA
ATOM     21  H   UNL     1     166.502 162.718 160.476  1.00  0.00     0.210 HD
ENDBRANCH  19  20
ENDBRANCH   4  19
TORSDOF 5
ENDMDL
MODEL 5
REMARK VINA RESULT:    -3.639     13.412     16.623
REMARK INTER + INTRA:          -5.017
REMARK INTER:                  -4.376
REMARK INTRA:                  -0.640
REMARK UNBOUND:                -0.633
REMARK SMILES O=c1ccn([C@@H]2O[C@@H](CO)[C@H](O)[C@H]2O)c(=O)[nH]1
REMARK SMILES IDX 6 1 13 2 11 3 8 4 7 5 5 6 3 7 4 8 2 9 17 10 1 11 15 12 16 14
REMARK SMILES IDX 14 15 12 17 9 19 10 20
REMARK H PARENT 17 13 14 16 12 18 10 21
REMARK Flexibility Score: inf
ROOT
ATOM      1  C   UNL     1     162.117 172.885 163.470  1.00  0.00     0.255 C 
ATOM      2  C   UNL     1     161.305 172.910 162.178  1.00  0.00     0.196 C 
ATOM      3  C   UNL     1     161.720 171.626 161.518  1.00  0.00     0.179 C 
ATOM      4  C   UNL     1     163.149 171.449 162.024  1.00  0.00     0.178 C 
ATOM      5  O   UNL     1     163.272 172.094 163.275  1.00  0.00    -0.347 OA
ENDROOT
BRANCH   1   6
ATOM      6  N   UNL     1     162.490 174.253 163.886  1.00  0.00    -0.271 N 
ATOM      7  C   UNL     1     164.047 176.078 163.826  1.00  0.00     0.090 A 
ATOM      8  C   UNL     1     163.683 174.783 163.472  1.00  0.00     0.099 A 
ATOM      9  C   UNL     1     163.168 176.830 164.597  1.00  0.00     0.253 A 
ATOM     10  N   UNL     1     161.981 176.295 164.984  1.00  0.00    -0.274 N 
ATOM     11  O   UNL     1     163.472 178.006 164.934  1.00  0.00    -0.269 OA
ATOM     12  C   UNL     1     161.633 175.026 164.632  1.00  0.00     0.330 A 
ATOM     13  H   UNL     1     161.322 176.870 165.557  1.00  0.00     0.175 HD
ATOM     14  O   UNL     1     160.513 174.575 164.998  1.00  0.00    -0.248 OA
ENDBRANCH   1   6
BRANCH   2  15
ATOM     15  O   UNL     1     159.926 172.915 162.436  1.00  0.00    -0.386 OA
ATOM     16  H   UNL     1     159.826 172.943 163.423  1.00  0.00     0.211 HD
ENDBRANCH   2  15
BRANCH   3  17
ATOM     17  O   UNL     1     161.695 171.736 160.119  1.00  0.00    -0.387 OA
ATOM     18  H   UNL     1     160.760 171.961 159.872  1.00  0.00     0.211 HD
ENDBRANCH   3  17
BRANCH   4  19
ATOM     19  C   UNL     1     163.539 169.972 162.166  1.00  0.00     0.191 C 
BRANCH  19  20
ATOM     20  O   UNL     1     163.546 169.335 160.916  1.00  0.00    -0.394 OA
ATOM     21  H   UNL     1     163.012 169.907 160.304  1.00  0.00     0.210 HD
ENDBRANCH  19  20
ENDBRANCH   4  19
TORSDOF 5
ENDMDL
MODEL 6
REMARK VINA RESULT:    -3.639     17.209     19.087
REMARK INTER + INTRA:          -5.016
REMARK INTER:                  -4.384
REMARK INTRA:                  -0.632
REMARK UNBOUND:                -0.633
REMARK SMILES O=c1ccn([C@@H]2O[C@@H](CO)[C@H](O)[C@H]2O)c(=O)[nH]1
REMARK SMILES IDX 6 1 13 2 11 3 8 4 7 5 5 6 3 7 4 8 2 9 17 10 1 11 15 12 16 14
REMARK SMILES IDX 14 15 12 17 9 19 10 20
REMARK H PARENT 17 13 14 16 12 18 10 21
REMARK Flexibility Score: inf
ROOT
ATOM      1  C   UNL     1     163.145 173.900 172.529  1.00  0.00     0.255 C 
ATOM      2  C   UNL     1     163.116 174.709 173.823  1.00  0.00     0.196 C 
ATOM      3  C   UNL     1     164.399 174.294 174.485  1.00  0.00     0.179 C 
ATOM      4  C   UNL     1     164.579 172.867 173.974  1.00  0.00     0.178 C 
ATOM      5  O   UNL     1     163.938 172.746 172.722  1.00  0.00    -0.347 OA
ENDROOT
BRANCH   1   6
ATOM      6  N   UNL     1     161.778 173.527 172.109  1.00  0.00    -0.271 N 
ATOM      7  C   UNL     1     159.956 171.965 172.159  1.00  0.00     0.090 A 
ATOM      8  C   UNL     1     161.251 172.331 172.516  1.00  0.00     0.099 A 
ATOM      9  C   UNL     1     159.204 172.846 171.391  1.00  0.00     0.253 A 
ATOM     10  N   UNL     1     159.738 174.036 171.010  1.00  0.00    -0.274 N 
ATOM     11  O   UNL     1     158.029 172.541 171.050  1.00  0.00    -0.269 OA
ATOM     12  C   UNL     1     161.005 174.386 171.366  1.00  0.00     0.330 A 
ATOM     13  H   UNL     1     159.162 174.697 170.440  1.00  0.00     0.175 HD
ATOM     14  O   UNL     1     161.454 175.509 171.007  1.00  0.00    -0.248 OA
ENDBRANCH   1   6
BRANCH   2  15
ATOM     15  O   UNL     1     163.109 176.089 173.570  1.00  0.00    -0.386 OA
ATOM     16  H   UNL     1     162.310 176.266 173.008  1.00  0.00     0.211 HD
ENDBRANCH   2  15
BRANCH   3  17
ATOM     17  O   UNL     1     164.286 174.314 175.884  1.00  0.00    -0.387 OA
ATOM     18  H   UNL     1     165.144 173.962 176.239  1.00  0.00     0.211 HD
ENDBRANCH   3  17
BRANCH   4  19
ATOM     19  C   UNL     1     166.058 172.479 173.835  1.00  0.00     0.191 C 
BRANCH  19  20
ATOM     20  O   UNL     1     166.678 172.417 175.091  1.00  0.00    -0.394 OA
ATOM     21  H   UNL     1     167.648 172.566 174.935  1.00  0.00     0.210 HD
ENDBRANCH  19  20
ENDBRANCH   4  19
TORSDOF 5
ENDMDL
MODEL 7
REMARK VINA RESULT:    -3.633     13.833     15.775
REMARK INTER + INTRA:          -5.009
REMARK INTER:                  -4.375
REMARK INTRA:                  -0.634
REMARK UNBOUND:                -0.633
REMARK SMILES O=c1ccn([C@@H]2O[C@@H](CO)[C@H](O)[C@H]2O)c(=O)[nH]1
REMARK SMILES IDX 6 1 13 2 11 3 8 4 7 5 5 6 3 7 4 8 2 9 17 10 1 11 15 12 16 14
REMARK SMILES IDX 14 15 12 17 9 19 10 20
REMARK H PARENT 17 13 14 16 12 18 10 21
REMARK Flexibility Score: inf
ROOT
ATOM      1  C   UNL     1     173.894 172.881 172.520  1.00  0.00     0.255 C 
ATOM      2  C   UNL     1     174.712 172.904 173.809  1.00  0.00     0.196 C 
ATOM      3  C   UNL     1     174.298 171.621 174.470  1.00  0.00     0.179 C 
ATOM      4  C   UNL     1     172.867 171.446 173.969  1.00  0.00     0.178 C 
ATOM      5  O   UNL     1     172.739 172.091 172.720  1.00  0.00    -0.347 OA
ENDROOT
BRANCH   1   6
ATOM      6  N   UNL     1     173.522 174.249 172.106  1.00  0.00    -0.271 N 
ATOM      7  C   UNL     1     171.963 176.074 172.165  1.00  0.00     0.090 A 
ATOM      8  C   UNL     1     172.328 174.777 172.517  1.00  0.00     0.099 A 
ATOM      9  C   UNL     1     172.844 176.827 171.398  1.00  0.00     0.253 A 
ATOM     10  N   UNL     1     174.033 176.294 171.014  1.00  0.00    -0.274 N 
ATOM     11  O   UNL     1     172.541 178.004 171.063  1.00  0.00    -0.269 OA
ATOM     12  C   UNL     1     174.381 175.024 171.364  1.00  0.00     0.330 A 
ATOM     13  H   UNL     1     174.693 176.870 170.444  1.00  0.00     0.175 HD
ATOM     14  O   UNL     1     175.503 174.575 171.001  1.00  0.00    -0.248 OA
ENDBRANCH   1   6
BRANCH   2  15
ATOM     15  O   UNL     1     176.090 172.908 173.546  1.00  0.00    -0.386 OA
ATOM     16  H   UNL     1     176.326 173.841 173.302  1.00  0.00     0.211 HD
ENDBRANCH   2  15
BRANCH   3  17
ATOM     17  O   UNL     1     174.328 171.730 175.869  1.00  0.00    -0.387 OA
ATOM     18  H   UNL     1     173.382 171.784 176.167  1.00  0.00     0.211 HD
ENDBRANCH   3  17
BRANCH   4  19
ATOM     19  C   UNL     1     172.473 169.970 173.829  1.00  0.00     0.191 C 
BRANCH  19  20
ATOM     20  O   UNL     1     172.449 169.338 175.081  1.00  0.00    -0.394 OA
ATOM     21  H   UNL     1     173.094 168.585 175.031  1.00  0.00     0.210 HD
ENDBRANCH  19  20
ENDBRANCH   4  19
TORSDOF 5
ENDMDL
MODEL 8
REMARK VINA RESULT:    -3.575     10.640     11.766
REMARK INTER + INTRA:          -4.940
REMARK INTER:                  -4.311
REMARK INTRA:                  -0.628
REMARK UNBOUND:                -0.633
REMARK SMILES O=c1ccn([C@@H]2O[C@@H](CO)[C@H](O)[C@H]2O)c(=O)[nH]1
REMARK SMILES IDX 6 1 13 2 11 3 8 4 7 5 5 6 3 7 4 8 2 9 17 10 1 11 15 12 16 14
REMARK SMILES IDX 14 15 12 17 9 19 10 20
REMARK H PARENT 17 13 14 16 12 18 10 21
REMARK Flexibility Score: inf
ROOT
ATOM      1  C   UNL     1     172.855 173.897 163.480  1.00  0.00     0.255 C 
ATOM      2  C   UNL     1     172.879 174.710 162.188  1.00  0.00     0.196 C 
ATOM      3  C   UNL     1     171.602 174.286 161.522  1.00  0.00     0.179 C 
ATOM      4  C   UNL     1     171.433 172.856 162.028  1.00  0.00     0.178 C 
ATOM      5  O   UNL     1     172.073 172.736 163.281  1.00  0.00    -0.347 OA
ENDROOT
BRANCH   1   6
ATOM      6  N   UNL     1     174.224 173.534 163.901  1.00  0.00    -0.271 N 
ATOM      7  C   UNL     1     176.054 171.982 163.863  1.00  0.00     0.090 A 
ATOM      8  C   UNL     1     174.758 172.338 163.504  1.00  0.00     0.099 A 
ATOM      9  C   UNL     1     176.803 172.874 164.622  1.00  0.00     0.253 A 
ATOM     10  N   UNL     1     176.263 174.065 164.993  1.00  0.00    -0.274 N 
ATOM     11  O   UNL     1     177.980 172.579 164.964  1.00  0.00    -0.269 OA
ATOM     12  C   UNL     1     174.994 174.404 164.636  1.00  0.00     0.330 A 
ATOM     13  H   UNL     1     176.836 174.733 165.558  1.00  0.00     0.175 HD
ATOM     14  O   UNL     1     174.539 175.528 164.986  1.00  0.00    -0.248 OA
ENDBRANCH   1   6
BRANCH   2  15
ATOM     15  O   UNL     1     172.873 176.089 162.447  1.00  0.00    -0.386 OA
ATOM     16  H   UNL     1     173.813 176.396 162.351  1.00  0.00     0.211 HD
ENDBRANCH   2  15
BRANCH   3  17
ATOM     17  O   UNL     1     171.717 174.312 160.124  1.00  0.00    -0.387 OA
ATOM     18  H   UNL     1     170.805 174.155 159.765  1.00  0.00     0.211 HD
ENDBRANCH   3  17
BRANCH   4  19
ATOM     19  C   UNL     1     169.958 172.454 162.163  1.00  0.00     0.191 C 
BRANCH  19  20
ATOM     20  O   UNL     1     169.339 172.394 160.906  1.00  0.00    -0.394 OA
ATOM     21  H   UNL     1     169.709 173.145 160.372  1.00  0.00     0.210 HD
ENDBRANCH  19  20
ENDBRANCH   4  19
TORSDOF 5
ENDMDL
MODEL 9
REMARK VINA RESULT:    -3.493      1.697      3.078
REMARK INTER + INTRA:          -4.840
REMARK INTER:                  -4.167
REMARK INTRA:                  -0.673
REMARK UNBOUND:                -0.633
REMARK SMILES O=c1ccn([C@@H]2O[C@@H](CO)[C@H](O)[C@H]2O)c(=O)[nH]1
REMARK SMILES IDX 6 1 13 2 11 3 8 4 7 5 5 6 3 7 4 8 2 9 17 10 1 11 15 12 16 14
REMARK SMILES IDX 14 15 12 17 9 19 10 20
REMARK H PARENT 17 13 14 16 12 18 10 21
REMARK Flexibility Score: inf
ROOT
ATOM      1  C   UNL     1     173.634 161.379 163.455  1.00  0.00     0.255 C 
ATOM      2  C   UNL     1     172.569 162.418 163.795  1.00  0.00     0.196 C 
ATOM      3  C   UNL     1     172.978 163.584 162.940  1.00  0.00     0.179 C 
ATOM      4  C   UNL     1     174.493 163.410 162.862  1.00  0.00     0.178 C 
ATOM      5  O   UNL     1     174.804 162.042 163.020  1.00  0.00    -0.347 OA
ENDROOT
BRANCH   1   6
ATOM      6  N   UNL     1     173.927 160.523 164.623  1.00  0.00    -0.271 N 
ATOM      7  C   UNL     1     175.138 160.153 166.662  1.00  0.00     0.090 A 
ATOM      8  C   UNL     1     174.861 160.927 165.539  1.00  0.00     0.099 A 
ATOM      9  C   UNL     1     174.435 158.968 166.843  1.00  0.00     0.253 A 
ATOM     10  N   UNL     1     173.499 158.591 165.934  1.00  0.00    -0.274 N 
ATOM     11  O   UNL     1     174.665 158.246 167.851  1.00  0.00    -0.269 OA
ATOM     12  C   UNL     1     173.234 159.355 164.838  1.00  0.00     0.330 A 
ATOM     13  H   UNL     1     172.969 157.702 166.082  1.00  0.00     0.175 HD
ATOM     14  O   UNL     1     172.344 158.977 164.028  1.00  0.00    -0.248 OA
ENDBRANCH   1   6
BRANCH   2  15
ATOM     15  O   UNL     1     171.285 161.973 163.448  1.00  0.00    -0.386 OA
ATOM     16  H   UNL     1     170.997 162.523 162.673  1.00  0.00     0.211 HD
ENDBRANCH   2  15
BRANCH   3  17
ATOM     17  O   UNL     1     172.645 164.806 163.543  1.00  0.00    -0.387 OA
ATOM     18  H   UNL     1     171.659 164.805 163.652  1.00  0.00     0.211 HD
ENDBRANCH   3  17
BRANCH   4  19
ATOM     19  C   UNL     1     175.072 163.920 161.535  1.00  0.00     0.191 C 
BRANCH  19  20
ATOM     20  O   UNL     1     174.144 164.730 160.864  1.00  0.00    -0.394 OA
ATOM     21  H   UNL     1     173.786 164.188 160.113  1.00  0.00     0.210 HD
ENDBRANCH  19  20
ENDBRANCH   4  19
TORSDOF 5
ENDMDL
