MODEL 1
REMARK VINA RESULT:     5.957      0.000      0.000
REMARK INTER + INTRA:          10.065
REMARK INTER:                  10.485
REMARK INTRA:                  -0.420
REMARK UNBOUND:                -0.420
REMARK SMILES CCCCCCC=CCCCCCCCC(=O)[O-]
REMARK SMILES IDX 10 1 11 2 12 3 13 4 14 5 15 6 16 7 17 8 18 9 9 10 8 11 7 12
REMARK SMILES IDX 6 13 5 14 4 15 3 16 2 17 1 18
REMARK H PARENT
REMARK Flexibility Score: inf
ROOT
ATOM      1  C   UNL     1     -19.099  17.490  16.719  1.00  0.00     0.004 C 
ENDROOT
BRANCH   1   2
ATOM      2  C   UNL     1     -18.613  16.335  17.610  1.00  0.00     0.000 C 
BRANCH   2   3
ATOM      3  C   UNL     1     -19.118  16.504  19.050  1.00  0.00     0.000 C 
BRANCH   3   4
ATOM      4  C   UNL     1     -19.125  17.971  19.508  1.00  0.00     0.000 C 
BRANCH   4   5
ATOM      5  C   UNL     1     -18.648  18.140  20.958  1.00  0.00     0.006 C 
BRANCH   5   6
ATOM      6  C   UNL     1     -19.090  19.492  21.526  1.00  0.00     0.053 C 
BRANCH   6   7
ATOM      7  C   UNL     1     -17.920  20.227  22.102  1.00  0.00     0.041 C 
ATOM      8  O   UNL     1     -16.977  19.590  22.642  1.00  0.00    -0.550 OA
ATOM      9  O   UNL     1     -17.848  21.610  21.999  1.00  0.00    -0.550 OA
ENDBRANCH   6   7
ENDBRANCH   5   6
ENDBRANCH   4   5
ENDBRANCH   3   4
ENDBRANCH   2   3
ENDBRANCH   1   2
BRANCH   1  10
ATOM     10  C   UNL     1     -19.116  17.115  15.230  1.00  0.00     0.027 C 
BRANCH  10  11
ATOM     11  C   UNL     1     -18.222  17.990  14.383  1.00  0.00    -0.031 C 
ATOM     12  C   UNL     1     -18.209  18.024  13.036  1.00  0.00    -0.031 C 
BRANCH  12  13
ATOM     13  C   UNL     1     -19.059  17.164  12.130  1.00  0.00     0.027 C 
BRANCH  13  14
ATOM     14  C   UNL     1     -19.125  17.727  10.699  1.00  0.00     0.004 C 
BRANCH  14  15
ATOM     15  C   UNL     1     -17.976  17.281   9.775  1.00  0.00     0.000 C 
BRANCH  15  16
ATOM     16  C   UNL     1     -16.895  16.472  10.512  1.00  0.00    -0.000 C 
BRANCH  16  17
ATOM     17  C   UNL     1     -16.371  15.293   9.677  1.00  0.00    -0.003 C 
ATOM     18  C   UNL     1     -17.370  14.140   9.587  1.00  0.00     0.004 C 
ENDBRANCH  16  17
ENDBRANCH  15  16
ENDBRANCH  14  15
ENDBRANCH  13  14
ENDBRANCH  12  13
ENDBRANCH  10  11
ENDBRANCH   1  10
TORSDOF 13
ENDMDL
