MODEL 1
REMARK VINA RESULT:    -6.080      0.000      0.000
REMARK INTER + INTRA:         -12.801
REMARK INTER:                 -11.412
REMARK INTRA:                  -1.388
REMARK UNBOUND:                -1.388
REMARK SMILES CCCCCCCCC=CCCCCCCCC(=O)[O-]
REMARK SMILES IDX 10 1 9 2 11 3 12 4 13 5 14 6 15 7 16 8 17 9 18 10 19 11
REMARK SMILES IDX 20 12 8 13 7 14 6 15 5 16 4 17 3 18 2 19 1 20
REMARK H PARENT
REMARK Flexibility Score: inf
ROOT
ATOM      1  C   UNL     1      45.531  46.979  46.320  1.00  0.00    -0.031 C 
ATOM      2  C   UNL     1      46.276  46.985  47.440  1.00  0.00    -0.031 C 
ENDROOT
BRANCH   1   3
ATOM      3  C   UNL     1      44.047  46.705  46.275  1.00  0.00     0.027 C 
BRANCH   3   4
ATOM      4  C   UNL     1      43.586  46.227  44.886  1.00  0.00     0.004 C 
BRANCH   4   5
ATOM      5  C   UNL     1      44.624  45.374  44.131  1.00  0.00     0.000 C 
BRANCH   5   6
ATOM      6  C   UNL     1      44.389  45.358  42.612  1.00  0.00     0.000 C 
BRANCH   6   7
ATOM      7  C   UNL     1      42.896  45.370  42.235  1.00  0.00     0.000 C 
BRANCH   7   8
ATOM      8  C   UNL     1      42.602  45.401  40.724  1.00  0.00     0.006 C 
BRANCH   8   9
ATOM      9  C   UNL     1      43.811  45.003  39.870  1.00  0.00     0.053 C 
BRANCH   9  10
ATOM     10  C   UNL     1      43.365  44.516  38.527  1.00  0.00     0.041 C 
ATOM     11  O   UNL     1      44.155  43.870  37.790  1.00  0.00    -0.550 OA
ATOM     12  O   UNL     1      42.057  44.733  38.109  1.00  0.00    -0.550 OA
ENDBRANCH   9  10
ENDBRANCH   8   9
ENDBRANCH   7   8
ENDBRANCH   6   7
ENDBRANCH   5   6
ENDBRANCH   4   5
ENDBRANCH   3   4
ENDBRANCH   1   3
BRANCH   2  13
ATOM     13  C   UNL     1      45.729  46.814  48.835  1.00  0.00     0.027 C 
BRANCH  13  14
ATOM     14  C   UNL     1      46.373  45.606  49.525  1.00  0.00     0.004 C 
BRANCH  14  15
ATOM     15  C   UNL     1      46.130  44.320  48.721  1.00  0.00     0.000 C 
BRANCH  15  16
ATOM     16  C   UNL     1      47.434  43.629  48.283  1.00  0.00     0.000 C 
BRANCH  16  17
ATOM     17  C   UNL     1      47.252  42.432  47.331  1.00  0.00    -0.000 C 
BRANCH  17  18
ATOM     18  C   UNL     1      46.392  42.769  46.101  1.00  0.00    -0.000 C 
BRANCH  18  19
ATOM     19  C   UNL     1      46.423  41.659  45.040  1.00  0.00    -0.003 C 
ATOM     20  C   UNL     1      47.636  40.739  45.179  1.00  0.00     0.004 C 
ENDBRANCH  18  19
ENDBRANCH  17  18
ENDBRANCH  16  17
ENDBRANCH  15  16
ENDBRANCH  14  15
ENDBRANCH  13  14
ENDBRANCH   2  13
TORSDOF 15
ENDMDL
MODEL 2
REMARK VINA RESULT:    -6.057      2.899      7.010
REMARK INTER + INTRA:         -12.756
REMARK INTER:                 -11.427
REMARK INTRA:                  -1.329
REMARK UNBOUND:                -1.388
REMARK SMILES CCCCCCCCC=CCCCCCCCC(=O)[O-]
REMARK SMILES IDX 10 1 9 2 11 3 12 4 13 5 14 6 15 7 16 8 17 9 18 10 19 11
REMARK SMILES IDX 20 12 8 13 7 14 6 15 5 16 4 17 3 18 2 19 1 20
REMARK H PARENT
REMARK Flexibility Score: inf
ROOT
ATOM      1  C   UNL     1      44.576  47.341  47.570  1.00  0.00    -0.031 C 
ATOM      2  C   UNL     1      44.069  46.867  46.418  1.00  0.00    -0.031 C 
ENDROOT
BRANCH   1   3
ATOM      3  C   UNL     1      45.984  47.098  48.055  1.00  0.00     0.027 C 
BRANCH   3   4
ATOM      4  C   UNL     1      46.021  46.626  49.520  1.00  0.00     0.004 C 
BRANCH   4   5
ATOM      5  C   UNL     1      45.031  45.492  49.847  1.00  0.00     0.000 C 
BRANCH   5   6
ATOM      6  C   UNL     1      45.609  44.096  49.559  1.00  0.00     0.000 C 
BRANCH   6   7
ATOM      7  C   UNL     1      47.108  44.128  49.204  1.00  0.00     0.000 C 
BRANCH   7   8
ATOM      8  C   UNL     1      47.495  43.354  47.931  1.00  0.00     0.006 C 
BRANCH   8   9
ATOM      9  C   UNL     1      46.320  43.161  46.965  1.00  0.00     0.053 C 
BRANCH   9  10
ATOM     10  C   UNL     1      46.589  42.019  46.037  1.00  0.00     0.041 C 
ATOM     11  O   UNL     1      46.250  42.091  44.826  1.00  0.00    -0.550 OA
ATOM     12  O   UNL     1      47.261  40.893  46.496  1.00  0.00    -0.550 OA
ENDBRANCH   9  10
ENDBRANCH   8   9
ENDBRANCH   7   8
ENDBRANCH   6   7
ENDBRANCH   5   6
ENDBRANCH   4   5
ENDBRANCH   3   4
ENDBRANCH   1   3
BRANCH   2  13
ATOM     13  C   UNL     1      44.856  46.100  45.386  1.00  0.00     0.027 C 
BRANCH  13  14
ATOM     14  C   UNL     1      43.999  45.826  44.145  1.00  0.00     0.004 C 
BRANCH  14  15
ATOM     15  C   UNL     1      44.825  45.140  43.047  1.00  0.00     0.000 C 
BRANCH  15  16
ATOM     16  C   UNL     1      44.165  45.220  41.658  1.00  0.00     0.000 C 
BRANCH  16  17
ATOM     17  C   UNL     1      42.642  45.448  41.671  1.00  0.00    -0.000 C 
BRANCH  17  18
ATOM     18  C   UNL     1      42.074  45.775  40.279  1.00  0.00    -0.000 C 
BRANCH  18  19
ATOM     19  C   UNL     1      42.026  44.546  39.359  1.00  0.00    -0.003 C 
ATOM     20  C   UNL     1      43.145  44.542  38.317  1.00  0.00     0.004 C 
ENDBRANCH  18  19
ENDBRANCH  17  18
ENDBRANCH  16  17
ENDBRANCH  15  16
ENDBRANCH  14  15
ENDBRANCH  13  14
ENDBRANCH   2  13
TORSDOF 15
ENDMDL
MODEL 3
REMARK VINA RESULT:    -5.893      3.559      7.264
REMARK INTER + INTRA:         -12.449
REMARK INTER:                 -10.813
REMARK INTRA:                  -1.636
REMARK UNBOUND:                -1.388
REMARK SMILES CCCCCCCCC=CCCCCCCCC(=O)[O-]
REMARK SMILES IDX 10 1 9 2 11 3 12 4 13 5 14 6 15 7 16 8 17 9 18 10 19 11
REMARK SMILES IDX 20 12 8 13 7 14 6 15 5 16 4 17 3 18 2 19 1 20
REMARK H PARENT
REMARK Flexibility Score: inf
ROOT
ATOM      1  C   UNL     1      46.484  47.302  47.006  1.00  0.00    -0.031 C 
ATOM      2  C   UNL     1      46.206  46.779  45.798  1.00  0.00    -0.031 C 
ENDROOT
BRANCH   1   3
ATOM      3  C   UNL     1      45.493  47.428  48.137  1.00  0.00     0.027 C 
BRANCH   3   4
ATOM      4  C   UNL     1      45.999  46.766  49.431  1.00  0.00     0.004 C 
BRANCH   4   5
ATOM      5  C   UNL     1      45.218  45.504  49.846  1.00  0.00     0.000 C 
BRANCH   5   6
ATOM      6  C   UNL     1      46.015  44.209  49.616  1.00  0.00     0.000 C 
BRANCH   6   7
ATOM      7  C   UNL     1      45.958  43.721  48.156  1.00  0.00     0.000 C 
BRANCH   7   8
ATOM      8  C   UNL     1      47.219  42.991  47.660  1.00  0.00     0.006 C 
BRANCH   8   9
ATOM      9  C   UNL     1      48.221  43.925  46.972  1.00  0.00     0.053 C 
BRANCH   9  10
ATOM     10  C   UNL     1      49.393  43.149  46.461  1.00  0.00     0.041 C 
ATOM     11  O   UNL     1      49.230  42.001  45.969  1.00  0.00    -0.550 OA
ATOM     12  O   UNL     1      50.663  43.714  46.480  1.00  0.00    -0.550 OA
ENDBRANCH   9  10
ENDBRANCH   8   9
ENDBRANCH   7   8
ENDBRANCH   6   7
ENDBRANCH   5   6
ENDBRANCH   4   5
ENDBRANCH   3   4
ENDBRANCH   1   3
BRANCH   2  13
ATOM     13  C   UNL     1      44.888  46.152  45.417  1.00  0.00     0.027 C 
BRANCH  13  14
ATOM     14  C   UNL     1      45.108  44.954  44.486  1.00  0.00     0.004 C 
BRANCH  14  15
ATOM     15  C   UNL     1      44.871  45.347  43.021  1.00  0.00     0.000 C 
BRANCH  15  16
ATOM     16  C   UNL     1      43.380  45.377  42.640  1.00  0.00     0.000 C 
BRANCH  16  17
ATOM     17  C   UNL     1      43.091  45.449  41.129  1.00  0.00    -0.000 C 
BRANCH  17  18
ATOM     18  C   UNL     1      41.615  45.187  40.788  1.00  0.00    -0.000 C 
BRANCH  18  19
ATOM     19  C   UNL     1      41.447  44.309  39.538  1.00  0.00    -0.003 C 
ATOM     20  C   UNL     1      42.519  44.572  38.480  1.00  0.00     0.004 C 
ENDBRANCH  18  19
ENDBRANCH  17  18
ENDBRANCH  16  17
ENDBRANCH  15  16
ENDBRANCH  14  15
ENDBRANCH  13  14
ENDBRANCH   2  13
TORSDOF 15
ENDMDL
MODEL 4
REMARK VINA RESULT:    -5.870      3.297      7.380
REMARK INTER + INTRA:         -12.406
REMARK INTER:                 -11.159
REMARK INTRA:                  -1.247
REMARK UNBOUND:                -1.388
REMARK SMILES CCCCCCCCC=CCCCCCCCC(=O)[O-]
REMARK SMILES IDX 10 1 9 2 11 3 12 4 13 5 14 6 15 7 16 8 17 9 18 10 19 11
REMARK SMILES IDX 20 12 8 13 7 14 6 15 5 16 4 17 3 18 2 19 1 20
REMARK H PARENT
REMARK Flexibility Score: inf
ROOT
ATOM      1  C   UNL     1      43.842  47.131  45.998  1.00  0.00    -0.031 C 
ATOM      2  C   UNL     1      43.784  46.265  44.970  1.00  0.00    -0.031 C 
ENDROOT
BRANCH   1   3
ATOM      3  C   UNL     1      45.006  47.261  46.949  1.00  0.00     0.027 C 
BRANCH   3   4
ATOM      4  C   UNL     1      44.744  46.548  48.288  1.00  0.00     0.004 C 
BRANCH   4   5
ATOM      5  C   UNL     1      45.949  46.536  49.248  1.00  0.00     0.000 C 
BRANCH   5   6
ATOM      6  C   UNL     1      46.551  45.133  49.432  1.00  0.00     0.000 C 
BRANCH   6   7
ATOM      7  C   UNL     1      45.987  44.103  48.435  1.00  0.00     0.000 C 
BRANCH   7   8
ATOM      8  C   UNL     1      46.937  43.715  47.287  1.00  0.00     0.006 C 
BRANCH   8   9
ATOM      9  C   UNL     1      46.526  42.418  46.581  1.00  0.00     0.053 C 
BRANCH   9  10
ATOM     10  C   UNL     1      47.670  41.454  46.551  1.00  0.00     0.041 C 
ATOM     11  O   UNL     1      48.740  41.718  47.160  1.00  0.00    -0.550 OA
ATOM     12  O   UNL     1      47.537  40.237  45.892  1.00  0.00    -0.550 OA
ENDBRANCH   9  10
ENDBRANCH   8   9
ENDBRANCH   7   8
ENDBRANCH   6   7
ENDBRANCH   5   6
ENDBRANCH   4   5
ENDBRANCH   3   4
ENDBRANCH   1   3
BRANCH   2  13
ATOM     13  C   UNL     1      44.912  45.357  44.550  1.00  0.00     0.027 C 
BRANCH  13  14
ATOM     14  C   UNL     1      44.790  44.992  43.065  1.00  0.00     0.004 C 
BRANCH  14  15
ATOM     15  C   UNL     1      43.379  45.294  42.540  1.00  0.00     0.000 C 
BRANCH  15  16
ATOM     16  C   UNL     1      43.354  45.618  41.035  1.00  0.00     0.000 C 
BRANCH  16  17
ATOM     17  C   UNL     1      41.962  45.565  40.378  1.00  0.00    -0.000 C 
BRANCH  17  18
ATOM     18  C   UNL     1      42.026  45.342  38.857  1.00  0.00    -0.000 C 
BRANCH  18  19
ATOM     19  C   UNL     1      42.602  43.966  38.488  1.00  0.00    -0.003 C 
ATOM     20  C   UNL     1      44.047  44.041  37.994  1.00  0.00     0.004 C 
ENDBRANCH  18  19
ENDBRANCH  17  18
ENDBRANCH  16  17
ENDBRANCH  15  16
ENDBRANCH  14  15
ENDBRANCH  13  14
ENDBRANCH   2  13
TORSDOF 15
ENDMDL
MODEL 5
REMARK VINA RESULT:    -5.833      1.580      2.319
REMARK INTER + INTRA:         -12.336
REMARK INTER:                 -10.866
REMARK INTRA:                  -1.471
REMARK UNBOUND:                -1.388
REMARK SMILES CCCCCCCCC=CCCCCCCCC(=O)[O-]
REMARK SMILES IDX 10 1 9 2 11 3 12 4 13 5 14 6 15 7 16 8 17 9 18 10 19 11
REMARK SMILES IDX 20 12 8 13 7 14 6 15 5 16 4 17 3 18 2 19 1 20
REMARK H PARENT
REMARK Flexibility Score: inf
ROOT
ATOM      1  C   UNL     1      43.831  45.513  48.389  1.00  0.00    -0.031 C 
ATOM      2  C   UNL     1      44.604  44.833  49.255  1.00  0.00    -0.031 C 
ENDROOT
BRANCH   1   3
ATOM      3  C   UNL     1      44.093  46.926  47.927  1.00  0.00     0.027 C 
BRANCH   3   4
ATOM      4  C   UNL     1      44.788  46.969  46.554  1.00  0.00     0.004 C 
BRANCH   4   5
ATOM      5  C   UNL     1      44.186  46.012  45.508  1.00  0.00     0.000 C 
BRANCH   5   6
ATOM      6  C   UNL     1      45.259  45.255  44.707  1.00  0.00     0.000 C 
BRANCH   6   7
ATOM      7  C   UNL     1      45.050  45.351  43.184  1.00  0.00     0.000 C 
BRANCH   7   8
ATOM      8  C   UNL     1      43.581  45.430  42.728  1.00  0.00     0.006 C 
BRANCH   8   9
ATOM      9  C   UNL     1      43.418  45.314  41.209  1.00  0.00     0.053 C 
BRANCH   9  10
ATOM     10  C   UNL     1      41.979  45.455  40.826  1.00  0.00     0.041 C 
ATOM     11  O   UNL     1      41.084  44.869  41.491  1.00  0.00    -0.550 OA
ATOM     12  O   UNL     1      41.619  46.274  39.762  1.00  0.00    -0.550 OA
ENDBRANCH   9  10
ENDBRANCH   8   9
ENDBRANCH   7   8
ENDBRANCH   6   7
ENDBRANCH   5   6
ENDBRANCH   4   5
ENDBRANCH   3   4
ENDBRANCH   1   3
BRANCH   2  13
ATOM     13  C   UNL     1      45.906  45.341  49.824  1.00  0.00     0.027 C 
BRANCH  13  14
ATOM     14  C   UNL     1      47.026  44.317  49.608  1.00  0.00     0.004 C 
BRANCH  14  15
ATOM     15  C   UNL     1      47.204  44.003  48.116  1.00  0.00     0.000 C 
BRANCH  15  16
ATOM     16  C   UNL     1      48.557  43.341  47.798  1.00  0.00     0.000 C 
BRANCH  16  17
ATOM     17  C   UNL     1      48.652  42.679  46.411  1.00  0.00    -0.000 C 
BRANCH  17  18
ATOM     18  C   UNL     1      48.283  41.185  46.433  1.00  0.00    -0.000 C 
BRANCH  18  19
ATOM     19  C   UNL     1      47.524  40.748  45.171  1.00  0.00    -0.003 C 
ATOM     20  C   UNL     1      46.353  41.671  44.834  1.00  0.00     0.004 C 
ENDBRANCH  18  19
ENDBRANCH  17  18
ENDBRANCH  16  17
ENDBRANCH  15  16
ENDBRANCH  14  15
ENDBRANCH  13  14
ENDBRANCH   2  13
TORSDOF 15
ENDMDL
MODEL 6
REMARK VINA RESULT:    -5.715      1.963      3.928
REMARK INTER + INTRA:         -12.115
REMARK INTER:                 -10.006
REMARK INTRA:                  -2.109
REMARK UNBOUND:                -1.388
REMARK SMILES CCCCCCCCC=CCCCCCCCC(=O)[O-]
REMARK SMILES IDX 10 1 9 2 11 3 12 4 13 5 14 6 15 7 16 8 17 9 18 10 19 11
REMARK SMILES IDX 20 12 8 13 7 14 6 15 5 16 4 17 3 18 2 19 1 20
REMARK H PARENT
REMARK Flexibility Score: inf
ROOT
ATOM      1  C   UNL     1      45.378  44.900  49.273  1.00  0.00    -0.031 C 
ATOM      2  C   UNL     1      45.977  43.816  48.746  1.00  0.00    -0.031 C 
ENDROOT
BRANCH   1   3
ATOM      3  C   UNL     1      46.076  46.200  49.590  1.00  0.00     0.027 C 
BRANCH   3   4
ATOM      4  C   UNL     1      45.930  47.230  48.456  1.00  0.00     0.004 C 
BRANCH   4   5
ATOM      5  C   UNL     1      44.507  47.336  47.874  1.00  0.00     0.000 C 
BRANCH   5   6
ATOM      6  C   UNL     1      44.490  47.318  46.336  1.00  0.00     0.000 C 
BRANCH   6   7
ATOM      7  C   UNL     1      45.649  46.502  45.733  1.00  0.00     0.000 C 
BRANCH   7   8
ATOM      8  C   UNL     1      45.308  45.736  44.441  1.00  0.00     0.006 C 
BRANCH   8   9
ATOM      9  C   UNL     1      43.814  45.771  44.101  1.00  0.00     0.053 C 
BRANCH   9  10
ATOM     10  C   UNL     1      43.590  45.344  42.684  1.00  0.00     0.041 C 
ATOM     11  O   UNL     1      44.564  45.004  41.962  1.00  0.00    -0.550 OA
ATOM     12  O   UNL     1      42.299  45.274  42.175  1.00  0.00    -0.550 OA
ENDBRANCH   9  10
ENDBRANCH   8   9
ENDBRANCH   7   8
ENDBRANCH   6   7
ENDBRANCH   5   6
ENDBRANCH   4   5
ENDBRANCH   3   4
ENDBRANCH   1   3
BRANCH   2  13
ATOM     13  C   UNL     1      47.417  43.763  48.302  1.00  0.00     0.027 C 
BRANCH  13  14
ATOM     14  C   UNL     1      47.509  43.576  46.783  1.00  0.00     0.004 C 
BRANCH  14  15
ATOM     15  C   UNL     1      46.599  42.430  46.316  1.00  0.00     0.000 C 
BRANCH  15  16
ATOM     16  C   UNL     1      47.264  41.047  46.436  1.00  0.00     0.000 C 
BRANCH  16  17
ATOM     17  C   UNL     1      47.915  40.519  45.144  1.00  0.00    -0.000 C 
BRANCH  17  18
ATOM     18  C   UNL     1      49.412  40.207  45.312  1.00  0.00    -0.000 C 
BRANCH  18  19
ATOM     19  C   UNL     1      50.274  41.477  45.375  1.00  0.00    -0.003 C 
ATOM     20  C   UNL     1      50.826  41.750  46.775  1.00  0.00     0.004 C 
ENDBRANCH  18  19
ENDBRANCH  17  18
ENDBRANCH  16  17
ENDBRANCH  15  16
ENDBRANCH  14  15
ENDBRANCH  13  14
ENDBRANCH   2  13
TORSDOF 15
ENDMDL
MODEL 7
REMARK VINA RESULT:    -5.603      2.903      5.134
REMARK INTER + INTRA:         -11.905
REMARK INTER:                  -9.456
REMARK INTRA:                  -2.449
REMARK UNBOUND:                -1.388
REMARK SMILES CCCCCCCCC=CCCCCCCCC(=O)[O-]
REMARK SMILES IDX 10 1 9 2 11 3 12 4 13 5 14 6 15 7 16 8 17 9 18 10 19 11
REMARK SMILES IDX 20 12 8 13 7 14 6 15 5 16 4 17 3 18 2 19 1 20
REMARK H PARENT
REMARK Flexibility Score: inf
ROOT
ATOM      1  C   UNL     1      46.654  43.908  48.575  1.00  0.00    -0.031 C 
ATOM      2  C   UNL     1      47.205  43.471  47.429  1.00  0.00    -0.031 C 
ENDROOT
BRANCH   1   3
ATOM      3  C   UNL     1      45.205  44.298  48.739  1.00  0.00     0.027 C 
BRANCH   3   4
ATOM      4  C   UNL     1      45.035  45.543  49.629  1.00  0.00     0.004 C 
BRANCH   4   5
ATOM      5  C   UNL     1      46.011  46.690  49.309  1.00  0.00     0.000 C 
BRANCH   5   6
ATOM      6  C   UNL     1      45.608  47.483  48.055  1.00  0.00     0.000 C 
BRANCH   6   7
ATOM      7  C   UNL     1      46.599  47.308  46.889  1.00  0.00     0.000 C 
BRANCH   7   8
ATOM      8  C   UNL     1      45.978  46.813  45.570  1.00  0.00     0.006 C 
BRANCH   8   9
ATOM      9  C   UNL     1      44.510  46.398  45.718  1.00  0.00     0.053 C 
BRANCH   9  10
ATOM     10  C   UNL     1      44.016  45.765  44.455  1.00  0.00     0.041 C 
ATOM     11  O   UNL     1      42.794  45.814  44.156  1.00  0.00    -0.550 OA
ATOM     12  O   UNL     1      44.914  45.165  43.581  1.00  0.00    -0.550 OA
ENDBRANCH   9  10
ENDBRANCH   8   9
ENDBRANCH   7   8
ENDBRANCH   6   7
ENDBRANCH   5   6
ENDBRANCH   4   5
ENDBRANCH   3   4
ENDBRANCH   1   3
BRANCH   2  13
ATOM     13  C   UNL     1      46.442  43.210  46.155  1.00  0.00     0.027 C 
BRANCH  13  14
ATOM     14  C   UNL     1      46.470  41.718  45.802  1.00  0.00     0.004 C 
BRANCH  14  15
ATOM     15  C   UNL     1      47.512  40.973  46.649  1.00  0.00     0.000 C 
BRANCH  15  16
ATOM     16  C   UNL     1      48.757  40.560  45.844  1.00  0.00     0.000 C 
BRANCH  16  17
ATOM     17  C   UNL     1      50.008  40.249  46.686  1.00  0.00    -0.000 C 
BRANCH  17  18
ATOM     18  C   UNL     1      51.011  41.414  46.722  1.00  0.00    -0.000 C 
BRANCH  18  19
ATOM     19  C   UNL     1      50.763  42.440  45.605  1.00  0.00    -0.003 C 
ATOM     20  C   UNL     1      50.578  43.862  46.136  1.00  0.00     0.004 C 
ENDBRANCH  18  19
ENDBRANCH  17  18
ENDBRANCH  16  17
ENDBRANCH  15  16
ENDBRANCH  14  15
ENDBRANCH  13  14
ENDBRANCH   2  13
TORSDOF 15
ENDMDL
MODEL 8
REMARK VINA RESULT:    -5.554      9.336     11.940
REMARK INTER + INTRA:         -11.812
REMARK INTER:                  -9.454
REMARK INTRA:                  -2.359
REMARK UNBOUND:                -1.388
REMARK SMILES CCCCCCCCC=CCCCCCCCC(=O)[O-]
REMARK SMILES IDX 10 1 9 2 11 3 12 4 13 5 14 6 15 7 16 8 17 9 18 10 19 11
REMARK SMILES IDX 20 12 8 13 7 14 6 15 5 16 4 17 3 18 2 19 1 20
REMARK H PARENT
REMARK Flexibility Score: inf
ROOT
ATOM      1  C   UNL     1      48.365  47.754  35.249  1.00  0.00    -0.031 C 
ATOM      2  C   UNL     1      48.278  46.417  35.126  1.00  0.00    -0.031 C 
ENDROOT
BRANCH   1   3
ATOM      3  C   UNL     1      49.635  48.552  35.082  1.00  0.00     0.027 C 
BRANCH   3   4
ATOM      4  C   UNL     1      50.487  48.564  36.364  1.00  0.00     0.004 C 
BRANCH   4   5
ATOM      5  C   UNL     1      49.669  48.569  37.670  1.00  0.00     0.000 C 
BRANCH   5   6
ATOM      6  C   UNL     1      50.275  47.664  38.755  1.00  0.00     0.000 C 
BRANCH   6   7
ATOM      7  C   UNL     1      50.394  46.193  38.313  1.00  0.00     0.000 C 
BRANCH   7   8
ATOM      8  C   UNL     1      51.645  45.455  38.823  1.00  0.00     0.006 C 
BRANCH   8   9
ATOM      9  C   UNL     1      52.438  44.774  37.702  1.00  0.00     0.053 C 
BRANCH   9  10
ATOM     10  C   UNL     1      53.023  45.797  36.780  1.00  0.00     0.041 C 
ATOM     11  O   UNL     1      53.679  46.768  37.242  1.00  0.00    -0.550 OA
ATOM     12  O   UNL     1      52.888  45.652  35.404  1.00  0.00    -0.550 OA
ENDBRANCH   9  10
ENDBRANCH   8   9
ENDBRANCH   7   8
ENDBRANCH   6   7
ENDBRANCH   5   6
ENDBRANCH   4   5
ENDBRANCH   3   4
ENDBRANCH   1   3
BRANCH   2  13
ATOM     13  C   UNL     1      49.414  45.518  34.708  1.00  0.00     0.027 C 
BRANCH  13  14
ATOM     14  C   UNL     1      49.389  44.207  35.504  1.00  0.00     0.004 C 
BRANCH  14  15
ATOM     15  C   UNL     1      48.125  43.395  35.184  1.00  0.00     0.000 C 
BRANCH  15  16
ATOM     16  C   UNL     1      48.433  42.046  34.510  1.00  0.00     0.000 C 
BRANCH  16  17
ATOM     17  C   UNL     1      48.039  41.953  33.024  1.00  0.00    -0.000 C 
BRANCH  17  18
ATOM     18  C   UNL     1      48.743  43.004  32.150  1.00  0.00    -0.000 C 
BRANCH  18  19
ATOM     19  C   UNL     1      47.753  43.948  31.451  1.00  0.00    -0.003 C 
ATOM     20  C   UNL     1      46.326  43.810  31.984  1.00  0.00     0.004 C 
ENDBRANCH  18  19
ENDBRANCH  17  18
ENDBRANCH  16  17
ENDBRANCH  15  16
ENDBRANCH  14  15
ENDBRANCH  13  14
ENDBRANCH   2  13
TORSDOF 15
ENDMDL
MODEL 9
REMARK VINA RESULT:    -5.458      4.942      7.332
REMARK INTER + INTRA:         -11.632
REMARK INTER:                  -9.141
REMARK INTRA:                  -2.491
REMARK UNBOUND:                -1.388
REMARK SMILES CCCCCCCCC=CCCCCCCCC(=O)[O-]
REMARK SMILES IDX 10 1 9 2 11 3 12 4 13 5 14 6 15 7 16 8 17 9 18 10 19 11
REMARK SMILES IDX 20 12 8 13 7 14 6 15 5 16 4 17 3 18 2 19 1 20
REMARK H PARENT
REMARK Flexibility Score: inf
ROOT
ATOM      1  C   UNL     1      47.561  43.618  47.876  1.00  0.00    -0.031 C 
ATOM      2  C   UNL     1      46.795  43.928  48.937  1.00  0.00    -0.031 C 
ENDROOT
BRANCH   1   3
ATOM      3  C   UNL     1      47.032  43.268  46.506  1.00  0.00     0.027 C 
BRANCH   3   4
ATOM      4  C   UNL     1      46.625  41.787  46.400  1.00  0.00     0.004 C 
BRANCH   4   5
ATOM      5  C   UNL     1      47.336  41.012  45.275  1.00  0.00     0.000 C 
BRANCH   5   6
ATOM      6  C   UNL     1      48.292  39.931  45.808  1.00  0.00     0.000 C 
BRANCH   6   7
ATOM      7  C   UNL     1      49.559  40.518  46.459  1.00  0.00     0.000 C 
BRANCH   7   8
ATOM      8  C   UNL     1      50.463  41.331  45.514  1.00  0.00     0.006 C 
BRANCH   8   9
ATOM      9  C   UNL     1      50.567  42.809  45.909  1.00  0.00     0.053 C 
BRANCH   9  10
ATOM     10  C   UNL     1      51.535  42.981  47.036  1.00  0.00     0.041 C 
ATOM     11  O   UNL     1      51.119  43.202  48.203  1.00  0.00    -0.550 OA
ATOM     12  O   UNL     1      52.900  42.849  46.806  1.00  0.00    -0.550 OA
ENDBRANCH   9  10
ENDBRANCH   8   9
ENDBRANCH   7   8
ENDBRANCH   6   7
ENDBRANCH   5   6
ENDBRANCH   4   5
ENDBRANCH   3   4
ENDBRANCH   1   3
BRANCH   2  13
ATOM     13  C   UNL     1      45.294  44.069  48.900  1.00  0.00     0.027 C 
BRANCH  13  14
ATOM     14  C   UNL     1      44.858  45.387  49.550  1.00  0.00     0.004 C 
BRANCH  14  15
ATOM     15  C   UNL     1      46.073  46.268  49.876  1.00  0.00     0.000 C 
BRANCH  15  16
ATOM     16  C   UNL     1      46.104  47.575  49.062  1.00  0.00     0.000 C 
BRANCH  16  17
ATOM     17  C   UNL     1      45.554  47.466  47.629  1.00  0.00    -0.000 C 
BRANCH  17  18
ATOM     18  C   UNL     1      46.631  47.083  46.600  1.00  0.00    -0.000 C 
BRANCH  18  19
ATOM     19  C   UNL     1      46.032  46.658  45.251  1.00  0.00    -0.003 C 
ATOM     20  C   UNL     1      44.691  45.937  45.398  1.00  0.00     0.004 C 
ENDBRANCH  18  19
ENDBRANCH  17  18
ENDBRANCH  16  17
ENDBRANCH  15  16
ENDBRANCH  14  15
ENDBRANCH  13  14
ENDBRANCH   2  13
TORSDOF 15
ENDMDL
