MODEL 1
REMARK VINA RESULT:    -5.039      0.000      0.000
REMARK INTER + INTRA:          -7.787
REMARK INTER:                  -7.395
REMARK INTRA:                  -0.391
REMARK UNBOUND:                -0.391
REMARK SMILES O=C([O-])CCCCCCCC(=O)[O-]
REMARK SMILES IDX 7 1 6 2 5 3 4 4 2 5 1 6 3 7 8 8 9 9 10 10 11 11 12 12 13 13
REMARK H PARENT
REMARK Flexibility Score: inf
ROOT
ATOM      1  C   UNL     1      86.637 324.421 192.744  1.00  0.00     0.000 C 
ENDROOT
BRANCH   1   2
ATOM      2  C   UNL     1      85.904 325.513 193.550  1.00  0.00     0.000 C 
BRANCH   2   3
ATOM      3  C   UNL     1      86.817 326.570 194.196  1.00  0.00     0.006 C 
BRANCH   3   4
ATOM      4  C   UNL     1      86.671 326.630 195.722  1.00  0.00     0.053 C 
BRANCH   4   5
ATOM      5  C   UNL     1      87.944 326.214 196.386  1.00  0.00     0.041 C 
ATOM      6  O   UNL     1      88.423 326.903 197.326  1.00  0.00    -0.550 OA
ATOM      7  O   UNL     1      88.579 325.040 196.001  1.00  0.00    -0.550 OA
ENDBRANCH   4   5
ENDBRANCH   3   4
ENDBRANCH   2   3
ENDBRANCH   1   2
BRANCH   1   8
ATOM      8  C   UNL     1      88.148 324.647 192.561  1.00  0.00     0.000 C 
BRANCH   8   9
ATOM      9  C   UNL     1      88.569 324.698 191.085  1.00  0.00     0.006 C 
BRANCH   9  10
ATOM     10  C   UNL     1      88.786 323.286 190.529  1.00  0.00     0.053 C 
BRANCH  10  11
ATOM     11  C   UNL     1      88.889 323.322 189.037  1.00  0.00     0.041 C 
ATOM     12  O   UNL     1      87.923 322.940 188.326  1.00  0.00    -0.550 OA
ATOM     13  O   UNL     1      90.069 323.732 188.431  1.00  0.00    -0.550 OA
ENDBRANCH  10  11
ENDBRANCH   9  10
ENDBRANCH   8   9
ENDBRANCH   1   8
TORSDOF 8
ENDMDL
MODEL 2
REMARK VINA RESULT:    -4.988      0.892      6.766
REMARK INTER + INTRA:          -7.713
REMARK INTER:                  -7.386
REMARK INTRA:                  -0.326
REMARK UNBOUND:                -0.391
REMARK SMILES O=C([O-])CCCCCCCC(=O)[O-]
REMARK SMILES IDX 7 1 6 2 5 3 4 4 2 5 1 6 3 7 8 8 9 9 10 10 11 11 12 12 13 13
REMARK H PARENT
REMARK Flexibility Score: inf
ROOT
ATOM      1  C   UNL     1      88.066 326.077 193.552  1.00  0.00     0.000 C 
ENDROOT
BRANCH   1   2
ATOM      2  C   UNL     1      88.173 324.700 192.866  1.00  0.00     0.000 C 
BRANCH   2   3
ATOM      3  C   UNL     1      88.410 324.746 191.346  1.00  0.00     0.006 C 
BRANCH   3   4
ATOM      4  C   UNL     1      88.624 323.355 190.735  1.00  0.00     0.053 C 
BRANCH   4   5
ATOM      5  C   UNL     1      88.737 323.451 189.247  1.00  0.00     0.041 C 
ATOM      6  O   UNL     1      89.707 324.060 188.723  1.00  0.00    -0.550 OA
ATOM      7  O   UNL     1      87.799 322.825 188.436  1.00  0.00    -0.550 OA
ENDBRANCH   4   5
ENDBRANCH   3   4
ENDBRANCH   2   3
ENDBRANCH   1   2
BRANCH   1   8
ATOM      8  C   UNL     1      86.727 326.354 194.258  1.00  0.00     0.000 C 
BRANCH   8   9
ATOM      9  C   UNL     1      86.864 326.434 195.786  1.00  0.00     0.006 C 
BRANCH   9  10
ATOM     10  C   UNL     1      88.337 326.427 196.206  1.00  0.00     0.053 C 
BRANCH  10  11
ATOM     11  C   UNL     1      88.614 325.283 197.128  1.00  0.00     0.041 C 
ATOM     12  O   UNL     1      88.455 324.099 196.734  1.00  0.00    -0.550 OA
ATOM     13  O   UNL     1      89.001 325.525 198.440  1.00  0.00    -0.550 OA
ENDBRANCH  10  11
ENDBRANCH   9  10
ENDBRANCH   8   9
ENDBRANCH   1   8
TORSDOF 8
ENDMDL
MODEL 3
REMARK VINA RESULT:    -4.978      1.055      1.833
REMARK INTER + INTRA:          -7.697
REMARK INTER:                  -7.352
REMARK INTRA:                  -0.345
REMARK UNBOUND:                -0.391
REMARK SMILES O=C([O-])CCCCCCCC(=O)[O-]
REMARK SMILES IDX 7 1 6 2 5 3 4 4 2 5 1 6 3 7 8 8 9 9 10 10 11 11 12 12 13 13
REMARK H PARENT
REMARK Flexibility Score: inf
ROOT
ATOM      1  C   UNL     1      88.109 326.251 193.432  1.00  0.00     0.000 C 
ENDROOT
BRANCH   1   2
ATOM      2  C   UNL     1      87.031 326.941 194.292  1.00  0.00     0.000 C 
BRANCH   2   3
ATOM      3  C   UNL     1      86.799 326.309 195.677  1.00  0.00     0.006 C 
BRANCH   3   4
ATOM      4  C   UNL     1      88.026 326.413 196.591  1.00  0.00     0.053 C 
BRANCH   4   5
ATOM      5  C   UNL     1      88.477 325.052 197.017  1.00  0.00     0.041 C 
ATOM      6  O   UNL     1      88.344 324.069 196.241  1.00  0.00    -0.550 OA
ATOM      7  O   UNL     1      89.089 324.877 198.252  1.00  0.00    -0.550 OA
ENDBRANCH   4   5
ENDBRANCH   3   4
ENDBRANCH   2   3
ENDBRANCH   1   2
BRANCH   1   8
ATOM      8  C   UNL     1      87.654 324.962 192.724  1.00  0.00     0.000 C 
BRANCH   8   9
ATOM      9  C   UNL     1      88.446 324.676 191.439  1.00  0.00     0.006 C 
BRANCH   9  10
ATOM     10  C   UNL     1      87.920 323.418 190.739  1.00  0.00     0.053 C 
BRANCH  10  11
ATOM     11  C   UNL     1      88.424 323.352 189.333  1.00  0.00     0.041 C 
ATOM     12  O   UNL     1      89.511 323.905 189.023  1.00  0.00    -0.550 OA
ATOM     13  O   UNL     1      87.669 322.721 188.352  1.00  0.00    -0.550 OA
ENDBRANCH  10  11
ENDBRANCH   9  10
ENDBRANCH   8   9
ENDBRANCH   1   8
TORSDOF 8
ENDMDL
MODEL 4
REMARK VINA RESULT:    -4.942     19.215     20.974
REMARK INTER + INTRA:          -7.644
REMARK INTER:                  -7.279
REMARK INTRA:                  -0.365
REMARK UNBOUND:                -0.391
REMARK SMILES O=C([O-])CCCCCCCC(=O)[O-]
REMARK SMILES IDX 7 1 6 2 5 3 4 4 2 5 1 6 3 7 8 8 9 9 10 10 11 11 12 12 13 13
REMARK H PARENT
REMARK Flexibility Score: inf
ROOT
ATOM      1  C   UNL     1     104.420 312.157 192.628  1.00  0.00     0.000 C 
ENDROOT
BRANCH   1   2
ATOM      2  C   UNL     1     104.486 313.558 191.988  1.00  0.00     0.000 C 
BRANCH   2   3
ATOM      3  C   UNL     1     103.852 313.666 190.589  1.00  0.00     0.006 C 
BRANCH   3   4
ATOM      4  C   UNL     1     104.462 314.792 189.745  1.00  0.00     0.053 C 
BRANCH   4   5
ATOM      5  C   UNL     1     103.705 314.954 188.465  1.00  0.00     0.041 C 
ATOM      6  O   UNL     1     102.617 314.344 188.291  1.00  0.00    -0.550 OA
ATOM      7  O   UNL     1     104.176 315.816 187.483  1.00  0.00    -0.550 OA
ENDBRANCH   4   5
ENDBRANCH   3   4
ENDBRANCH   2   3
ENDBRANCH   1   2
BRANCH   1   8
ATOM      8  C   UNL     1     105.740 311.656 193.242  1.00  0.00     0.000 C 
BRANCH   8   9
ATOM      9  C   UNL     1     105.841 311.935 194.749  1.00  0.00     0.006 C 
BRANCH   9  10
ATOM     10  C   UNL     1     104.451 311.981 195.392  1.00  0.00     0.053 C 
BRANCH  10  11
ATOM     11  C   UNL     1     104.258 313.268 196.131  1.00  0.00     0.041 C 
ATOM     12  O   UNL     1     104.317 314.364 195.517  1.00  0.00    -0.550 OA
ATOM     13  O   UNL     1     104.061 313.258 197.505  1.00  0.00    -0.550 OA
ENDBRANCH  10  11
ENDBRANCH   9  10
ENDBRANCH   8   9
ENDBRANCH   1   8
TORSDOF 8
ENDMDL
MODEL 5
REMARK VINA RESULT:    -4.931      0.622      6.566
REMARK INTER + INTRA:          -7.628
REMARK INTER:                  -7.150
REMARK INTRA:                  -0.478
REMARK UNBOUND:                -0.391
REMARK SMILES O=C([O-])CCCCCCCC(=O)[O-]
REMARK SMILES IDX 7 1 6 2 5 3 4 4 2 5 1 6 3 7 8 8 9 9 10 10 11 11 12 12 13 13
REMARK H PARENT
REMARK Flexibility Score: inf
ROOT
ATOM      1  C   UNL     1      86.901 324.264 192.980  1.00  0.00     0.000 C 
ENDROOT
BRANCH   1   2
ATOM      2  C   UNL     1      88.287 324.712 192.474  1.00  0.00     0.000 C 
BRANCH   2   3
ATOM      3  C   UNL     1      88.553 324.445 190.981  1.00  0.00     0.006 C 
BRANCH   3   4
ATOM      4  C   UNL     1      87.684 323.315 190.415  1.00  0.00     0.053 C 
BRANCH   4   5
ATOM      5  C   UNL     1      88.176 322.906 189.063  1.00  0.00     0.041 C 
ATOM      6  O   UNL     1      87.358 322.580 188.163  1.00  0.00    -0.550 OA
ATOM      7  O   UNL     1      89.536 322.932 188.780  1.00  0.00    -0.550 OA
ENDBRANCH   4   5
ENDBRANCH   3   4
ENDBRANCH   2   3
ENDBRANCH   1   2
BRANCH   1   8
ATOM      8  C   UNL     1      85.960 325.405 193.406  1.00  0.00     0.000 C 
BRANCH   8   9
ATOM      9  C   UNL     1      86.701 326.568 194.083  1.00  0.00     0.006 C 
BRANCH   9  10
ATOM     10  C   UNL     1      86.586 326.478 195.608  1.00  0.00     0.053 C 
BRANCH  10  11
ATOM     11  C   UNL     1      87.869 325.988 196.202  1.00  0.00     0.041 C 
ATOM     12  O   UNL     1      88.060 324.755 196.367  1.00  0.00    -0.550 OA
ATOM     13  O   UNL     1      88.834 326.896 196.619  1.00  0.00    -0.550 OA
ENDBRANCH  10  11
ENDBRANCH   9  10
ENDBRANCH   8   9
ENDBRANCH   1   8
TORSDOF 8
ENDMDL
MODEL 6
REMARK VINA RESULT:    -4.871      2.139      2.796
REMARK INTER + INTRA:          -7.541
REMARK INTER:                  -7.123
REMARK INTRA:                  -0.418
REMARK UNBOUND:                -0.391
REMARK SMILES O=C([O-])CCCCCCCC(=O)[O-]
REMARK SMILES IDX 7 1 6 2 5 3 4 4 2 5 1 6 3 7 8 8 9 9 10 10 11 11 12 12 13 13
REMARK H PARENT
REMARK Flexibility Score: inf
ROOT
ATOM      1  C   UNL     1      87.533 325.038 192.813  1.00  0.00     0.000 C 
ENDROOT
BRANCH   1   2
ATOM      2  C   UNL     1      88.137 326.305 193.450  1.00  0.00     0.000 C 
BRANCH   2   3
ATOM      3  C   UNL     1      87.174 327.108 194.343  1.00  0.00     0.006 C 
BRANCH   3   4
ATOM      4  C   UNL     1      86.673 326.306 195.551  1.00  0.00     0.053 C 
BRANCH   4   5
ATOM      5  C   UNL     1      87.818 325.913 196.428  1.00  0.00     0.041 C 
ATOM      6  O   UNL     1      88.176 324.708 196.501  1.00  0.00    -0.550 OA
ATOM      7  O   UNL     1      88.523 326.884 197.129  1.00  0.00    -0.550 OA
ENDBRANCH   4   5
ENDBRANCH   3   4
ENDBRANCH   2   3
ENDBRANCH   1   2
BRANCH   1   8
ATOM      8  C   UNL     1      88.395 324.381 191.720  1.00  0.00     0.000 C 
BRANCH   8   9
ATOM      9  C   UNL     1      87.564 323.591 190.699  1.00  0.00     0.006 C 
BRANCH   9  10
ATOM     10  C   UNL     1      86.155 323.316 191.234  1.00  0.00     0.053 C 
BRANCH  10  11
ATOM     11  C   UNL     1      86.020 321.883 191.642  1.00  0.00     0.041 C 
ATOM     12  O   UNL     1      85.900 320.984 190.770  1.00  0.00    -0.550 OA
ATOM     13  O   UNL     1      85.978 321.545 192.989  1.00  0.00    -0.550 OA
ENDBRANCH  10  11
ENDBRANCH   9  10
ENDBRANCH   8   9
ENDBRANCH   1   8
TORSDOF 8
ENDMDL
MODEL 7
REMARK VINA RESULT:    -4.864     19.613     20.528
REMARK INTER + INTRA:          -7.530
REMARK INTER:                  -7.127
REMARK INTRA:                  -0.403
REMARK UNBOUND:                -0.391
REMARK SMILES O=C([O-])CCCCCCCC(=O)[O-]
REMARK SMILES IDX 7 1 6 2 5 3 4 4 2 5 1 6 3 7 8 8 9 9 10 10 11 11 12 12 13 13
REMARK H PARENT
REMARK Flexibility Score: inf
ROOT
ATOM      1  C   UNL     1     105.898 311.902 193.344  1.00  0.00     0.000 C 
ENDROOT
BRANCH   1   2
ATOM      2  C   UNL     1     105.751 311.936 194.879  1.00  0.00     0.000 C 
BRANCH   2   3
ATOM      3  C   UNL     1     104.301 311.934 195.395  1.00  0.00     0.006 C 
BRANCH   3   4
ATOM      4  C   UNL     1     103.905 313.257 196.064  1.00  0.00     0.053 C 
BRANCH   4   5
ATOM      5  C   UNL     1     104.031 313.148 197.550  1.00  0.00     0.041 C 
ATOM      6  O   UNL     1     103.934 312.026 198.114  1.00  0.00    -0.550 OA
ATOM      7  O   UNL     1     104.304 314.279 198.310  1.00  0.00    -0.550 OA
ENDBRANCH   4   5
ENDBRANCH   3   4
ENDBRANCH   2   3
ENDBRANCH   1   2
BRANCH   1   8
ATOM      8  C   UNL     1     104.599 312.152 192.558  1.00  0.00     0.000 C 
BRANCH   8   9
ATOM      9  C   UNL     1     104.447 313.612 192.104  1.00  0.00     0.006 C 
BRANCH   9  10
ATOM     10  C   UNL     1     103.912 313.687 190.670  1.00  0.00     0.053 C 
BRANCH  10  11
ATOM     11  C   UNL     1     104.720 314.651 189.860  1.00  0.00     0.041 C 
ATOM     12  O   UNL     1     105.924 314.869 190.152  1.00  0.00    -0.550 OA
ATOM     13  O   UNL     1     104.129 315.344 188.811  1.00  0.00    -0.550 OA
ENDBRANCH  10  11
ENDBRANCH   9  10
ENDBRANCH   8   9
ENDBRANCH   1   8
TORSDOF 8
ENDMDL
MODEL 8
REMARK VINA RESULT:    -4.851      1.473      1.939
REMARK INTER + INTRA:          -7.510
REMARK INTER:                  -7.236
REMARK INTRA:                  -0.274
REMARK UNBOUND:                -0.391
REMARK SMILES O=C([O-])CCCCCCCC(=O)[O-]
REMARK SMILES IDX 7 1 6 2 5 3 4 4 2 5 1 6 3 7 8 8 9 9 10 10 11 11 12 12 13 13
REMARK H PARENT
REMARK Flexibility Score: inf
ROOT
ATOM      1  C   UNL     1      87.145 324.038 191.585  1.00  0.00     0.000 C 
ENDROOT
BRANCH   1   2
ATOM      2  C   UNL     1      86.928 324.682 192.969  1.00  0.00     0.000 C 
BRANCH   2   3
ATOM      3  C   UNL     1      88.061 325.609 193.442  1.00  0.00     0.006 C 
BRANCH   3   4
ATOM      4  C   UNL     1      87.544 326.881 194.126  1.00  0.00     0.053 C 
BRANCH   4   5
ATOM      5  C   UNL     1      86.985 326.559 195.475  1.00  0.00     0.041 C 
ATOM      6  O   UNL     1      85.894 327.066 195.847  1.00  0.00    -0.550 OA
ATOM      7  O   UNL     1      87.645 325.661 196.304  1.00  0.00    -0.550 OA
ENDBRANCH   4   5
ENDBRANCH   3   4
ENDBRANCH   2   3
ENDBRANCH   1   2
BRANCH   1   8
ATOM      8  C   UNL     1      88.527 324.292 190.956  1.00  0.00     0.000 C 
BRANCH   8   9
ATOM      9  C   UNL     1      88.886 323.265 189.872  1.00  0.00     0.006 C 
BRANCH   9  10
ATOM     10  C   UNL     1      89.640 323.930 188.715  1.00  0.00     0.053 C 
BRANCH  10  11
ATOM     11  C   UNL     1      90.712 323.024 188.199  1.00  0.00     0.041 C 
ATOM     12  O   UNL     1      90.409 321.994 187.543  1.00  0.00    -0.550 OA
ATOM     13  O   UNL     1      92.045 323.290 188.485  1.00  0.00    -0.550 OA
ENDBRANCH  10  11
ENDBRANCH   9  10
ENDBRANCH   8   9
ENDBRANCH   1   8
TORSDOF 8
ENDMDL
MODEL 9
REMARK VINA RESULT:    -4.738      2.233      6.800
REMARK INTER + INTRA:          -7.345
REMARK INTER:                  -6.954
REMARK INTRA:                  -0.391
REMARK UNBOUND:                -0.391
REMARK SMILES O=C([O-])CCCCCCCC(=O)[O-]
REMARK SMILES IDX 7 1 6 2 5 3 4 4 2 5 1 6 3 7 8 8 9 9 10 10 11 11 12 12 13 13
REMARK H PARENT
REMARK Flexibility Score: inf
ROOT
ATOM      1  C   UNL     1      86.784 326.510 194.050  1.00  0.00     0.000 C 
ENDROOT
BRANCH   1   2
ATOM      2  C   UNL     1      88.055 325.921 193.405  1.00  0.00     0.000 C 
BRANCH   2   3
ATOM      3  C   UNL     1      87.817 324.718 192.476  1.00  0.00     0.006 C 
BRANCH   3   4
ATOM      4  C   UNL     1      86.332 324.363 192.330  1.00  0.00     0.053 C 
BRANCH   4   5
ATOM      5  C   UNL     1      86.175 323.045 191.640  1.00  0.00     0.041 C 
ATOM      6  O   UNL     1      86.256 322.974 190.385  1.00  0.00    -0.550 OA
ATOM      7  O   UNL     1      85.987 321.888 192.385  1.00  0.00    -0.550 OA
ENDBRANCH   4   5
ENDBRANCH   3   4
ENDBRANCH   2   3
ENDBRANCH   1   2
BRANCH   1   8
ATOM      8  C   UNL     1      86.765 326.495 195.589  1.00  0.00     0.000 C 
BRANCH   8   9
ATOM      9  C   UNL     1      88.008 325.826 196.194  1.00  0.00     0.006 C 
BRANCH   9  10
ATOM     10  C   UNL     1      88.586 326.673 197.333  1.00  0.00     0.053 C 
BRANCH  10  11
ATOM     11  C   UNL     1      89.034 325.798 198.460  1.00  0.00     0.041 C 
ATOM     12  O   UNL     1      88.986 324.546 198.348  1.00  0.00    -0.550 OA
ATOM     13  O   UNL     1      89.459 326.366 199.654  1.00  0.00    -0.550 OA
ENDBRANCH  10  11
ENDBRANCH   9  10
ENDBRANCH   8   9
ENDBRANCH   1   8
TORSDOF 8
ENDMDL
