MODEL 1
REMARK VINA RESULT:    -5.800      0.000      0.000
REMARK INTER + INTRA:          -9.706
REMARK INTER:                  -8.513
REMARK INTRA:                  -1.194
REMARK UNBOUND:                -1.194
REMARK SMILES Cc1cc2c(C(C)C)c(O)c(O)c(C=O)c2c(O)c1-c1c(C)cc2c(C(C)C)c(O)c(O)c(C=O)c2c1O
REMARK SMILES IDX 1 1 2 2 3 3 4 4 16 5 13 6 11 7 9 8 5 9 17 10 19 11 20 12
REMARK SMILES IDX 37 13 21 14 36 15 23 16 22 17 24 18 33 19 25 20 31 21 29 22
REMARK SMILES IDX 38 23 34 25 35 26 26 27 27 28 28 29 32 30 30 32 18 34 6 36
REMARK SMILES IDX 7 37 8 38 14 39 15 40 10 41 12 43
REMARK H PARENT 38 24 32 31 30 33 18 35 10 42 12 44
REMARK Flexibility Score: inf
ROOT
ATOM      1  C   UNL     1      28.212  -6.049   4.072  1.00  0.00     0.045 C 
ATOM      2  C   UNL     1      27.486  -7.275   4.573  1.00  0.00    -0.039 A 
ATOM      3  C   UNL     1      27.177  -8.303   3.681  1.00  0.00     0.013 A 
ATOM      4  C   UNL     1      26.498  -9.469   4.087  1.00  0.00    -0.006 A 
ATOM      5  C   UNL     1      26.231  -9.648   5.478  1.00  0.00     0.039 A 
ATOM      6  C   UNL     1      25.728 -10.902   5.931  1.00  0.00     0.072 A 
ATOM      7  C   UNL     1      25.391 -11.902   4.999  1.00  0.00     0.169 A 
ATOM      8  C   UNL     1      25.556 -11.682   3.628  1.00  0.00     0.162 A 
ATOM      9  C   UNL     1      26.087 -10.464   3.142  1.00  0.00     0.008 A 
ATOM     10  C   UNL     1      26.451  -8.555   6.369  1.00  0.00     0.132 A 
ATOM     11  C   UNL     1      27.087  -7.381   5.913  1.00  0.00     0.031 A 
ENDROOT
BRANCH  11  12
ATOM     12  C   UNL     1      27.337  -6.252   6.848  1.00  0.00     0.031 A 
ATOM     13  C   UNL     1      26.326  -5.301   7.097  1.00  0.00     0.132 A 
ATOM     14  C   UNL     1      28.597  -6.112   7.451  1.00  0.00    -0.039 A 
ATOM     15  C   UNL     1      26.542  -4.243   8.030  1.00  0.00     0.039 A 
ATOM     16  C   UNL     1      28.847  -5.016   8.278  1.00  0.00     0.013 A 
ATOM     17  C   UNL     1      29.716  -7.080   7.150  1.00  0.00     0.045 C 
ATOM     18  C   UNL     1      27.835  -4.089   8.616  1.00  0.00    -0.006 A 
ATOM     19  C   UNL     1      25.520  -3.305   8.360  1.00  0.00     0.072 A 
ATOM     20  C   UNL     1      28.102  -2.988   9.488  1.00  0.00     0.008 A 
ATOM     21  C   UNL     1      25.840  -2.148   9.093  1.00  0.00     0.169 A 
ATOM     22  C   UNL     1      27.146  -1.952   9.577  1.00  0.00     0.162 A 
BRANCH  13  23
ATOM     23  O   UNL     1      25.126  -5.377   6.381  1.00  0.00    -0.507 OA
ATOM     24  H   UNL     1      24.478  -4.605   6.280  1.00  0.00     0.293 HD
ENDBRANCH  13  23
BRANCH  19  25
ATOM     25  C   UNL     1      24.093  -3.550   8.036  1.00  0.00     0.264 C 
ATOM     26  O   UNL     1      23.393  -4.338   8.724  1.00  0.00    -0.298 OA
ENDBRANCH  19  25
BRANCH  20  27
ATOM     27  C   UNL     1      29.417  -2.879  10.279  1.00  0.00     0.017 C 
ATOM     28  C   UNL     1      30.125  -1.552   9.983  1.00  0.00     0.012 C 
ATOM     29  C   UNL     1      29.255  -3.099  11.796  1.00  0.00     0.012 C 
ENDBRANCH  20  27
BRANCH  21  30
ATOM     30  O   UNL     1      24.824  -1.226   9.375  1.00  0.00    -0.504 OA
ATOM     31  H   UNL     1      24.967  -0.228   9.432  1.00  0.00     0.293 HD
ENDBRANCH  21  30
BRANCH  22  32
ATOM     32  O   UNL     1      27.516  -0.728  10.138  1.00  0.00    -0.504 OA
ATOM     33  H   UNL     1      27.970  -0.629  11.035  1.00  0.00     0.293 HD
ENDBRANCH  22  32
ENDBRANCH  11  12
BRANCH  10  34
ATOM     34  O   UNL     1      26.003  -8.623   7.694  1.00  0.00    -0.507 OA
ATOM     35  H   UNL     1      25.044  -8.463   7.974  1.00  0.00     0.293 HD
ENDBRANCH  10  34
BRANCH   9  36
ATOM     36  C   UNL     1      26.168 -10.286   1.612  1.00  0.00     0.017 C 
ATOM     37  C   UNL     1      27.616 -10.279   1.106  1.00  0.00     0.012 C 
ATOM     38  C   UNL     1      25.326  -9.115   1.062  1.00  0.00     0.012 C 
ENDBRANCH   9  36
BRANCH   6  39
ATOM     39  C   UNL     1      25.637 -11.245   7.366  1.00  0.00     0.264 C 
ATOM     40  O   UNL     1      24.513 -11.382   7.919  1.00  0.00    -0.298 OA
ENDBRANCH   6  39
BRANCH   8  41
ATOM     41  O   UNL     1      25.207 -12.697   2.730  1.00  0.00    -0.504 OA
ATOM     42  H   UNL     1      25.868 -13.122   2.092  1.00  0.00     0.293 HD
ENDBRANCH   8  41
BRANCH   7  43
ATOM     43  O   UNL     1      24.901 -13.148   5.409  1.00  0.00    -0.504 OA
ATOM     44  H   UNL     1      24.863 -13.967   4.816  1.00  0.00     0.293 HD
ENDBRANCH   7  43
TORSDOF 11
ENDMDL
MODEL 2
REMARK VINA RESULT:    -5.797      2.070      8.978
REMARK INTER + INTRA:          -9.702
REMARK INTER:                  -8.566
REMARK INTRA:                  -1.136
REMARK UNBOUND:                -1.194
REMARK SMILES Cc1cc2c(C(C)C)c(O)c(O)c(C=O)c2c(O)c1-c1c(C)cc2c(C(C)C)c(O)c(O)c(C=O)c2c1O
REMARK SMILES IDX 1 1 2 2 3 3 4 4 16 5 13 6 11 7 9 8 5 9 17 10 19 11 20 12
REMARK SMILES IDX 37 13 21 14 36 15 23 16 22 17 24 18 33 19 25 20 31 21 29 22
REMARK SMILES IDX 38 23 34 25 35 26 26 27 27 28 28 29 32 30 30 32 18 34 6 36
REMARK SMILES IDX 7 37 8 38 14 39 15 40 10 41 12 43
REMARK H PARENT 38 24 32 31 30 33 18 35 10 42 12 44
REMARK Flexibility Score: inf
ROOT
ATOM      1  C   UNL     1      24.693  -4.729   6.493  1.00  0.00     0.045 C 
ATOM      2  C   UNL     1      25.825  -4.253   7.370  1.00  0.00    -0.039 A 
ATOM      3  C   UNL     1      25.581  -3.273   8.334  1.00  0.00     0.013 A 
ATOM      4  C   UNL     1      26.598  -2.785   9.181  1.00  0.00    -0.006 A 
ATOM      5  C   UNL     1      27.882  -3.405   9.124  1.00  0.00     0.039 A 
ATOM      6  C   UNL     1      28.860  -3.064  10.103  1.00  0.00     0.072 A 
ATOM      7  C   UNL     1      28.593  -2.045  11.036  1.00  0.00     0.169 A 
ATOM      8  C   UNL     1      27.370  -1.367  11.020  1.00  0.00     0.162 A 
ATOM      9  C   UNL     1      26.361  -1.702  10.088  1.00  0.00     0.008 A 
ATOM     10  C   UNL     1      28.158  -4.328   8.070  1.00  0.00     0.132 A 
ATOM     11  C   UNL     1      27.125  -4.754   7.208  1.00  0.00     0.031 A 
ENDROOT
BRANCH  11  12
ATOM     12  C   UNL     1      27.408  -5.732   6.126  1.00  0.00     0.031 A 
ATOM     13  C   UNL     1      27.206  -7.111   6.345  1.00  0.00     0.132 A 
ATOM     14  C   UNL     1      27.916  -5.284   4.896  1.00  0.00    -0.039 A 
ATOM     15  C   UNL     1      27.429  -8.051   5.295  1.00  0.00     0.039 A 
ATOM     16  C   UNL     1      28.240  -6.211   3.905  1.00  0.00     0.013 A 
ATOM     17  C   UNL     1      28.202  -3.821   4.659  1.00  0.00     0.045 C 
ATOM     18  C   UNL     1      27.975  -7.592   4.058  1.00  0.00    -0.006 A 
ATOM     19  C   UNL     1      27.169  -9.443   5.459  1.00  0.00     0.072 A 
ATOM     20  C   UNL     1      28.287  -8.524   3.020  1.00  0.00     0.008 A 
ATOM     21  C   UNL     1      27.622 -10.359   4.492  1.00  0.00     0.169 A 
ATOM     22  C   UNL     1      28.256  -9.904   3.323  1.00  0.00     0.162 A 
BRANCH  13  23
ATOM     23  O   UNL     1      26.834  -7.552   7.620  1.00  0.00    -0.507 OA
ATOM     24  H   UNL     1      26.089  -8.216   7.794  1.00  0.00     0.293 HD
ENDBRANCH  13  23
BRANCH  19  25
ATOM     25  C   UNL     1      26.346  -9.963   6.578  1.00  0.00     0.264 C 
ATOM     26  O   UNL     1      25.433 -10.807   6.379  1.00  0.00    -0.298 OA
ENDBRANCH  19  25
BRANCH  20  27
ATOM     27  C   UNL     1      28.707  -8.063   1.613  1.00  0.00     0.017 C 
ATOM     28  C   UNL     1      27.528  -7.419   0.875  1.00  0.00     0.012 C 
ATOM     29  C   UNL     1      29.943  -7.144   1.599  1.00  0.00     0.012 C 
ENDBRANCH  20  27
BRANCH  21  30
ATOM     30  O   UNL     1      27.383 -11.724   4.693  1.00  0.00    -0.504 OA
ATOM     31  H   UNL     1      28.048 -12.360   5.110  1.00  0.00     0.293 HD
ENDBRANCH  21  30
BRANCH  22  32
ATOM     32  O   UNL     1      28.873 -10.806   2.454  1.00  0.00    -0.504 OA
ATOM     33  H   UNL     1      29.784 -11.214   2.612  1.00  0.00     0.293 HD
ENDBRANCH  22  32
ENDBRANCH  11  12
BRANCH  10  34
ATOM     34  O   UNL     1      29.462  -4.789   7.858  1.00  0.00    -0.507 OA
ATOM     35  H   UNL     1      29.776  -5.723   8.089  1.00  0.00     0.293 HD
ENDBRANCH  10  34
BRANCH   9  36
ATOM     36  C   UNL     1      25.073  -0.854  10.101  1.00  0.00     0.017 C 
ATOM     37  C   UNL     1      23.848  -1.669  10.538  1.00  0.00     0.012 C 
ATOM     38  C   UNL     1      24.833  -0.041   8.811  1.00  0.00     0.012 C 
ENDBRANCH   9  36
BRANCH   6  39
ATOM     39  C   UNL     1      30.125  -3.815  10.252  1.00  0.00     0.264 C 
ATOM     40  O   UNL     1      30.125  -4.971  10.752  1.00  0.00    -0.298 OA
ENDBRANCH   6  39
BRANCH   8  41
ATOM     41  O   UNL     1      27.141  -0.356  11.961  1.00  0.00    -0.504 OA
ATOM     42  H   UNL     1      26.360   0.285  11.904  1.00  0.00     0.293 HD
ENDBRANCH   8  41
BRANCH   7  43
ATOM     43  O   UNL     1      29.528  -1.689  12.017  1.00  0.00    -0.504 OA
ATOM     44  H   UNL     1      30.491  -1.997  12.022  1.00  0.00     0.293 HD
ENDBRANCH   7  43
TORSDOF 11
ENDMDL
MODEL 3
REMARK VINA RESULT:    -5.786      2.402      9.439
REMARK INTER + INTRA:          -9.686
REMARK INTER:                  -8.392
REMARK INTRA:                  -1.294
REMARK UNBOUND:                -1.194
REMARK SMILES Cc1cc2c(C(C)C)c(O)c(O)c(C=O)c2c(O)c1-c1c(C)cc2c(C(C)C)c(O)c(O)c(C=O)c2c1O
REMARK SMILES IDX 1 1 2 2 3 3 4 4 16 5 13 6 11 7 9 8 5 9 17 10 19 11 20 12
REMARK SMILES IDX 37 13 21 14 36 15 23 16 22 17 24 18 33 19 25 20 31 21 29 22
REMARK SMILES IDX 38 23 34 25 35 26 26 27 27 28 28 29 32 30 30 32 18 34 6 36
REMARK SMILES IDX 7 37 8 38 14 39 15 40 10 41 12 43
REMARK H PARENT 38 24 32 31 30 33 18 35 10 42 12 44
REMARK Flexibility Score: inf
ROOT
ATOM      1  C   UNL     1      28.480 -10.168   4.862  1.00  0.00     0.045 C 
ATOM      2  C   UNL     1      27.624  -9.096   5.493  1.00  0.00    -0.039 A 
ATOM      3  C   UNL     1      28.199  -7.871   5.835  1.00  0.00     0.013 A 
ATOM      4  C   UNL     1      27.453  -6.833   6.430  1.00  0.00    -0.006 A 
ATOM      5  C   UNL     1      26.043  -7.008   6.570  1.00  0.00     0.039 A 
ATOM      6  C   UNL     1      25.245  -5.901   6.983  1.00  0.00     0.072 A 
ATOM      7  C   UNL     1      25.862  -4.692   7.357  1.00  0.00     0.169 A 
ATOM      8  C   UNL     1      27.254  -4.561   7.317  1.00  0.00     0.162 A 
ATOM      9  C   UNL     1      28.076  -5.625   6.879  1.00  0.00     0.008 A 
ATOM     10  C   UNL     1      25.478  -8.294   6.320  1.00  0.00     0.132 A 
ATOM     11  C   UNL     1      26.269  -9.326   5.772  1.00  0.00     0.031 A 
ENDROOT
BRANCH  11  12
ATOM     12  C   UNL     1      25.674 -10.658   5.490  1.00  0.00     0.031 A 
ATOM     13  C   UNL     1      25.214 -10.970   4.194  1.00  0.00     0.132 A 
ATOM     14  C   UNL     1      25.532 -11.593   6.529  1.00  0.00    -0.039 A 
ATOM     15  C   UNL     1      24.687 -12.264   3.904  1.00  0.00     0.039 A 
ATOM     16  C   UNL     1      24.916 -12.818   6.274  1.00  0.00     0.013 A 
ATOM     17  C   UNL     1      25.956 -11.259   7.939  1.00  0.00     0.045 C 
ATOM     18  C   UNL     1      24.517 -13.198   4.972  1.00  0.00    -0.006 A 
ATOM     19  C   UNL     1      24.279 -12.638   2.591  1.00  0.00     0.072 A 
ATOM     20  C   UNL     1      23.913 -14.470   4.724  1.00  0.00     0.008 A 
ATOM     21  C   UNL     1      23.550 -13.825   2.394  1.00  0.00     0.169 A 
ATOM     22  C   UNL     1      23.294 -14.689   3.474  1.00  0.00     0.162 A 
BRANCH  13  23
ATOM     23  O   UNL     1      25.235  -9.979   3.205  1.00  0.00    -0.507 OA
ATOM     24  H   UNL     1      25.973  -9.294   3.107  1.00  0.00     0.293 HD
ENDBRANCH  13  23
BRANCH  19  25
ATOM     25  C   UNL     1      24.678 -11.861   1.392  1.00  0.00     0.264 C 
ATOM     26  O   UNL     1      23.903 -11.014   0.876  1.00  0.00    -0.298 OA
ENDBRANCH  19  25
BRANCH  20  27
ATOM     27  C   UNL     1      23.872 -15.572   5.798  1.00  0.00     0.017 C 
ATOM     28  C   UNL     1      22.436 -15.814   6.276  1.00  0.00     0.012 C 
ATOM     29  C   UNL     1      24.547 -16.888   5.369  1.00  0.00     0.012 C 
ENDBRANCH  20  27
BRANCH  21  30
ATOM     30  O   UNL     1      23.131 -14.152   1.099  1.00  0.00    -0.504 OA
ATOM     31  H   UNL     1      23.712 -14.061   0.277  1.00  0.00     0.293 HD
ENDBRANCH  21  30
BRANCH  22  32
ATOM     32  O   UNL     1      22.417 -15.766   3.326  1.00  0.00    -0.504 OA
ATOM     33  H   UNL     1      21.414 -15.699   3.427  1.00  0.00     0.293 HD
ENDBRANCH  22  32
ENDBRANCH  11  12
BRANCH  10  34
ATOM     34  O   UNL     1      24.143  -8.556   6.651  1.00  0.00    -0.507 OA
ATOM     35  H   UNL     1      23.808  -9.451   6.984  1.00  0.00     0.293 HD
ENDBRANCH  10  34
BRANCH   9  36
ATOM     36  C   UNL     1      29.603  -5.412   6.935  1.00  0.00     0.017 C 
ATOM     37  C   UNL     1      30.125  -5.335   8.376  1.00  0.00     0.012 C 
ATOM     38  C   UNL     1      30.119  -4.266   6.039  1.00  0.00     0.012 C 
ENDBRANCH   9  36
BRANCH   6  39
ATOM     39  C   UNL     1      23.768  -5.930   6.938  1.00  0.00     0.264 C 
ATOM     40  O   UNL     1      23.099  -5.964   8.004  1.00  0.00    -0.298 OA
ENDBRANCH   6  39
BRANCH   8  41
ATOM     41  O   UNL     1      27.833  -3.346   7.700  1.00  0.00    -0.504 OA
ATOM     42  H   UNL     1      27.373  -2.682   8.310  1.00  0.00     0.293 HD
ENDBRANCH   8  41
BRANCH   7  43
ATOM     43  O   UNL     1      25.110  -3.581   7.760  1.00  0.00    -0.504 OA
ATOM     44  H   UNL     1      24.373  -3.163   7.207  1.00  0.00     0.293 HD
ENDBRANCH   7  43
TORSDOF 11
ENDMDL
MODEL 4
REMARK VINA RESULT:    -5.650      2.098      4.016
REMARK INTER + INTRA:          -9.486
REMARK INTER:                  -8.509
REMARK INTRA:                  -0.977
REMARK UNBOUND:                -1.194
REMARK SMILES Cc1cc2c(C(C)C)c(O)c(O)c(C=O)c2c(O)c1-c1c(C)cc2c(C(C)C)c(O)c(O)c(C=O)c2c1O
REMARK SMILES IDX 1 1 2 2 3 3 4 4 16 5 13 6 11 7 9 8 5 9 17 10 19 11 20 12
REMARK SMILES IDX 37 13 21 14 36 15 23 16 22 17 24 18 33 19 25 20 31 21 29 22
REMARK SMILES IDX 38 23 34 25 35 26 26 27 27 28 28 29 32 30 30 32 18 34 6 36
REMARK SMILES IDX 7 37 8 38 14 39 15 40 10 41 12 43
REMARK H PARENT 38 24 32 31 30 33 18 35 10 42 12 44
REMARK Flexibility Score: inf
ROOT
ATOM      1  C   UNL     1      25.512 -10.478   8.135  1.00  0.00     0.045 C 
ATOM      2  C   UNL     1      25.409 -10.809   6.665  1.00  0.00    -0.039 A 
ATOM      3  C   UNL     1      24.970 -12.075   6.275  1.00  0.00     0.013 A 
ATOM      4  C   UNL     1      24.856 -12.444   4.919  1.00  0.00    -0.006 A 
ATOM      5  C   UNL     1      25.083 -11.446   3.924  1.00  0.00     0.039 A 
ATOM      6  C   UNL     1      24.782 -11.743   2.564  1.00  0.00     0.072 A 
ATOM      7  C   UNL     1      24.378 -13.042   2.201  1.00  0.00     0.169 A 
ATOM      8  C   UNL     1      24.258 -14.046   3.168  1.00  0.00     0.162 A 
ATOM      9  C   UNL     1      24.513 -13.780   4.533  1.00  0.00     0.008 A 
ATOM     10  C   UNL     1      25.633 -10.189   4.320  1.00  0.00     0.132 A 
ATOM     11  C   UNL     1      25.780  -9.875   5.687  1.00  0.00     0.031 A 
ENDROOT
BRANCH  11  12
ATOM     12  C   UNL     1      26.331  -8.557   6.098  1.00  0.00     0.031 A 
ATOM     13  C   UNL     1      25.462  -7.501   6.440  1.00  0.00     0.132 A 
ATOM     14  C   UNL     1      27.721  -8.353   6.105  1.00  0.00    -0.039 A 
ATOM     15  C   UNL     1      25.983  -6.248   6.883  1.00  0.00     0.039 A 
ATOM     16  C   UNL     1      28.231  -7.096   6.430  1.00  0.00     0.013 A 
ATOM     17  C   UNL     1      28.670  -9.447   5.679  1.00  0.00     0.045 C 
ATOM     18  C   UNL     1      27.396  -6.038   6.857  1.00  0.00    -0.006 A 
ATOM     19  C   UNL     1      25.136  -5.182   7.304  1.00  0.00     0.072 A 
ATOM     20  C   UNL     1      27.939  -4.764   7.214  1.00  0.00     0.008 A 
ATOM     21  C   UNL     1      25.672  -3.897   7.502  1.00  0.00     0.169 A 
ATOM     22  C   UNL     1      27.054  -3.675   7.371  1.00  0.00     0.162 A 
BRANCH  13  23
ATOM     23  O   UNL     1      24.081  -7.677   6.294  1.00  0.00    -0.507 OA
ATOM     24  H   UNL     1      23.441  -6.939   6.027  1.00  0.00     0.293 HD
ENDBRANCH  13  23
BRANCH  19  25
ATOM     25  C   UNL     1      23.706  -5.398   7.636  1.00  0.00     0.264 C 
ATOM     26  O   UNL     1      23.223  -5.001   8.729  1.00  0.00    -0.298 OA
ENDBRANCH  19  25
BRANCH  20  27
ATOM     27  C   UNL     1      29.454  -4.544   7.374  1.00  0.00     0.017 C 
ATOM     28  C   UNL     1      30.018  -3.750   6.190  1.00  0.00     0.012 C 
ATOM     29  C   UNL     1      29.854  -3.903   8.717  1.00  0.00     0.012 C 
ENDBRANCH  20  27
BRANCH  21  30
ATOM     30  O   UNL     1      24.812  -2.859   7.884  1.00  0.00    -0.504 OA
ATOM     31  H   UNL     1      24.582  -2.639   8.842  1.00  0.00     0.293 HD
ENDBRANCH  21  30
BRANCH  22  32
ATOM     32  O   UNL     1      27.567  -2.376   7.380  1.00  0.00    -0.504 OA
ATOM     33  H   UNL     1      27.475  -1.735   8.156  1.00  0.00     0.293 HD
ENDBRANCH  22  32
ENDBRANCH  11  12
BRANCH  10  34
ATOM     34  O   UNL     1      26.065  -9.273   3.354  1.00  0.00    -0.507 OA
ATOM     35  H   UNL     1      25.506  -8.980   2.563  1.00  0.00     0.293 HD
ENDBRANCH  10  34
BRANCH   9  36
ATOM     36  C   UNL     1      24.423 -14.965   5.516  1.00  0.00     0.017 C 
ATOM     37  C   UNL     1      25.392 -16.097   5.150  1.00  0.00     0.012 C 
ATOM     38  C   UNL     1      22.986 -15.459   5.787  1.00  0.00     0.012 C 
ENDBRANCH   9  36
BRANCH   6  39
ATOM     39  C   UNL     1      24.774 -10.705   1.511  1.00  0.00     0.264 C 
ATOM     40  O   UNL     1      23.696 -10.374   0.949  1.00  0.00    -0.298 OA
ENDBRANCH   6  39
BRANCH   8  41
ATOM     41  O   UNL     1      23.858 -15.327   2.771  1.00  0.00    -0.504 OA
ATOM     42  H   UNL     1      23.161 -15.492   2.055  1.00  0.00     0.293 HD
ENDBRANCH   8  41
BRANCH   7  43
ATOM     43  O   UNL     1      24.066 -13.368   0.875  1.00  0.00    -0.504 OA
ATOM     44  H   UNL     1      24.215 -14.280   0.464  1.00  0.00     0.293 HD
ENDBRANCH   7  43
TORSDOF 11
ENDMDL
MODEL 5
REMARK VINA RESULT:    -5.366      1.636      2.326
REMARK INTER + INTRA:          -9.069
REMARK INTER:                  -8.662
REMARK INTRA:                  -0.406
REMARK UNBOUND:                -1.194
REMARK SMILES Cc1cc2c(C(C)C)c(O)c(O)c(C=O)c2c(O)c1-c1c(C)cc2c(C(C)C)c(O)c(O)c(C=O)c2c1O
REMARK SMILES IDX 1 1 2 2 3 3 4 4 16 5 13 6 11 7 9 8 5 9 17 10 19 11 20 12
REMARK SMILES IDX 37 13 21 14 36 15 23 16 22 17 24 18 33 19 25 20 31 21 29 22
REMARK SMILES IDX 38 23 34 25 35 26 26 27 27 28 28 29 32 30 30 32 18 34 6 36
REMARK SMILES IDX 7 37 8 38 14 39 15 40 10 41 12 43
REMARK H PARENT 38 24 32 31 30 33 18 35 10 42 12 44
REMARK Flexibility Score: inf
ROOT
ATOM      1  C   UNL     1      29.115  -3.720   4.989  1.00  0.00     0.045 C 
ATOM      2  C   UNL     1      28.463  -5.080   5.049  1.00  0.00    -0.039 A 
ATOM      3  C   UNL     1      28.518  -5.918   3.934  1.00  0.00     0.013 A 
ATOM      4  C   UNL     1      27.924  -7.197   3.926  1.00  0.00    -0.006 A 
ATOM      5  C   UNL     1      27.359  -7.687   5.142  1.00  0.00     0.039 A 
ATOM      6  C   UNL     1      26.936  -9.046   5.210  1.00  0.00     0.072 A 
ATOM      7  C   UNL     1      26.970  -9.851   4.055  1.00  0.00     0.169 A 
ATOM      8  C   UNL     1      27.427  -9.332   2.840  1.00  0.00     0.162 A 
ATOM      9  C   UNL     1      27.890  -8.000   2.741  1.00  0.00     0.008 A 
ATOM     10  C   UNL     1      27.210  -6.793   6.245  1.00  0.00     0.132 A 
ATOM     11  C   UNL     1      27.773  -5.500   6.195  1.00  0.00     0.031 A 
ENDROOT
BRANCH  11  12
ATOM     12  C   UNL     1      27.636  -4.578   7.353  1.00  0.00     0.031 A 
ATOM     13  C   UNL     1      26.389  -3.993   7.650  1.00  0.00     0.132 A 
ATOM     14  C   UNL     1      28.765  -4.259   8.126  1.00  0.00    -0.039 A 
ATOM     15  C   UNL     1      26.240  -3.145   8.789  1.00  0.00     0.039 A 
ATOM     16  C   UNL     1      28.645  -3.344   9.173  1.00  0.00     0.013 A 
ATOM     17  C   UNL     1      30.124  -4.821   7.788  1.00  0.00     0.045 C 
ATOM     18  C   UNL     1      27.397  -2.800   9.552  1.00  0.00    -0.006 A 
ATOM     19  C   UNL     1      24.979  -2.593   9.161  1.00  0.00     0.072 A 
ATOM     20  C   UNL     1      27.289  -1.886  10.646  1.00  0.00     0.008 A 
ATOM     21  C   UNL     1      24.917  -1.582  10.137  1.00  0.00     0.169 A 
ATOM     22  C   UNL     1      26.082  -1.172  10.810  1.00  0.00     0.162 A 
BRANCH  13  23
ATOM     23  O   UNL     1      25.308  -4.211   6.787  1.00  0.00    -0.507 OA
ATOM     24  H   UNL     1      24.536  -3.567   6.674  1.00  0.00     0.293 HD
ENDBRANCH  13  23
BRANCH  19  25
ATOM     25  C   UNL     1      23.701  -3.114   8.618  1.00  0.00     0.264 C 
ATOM     26  O   UNL     1      22.916  -3.791   9.333  1.00  0.00    -0.298 OA
ENDBRANCH  19  25
BRANCH  20  27
ATOM     27  C   UNL     1      28.465  -1.623  11.603  1.00  0.00     0.017 C 
ATOM     28  C   UNL     1      29.144  -2.937  12.008  1.00  0.00     0.012 C 
ATOM     29  C   UNL     1      29.492  -0.606  11.068  1.00  0.00     0.012 C 
ENDBRANCH  20  27
BRANCH  21  30
ATOM     30  O   UNL     1      23.671  -1.032  10.460  1.00  0.00    -0.504 OA
ATOM     31  H   UNL     1      23.069  -0.565   9.796  1.00  0.00     0.293 HD
ENDBRANCH  21  30
BRANCH  22  32
ATOM     32  O   UNL     1      26.062  -0.048  11.639  1.00  0.00    -0.504 OA
ATOM     33  H   UNL     1      25.286   0.597  11.702  1.00  0.00     0.293 HD
ENDBRANCH  22  32
ENDBRANCH  11  12
BRANCH  10  34
ATOM     34  O   UNL     1      26.471  -7.177   7.370  1.00  0.00    -0.507 OA
ATOM     35  H   UNL     1      25.617  -6.722   7.668  1.00  0.00     0.293 HD
ENDBRANCH  10  34
BRANCH   9  36
ATOM     36  C   UNL     1      28.310  -7.495   1.345  1.00  0.00     0.017 C 
ATOM     37  C   UNL     1      29.835  -7.450   1.181  1.00  0.00     0.012 C 
ATOM     38  C   UNL     1      27.612  -6.192   0.903  1.00  0.00     0.012 C 
ENDBRANCH   9  36
BRANCH   6  39
ATOM     39  C   UNL     1      26.551  -9.692   6.483  1.00  0.00     0.264 C 
ATOM     40  O   UNL     1      25.338  -9.786   6.809  1.00  0.00    -0.298 OA
ENDBRANCH   6  39
BRANCH   8  41
ATOM     41  O   UNL     1      27.443 -10.160   1.711  1.00  0.00    -0.504 OA
ATOM     42  H   UNL     1      26.697 -10.807   1.489  1.00  0.00     0.293 HD
ENDBRANCH   8  41
BRANCH   7  43
ATOM     43  O   UNL     1      26.569 -11.193   4.087  1.00  0.00    -0.504 OA
ATOM     44  H   UNL     1      27.096 -11.953   3.679  1.00  0.00     0.293 HD
ENDBRANCH   7  43
TORSDOF 11
ENDMDL
MODEL 6
REMARK VINA RESULT:    -5.335      1.578      9.004
REMARK INTER + INTRA:          -9.024
REMARK INTER:                  -7.961
REMARK INTRA:                  -1.063
REMARK UNBOUND:                -1.194
REMARK SMILES Cc1cc2c(C(C)C)c(O)c(O)c(C=O)c2c(O)c1-c1c(C)cc2c(C(C)C)c(O)c(O)c(C=O)c2c1O
REMARK SMILES IDX 1 1 2 2 3 3 4 4 16 5 13 6 11 7 9 8 5 9 17 10 19 11 20 12
REMARK SMILES IDX 37 13 21 14 36 15 23 16 22 17 24 18 33 19 25 20 31 21 29 22
REMARK SMILES IDX 38 23 34 25 35 26 26 27 27 28 28 29 32 30 30 32 18 34 6 36
REMARK SMILES IDX 7 37 8 38 14 39 15 40 10 41 12 43
REMARK H PARENT 38 24 32 31 30 33 18 35 10 42 12 44
REMARK Flexibility Score: inf
ROOT
ATOM      1  C   UNL     1      24.330  -5.873   6.160  1.00  0.00     0.045 C 
ATOM      2  C   UNL     1      25.588  -5.409   6.854  1.00  0.00    -0.039 A 
ATOM      3  C   UNL     1      25.571  -4.219   7.583  1.00  0.00     0.013 A 
ATOM      4  C   UNL     1      26.713  -3.731   8.250  1.00  0.00    -0.006 A 
ATOM      5  C   UNL     1      27.883  -4.548   8.274  1.00  0.00     0.039 A 
ATOM      6  C   UNL     1      28.977  -4.168   9.104  1.00  0.00     0.072 A 
ATOM      7  C   UNL     1      28.940  -2.942   9.796  1.00  0.00     0.169 A 
ATOM      8  C   UNL     1      27.833  -2.095   9.685  1.00  0.00     0.162 A 
ATOM      9  C   UNL     1      26.714  -2.454   8.899  1.00  0.00     0.008 A 
ATOM     10  C   UNL     1      27.933  -5.708   7.443  1.00  0.00     0.132 A 
ATOM     11  C   UNL     1      26.782  -6.136   6.749  1.00  0.00     0.031 A 
ENDROOT
BRANCH  11  12
ATOM     12  C   UNL     1      26.829  -7.358   5.902  1.00  0.00     0.031 A 
ATOM     13  C   UNL     1      26.350  -8.586   6.402  1.00  0.00     0.132 A 
ATOM     14  C   UNL     1      27.390  -7.294   4.616  1.00  0.00    -0.039 A 
ATOM     15  C   UNL     1      26.346  -9.751   5.578  1.00  0.00     0.039 A 
ATOM     16  C   UNL     1      27.489  -8.455   3.850  1.00  0.00     0.013 A 
ATOM     17  C   UNL     1      27.970  -6.006   4.083  1.00  0.00     0.045 C 
ATOM     18  C   UNL     1      26.947  -9.686   4.284  1.00  0.00    -0.006 A 
ATOM     19  C   UNL     1      25.805 -10.992   6.025  1.00  0.00     0.072 A 
ATOM     20  C   UNL     1      27.032 -10.860   3.472  1.00  0.00     0.008 A 
ATOM     21  C   UNL     1      26.034 -12.165   5.283  1.00  0.00     0.169 A 
ATOM     22  C   UNL     1      26.721 -12.108   4.057  1.00  0.00     0.162 A 
BRANCH  13  23
ATOM     23  O   UNL     1      25.923  -8.662   7.733  1.00  0.00    -0.507 OA
ATOM     24  H   UNL     1      26.488  -9.032   8.488  1.00  0.00     0.293 HD
ENDBRANCH  13  23
BRANCH  19  25
ATOM     25  C   UNL     1      24.919 -11.082   7.211  1.00  0.00     0.264 C 
ATOM     26  O   UNL     1      25.249 -11.754   8.223  1.00  0.00    -0.298 OA
ENDBRANCH  19  25
BRANCH  20  27
ATOM     27  C   UNL     1      27.505 -10.803   2.009  1.00  0.00     0.017 C 
ATOM     28  C   UNL     1      28.904 -11.413   1.862  1.00  0.00     0.012 C 
ATOM     29  C   UNL     1      26.516 -11.428   1.007  1.00  0.00     0.012 C 
ENDBRANCH  20  27
BRANCH  21  30
ATOM     30  O   UNL     1      25.520 -13.376   5.761  1.00  0.00    -0.504 OA
ATOM     31  H   UNL     1      24.564 -13.675   5.633  1.00  0.00     0.293 HD
ENDBRANCH  21  30
BRANCH  22  32
ATOM     32  O   UNL     1      27.115 -13.281   3.411  1.00  0.00    -0.504 OA
ATOM     33  H   UNL     1      28.073 -13.509   3.183  1.00  0.00     0.293 HD
ENDBRANCH  22  32
ENDBRANCH  11  12
BRANCH  10  34
ATOM     34  O   UNL     1      29.134  -6.409   7.280  1.00  0.00    -0.507 OA
ATOM     35  H   UNL     1      30.048  -5.976   7.304  1.00  0.00     0.293 HD
ENDBRANCH  10  34
BRANCH   9  36
ATOM     36  C   UNL     1      25.569  -1.427   8.781  1.00  0.00     0.017 C 
ATOM     37  C   UNL     1      26.023  -0.130   8.099  1.00  0.00     0.012 C 
ATOM     38  C   UNL     1      24.794  -1.184  10.093  1.00  0.00     0.012 C 
ENDBRANCH   9  36
BRANCH   6  39
ATOM     39  C   UNL     1      30.125  -5.063   9.359  1.00  0.00     0.264 C 
ATOM     40  O   UNL     1      30.038  -5.985  10.214  1.00  0.00    -0.298 OA
ENDBRANCH   6  39
BRANCH   8  41
ATOM     41  O   UNL     1      27.833  -0.882  10.383  1.00  0.00    -0.504 OA
ATOM     42  H   UNL     1      27.787   0.020   9.924  1.00  0.00     0.293 HD
ENDBRANCH   8  41
BRANCH   7  43
ATOM     43  O   UNL     1      29.994  -2.539  10.627  1.00  0.00    -0.504 OA
ATOM     44  H   UNL     1      30.803  -3.109  10.834  1.00  0.00     0.293 HD
ENDBRANCH   7  43
TORSDOF 11
ENDMDL
MODEL 7
REMARK VINA RESULT:    -5.004      1.102      8.996
REMARK INTER + INTRA:          -8.538
REMARK INTER:                  -7.729
REMARK INTRA:                  -0.809
REMARK UNBOUND:                -1.194
REMARK SMILES Cc1cc2c(C(C)C)c(O)c(O)c(C=O)c2c(O)c1-c1c(C)cc2c(C(C)C)c(O)c(O)c(C=O)c2c1O
REMARK SMILES IDX 1 1 2 2 3 3 4 4 16 5 13 6 11 7 9 8 5 9 17 10 19 11 20 12
REMARK SMILES IDX 37 13 21 14 36 15 23 16 22 17 24 18 33 19 25 20 31 21 29 22
REMARK SMILES IDX 38 23 34 25 35 26 26 27 27 28 28 29 32 30 30 32 18 34 6 36
REMARK SMILES IDX 7 37 8 38 14 39 15 40 10 41 12 43
REMARK H PARENT 38 24 32 31 30 33 18 35 10 42 12 44
REMARK Flexibility Score: inf
ROOT
ATOM      1  C   UNL     1      30.125  -5.718   6.882  1.00  0.00     0.045 C 
ATOM      2  C   UNL     1      28.931  -5.019   7.486  1.00  0.00    -0.039 A 
ATOM      3  C   UNL     1      29.125  -4.081   8.500  1.00  0.00     0.013 A 
ATOM      4  C   UNL     1      28.050  -3.398   9.106  1.00  0.00    -0.006 A 
ATOM      5  C   UNL     1      26.740  -3.592   8.575  1.00  0.00     0.039 A 
ATOM      6  C   UNL     1      25.675  -2.766   9.039  1.00  0.00     0.072 A 
ATOM      7  C   UNL     1      25.899  -1.856  10.090  1.00  0.00     0.169 A 
ATOM      8  C   UNL     1      27.163  -1.746  10.679  1.00  0.00     0.162 A 
ATOM      9  C   UNL     1      28.253  -2.522  10.221  1.00  0.00     0.008 A 
ATOM     10  C   UNL     1      26.530  -4.626   7.614  1.00  0.00     0.132 A 
ATOM     11  C   UNL     1      27.627  -5.324   7.068  1.00  0.00     0.031 A 
ENDROOT
BRANCH  11  12
ATOM     12  C   UNL     1      27.409  -6.386   6.050  1.00  0.00     0.031 A 
ATOM     13  C   UNL     1      27.100  -7.701   6.452  1.00  0.00     0.132 A 
ATOM     14  C   UNL     1      27.553  -6.083   4.686  1.00  0.00    -0.039 A 
ATOM     15  C   UNL     1      26.842  -8.714   5.480  1.00  0.00     0.039 A 
ATOM     16  C   UNL     1      27.409  -7.097   3.737  1.00  0.00     0.013 A 
ATOM     17  C   UNL     1      27.947  -4.698   4.233  1.00  0.00     0.045 C 
ATOM     18  C   UNL     1      27.020  -8.407   4.096  1.00  0.00    -0.006 A 
ATOM     19  C   UNL     1      26.458 -10.036   5.849  1.00  0.00     0.072 A 
ATOM     20  C   UNL     1      26.850  -9.426   3.107  1.00  0.00     0.008 A 
ATOM     21  C   UNL     1      26.445 -11.058   4.882  1.00  0.00     0.169 A 
ATOM     22  C   UNL     1      26.727 -10.766   3.536  1.00  0.00     0.162 A 
BRANCH  13  23
ATOM     23  O   UNL     1      27.100  -8.017   7.816  1.00  0.00    -0.507 OA
ATOM     24  H   UNL     1      26.261  -8.089   8.379  1.00  0.00     0.293 HD
ENDBRANCH  13  23
BRANCH  19  25
ATOM     25  C   UNL     1      25.974 -10.364   7.212  1.00  0.00     0.264 C 
ATOM     26  O   UNL     1      24.816 -10.046   7.588  1.00  0.00    -0.298 OA
ENDBRANCH  19  25
BRANCH  20  27
ATOM     27  C   UNL     1      26.855  -9.105   1.602  1.00  0.00     0.017 C 
ATOM     28  C   UNL     1      25.445  -8.751   1.114  1.00  0.00     0.012 C 
ATOM     29  C   UNL     1      27.874  -8.022   1.197  1.00  0.00     0.012 C 
ENDBRANCH  20  27
BRANCH  21  30
ATOM     30  O   UNL     1      26.097 -12.355   5.277  1.00  0.00    -0.504 OA
ATOM     31  H   UNL     1      25.266 -12.838   4.965  1.00  0.00     0.293 HD
ENDBRANCH  21  30
BRANCH  22  32
ATOM     32  O   UNL     1      26.901 -11.797   2.609  1.00  0.00    -0.504 OA
ATOM     33  H   UNL     1      26.191 -12.101   1.958  1.00  0.00     0.293 HD
ENDBRANCH  22  32
ENDBRANCH  11  12
BRANCH  10  34
ATOM     34  O   UNL     1      25.231  -4.983   7.233  1.00  0.00    -0.507 OA
ATOM     35  H   UNL     1      24.459  -4.330   7.175  1.00  0.00     0.293 HD
ENDBRANCH  10  34
BRANCH   9  36
ATOM     36  C   UNL     1      29.591  -2.383  10.977  1.00  0.00     0.017 C 
ATOM     37  C   UNL     1      29.568  -3.102  12.332  1.00  0.00     0.012 C 
ATOM     38  C   UNL     1      30.125  -0.938  11.064  1.00  0.00     0.012 C 
ENDBRANCH   9  36
BRANCH   6  39
ATOM     39  C   UNL     1      24.348  -2.746   8.388  1.00  0.00     0.264 C 
ATOM     40  O   UNL     1      23.354  -3.276   8.952  1.00  0.00    -0.298 OA
ENDBRANCH   6  39
BRANCH   8  41
ATOM     41  O   UNL     1      27.348  -0.834  11.724  1.00  0.00    -0.504 OA
ATOM     42  H   UNL     1      26.774  -0.009  11.847  1.00  0.00     0.293 HD
ENDBRANCH   8  41
BRANCH   7  43
ATOM     43  O   UNL     1      24.879  -1.024  10.567  1.00  0.00    -0.504 OA
ATOM     44  H   UNL     1      24.301  -1.235  11.370  1.00  0.00     0.293 HD
ENDBRANCH   7  43
TORSDOF 11
ENDMDL
MODEL 8
REMARK VINA RESULT:    -4.385      2.496      4.470
REMARK INTER + INTRA:          -7.629
REMARK INTER:                  -7.400
REMARK INTRA:                  -0.229
REMARK UNBOUND:                -1.194
REMARK SMILES Cc1cc2c(C(C)C)c(O)c(O)c(C=O)c2c(O)c1-c1c(C)cc2c(C(C)C)c(O)c(O)c(C=O)c2c1O
REMARK SMILES IDX 1 1 2 2 3 3 4 4 16 5 13 6 11 7 9 8 5 9 17 10 19 11 20 12
REMARK SMILES IDX 37 13 21 14 36 15 23 16 22 17 24 18 33 19 25 20 31 21 29 22
REMARK SMILES IDX 38 23 34 25 35 26 26 27 27 28 28 29 32 30 30 32 18 34 6 36
REMARK SMILES IDX 7 37 8 38 14 39 15 40 10 41 12 43
REMARK H PARENT 38 24 32 31 30 33 18 35 10 42 12 44
REMARK Flexibility Score: inf
ROOT
ATOM      1  C   UNL     1      25.388  -8.610   7.832  1.00  0.00     0.045 C 
ATOM      2  C   UNL     1      26.185  -8.428   6.563  1.00  0.00    -0.039 A 
ATOM      3  C   UNL     1      26.636  -9.551   5.867  1.00  0.00     0.013 A 
ATOM      4  C   UNL     1      27.387  -9.445   4.678  1.00  0.00    -0.006 A 
ATOM      5  C   UNL     1      27.583  -8.148   4.114  1.00  0.00     0.039 A 
ATOM      6  C   UNL     1      28.164  -8.037   2.818  1.00  0.00     0.072 A 
ATOM      7  C   UNL     1      28.642  -9.188   2.162  1.00  0.00     0.169 A 
ATOM      8  C   UNL     1      28.542 -10.445   2.766  1.00  0.00     0.162 A 
ATOM      9  C   UNL     1      27.939 -10.600   4.036  1.00  0.00     0.008 A 
ATOM     10  C   UNL     1      27.216  -7.000   4.879  1.00  0.00     0.132 A 
ATOM     11  C   UNL     1      26.510  -7.147   6.091  1.00  0.00     0.031 A 
ENDROOT
BRANCH  11  12
ATOM     12  C   UNL     1      26.108  -5.950   6.875  1.00  0.00     0.031 A 
ATOM     13  C   UNL     1      27.081  -5.183   7.548  1.00  0.00     0.132 A 
ATOM     14  C   UNL     1      24.749  -5.608   6.977  1.00  0.00    -0.039 A 
ATOM     15  C   UNL     1      26.707  -4.005   8.262  1.00  0.00     0.039 A 
ATOM     16  C   UNL     1      24.370  -4.520   7.765  1.00  0.00     0.013 A 
ATOM     17  C   UNL     1      23.683  -6.450   6.320  1.00  0.00     0.045 C 
ATOM     18  C   UNL     1      25.322  -3.680   8.387  1.00  0.00    -0.006 A 
ATOM     19  C   UNL     1      27.672  -3.167   8.895  1.00  0.00     0.072 A 
ATOM     20  C   UNL     1      24.916  -2.553   9.168  1.00  0.00     0.008 A 
ATOM     21  C   UNL     1      27.250  -2.158   9.780  1.00  0.00     0.169 A 
ATOM     22  C   UNL     1      25.880  -1.915   9.980  1.00  0.00     0.162 A 
BRANCH  13  23
ATOM     23  O   UNL     1      28.411  -5.618   7.551  1.00  0.00    -0.507 OA
ATOM     24  H   UNL     1      29.192  -5.047   7.848  1.00  0.00     0.293 HD
ENDBRANCH  13  23
BRANCH  19  25
ATOM     25  C   UNL     1      29.119  -3.256   8.581  1.00  0.00     0.264 C 
ATOM     26  O   UNL     1      29.924  -3.814   9.371  1.00  0.00    -0.298 OA
ENDBRANCH  19  25
BRANCH  20  27
ATOM     27  C   UNL     1      23.458  -2.061   9.187  1.00  0.00     0.017 C 
ATOM     28  C   UNL     1      22.681  -2.701  10.342  1.00  0.00     0.012 C 
ATOM     29  C   UNL     1      23.316  -0.527   9.200  1.00  0.00     0.012 C 
ENDBRANCH  20  27
BRANCH  21  30
ATOM     30  O   UNL     1      28.219  -1.371  10.415  1.00  0.00    -0.504 OA
ATOM     31  H   UNL     1      28.090  -0.396  10.649  1.00  0.00     0.293 HD
ENDBRANCH  21  30
BRANCH  22  32
ATOM     32  O   UNL     1      25.454  -1.050  10.991  1.00  0.00    -0.504 OA
ATOM     33  H   UNL     1      25.068  -0.131  10.827  1.00  0.00     0.293 HD
ENDBRANCH  22  32
ENDBRANCH  11  12
BRANCH  10  34
ATOM     34  O   UNL     1      27.587  -5.719   4.452  1.00  0.00    -0.507 OA
ATOM     35  H   UNL     1      27.413  -4.875   4.981  1.00  0.00     0.293 HD
ENDBRANCH  10  34
BRANCH   9  36
ATOM     36  C   UNL     1      27.936 -12.014   4.653  1.00  0.00     0.017 C 
ATOM     37  C   UNL     1      29.344 -12.473   5.055  1.00  0.00     0.012 C 
ATOM     38  C   UNL     1      27.165 -13.066   3.829  1.00  0.00     0.012 C 
ENDBRANCH   9  36
BRANCH   6  39
ATOM     39  C   UNL     1      28.197  -6.761   2.073  1.00  0.00     0.264 C 
ATOM     40  O   UNL     1      27.808  -6.711   0.876  1.00  0.00    -0.298 OA
ENDBRANCH   6  39
BRANCH   8  41
ATOM     41  O   UNL     1      29.032 -11.566   2.087  1.00  0.00    -0.504 OA
ATOM     42  H   UNL     1      29.589 -11.502   1.244  1.00  0.00     0.293 HD
ENDBRANCH   8  41
BRANCH   7  43
ATOM     43  O   UNL     1      29.212  -9.117   0.884  1.00  0.00    -0.504 OA
ATOM     44  H   UNL     1      29.649  -8.289   0.502  1.00  0.00     0.293 HD
ENDBRANCH   7  43
TORSDOF 11
ENDMDL
