MODEL 1
REMARK VINA RESULT:    -7.381      0.000      0.000
REMARK INTER + INTRA:          -8.793
REMARK INTER:                  -8.892
REMARK INTRA:                   0.098
REMARK UNBOUND:                 0.098
REMARK SMILES O=c1c(O)c(-c2ccc(O)c(O)c2)oc2cc(O)cc(O)c12
REMARK SMILES IDX 5 1 3 2 2 3 1 4 22 5 20 6 19 7 17 8 16 9 15 10 14 11 6 12
REMARK SMILES IDX 7 13 8 14 9 15 13 16 11 17 10 18 12 20 4 22 21 24 18 26
REMARK H PARENT 10 19 12 21 4 23 21 25 18 27
REMARK Flexibility Score: inf
ROOT
ATOM      1  C   UNL     1      13.061 -54.476  19.671  1.00  0.00     0.180 A 
ATOM      2  C   UNL     1      13.006 -54.878  21.017  1.00  0.00     0.208 A 
ATOM      3  C   UNL     1      14.078 -54.562  21.866  1.00  0.00     0.238 A 
ATOM      4  O   UNL     1      14.048 -54.972  23.056  1.00  0.00    -0.285 OA
ATOM      5  C   UNL     1      15.184 -53.833  21.364  1.00  0.00     0.111 A 
ATOM      6  C   UNL     1      16.306 -53.424  22.146  1.00  0.00     0.134 A 
ATOM      7  C   UNL     1      17.402 -52.822  21.516  1.00  0.00     0.093 A 
ATOM      8  C   UNL     1      17.389 -52.556  20.145  1.00  0.00     0.123 A 
ATOM      9  C   UNL     1      16.273 -52.898  19.384  1.00  0.00     0.094 A 
ATOM     10  C   UNL     1      15.179 -53.533  19.978  1.00  0.00     0.146 A 
ATOM     11  O   UNL     1      14.141 -53.852  19.215  1.00  0.00    -0.452 OA
ENDROOT
BRANCH   1  12
ATOM     12  C   UNL     1      11.960 -54.750  18.721  1.00  0.00     0.025 A 
ATOM     13  C   UNL     1      11.491 -53.720  17.890  1.00  0.00     0.016 A 
ATOM     14  C   UNL     1      10.438 -53.951  17.001  1.00  0.00     0.051 A 
ATOM     15  C   UNL     1       9.828 -55.208  16.938  1.00  0.00     0.157 A 
ATOM     16  C   UNL     1      11.331 -56.008  18.671  1.00  0.00     0.062 A 
ATOM     17  C   UNL     1      10.273 -56.241  17.780  1.00  0.00     0.158 A 
BRANCH  15  18
ATOM     18  O   UNL     1       8.782 -55.410  16.039  1.00  0.00    -0.504 OA
ATOM     19  H   UNL     1       8.501 -54.701  15.372  1.00  0.00     0.293 HD
ENDBRANCH  15  18
BRANCH  17  20
ATOM     20  O   UNL     1       9.661 -57.493  17.733  1.00  0.00    -0.504 OA
ATOM     21  H   UNL     1       9.830 -58.139  16.971  1.00  0.00     0.293 HD
ENDBRANCH  17  20
ENDBRANCH   1  12
BRANCH   2  22
ATOM     22  O   UNL     1      11.915 -55.615  21.486  1.00  0.00    -0.502 OA
ATOM     23  H   UNL     1      11.509 -55.463  22.401  1.00  0.00     0.293 HD
ENDBRANCH   2  22
BRANCH   6  24
ATOM     24  O   UNL     1      16.381 -53.559  23.535  1.00  0.00    -0.507 OA
ATOM     25  H   UNL     1      16.170 -54.406  24.042  1.00  0.00     0.293 HD
ENDBRANCH   6  24
BRANCH   8  26
ATOM     26  O   UNL     1      18.479 -51.943  19.530  1.00  0.00    -0.508 OA
ATOM     27  H   UNL     1      18.776 -52.203  18.597  1.00  0.00     0.293 HD
ENDBRANCH   8  26
TORSDOF 6
ENDMDL
MODEL 2
REMARK VINA RESULT:    -7.374      1.711      7.051
REMARK INTER + INTRA:          -8.785
REMARK INTER:                  -8.669
REMARK INTRA:                  -0.116
REMARK UNBOUND:                 0.098
REMARK SMILES O=c1c(O)c(-c2ccc(O)c(O)c2)oc2cc(O)cc(O)c12
REMARK SMILES IDX 5 1 3 2 2 3 1 4 22 5 20 6 19 7 17 8 16 9 15 10 14 11 6 12
REMARK SMILES IDX 7 13 8 14 9 15 13 16 11 17 10 18 12 20 4 22 21 24 18 26
REMARK H PARENT 10 19 12 21 4 23 21 25 18 27
REMARK Flexibility Score: inf
ROOT
ATOM      1  C   UNL     1      13.841 -54.683  19.843  1.00  0.00     0.180 A 
ATOM      2  C   UNL     1      13.106 -53.576  19.382  1.00  0.00     0.208 A 
ATOM      3  C   UNL     1      11.995 -53.795  18.552  1.00  0.00     0.238 A 
ATOM      4  O   UNL     1      11.374 -52.798  18.098  1.00  0.00    -0.285 OA
ATOM      5  C   UNL     1      11.622 -55.116  18.208  1.00  0.00     0.111 A 
ATOM      6  C   UNL     1      10.489 -55.456  17.407  1.00  0.00     0.134 A 
ATOM      7  C   UNL     1      10.291 -56.787  17.022  1.00  0.00     0.093 A 
ATOM      8  C   UNL     1      11.146 -57.800  17.462  1.00  0.00     0.123 A 
ATOM      9  C   UNL     1      12.220 -57.487  18.293  1.00  0.00     0.094 A 
ATOM     10  C   UNL     1      12.465 -56.162  18.665  1.00  0.00     0.146 A 
ATOM     11  O   UNL     1      13.504 -55.905  19.449  1.00  0.00    -0.452 OA
ENDROOT
BRANCH   1  12
ATOM     12  C   UNL     1      15.009 -54.535  20.741  1.00  0.00     0.025 A 
ATOM     13  C   UNL     1      16.143 -53.842  20.289  1.00  0.00     0.016 A 
ATOM     14  C   UNL     1      17.265 -53.709  21.112  1.00  0.00     0.051 A 
ATOM     15  C   UNL     1      17.276 -54.276  22.390  1.00  0.00     0.157 A 
ATOM     16  C   UNL     1      15.030 -55.122  22.018  1.00  0.00     0.062 A 
ATOM     17  C   UNL     1      16.155 -54.991  22.845  1.00  0.00     0.158 A 
BRANCH  15  18
ATOM     18  O   UNL     1      18.409 -54.123  23.190  1.00  0.00    -0.504 OA
ATOM     19  H   UNL     1      18.760 -53.211  23.456  1.00  0.00     0.293 HD
ENDBRANCH  15  18
BRANCH  17  20
ATOM     20  O   UNL     1      16.165 -55.571  24.113  1.00  0.00    -0.504 OA
ATOM     21  H   UNL     1      16.790 -55.246  24.841  1.00  0.00     0.293 HD
ENDBRANCH  17  20
ENDBRANCH   1  12
BRANCH   2  22
ATOM     22  O   UNL     1      13.505 -52.280  19.716  1.00  0.00    -0.502 OA
ATOM     23  H   UNL     1      12.998 -51.458  19.410  1.00  0.00     0.293 HD
ENDBRANCH   2  22
BRANCH   6  24
ATOM     24  O   UNL     1       9.524 -54.535  16.990  1.00  0.00    -0.507 OA
ATOM     25  H   UNL     1       9.693 -53.551  16.849  1.00  0.00     0.293 HD
ENDBRANCH   6  24
BRANCH   8  26
ATOM     26  O   UNL     1      10.933 -59.125  17.086  1.00  0.00    -0.508 OA
ATOM     27  H   UNL     1      10.065 -59.603  17.300  1.00  0.00     0.293 HD
ENDBRANCH   8  26
TORSDOF 6
ENDMDL
MODEL 3
REMARK VINA RESULT:    -7.360      2.313      7.266
REMARK INTER + INTRA:          -8.768
REMARK INTER:                  -8.480
REMARK INTRA:                  -0.289
REMARK UNBOUND:                 0.098
REMARK SMILES O=c1c(O)c(-c2ccc(O)c(O)c2)oc2cc(O)cc(O)c12
REMARK SMILES IDX 5 1 3 2 2 3 1 4 22 5 20 6 19 7 17 8 16 9 15 10 14 11 6 12
REMARK SMILES IDX 7 13 8 14 9 15 13 16 11 17 10 18 12 20 4 22 21 24 18 26
REMARK H PARENT 10 19 12 21 4 23 21 25 18 27
REMARK Flexibility Score: inf
ROOT
ATOM      1  C   UNL     1      12.287 -54.823  19.333  1.00  0.00     0.180 A 
ATOM      2  C   UNL     1      12.246 -53.623  18.601  1.00  0.00     0.208 A 
ATOM      3  C   UNL     1      11.339 -53.506  17.536  1.00  0.00     0.238 A 
ATOM      4  O   UNL     1      11.344 -52.450  16.850  1.00  0.00    -0.285 OA
ATOM      5  C   UNL     1      10.473 -54.582  17.226  1.00  0.00     0.111 A 
ATOM      6  C   UNL     1       9.487 -54.558  16.194  1.00  0.00     0.134 A 
ATOM      7  C   UNL     1       8.776 -55.726  15.891  1.00  0.00     0.093 A 
ATOM      8  C   UNL     1       8.969 -56.898  16.625  1.00  0.00     0.123 A 
ATOM      9  C   UNL     1       9.887 -56.914  17.674  1.00  0.00     0.094 A 
ATOM     10  C   UNL     1      10.637 -55.775  17.976  1.00  0.00     0.146 A 
ATOM     11  O   UNL     1      11.508 -55.837  18.976  1.00  0.00    -0.452 OA
ENDROOT
BRANCH   1  12
ATOM     12  C   UNL     1      13.198 -55.012  20.484  1.00  0.00     0.025 A 
ATOM     13  C   UNL     1      12.872 -54.442  21.725  1.00  0.00     0.016 A 
ATOM     14  C   UNL     1      13.727 -54.591  22.819  1.00  0.00     0.051 A 
ATOM     15  C   UNL     1      14.927 -55.298  22.688  1.00  0.00     0.157 A 
ATOM     16  C   UNL     1      14.414 -55.705  20.349  1.00  0.00     0.062 A 
ATOM     17  C   UNL     1      15.276 -55.854  21.446  1.00  0.00     0.158 A 
BRANCH  15  18
ATOM     18  O   UNL     1      15.759 -55.433  23.799  1.00  0.00    -0.504 OA
ATOM     19  H   UNL     1      15.431 -55.258  24.742  1.00  0.00     0.293 HD
ENDBRANCH  15  18
BRANCH  17  20
ATOM     20  O   UNL     1      16.477 -56.548  21.305  1.00  0.00    -0.504 OA
ATOM     21  H   UNL     1      16.538 -57.544  21.478  1.00  0.00     0.293 HD
ENDBRANCH  17  20
ENDBRANCH   1  12
BRANCH   2  22
ATOM     22  O   UNL     1      13.124 -52.581  18.910  1.00  0.00    -0.502 OA
ATOM     23  H   UNL     1      12.970 -51.953  19.690  1.00  0.00     0.293 HD
ENDBRANCH   2  22
BRANCH   6  24
ATOM     24  O   UNL     1       9.152 -53.415  15.462  1.00  0.00    -0.507 OA
ATOM     25  H   UNL     1       8.260 -53.260  15.016  1.00  0.00     0.293 HD
ENDBRANCH   6  24
BRANCH   8  26
ATOM     26  O   UNL     1       8.246 -58.051  16.327  1.00  0.00    -0.508 OA
ATOM     27  H   UNL     1       8.393 -58.915  16.835  1.00  0.00     0.293 HD
ENDBRANCH   8  26
TORSDOF 6
ENDMDL
MODEL 4
REMARK VINA RESULT:    -7.348      0.899      1.651
REMARK INTER + INTRA:          -8.753
REMARK INTER:                  -8.862
REMARK INTRA:                   0.109
REMARK UNBOUND:                 0.098
REMARK SMILES O=c1c(O)c(-c2ccc(O)c(O)c2)oc2cc(O)cc(O)c12
REMARK SMILES IDX 5 1 3 2 2 3 1 4 22 5 20 6 19 7 17 8 16 9 15 10 14 11 6 12
REMARK SMILES IDX 7 13 8 14 9 15 13 16 11 17 10 18 12 20 4 22 21 24 18 26
REMARK H PARENT 10 19 12 21 4 23 21 25 18 27
REMARK Flexibility Score: inf
ROOT
ATOM      1  C   UNL     1      12.987 -54.131  19.511  1.00  0.00     0.180 A 
ATOM      2  C   UNL     1      12.874 -54.679  20.800  1.00  0.00     0.208 A 
ATOM      3  C   UNL     1      13.941 -54.526  21.700  1.00  0.00     0.238 A 
ATOM      4  O   UNL     1      13.857 -55.066  22.834  1.00  0.00    -0.285 OA
ATOM      5  C   UNL     1      15.099 -53.813  21.306  1.00  0.00     0.111 A 
ATOM      6  C   UNL     1      16.223 -53.563  22.151  1.00  0.00     0.134 A 
ATOM      7  C   UNL     1      17.367 -52.960  21.615  1.00  0.00     0.093 A 
ATOM      8  C   UNL     1      17.405 -52.540  20.283  1.00  0.00     0.123 A 
ATOM      9  C   UNL     1      16.290 -52.726  19.467  1.00  0.00     0.094 A 
ATOM     10  C   UNL     1      15.147 -53.357  19.964  1.00  0.00     0.146 A 
ATOM     11  O   UNL     1      14.112 -53.525  19.150  1.00  0.00    -0.452 OA
ENDROOT
BRANCH   1  12
ATOM     12  C   UNL     1      11.896 -54.229  18.515  1.00  0.00     0.025 A 
ATOM     13  C   UNL     1      11.254 -55.461  18.312  1.00  0.00     0.016 A 
ATOM     14  C   UNL     1      10.236 -55.581  17.362  1.00  0.00     0.051 A 
ATOM     15  C   UNL     1       9.854 -54.479  16.591  1.00  0.00     0.157 A 
ATOM     16  C   UNL     1      11.524 -53.126  17.724  1.00  0.00     0.062 A 
ATOM     17  C   UNL     1      10.504 -53.245  16.769  1.00  0.00     0.158 A 
BRANCH  15  18
ATOM     18  O   UNL     1       8.833 -54.628  15.653  1.00  0.00    -0.504 OA
ATOM     19  H   UNL     1       8.656 -53.935  14.936  1.00  0.00     0.293 HD
ENDBRANCH  15  18
BRANCH  17  20
ATOM     20  O   UNL     1      10.138 -52.146  15.994  1.00  0.00    -0.504 OA
ATOM     21  H   UNL     1      10.540 -51.984  15.078  1.00  0.00     0.293 HD
ENDBRANCH  17  20
ENDBRANCH   1  12
BRANCH   2  22
ATOM     22  O   UNL     1      11.731 -55.398  21.161  1.00  0.00    -0.502 OA
ATOM     23  H   UNL     1      10.796 -55.030  21.035  1.00  0.00     0.293 HD
ENDBRANCH   2  22
BRANCH   6  24
ATOM     24  O   UNL     1      16.255 -53.860  23.516  1.00  0.00    -0.507 OA
ATOM     25  H   UNL     1      17.092 -53.889  24.078  1.00  0.00     0.293 HD
ENDBRANCH   6  24
BRANCH   8  26
ATOM     26  O   UNL     1      18.543 -51.927  19.762  1.00  0.00    -0.508 OA
ATOM     27  H   UNL     1      18.757 -51.961  18.773  1.00  0.00     0.293 HD
ENDBRANCH   8  26
TORSDOF 6
ENDMDL
MODEL 5
REMARK VINA RESULT:    -7.006      2.323      6.735
REMARK INTER + INTRA:          -8.342
REMARK INTER:                  -8.144
REMARK INTRA:                  -0.198
REMARK UNBOUND:                 0.098
REMARK SMILES O=c1c(O)c(-c2ccc(O)c(O)c2)oc2cc(O)cc(O)c12
REMARK SMILES IDX 5 1 3 2 2 3 1 4 22 5 20 6 19 7 17 8 16 9 15 10 14 11 6 12
REMARK SMILES IDX 7 13 8 14 9 15 13 16 11 17 10 18 12 20 4 22 21 24 18 26
REMARK H PARENT 10 19 12 21 4 23 21 25 18 27
REMARK Flexibility Score: inf
ROOT
ATOM      1  C   UNL     1      12.520 -55.156  19.148  1.00  0.00     0.180 A 
ATOM      2  C   UNL     1      11.985 -56.291  18.514  1.00  0.00     0.208 A 
ATOM      3  C   UNL     1      11.199 -56.122  17.364  1.00  0.00     0.238 A 
ATOM      4  O   UNL     1      10.678 -57.138  16.833  1.00  0.00    -0.285 OA
ATOM      5  C   UNL     1      10.970 -54.822  16.851  1.00  0.00     0.111 A 
ATOM      6  C   UNL     1      10.222 -54.538  15.669  1.00  0.00     0.134 A 
ATOM      7  C   UNL     1       9.950 -53.207  15.329  1.00  0.00     0.093 A 
ATOM      8  C   UNL     1      10.453 -52.151  16.091  1.00  0.00     0.123 A 
ATOM      9  C   UNL     1      11.235 -52.418  17.213  1.00  0.00     0.094 A 
ATOM     10  C   UNL     1      11.493 -53.736  17.599  1.00  0.00     0.146 A 
ATOM     11  O   UNL     1      12.233 -53.947  18.680  1.00  0.00    -0.452 OA
ENDROOT
BRANCH   1  12
ATOM     12  C   UNL     1      13.379 -55.255  20.349  1.00  0.00     0.025 A 
ATOM     13  C   UNL     1      12.949 -54.680  21.555  1.00  0.00     0.016 A 
ATOM     14  C   UNL     1      13.753 -54.743  22.696  1.00  0.00     0.051 A 
ATOM     15  C   UNL     1      15.003 -55.368  22.647  1.00  0.00     0.157 A 
ATOM     16  C   UNL     1      14.645 -55.865  20.296  1.00  0.00     0.062 A 
ATOM     17  C   UNL     1      15.455 -55.928  21.440  1.00  0.00     0.158 A 
BRANCH  15  18
ATOM     18  O   UNL     1      15.782 -55.418  23.802  1.00  0.00    -0.504 OA
ATOM     19  H   UNL     1      15.407 -55.189  24.715  1.00  0.00     0.293 HD
ENDBRANCH  15  18
BRANCH  17  20
ATOM     20  O   UNL     1      16.706 -56.540  21.379  1.00  0.00    -0.504 OA
ATOM     21  H   UNL     1      17.069 -56.923  20.514  1.00  0.00     0.293 HD
ENDBRANCH  17  20
ENDBRANCH   1  12
BRANCH   2  22
ATOM     22  O   UNL     1      12.206 -57.563  19.049  1.00  0.00    -0.502 OA
ATOM     23  H   UNL     1      11.453 -58.146  19.394  1.00  0.00     0.293 HD
ENDBRANCH   2  22
BRANCH   6  24
ATOM     24  O   UNL     1       9.751 -55.516  14.789  1.00  0.00    -0.507 OA
ATOM     25  H   UNL     1       9.219 -56.327  15.063  1.00  0.00     0.293 HD
ENDBRANCH   6  24
BRANCH   8  26
ATOM     26  O   UNL     1      10.190 -50.829  15.736  1.00  0.00    -0.508 OA
ATOM     27  H   UNL     1       9.302 -50.390  15.949  1.00  0.00     0.293 HD
ENDBRANCH   8  26
TORSDOF 6
ENDMDL
MODEL 6
REMARK VINA RESULT:    -6.996      2.379      3.790
REMARK INTER + INTRA:          -8.329
REMARK INTER:                  -8.029
REMARK INTRA:                  -0.301
REMARK UNBOUND:                 0.098
REMARK SMILES O=c1c(O)c(-c2ccc(O)c(O)c2)oc2cc(O)cc(O)c12
REMARK SMILES IDX 5 1 3 2 2 3 1 4 22 5 20 6 19 7 17 8 16 9 15 10 14 11 6 12
REMARK SMILES IDX 7 13 8 14 9 15 13 16 11 17 10 18 12 20 4 22 21 24 18 26
REMARK H PARENT 10 19 12 21 4 23 21 25 18 27
REMARK Flexibility Score: inf
ROOT
ATOM      1  C   UNL     1      13.411 -56.658  18.519  1.00  0.00     0.180 A 
ATOM      2  C   UNL     1      14.469 -56.323  17.656  1.00  0.00     0.208 A 
ATOM      3  C   UNL     1      15.661 -55.821  18.203  1.00  0.00     0.238 A 
ATOM      4  O   UNL     1      16.584 -55.472  17.422  1.00  0.00    -0.285 OA
ATOM      5  C   UNL     1      15.786 -55.676  19.606  1.00  0.00     0.111 A 
ATOM      6  C   UNL     1      16.963 -55.215  20.270  1.00  0.00     0.134 A 
ATOM      7  C   UNL     1      16.929 -54.986  21.652  1.00  0.00     0.093 A 
ATOM      8  C   UNL     1      15.784 -55.263  22.401  1.00  0.00     0.123 A 
ATOM      9  C   UNL     1      14.650 -55.770  21.769  1.00  0.00     0.094 A 
ATOM     10  C   UNL     1      14.641 -55.974  20.387  1.00  0.00     0.146 A 
ATOM     11  O   UNL     1      13.536 -56.448  19.824  1.00  0.00    -0.452 OA
ENDROOT
BRANCH   1  12
ATOM     12  C   UNL     1      12.134 -57.216  18.020  1.00  0.00     0.025 A 
ATOM     13  C   UNL     1      12.054 -58.581  17.701  1.00  0.00     0.016 A 
ATOM     14  C   UNL     1      10.865 -59.125  17.209  1.00  0.00     0.051 A 
ATOM     15  C   UNL     1       9.744 -58.312  17.013  1.00  0.00     0.157 A 
ATOM     16  C   UNL     1      11.012 -56.397  17.802  1.00  0.00     0.062 A 
ATOM     17  C   UNL     1       9.818 -56.940  17.306  1.00  0.00     0.158 A 
BRANCH  15  18
ATOM     18  O   UNL     1       8.569 -58.883  16.523  1.00  0.00    -0.504 OA
ATOM     19  H   UNL     1       7.724 -58.936  17.079  1.00  0.00     0.293 HD
ENDBRANCH  15  18
BRANCH  17  20
ATOM     20  O   UNL     1       8.708 -56.121  17.100  1.00  0.00    -0.504 OA
ATOM     21  H   UNL     1       8.613 -55.228  17.568  1.00  0.00     0.293 HD
ENDBRANCH  17  20
ENDBRANCH   1  12
BRANCH   2  22
ATOM     22  O   UNL     1      14.317 -56.454  16.273  1.00  0.00    -0.502 OA
ATOM     23  H   UNL     1      13.537 -56.047  15.771  1.00  0.00     0.293 HD
ENDBRANCH   2  22
BRANCH   6  24
ATOM     24  O   UNL     1      18.185 -54.994  19.631  1.00  0.00    -0.507 OA
ATOM     25  H   UNL     1      18.343 -55.103  18.640  1.00  0.00     0.293 HD
ENDBRANCH   6  24
BRANCH   8  26
ATOM     26  O   UNL     1      15.765 -55.047  23.777  1.00  0.00    -0.508 OA
ATOM     27  H   UNL     1      16.522 -54.567  24.249  1.00  0.00     0.293 HD
ENDBRANCH   8  26
TORSDOF 6
ENDMDL
MODEL 7
REMARK VINA RESULT:    -6.804      2.013      2.873
REMARK INTER + INTRA:          -8.099
REMARK INTER:                  -7.827
REMARK INTRA:                  -0.272
REMARK UNBOUND:                 0.098
REMARK SMILES O=c1c(O)c(-c2ccc(O)c(O)c2)oc2cc(O)cc(O)c12
REMARK SMILES IDX 5 1 3 2 2 3 1 4 22 5 20 6 19 7 17 8 16 9 15 10 14 11 6 12
REMARK SMILES IDX 7 13 8 14 9 15 13 16 11 17 10 18 12 20 4 22 21 24 18 26
REMARK H PARENT 10 19 12 21 4 23 21 25 18 27
REMARK Flexibility Score: inf
ROOT
ATOM      1  C   UNL     1      12.451 -53.455  18.458  1.00  0.00     0.180 A 
ATOM      2  C   UNL     1      11.841 -54.440  19.254  1.00  0.00     0.208 A 
ATOM      3  C   UNL     1      12.462 -54.828  20.452  1.00  0.00     0.238 A 
ATOM      4  O   UNL     1      11.940 -55.749  21.133  1.00  0.00    -0.285 OA
ATOM      5  C   UNL     1      13.676 -54.215  20.847  1.00  0.00     0.111 A 
ATOM      6  C   UNL     1      14.371 -54.503  22.061  1.00  0.00     0.134 A 
ATOM      7  C   UNL     1      15.630 -53.932  22.286  1.00  0.00     0.093 A 
ATOM      8  C   UNL     1      16.188 -53.035  21.374  1.00  0.00     0.123 A 
ATOM      9  C   UNL     1      15.491 -52.702  20.214  1.00  0.00     0.094 A 
ATOM     10  C   UNL     1      14.249 -53.283  19.944  1.00  0.00     0.146 A 
ATOM     11  O   UNL     1      13.623 -52.947  18.823  1.00  0.00    -0.452 OA
ENDROOT
BRANCH   1  12
ATOM     12  C   UNL     1      11.845 -52.976  17.195  1.00  0.00     0.025 A 
ATOM     13  C   UNL     1      11.154 -51.754  17.180  1.00  0.00     0.016 A 
ATOM     14  C   UNL     1      10.556 -51.293  16.005  1.00  0.00     0.051 A 
ATOM     15  C   UNL     1      10.627 -52.050  14.831  1.00  0.00     0.157 A 
ATOM     16  C   UNL     1      11.898 -53.746  16.019  1.00  0.00     0.062 A 
ATOM     17  C   UNL     1      11.297 -53.285  14.838  1.00  0.00     0.158 A 
BRANCH  15  18
ATOM     18  O   UNL     1      10.023 -51.563  13.672  1.00  0.00    -0.504 OA
ATOM     19  H   UNL     1      10.513 -50.956  13.025  1.00  0.00     0.293 HD
ENDBRANCH  15  18
BRANCH  17  20
ATOM     20  O   UNL     1      11.359 -54.052  13.675  1.00  0.00    -0.504 OA
ATOM     21  H   UNL     1      11.978 -54.851  13.599  1.00  0.00     0.293 HD
ENDBRANCH  17  20
ENDBRANCH   1  12
BRANCH   2  22
ATOM     22  O   UNL     1      10.655 -55.047  18.834  1.00  0.00    -0.502 OA
ATOM     23  H   UNL     1      10.572 -56.048  18.704  1.00  0.00     0.293 HD
ENDBRANCH   2  22
BRANCH   6  24
ATOM     24  O   UNL     1      13.861 -55.313  23.079  1.00  0.00    -0.507 OA
ATOM     25  H   UNL     1      14.345 -55.528  23.938  1.00  0.00     0.293 HD
ENDBRANCH   6  24
BRANCH   8  26
ATOM     26  O   UNL     1      17.435 -52.460  21.614  1.00  0.00    -0.508 OA
ATOM     27  H   UNL     1      18.129 -52.374  20.881  1.00  0.00     0.293 HD
ENDBRANCH   8  26
TORSDOF 6
ENDMDL
MODEL 8
REMARK VINA RESULT:    -6.617      2.854      4.311
REMARK INTER + INTRA:          -7.872
REMARK INTER:                  -7.646
REMARK INTRA:                  -0.226
REMARK UNBOUND:                 0.098
REMARK SMILES O=c1c(O)c(-c2ccc(O)c(O)c2)oc2cc(O)cc(O)c12
REMARK SMILES IDX 5 1 3 2 2 3 1 4 22 5 20 6 19 7 17 8 16 9 15 10 14 11 6 12
REMARK SMILES IDX 7 13 8 14 9 15 13 16 11 17 10 18 12 20 4 22 21 24 18 26
REMARK H PARENT 10 19 12 21 4 23 21 25 18 27
REMARK Flexibility Score: inf
ROOT
ATOM      1  C   UNL     1      13.668 -56.074  18.710  1.00  0.00     0.180 A 
ATOM      2  C   UNL     1      14.993 -55.758  19.059  1.00  0.00     0.208 A 
ATOM      3  C   UNL     1      15.234 -55.049  20.246  1.00  0.00     0.238 A 
ATOM      4  O   UNL     1      16.416 -54.722  20.526  1.00  0.00    -0.285 OA
ATOM      5  C   UNL     1      14.149 -54.680  21.079  1.00  0.00     0.111 A 
ATOM      6  C   UNL     1      14.282 -53.996  22.325  1.00  0.00     0.134 A 
ATOM      7  C   UNL     1      13.133 -53.566  23.001  1.00  0.00     0.093 A 
ATOM      8  C   UNL     1      11.858 -53.852  22.509  1.00  0.00     0.123 A 
ATOM      9  C   UNL     1      11.718 -54.572  21.324  1.00  0.00     0.094 A 
ATOM     10  C   UNL     1      12.846 -54.983  20.609  1.00  0.00     0.146 A 
ATOM     11  O   UNL     1      12.669 -55.657  19.479  1.00  0.00    -0.452 OA
ENDROOT
BRANCH   1  12
ATOM     12  C   UNL     1      13.336 -56.840  17.488  1.00  0.00     0.025 A 
ATOM     13  C   UNL     1      12.936 -58.181  17.600  1.00  0.00     0.016 A 
ATOM     14  C   UNL     1      12.638 -58.929  16.458  1.00  0.00     0.051 A 
ATOM     15  C   UNL     1      12.750 -58.355  15.188  1.00  0.00     0.157 A 
ATOM     16  C   UNL     1      13.468 -56.271  16.208  1.00  0.00     0.062 A 
ATOM     17  C   UNL     1      13.172 -57.020  15.060  1.00  0.00     0.158 A 
BRANCH  15  18
ATOM     18  O   UNL     1      12.444 -59.125  14.066  1.00  0.00    -0.504 OA
ATOM     19  H   UNL     1      11.512 -59.148  13.668  1.00  0.00     0.293 HD
ENDBRANCH  15  18
BRANCH  17  20
ATOM     20  O   UNL     1      13.299 -56.446  13.797  1.00  0.00    -0.504 OA
ATOM     21  H   UNL     1      13.122 -55.461  13.641  1.00  0.00     0.293 HD
ENDBRANCH  17  20
ENDBRANCH   1  12
BRANCH   2  22
ATOM     22  O   UNL     1      16.046 -56.113  18.212  1.00  0.00    -0.502 OA
ATOM     23  H   UNL     1      16.451 -57.042  18.208  1.00  0.00     0.293 HD
ENDBRANCH   2  22
BRANCH   6  24
ATOM     24  O   UNL     1      15.505 -53.740  22.950  1.00  0.00    -0.507 OA
ATOM     25  H   UNL     1      15.955 -54.359  23.607  1.00  0.00     0.293 HD
ENDBRANCH   6  24
BRANCH   8  26
ATOM     26  O   UNL     1      10.720 -53.433  23.196  1.00  0.00    -0.508 OA
ATOM     27  H   UNL     1      10.784 -52.847  24.019  1.00  0.00     0.293 HD
ENDBRANCH   8  26
TORSDOF 6
ENDMDL
MODEL 9
REMARK VINA RESULT:    -6.186     11.429     14.345
REMARK INTER + INTRA:          -7.353
REMARK INTER:                  -7.108
REMARK INTRA:                  -0.245
REMARK UNBOUND:                 0.098
REMARK SMILES O=c1c(O)c(-c2ccc(O)c(O)c2)oc2cc(O)cc(O)c12
REMARK SMILES IDX 5 1 3 2 2 3 1 4 22 5 20 6 19 7 17 8 16 9 15 10 14 11 6 12
REMARK SMILES IDX 7 13 8 14 9 15 13 16 11 17 10 18 12 20 4 22 21 24 18 26
REMARK H PARENT 10 19 12 21 4 23 21 25 18 27
REMARK Flexibility Score: inf
ROOT
ATOM      1  C   UNL     1       1.816 -47.606  18.152  1.00  0.00     0.180 A 
ATOM      2  C   UNL     1       0.530 -47.465  18.704  1.00  0.00     0.208 A 
ATOM      3  C   UNL     1       0.047 -48.463  19.565  1.00  0.00     0.238 A 
ATOM      4  O   UNL     1      -1.125 -48.359  20.013  1.00  0.00    -0.285 OA
ATOM      5  C   UNL     1       0.859 -49.579  19.877  1.00  0.00     0.111 A 
ATOM      6  C   UNL     1       0.486 -50.629  20.770  1.00  0.00     0.134 A 
ATOM      7  C   UNL     1       1.315 -51.750  20.903  1.00  0.00     0.093 A 
ATOM      8  C   UNL     1       2.534 -51.828  20.226  1.00  0.00     0.123 A 
ATOM      9  C   UNL     1       2.935 -50.781  19.398  1.00  0.00     0.094 A 
ATOM     10  C   UNL     1       2.112 -49.666  19.218  1.00  0.00     0.146 A 
ATOM     11  O   UNL     1       2.527 -48.696  18.413  1.00  0.00    -0.452 OA
ENDROOT
BRANCH   1  12
ATOM     12  C   UNL     1       2.405 -46.585  17.257  1.00  0.00     0.025 A 
ATOM     13  C   UNL     1       2.626 -46.895  15.906  1.00  0.00     0.016 A 
ATOM     14  C   UNL     1       3.200 -45.954  15.048  1.00  0.00     0.051 A 
ATOM     15  C   UNL     1       3.575 -44.695  15.527  1.00  0.00     0.157 A 
ATOM     16  C   UNL     1       2.801 -45.325  17.742  1.00  0.00     0.062 A 
ATOM     17  C   UNL     1       3.379 -44.380  16.883  1.00  0.00     0.158 A 
BRANCH  15  18
ATOM     18  O   UNL     1       4.143 -43.775  14.647  1.00  0.00    -0.504 OA
ATOM     19  H   UNL     1       3.952 -42.782  14.709  1.00  0.00     0.293 HD
ENDBRANCH  15  18
BRANCH  17  20
ATOM     20  O   UNL     1       3.763 -43.132  17.371  1.00  0.00    -0.504 OA
ATOM     21  H   UNL     1       3.112 -42.357  17.421  1.00  0.00     0.293 HD
ENDBRANCH  17  20
ENDBRANCH   1  12
BRANCH   2  22
ATOM     22  O   UNL     1      -0.263 -46.366  18.366  1.00  0.00    -0.502 OA
ATOM     23  H   UNL     1      -0.569 -46.187  17.417  1.00  0.00     0.293 HD
ENDBRANCH   2  22
BRANCH   6  24
ATOM     24  O   UNL     1      -0.665 -50.607  21.562  1.00  0.00    -0.507 OA
ATOM     25  H   UNL     1      -1.409 -49.931  21.476  1.00  0.00     0.293 HD
ENDBRANCH   6  24
BRANCH   8  26
ATOM     26  O   UNL     1       3.360 -52.940  20.375  1.00  0.00    -0.508 OA
ATOM     27  H   UNL     1       3.563 -53.331  21.288  1.00  0.00     0.293 HD
ENDBRANCH   8  26
TORSDOF 6
ENDMDL
