MODEL 1
REMARK VINA RESULT:    -3.806      0.000      0.000
REMARK INTER + INTRA:          -5.013
REMARK INTER:                  -4.696
REMARK INTRA:                  -0.317
REMARK UNBOUND:                -0.317
REMARK SMILES CCCCC(=O)c1ccccc1
REMARK SMILES IDX 4 1 3 2 2 3 1 4 5 5 6 6 7 7 8 8 12 9 9 10 11 11 10 12
REMARK H PARENT
REMARK Flexibility Score: inf
ROOT
ATOM      1  C   UNL     1       1.595  22.942  32.672  1.00  0.00     0.081 C 
ENDROOT
BRANCH   1   2
ATOM      2  C   UNL     1       1.401  21.993  33.867  1.00  0.00     0.008 C 
BRANCH   2   3
ATOM      3  C   UNL     1       1.290  20.508  33.479  1.00  0.00    -0.003 C 
ATOM      4  C   UNL     1       2.642  19.875  33.151  1.00  0.00     0.004 C 
ENDBRANCH   2   3
ENDBRANCH   1   2
BRANCH   1   5
ATOM      5  C   UNL     1       0.319  23.123  31.890  1.00  0.00     0.162 C 
ATOM      6  O   UNL     1       0.119  22.379  30.892  1.00  0.00    -0.294 OA
BRANCH   5   7
ATOM      7  C   UNL     1      -0.659  24.195  32.198  1.00  0.00     0.017 A 
ATOM      8  C   UNL     1      -1.933  23.851  32.688  1.00  0.00     0.012 A 
ATOM      9  C   UNL     1      -0.341  25.556  32.028  1.00  0.00     0.012 A 
ATOM     10  C   UNL     1      -2.874  24.844  32.976  1.00  0.00     0.001 A 
ATOM     11  C   UNL     1      -1.286  26.545  32.319  1.00  0.00     0.001 A 
ATOM     12  C   UNL     1      -2.552  26.190  32.788  1.00  0.00     0.000 A 
ENDBRANCH   5   7
ENDBRANCH   1   5
TORSDOF 4
ENDMDL
MODEL 2
REMARK VINA RESULT:    -3.643      1.498      4.859
REMARK INTER + INTRA:          -4.812
REMARK INTER:                  -4.200
REMARK INTRA:                  -0.612
REMARK UNBOUND:                -0.317
REMARK SMILES CCCCC(=O)c1ccccc1
REMARK SMILES IDX 4 1 3 2 2 3 1 4 5 5 6 6 7 7 8 8 12 9 9 10 11 11 10 12
REMARK H PARENT
REMARK Flexibility Score: inf
ROOT
ATOM      1  C   UNL     1      -0.967  24.343  31.167  1.00  0.00     0.081 C 
ENDROOT
BRANCH   1   2
ATOM      2  C   UNL     1      -2.178  24.612  32.076  1.00  0.00     0.008 C 
BRANCH   2   3
ATOM      3  C   UNL     1      -2.962  23.348  32.471  1.00  0.00    -0.003 C 
ATOM      4  C   UNL     1      -2.689  22.902  33.908  1.00  0.00     0.004 C 
ENDBRANCH   2   3
ENDBRANCH   1   2
BRANCH   1   5
ATOM      5  C   UNL     1       0.253  23.954  31.962  1.00  0.00     0.162 C 
ATOM      6  O   UNL     1       1.022  24.870  32.362  1.00  0.00    -0.294 OA
BRANCH   5   7
ATOM      7  C   UNL     1       0.624  22.540  32.211  1.00  0.00     0.017 A 
ATOM      8  C   UNL     1       1.549  22.235  33.227  1.00  0.00     0.012 A 
ATOM      9  C   UNL     1       0.063  21.486  31.465  1.00  0.00     0.012 A 
ATOM     10  C   UNL     1       1.921  20.910  33.473  1.00  0.00     0.001 A 
ATOM     11  C   UNL     1       0.439  20.163  31.715  1.00  0.00     0.001 A 
ATOM     12  C   UNL     1       1.369  19.875  32.716  1.00  0.00     0.000 A 
ENDBRANCH   5   7
ENDBRANCH   1   5
TORSDOF 4
ENDMDL
MODEL 3
REMARK VINA RESULT:    -3.619      1.815      2.401
REMARK INTER + INTRA:          -4.782
REMARK INTER:                  -4.173
REMARK INTRA:                  -0.609
REMARK UNBOUND:                -0.317
REMARK SMILES CCCCC(=O)c1ccccc1
REMARK SMILES IDX 4 1 3 2 2 3 1 4 5 5 6 6 7 7 8 8 12 9 9 10 11 11 10 12
REMARK H PARENT
REMARK Flexibility Score: inf
ROOT
ATOM      1  C   UNL     1       1.389  22.243  33.908  1.00  0.00     0.081 C 
ENDROOT
BRANCH   1   2
ATOM      2  C   UNL     1       1.898  20.966  33.218  1.00  0.00     0.008 C 
BRANCH   2   3
ATOM      3  C   UNL     1       0.814  19.897  32.995  1.00  0.00    -0.003 C 
ATOM      4  C   UNL     1       0.285  19.875  31.561  1.00  0.00     0.004 C 
ENDBRANCH   2   3
ENDBRANCH   1   2
BRANCH   1   5
ATOM      5  C   UNL     1       0.771  23.201  32.922  1.00  0.00     0.162 C 
ATOM      6  O   UNL     1       1.514  24.067  32.384  1.00  0.00    -0.294 OA
BRANCH   5   7
ATOM      7  C   UNL     1      -0.684  23.220  32.633  1.00  0.00     0.017 A 
ATOM      8  C   UNL     1      -1.142  23.757  31.416  1.00  0.00     0.012 A 
ATOM      9  C   UNL     1      -1.624  22.697  33.542  1.00  0.00     0.012 A 
ATOM     10  C   UNL     1      -2.508  23.793  31.126  1.00  0.00     0.001 A 
ATOM     11  C   UNL     1      -2.990  22.736  33.246  1.00  0.00     0.001 A 
ATOM     12  C   UNL     1      -3.433  23.286  32.042  1.00  0.00     0.000 A 
ENDBRANCH   5   7
ENDBRANCH   1   5
TORSDOF 4
ENDMDL
MODEL 4
REMARK VINA RESULT:    -3.544      1.575      5.304
REMARK INTER + INTRA:          -4.689
REMARK INTER:                  -4.507
REMARK INTRA:                  -0.181
REMARK UNBOUND:                -0.317
REMARK SMILES CCCCC(=O)c1ccccc1
REMARK SMILES IDX 4 1 3 2 2 3 1 4 5 5 6 6 7 7 8 8 12 9 9 10 11 11 10 12
REMARK H PARENT
REMARK Flexibility Score: inf
ROOT
ATOM      1  C   UNL     1      -0.067  24.684  31.839  1.00  0.00     0.081 C 
ENDROOT
BRANCH   1   2
ATOM      2  C   UNL     1      -0.820  25.930  32.335  1.00  0.00     0.008 C 
BRANCH   2   3
ATOM      3  C   UNL     1      -0.361  27.245  31.679  1.00  0.00    -0.003 C 
ATOM      4  C   UNL     1       0.655  28.010  32.527  1.00  0.00     0.004 C 
ENDBRANCH   2   3
ENDBRANCH   1   2
BRANCH   1   5
ATOM      5  C   UNL     1      -0.525  23.436  32.549  1.00  0.00     0.162 C 
ATOM      6  O   UNL     1      -1.633  23.464  33.152  1.00  0.00    -0.294 OA
BRANCH   5   7
ATOM      7  C   UNL     1       0.314  22.216  32.638  1.00  0.00     0.017 A 
ATOM      8  C   UNL     1      -0.049  21.071  31.905  1.00  0.00     0.012 A 
ATOM      9  C   UNL     1       1.479  22.177  33.428  1.00  0.00     0.012 A 
ATOM     10  C   UNL     1       0.722  19.907  31.981  1.00  0.00     0.001 A 
ATOM     11  C   UNL     1       2.246  21.010  33.500  1.00  0.00     0.001 A 
ATOM     12  C   UNL     1       1.866  19.875  32.780  1.00  0.00     0.000 A 
ENDBRANCH   5   7
ENDBRANCH   1   5
TORSDOF 4
ENDMDL
MODEL 5
REMARK VINA RESULT:    -3.532      2.250      3.455
REMARK INTER + INTRA:          -4.675
REMARK INTER:                  -4.256
REMARK INTRA:                  -0.419
REMARK UNBOUND:                -0.317
REMARK SMILES CCCCC(=O)c1ccccc1
REMARK SMILES IDX 4 1 3 2 2 3 1 4 5 5 6 6 7 7 8 8 12 9 9 10 11 11 10 12
REMARK H PARENT
REMARK Flexibility Score: inf
ROOT
ATOM      1  C   UNL     1      -0.677  24.807  31.111  1.00  0.00     0.081 C 
ENDROOT
BRANCH   1   2
ATOM      2  C   UNL     1      -0.306  23.849  32.255  1.00  0.00     0.008 C 
BRANCH   2   3
ATOM      3  C   UNL     1       1.208  23.647  32.441  1.00  0.00    -0.003 C 
ATOM      4  C   UNL     1       1.543  22.552  33.454  1.00  0.00     0.004 C 
ENDBRANCH   2   3
ENDBRANCH   1   2
BRANCH   1   5
ATOM      5  C   UNL     1      -1.511  25.964  31.599  1.00  0.00     0.162 C 
ATOM      6  O   UNL     1      -2.692  26.072  31.170  1.00  0.00    -0.294 OA
BRANCH   5   7
ATOM      7  C   UNL     1      -0.966  27.019  32.488  1.00  0.00     0.017 A 
ATOM      8  C   UNL     1      -1.770  27.537  33.521  1.00  0.00     0.012 A 
ATOM      9  C   UNL     1       0.345  27.508  32.337  1.00  0.00     0.012 A 
ATOM     10  C   UNL     1      -1.282  28.538  34.365  1.00  0.00     0.001 A 
ATOM     11  C   UNL     1       0.829  28.510  33.185  1.00  0.00     0.001 A 
ATOM     12  C   UNL     1       0.015  29.027  34.195  1.00  0.00     0.000 A 
ENDBRANCH   5   7
ENDBRANCH   1   5
TORSDOF 4
ENDMDL
MODEL 6
REMARK VINA RESULT:    -3.528      1.688      5.180
REMARK INTER + INTRA:          -4.670
REMARK INTER:                  -4.130
REMARK INTRA:                  -0.540
REMARK UNBOUND:                -0.317
REMARK SMILES CCCCC(=O)c1ccccc1
REMARK SMILES IDX 4 1 3 2 2 3 1 4 5 5 6 6 7 7 8 8 12 9 9 10 11 11 10 12
REMARK H PARENT
REMARK Flexibility Score: inf
ROOT
ATOM      1  C   UNL     1      -2.438  23.089  31.605  1.00  0.00     0.081 C 
ENDROOT
BRANCH   1   2
ATOM      2  C   UNL     1      -2.377  24.600  31.327  1.00  0.00     0.008 C 
BRANCH   2   3
ATOM      3  C   UNL     1      -0.965  25.126  31.013  1.00  0.00    -0.003 C 
ATOM      4  C   UNL     1      -0.494  26.193  32.001  1.00  0.00     0.004 C 
ENDBRANCH   2   3
ENDBRANCH   1   2
BRANCH   1   5
ATOM      5  C   UNL     1      -1.810  22.739  32.930  1.00  0.00     0.162 C 
ATOM      6  O   UNL     1      -2.349  23.180  33.982  1.00  0.00    -0.294 OA
BRANCH   5   7
ATOM      7  C   UNL     1      -0.542  21.976  33.034  1.00  0.00     0.017 A 
ATOM      8  C   UNL     1       0.676  22.670  33.154  1.00  0.00     0.012 A 
ATOM      9  C   UNL     1      -0.525  20.568  33.031  1.00  0.00     0.012 A 
ATOM     10  C   UNL     1       1.884  21.972  33.244  1.00  0.00     0.001 A 
ATOM     11  C   UNL     1       0.686  19.875  33.122  1.00  0.00     0.001 A 
ATOM     12  C   UNL     1       1.889  20.576  33.224  1.00  0.00     0.000 A 
ENDBRANCH   5   7
ENDBRANCH   1   5
TORSDOF 4
ENDMDL
MODEL 7
REMARK VINA RESULT:    -3.502      1.371      2.254
REMARK INTER + INTRA:          -4.637
REMARK INTER:                  -4.102
REMARK INTRA:                  -0.535
REMARK UNBOUND:                -0.317
REMARK SMILES CCCCC(=O)c1ccccc1
REMARK SMILES IDX 4 1 3 2 2 3 1 4 5 5 6 6 7 7 8 8 12 9 9 10 11 11 10 12
REMARK H PARENT
REMARK Flexibility Score: inf
ROOT
ATOM      1  C   UNL     1       0.440  23.007  31.658  1.00  0.00     0.081 C 
ENDROOT
BRANCH   1   2
ATOM      2  C   UNL     1       1.540  23.262  32.702  1.00  0.00     0.008 C 
BRANCH   2   3
ATOM      3  C   UNL     1       1.561  22.245  33.856  1.00  0.00    -0.003 C 
ATOM      4  C   UNL     1       1.347  20.806  33.385  1.00  0.00     0.004 C 
ENDBRANCH   2   3
ENDBRANCH   1   2
BRANCH   1   5
ATOM      5  C   UNL     1      -0.668  24.026  31.754  1.00  0.00     0.162 C 
ATOM      6  O   UNL     1      -0.580  25.071  31.053  1.00  0.00    -0.294 OA
BRANCH   5   7
ATOM      7  C   UNL     1      -1.802  23.884  32.700  1.00  0.00     0.017 A 
ATOM      8  C   UNL     1      -2.081  22.624  33.263  1.00  0.00     0.012 A 
ATOM      9  C   UNL     1      -2.601  24.983  33.064  1.00  0.00     0.012 A 
ATOM     10  C   UNL     1      -3.149  22.465  34.149  1.00  0.00     0.001 A 
ATOM     11  C   UNL     1      -3.669  24.818  33.952  1.00  0.00     0.001 A 
ATOM     12  C   UNL     1      -3.946  23.560  34.491  1.00  0.00     0.000 A 
ENDBRANCH   5   7
ENDBRANCH   1   5
TORSDOF 4
ENDMDL
MODEL 8
REMARK VINA RESULT:    -3.420      1.286      2.194
REMARK INTER + INTRA:          -4.536
REMARK INTER:                  -4.116
REMARK INTRA:                  -0.420
REMARK UNBOUND:                -0.317
REMARK SMILES CCCCC(=O)c1ccccc1
REMARK SMILES IDX 4 1 3 2 2 3 1 4 5 5 6 6 7 7 8 8 12 9 9 10 11 11 10 12
REMARK H PARENT
REMARK Flexibility Score: inf
ROOT
ATOM      1  C   UNL     1       0.139  21.948  31.595  1.00  0.00     0.081 C 
ENDROOT
BRANCH   1   2
ATOM      2  C   UNL     1       0.866  20.869  32.415  1.00  0.00     0.008 C 
BRANCH   2   3
ATOM      3  C   UNL     1      -0.074  19.878  33.124  1.00  0.00    -0.003 C 
ATOM      4  C   UNL     1      -1.531  20.339  33.130  1.00  0.00     0.004 C 
ENDBRANCH   2   3
ENDBRANCH   1   2
BRANCH   1   5
ATOM      5  C   UNL     1       0.442  23.334  32.104  1.00  0.00     0.162 C 
ATOM      6  O   UNL     1       1.632  23.607  32.423  1.00  0.00    -0.294 OA
BRANCH   5   7
ATOM      7  C   UNL     1      -0.615  24.352  32.324  1.00  0.00     0.017 A 
ATOM      8  C   UNL     1      -0.351  25.701  32.023  1.00  0.00     0.012 A 
ATOM      9  C   UNL     1      -1.887  24.001  32.814  1.00  0.00     0.012 A 
ATOM     10  C   UNL     1      -1.329  26.678  32.231  1.00  0.00     0.001 A 
ATOM     11  C   UNL     1      -2.862  24.983  33.020  1.00  0.00     0.001 A 
ATOM     12  C   UNL     1      -2.582  26.320  32.732  1.00  0.00     0.000 A 
ENDBRANCH   5   7
ENDBRANCH   1   5
TORSDOF 4
ENDMDL
