MODEL 1
REMARK VINA RESULT:    -3.762      0.000      0.000
REMARK INTER + INTRA:         -14.232
REMARK INTER:                  -9.810
REMARK INTRA:                  -4.423
REMARK UNBOUND:                -4.423
REMARK SMILES CCCCCCCCCCCCCCCCCCCCCCCCCCCCCO
REMARK SMILES IDX 16 1 15 2 14 3 13 4 12 5 11 6 10 7 9 8 8 9 7 10 6 11 5 12
REMARK SMILES IDX 4 13 3 14 2 15 1 16 17 17 18 18 19 19 20 20 21 21 22 22
REMARK SMILES IDX 23 23 24 24 25 25 26 26 27 27 28 28 29 29 30 30
REMARK H PARENT 30 31
REMARK Flexibility Score: inf
ROOT
ATOM      1  C   UNL     1      -9.803  24.834 -36.953  1.00  0.00     0.000 C 
ENDROOT
BRANCH   1   2
ATOM      2  C   UNL     1      -9.895  26.144 -36.156  1.00  0.00     0.000 C 
BRANCH   2   3
ATOM      3  C   UNL     1      -9.970  27.395 -37.051  1.00  0.00     0.000 C 
BRANCH   3   4
ATOM      4  C   UNL     1     -10.276  28.716 -36.321  1.00  0.00     0.000 C 
BRANCH   4   5
ATOM      5  C   UNL     1      -9.614  29.937 -36.975  1.00  0.00     0.000 C 
BRANCH   5   6
ATOM      6  C   UNL     1     -10.468  31.200 -36.775  1.00  0.00     0.000 C 
BRANCH   6   7
ATOM      7  C   UNL     1      -9.629  32.423 -36.371  1.00  0.00     0.000 C 
BRANCH   7   8
ATOM      8  C   UNL     1      -8.181  32.346 -36.887  1.00  0.00    -0.000 C 
BRANCH   8   9
ATOM      9  C   UNL     1      -7.723  33.641 -37.583  1.00  0.00    -0.000 C 
BRANCH   9  10
ATOM     10  C   UNL     1      -7.942  34.934 -36.776  1.00  0.00    -0.000 C 
BRANCH  10  11
ATOM     11  C   UNL     1      -8.584  36.056 -37.608  1.00  0.00    -0.000 C 
BRANCH  11  12
ATOM     12  C   UNL     1      -9.071  35.577 -38.988  1.00  0.00    -0.000 C 
BRANCH  12  13
ATOM     13  C   UNL     1     -10.577  35.761 -39.258  1.00  0.00    -0.000 C 
BRANCH  13  14
ATOM     14  C   UNL     1     -11.465  35.039 -38.230  1.00  0.00    -0.000 C 
BRANCH  14  15
ATOM     15  C   UNL     1     -12.287  33.903 -38.860  1.00  0.00    -0.003 C 
ATOM     16  C   UNL     1     -13.194  33.197 -37.852  1.00  0.00     0.004 C 
ENDBRANCH  14  15
ENDBRANCH  13  14
ENDBRANCH  12  13
ENDBRANCH  11  12
ENDBRANCH  10  11
ENDBRANCH   9  10
ENDBRANCH   8   9
ENDBRANCH   7   8
ENDBRANCH   6   7
ENDBRANCH   5   6
ENDBRANCH   4   5
ENDBRANCH   3   4
ENDBRANCH   2   3
ENDBRANCH   1   2
BRANCH   1  17
ATOM     17  C   UNL     1      -9.389  25.055 -38.418  1.00  0.00     0.000 C 
BRANCH  17  18
ATOM     18  C   UNL     1     -10.275  24.304 -39.434  1.00  0.00     0.000 C 
BRANCH  18  19
ATOM     19  C   UNL     1     -11.178  25.256 -40.236  1.00  0.00     0.000 C 
BRANCH  19  20
ATOM     20  C   UNL     1     -10.382  26.279 -41.066  1.00  0.00     0.000 C 
BRANCH  20  21
ATOM     21  C   UNL     1     -10.705  27.746 -40.711  1.00  0.00     0.000 C 
BRANCH  21  22
ATOM     22  C   UNL     1     -12.077  27.895 -40.037  1.00  0.00     0.000 C 
BRANCH  22  23
ATOM     23  C   UNL     1     -12.232  29.288 -39.409  1.00  0.00     0.000 C 
BRANCH  23  24
ATOM     24  C   UNL     1     -13.575  29.954 -39.757  1.00  0.00     0.000 C 
BRANCH  24  25
ATOM     25  C   UNL     1     -14.807  29.348 -39.053  1.00  0.00     0.000 C 
BRANCH  25  26
ATOM     26  C   UNL     1     -14.690  29.230 -37.523  1.00  0.00     0.000 C 
BRANCH  26  27
ATOM     27  C   UNL     1     -14.903  27.796 -37.016  1.00  0.00     0.002 C 
BRANCH  27  28
ATOM     28  C   UNL     1     -13.572  27.155 -36.604  1.00  0.00     0.028 C 
BRANCH  28  29
ATOM     29  C   UNL     1     -13.466  25.721 -37.123  1.00  0.00     0.156 C 
BRANCH  29  30
ATOM     30  O   UNL     1     -14.553  24.975 -36.652  1.00  0.00    -0.396 OA
ATOM     31  H   UNL     1     -15.366  25.408 -37.022  1.00  0.00     0.210 HD
ENDBRANCH  29  30
ENDBRANCH  28  29
ENDBRANCH  27  28
ENDBRANCH  26  27
ENDBRANCH  25  26
ENDBRANCH  24  25
ENDBRANCH  23  24
ENDBRANCH  22  23
ENDBRANCH  21  22
ENDBRANCH  20  21
ENDBRANCH  19  20
ENDBRANCH  18  19
ENDBRANCH  17  18
ENDBRANCH   1  17
TORSDOF 28
ENDMDL
MODEL 2
REMARK VINA RESULT:    -3.670      2.538      5.127
REMARK INTER + INTRA:         -13.994
REMARK INTER:                 -10.672
REMARK INTRA:                  -3.321
REMARK UNBOUND:                -4.423
REMARK SMILES CCCCCCCCCCCCCCCCCCCCCCCCCCCCCO
REMARK SMILES IDX 16 1 15 2 14 3 13 4 12 5 11 6 10 7 9 8 8 9 7 10 6 11 5 12
REMARK SMILES IDX 4 13 3 14 2 15 1 16 17 17 18 18 19 19 20 20 21 21 22 22
REMARK SMILES IDX 23 23 24 24 25 25 26 26 27 27 28 28 29 29 30 30
REMARK H PARENT 30 31
REMARK Flexibility Score: inf
ROOT
ATOM      1  C   UNL     1     -11.129  31.220 -37.370  1.00  0.00     0.000 C 
ENDROOT
BRANCH   1   2
ATOM      2  C   UNL     1     -10.102  31.667 -36.318  1.00  0.00     0.000 C 
BRANCH   2   3
ATOM      3  C   UNL     1      -8.772  32.143 -36.933  1.00  0.00     0.000 C 
BRANCH   3   4
ATOM      4  C   UNL     1      -8.425  33.624 -36.694  1.00  0.00     0.000 C 
BRANCH   4   5
ATOM      5  C   UNL     1      -7.692  34.273 -37.878  1.00  0.00     0.000 C 
BRANCH   5   6
ATOM      6  C   UNL     1      -8.287  35.653 -38.204  1.00  0.00     0.000 C 
BRANCH   6   7
ATOM      7  C   UNL     1      -9.494  35.566 -39.154  1.00  0.00     0.000 C 
BRANCH   7   8
ATOM      8  C   UNL     1      -9.588  36.773 -40.104  1.00  0.00    -0.000 C 
BRANCH   8   9
ATOM      9  C   UNL     1      -8.214  37.238 -40.621  1.00  0.00    -0.000 C 
BRANCH   9  10
ATOM     10  C   UNL     1      -8.162  37.600 -42.118  1.00  0.00    -0.000 C 
BRANCH  10  11
ATOM     11  C   UNL     1      -8.731  36.493 -43.020  1.00  0.00    -0.000 C 
BRANCH  11  12
ATOM     12  C   UNL     1      -9.774  37.014 -44.026  1.00  0.00    -0.000 C 
BRANCH  12  13
ATOM     13  C   UNL     1     -10.120  38.510 -43.904  1.00  0.00    -0.000 C 
BRANCH  13  14
ATOM     14  C   UNL     1     -11.528  38.758 -43.334  1.00  0.00    -0.000 C 
BRANCH  14  15
ATOM     15  C   UNL     1     -11.491  39.386 -41.932  1.00  0.00    -0.003 C 
ATOM     16  C   UNL     1     -10.438  40.486 -41.801  1.00  0.00     0.004 C 
ENDBRANCH  14  15
ENDBRANCH  13  14
ENDBRANCH  12  13
ENDBRANCH  11  12
ENDBRANCH  10  11
ENDBRANCH   9  10
ENDBRANCH   8   9
ENDBRANCH   7   8
ENDBRANCH   6   7
ENDBRANCH   5   6
ENDBRANCH   4   5
ENDBRANCH   3   4
ENDBRANCH   2   3
ENDBRANCH   1   2
BRANCH   1  17
ATOM     17  C   UNL     1     -11.299  29.692 -37.425  1.00  0.00     0.000 C 
BRANCH  17  18
ATOM     18  C   UNL     1     -10.049  28.911 -36.967  1.00  0.00     0.000 C 
BRANCH  18  19
ATOM     19  C   UNL     1     -10.321  28.056 -35.718  1.00  0.00     0.000 C 
BRANCH  19  20
ATOM     20  C   UNL     1     -10.797  26.633 -36.058  1.00  0.00     0.000 C 
BRANCH  20  21
ATOM     21  C   UNL     1      -9.653  25.597 -36.111  1.00  0.00     0.000 C 
BRANCH  21  22
ATOM     22  C   UNL     1      -9.660  24.788 -37.417  1.00  0.00     0.000 C 
BRANCH  22  23
ATOM     23  C   UNL     1      -9.249  25.665 -38.609  1.00  0.00     0.000 C 
BRANCH  23  24
ATOM     24  C   UNL     1     -10.291  25.662 -39.741  1.00  0.00     0.000 C 
BRANCH  24  25
ATOM     25  C   UNL     1     -10.803  27.055 -40.162  1.00  0.00     0.000 C 
BRANCH  25  26
ATOM     26  C   UNL     1     -12.313  27.280 -39.971  1.00  0.00     0.000 C 
BRANCH  26  27
ATOM     27  C   UNL     1     -13.009  26.102 -39.275  1.00  0.00     0.002 C 
BRANCH  27  28
ATOM     28  C   UNL     1     -13.827  26.581 -38.069  1.00  0.00     0.028 C 
BRANCH  28  29
ATOM     29  C   UNL     1     -14.599  25.425 -37.432  1.00  0.00     0.156 C 
BRANCH  29  30
ATOM     30  O   UNL     1     -13.927  24.995 -36.281  1.00  0.00    -0.396 OA
ATOM     31  H   UNL     1     -13.214  25.665 -36.111  1.00  0.00     0.210 HD
ENDBRANCH  29  30
ENDBRANCH  28  29
ENDBRANCH  27  28
ENDBRANCH  26  27
ENDBRANCH  25  26
ENDBRANCH  24  25
ENDBRANCH  23  24
ENDBRANCH  22  23
ENDBRANCH  21  22
ENDBRANCH  20  21
ENDBRANCH  19  20
ENDBRANCH  18  19
ENDBRANCH  17  18
ENDBRANCH   1  17
TORSDOF 28
ENDMDL
MODEL 3
REMARK VINA RESULT:    -3.620      1.871      5.156
REMARK INTER + INTRA:         -13.863
REMARK INTER:                  -9.611
REMARK INTRA:                  -4.252
REMARK UNBOUND:                -4.423
REMARK SMILES CCCCCCCCCCCCCCCCCCCCCCCCCCCCCO
REMARK SMILES IDX 16 1 15 2 14 3 13 4 12 5 11 6 10 7 9 8 8 9 7 10 6 11 5 12
REMARK SMILES IDX 4 13 3 14 2 15 1 16 17 17 18 18 19 19 20 20 21 21 22 22
REMARK SMILES IDX 23 23 24 24 25 25 26 26 27 27 28 28 29 29 30 30
REMARK H PARENT 30 31
REMARK Flexibility Score: inf
ROOT
ATOM      1  C   UNL     1     -12.109  31.732 -37.202  1.00  0.00     0.000 C 
ENDROOT
BRANCH   1   2
ATOM      2  C   UNL     1     -10.965  32.757 -37.222  1.00  0.00     0.000 C 
BRANCH   2   3
ATOM      3  C   UNL     1      -9.586  32.132 -36.936  1.00  0.00     0.000 C 
BRANCH   3   4
ATOM      4  C   UNL     1      -8.485  33.123 -36.515  1.00  0.00     0.000 C 
BRANCH   4   5
ATOM      5  C   UNL     1      -7.671  33.663 -37.700  1.00  0.00     0.000 C 
BRANCH   5   6
ATOM      6  C   UNL     1      -7.880  35.177 -37.867  1.00  0.00     0.000 C 
BRANCH   6   7
ATOM      7  C   UNL     1      -8.865  35.517 -38.998  1.00  0.00     0.000 C 
BRANCH   7   8
ATOM      8  C   UNL     1     -10.223  36.013 -38.473  1.00  0.00    -0.000 C 
BRANCH   8   9
ATOM      9  C   UNL     1     -10.151  36.537 -37.026  1.00  0.00    -0.000 C 
BRANCH   9  10
ATOM     10  C   UNL     1     -11.464  36.444 -36.227  1.00  0.00    -0.000 C 
BRANCH  10  11
ATOM     11  C   UNL     1     -11.242  36.057 -34.756  1.00  0.00    -0.000 C 
BRANCH  11  12
ATOM     12  C   UNL     1      -9.891  35.357 -34.516  1.00  0.00    -0.000 C 
BRANCH  12  13
ATOM     13  C   UNL     1      -8.851  36.179 -33.733  1.00  0.00    -0.000 C 
BRANCH  13  14
ATOM     14  C   UNL     1      -7.429  36.056 -34.310  1.00  0.00    -0.000 C 
BRANCH  14  15
ATOM     15  C   UNL     1      -6.989  37.323 -35.061  1.00  0.00    -0.003 C 
ATOM     16  C   UNL     1      -7.884  38.527 -34.770  1.00  0.00     0.004 C 
ENDBRANCH  14  15
ENDBRANCH  13  14
ENDBRANCH  12  13
ENDBRANCH  11  12
ENDBRANCH  10  11
ENDBRANCH   9  10
ENDBRANCH   8   9
ENDBRANCH   7   8
ENDBRANCH   6   7
ENDBRANCH   5   6
ENDBRANCH   4   5
ENDBRANCH   3   4
ENDBRANCH   2   3
ENDBRANCH   1   2
BRANCH   1  17
ATOM     17  C   UNL     1     -12.021  30.717 -38.355  1.00  0.00     0.000 C 
BRANCH  17  18
ATOM     18  C   UNL     1     -12.053  29.246 -37.891  1.00  0.00     0.000 C 
BRANCH  18  19
ATOM     19  C   UNL     1     -10.642  28.672 -37.672  1.00  0.00     0.000 C 
BRANCH  19  20
ATOM     20  C   UNL     1     -10.339  28.379 -36.193  1.00  0.00     0.000 C 
BRANCH  20  21
ATOM     21  C   UNL     1      -9.551  27.070 -35.973  1.00  0.00     0.000 C 
BRANCH  21  22
ATOM     22  C   UNL     1     -10.367  25.826 -36.356  1.00  0.00     0.000 C 
BRANCH  22  23
ATOM     23  C   UNL     1      -9.502  24.818 -37.127  1.00  0.00     0.000 C 
BRANCH  23  24
ATOM     24  C   UNL     1     -10.184  24.301 -38.407  1.00  0.00     0.000 C 
BRANCH  24  25
ATOM     25  C   UNL     1     -10.477  25.379 -39.471  1.00  0.00     0.000 C 
BRANCH  25  26
ATOM     26  C   UNL     1     -11.945  25.832 -39.554  1.00  0.00     0.000 C 
BRANCH  26  27
ATOM     27  C   UNL     1     -12.927  24.771 -39.039  1.00  0.00     0.002 C 
BRANCH  27  28
ATOM     28  C   UNL     1     -14.224  25.419 -38.537  1.00  0.00     0.028 C 
BRANCH  28  29
ATOM     29  C   UNL     1     -14.046  25.993 -37.131  1.00  0.00     0.156 C 
BRANCH  29  30
ATOM     30  O   UNL     1     -13.814  24.949 -36.228  1.00  0.00    -0.396 OA
ATOM     31  H   UNL     1     -13.165  24.341 -36.669  1.00  0.00     0.210 HD
ENDBRANCH  29  30
ENDBRANCH  28  29
ENDBRANCH  27  28
ENDBRANCH  26  27
ENDBRANCH  25  26
ENDBRANCH  24  25
ENDBRANCH  23  24
ENDBRANCH  22  23
ENDBRANCH  21  22
ENDBRANCH  20  21
ENDBRANCH  19  20
ENDBRANCH  18  19
ENDBRANCH  17  18
ENDBRANCH   1  17
TORSDOF 28
ENDMDL
MODEL 4
REMARK VINA RESULT:    -3.602      2.554      6.485
REMARK INTER + INTRA:         -13.815
REMARK INTER:                  -9.612
REMARK INTRA:                  -4.203
REMARK UNBOUND:                -4.423
REMARK SMILES CCCCCCCCCCCCCCCCCCCCCCCCCCCCCO
REMARK SMILES IDX 16 1 15 2 14 3 13 4 12 5 11 6 10 7 9 8 8 9 7 10 6 11 5 12
REMARK SMILES IDX 4 13 3 14 2 15 1 16 17 17 18 18 19 19 20 20 21 21 22 22
REMARK SMILES IDX 23 23 24 24 25 25 26 26 27 27 28 28 29 29 30 30
REMARK H PARENT 30 31
REMARK Flexibility Score: inf
ROOT
ATOM      1  C   UNL     1      -8.464  34.343 -38.195  1.00  0.00     0.000 C 
ENDROOT
BRANCH   1   2
ATOM      2  C   UNL     1      -8.034  35.812 -38.061  1.00  0.00     0.000 C 
BRANCH   2   3
ATOM      3  C   UNL     1      -8.979  36.789 -38.786  1.00  0.00     0.000 C 
BRANCH   3   4
ATOM      4  C   UNL     1      -9.613  36.255 -40.085  1.00  0.00     0.000 C 
BRANCH   4   5
ATOM      5  C   UNL     1     -11.134  36.459 -40.145  1.00  0.00     0.000 C 
BRANCH   5   6
ATOM      6  C   UNL     1     -11.861  35.438 -39.254  1.00  0.00     0.000 C 
BRANCH   6   7
ATOM      7  C   UNL     1     -12.713  36.108 -38.163  1.00  0.00     0.000 C 
BRANCH   7   8
ATOM      8  C   UNL     1     -12.557  35.431 -36.790  1.00  0.00    -0.000 C 
BRANCH   8   9
ATOM      9  C   UNL     1     -11.199  35.727 -36.126  1.00  0.00    -0.000 C 
BRANCH   9  10
ATOM     10  C   UNL     1     -11.068  35.264 -34.663  1.00  0.00    -0.000 C 
BRANCH  10  11
ATOM     11  C   UNL     1     -10.855  36.430 -33.684  1.00  0.00    -0.000 C 
BRANCH  11  12
ATOM     12  C   UNL     1      -9.368  36.767 -33.464  1.00  0.00    -0.000 C 
BRANCH  12  13
ATOM     13  C   UNL     1      -8.374  35.955 -34.315  1.00  0.00    -0.000 C 
BRANCH  13  14
ATOM     14  C   UNL     1      -6.904  36.303 -34.020  1.00  0.00    -0.000 C 
BRANCH  14  15
ATOM     15  C   UNL     1      -6.537  36.095 -32.542  1.00  0.00    -0.003 C 
ATOM     16  C   UNL     1      -6.160  37.396 -31.835  1.00  0.00     0.004 C 
ENDBRANCH  14  15
ENDBRANCH  13  14
ENDBRANCH  12  13
ENDBRANCH  11  12
ENDBRANCH  10  11
ENDBRANCH   9  10
ENDBRANCH   8   9
ENDBRANCH   7   8
ENDBRANCH   6   7
ENDBRANCH   5   6
ENDBRANCH   4   5
ENDBRANCH   3   4
ENDBRANCH   2   3
ENDBRANCH   1   2
BRANCH   1  17
ATOM     17  C   UNL     1      -7.861  33.444 -37.101  1.00  0.00     0.000 C 
BRANCH  17  18
ATOM     18  C   UNL     1      -8.917  32.767 -36.202  1.00  0.00     0.000 C 
BRANCH  18  19
ATOM     19  C   UNL     1      -9.773  31.748 -36.973  1.00  0.00     0.000 C 
BRANCH  19  20
ATOM     20  C   UNL     1     -11.283  31.958 -36.768  1.00  0.00     0.000 C 
BRANCH  20  21
ATOM     21  C   UNL     1     -12.078  32.051 -38.088  1.00  0.00     0.000 C 
BRANCH  21  22
ATOM     22  C   UNL     1     -13.516  31.530 -37.941  1.00  0.00     0.000 C 
BRANCH  22  23
ATOM     23  C   UNL     1     -13.614  30.058 -38.370  1.00  0.00     0.000 C 
BRANCH  23  24
ATOM     24  C   UNL     1     -12.474  29.634 -39.314  1.00  0.00     0.000 C 
BRANCH  24  25
ATOM     25  C   UNL     1     -11.873  28.242 -39.028  1.00  0.00     0.000 C 
BRANCH  25  26
ATOM     26  C   UNL     1     -10.552  28.252 -38.240  1.00  0.00     0.000 C 
BRANCH  26  27
ATOM     27  C   UNL     1     -10.744  27.944 -36.748  1.00  0.00     0.002 C 
BRANCH  27  28
ATOM     28  C   UNL     1     -10.106  26.599 -36.378  1.00  0.00     0.028 C 
BRANCH  28  29
ATOM     29  C   UNL     1      -9.661  26.583 -34.916  1.00  0.00     0.156 C 
BRANCH  29  30
ATOM     30  O   UNL     1      -8.858  25.459 -34.686  1.00  0.00    -0.396 OA
ATOM     31  H   UNL     1      -9.470  24.677 -34.690  1.00  0.00     0.210 HD
ENDBRANCH  29  30
ENDBRANCH  28  29
ENDBRANCH  27  28
ENDBRANCH  26  27
ENDBRANCH  25  26
ENDBRANCH  24  25
ENDBRANCH  23  24
ENDBRANCH  22  23
ENDBRANCH  21  22
ENDBRANCH  20  21
ENDBRANCH  19  20
ENDBRANCH  18  19
ENDBRANCH  17  18
ENDBRANCH   1  17
TORSDOF 28
ENDMDL
MODEL 5
REMARK VINA RESULT:    -3.571      1.917      5.807
REMARK INTER + INTRA:         -13.735
REMARK INTER:                  -8.835
REMARK INTRA:                  -4.900
REMARK UNBOUND:                -4.423
REMARK SMILES CCCCCCCCCCCCCCCCCCCCCCCCCCCCCO
REMARK SMILES IDX 16 1 15 2 14 3 13 4 12 5 11 6 10 7 9 8 8 9 7 10 6 11 5 12
REMARK SMILES IDX 4 13 3 14 2 15 1 16 17 17 18 18 19 19 20 20 21 21 22 22
REMARK SMILES IDX 23 23 24 24 25 25 26 26 27 27 28 28 29 29 30 30
REMARK H PARENT 30 31
REMARK Flexibility Score: inf
ROOT
ATOM      1  C   UNL     1     -14.752  27.721 -36.924  1.00  0.00     0.000 C 
ENDROOT
BRANCH   1   2
ATOM      2  C   UNL     1     -15.600  28.488 -37.950  1.00  0.00     0.000 C 
BRANCH   2   3
ATOM      3  C   UNL     1     -15.041  29.887 -38.273  1.00  0.00     0.000 C 
BRANCH   3   4
ATOM      4  C   UNL     1     -14.460  30.057 -39.690  1.00  0.00     0.000 C 
BRANCH   4   5
ATOM      5  C   UNL     1     -14.947  28.986 -40.677  1.00  0.00     0.000 C 
BRANCH   5   6
ATOM      6  C   UNL     1     -13.792  28.486 -41.561  1.00  0.00     0.000 C 
BRANCH   6   7
ATOM      7  C   UNL     1     -12.411  28.797 -40.961  1.00  0.00     0.000 C 
BRANCH   7   8
ATOM      8  C   UNL     1     -11.667  27.533 -40.499  1.00  0.00    -0.000 C 
BRANCH   8   9
ATOM      9  C   UNL     1     -11.458  27.484 -38.973  1.00  0.00    -0.000 C 
BRANCH   9  10
ATOM     10  C   UNL     1     -10.664  28.662 -38.380  1.00  0.00    -0.000 C 
BRANCH  10  11
ATOM     11  C   UNL     1     -11.480  29.486 -37.372  1.00  0.00    -0.000 C 
BRANCH  11  12
ATOM     12  C   UNL     1     -10.702  30.690 -36.808  1.00  0.00    -0.000 C 
BRANCH  12  13
ATOM     13  C   UNL     1     -11.112  32.064 -37.372  1.00  0.00    -0.000 C 
BRANCH  13  14
ATOM     14  C   UNL     1     -10.104  33.178 -37.035  1.00  0.00    -0.000 C 
BRANCH  14  15
ATOM     15  C   UNL     1      -8.655  32.668 -37.004  1.00  0.00    -0.003 C 
ATOM     16  C   UNL     1      -7.661  33.663 -37.602  1.00  0.00     0.004 C 
ENDBRANCH  14  15
ENDBRANCH  13  14
ENDBRANCH  12  13
ENDBRANCH  11  12
ENDBRANCH  10  11
ENDBRANCH   9  10
ENDBRANCH   8   9
ENDBRANCH   7   8
ENDBRANCH   6   7
ENDBRANCH   5   6
ENDBRANCH   4   5
ENDBRANCH   3   4
ENDBRANCH   2   3
ENDBRANCH   1   2
BRANCH   1  17
ATOM     17  C   UNL     1     -14.480  26.266 -37.344  1.00  0.00     0.000 C 
BRANCH  17  18
ATOM     18  C   UNL     1     -15.344  25.791 -38.532  1.00  0.00     0.000 C 
BRANCH  18  19
ATOM     19  C   UNL     1     -14.491  25.369 -39.741  1.00  0.00     0.000 C 
BRANCH  19  20
ATOM     20  C   UNL     1     -14.680  23.890 -40.119  1.00  0.00     0.000 C 
BRANCH  20  21
ATOM     21  C   UNL     1     -13.697  22.940 -39.402  1.00  0.00     0.000 C 
BRANCH  21  22
ATOM     22  C   UNL     1     -12.517  23.692 -38.767  1.00  0.00     0.000 C 
BRANCH  22  23
ATOM     23  C   UNL     1     -11.339  23.796 -39.747  1.00  0.00     0.000 C 
BRANCH  23  24
ATOM     24  C   UNL     1     -10.015  24.163 -39.054  1.00  0.00     0.000 C 
BRANCH  24  25
ATOM     25  C   UNL     1      -9.589  23.213 -37.915  1.00  0.00     0.000 C 
BRANCH  25  26
ATOM     26  C   UNL     1      -9.488  23.865 -36.526  1.00  0.00     0.000 C 
BRANCH  26  27
ATOM     27  C   UNL     1     -10.218  25.214 -36.444  1.00  0.00     0.002 C 
BRANCH  27  28
ATOM     28  C   UNL     1      -9.415  26.223 -35.614  1.00  0.00     0.028 C 
BRANCH  28  29
ATOM     29  C   UNL     1     -10.334  27.063 -34.726  1.00  0.00     0.156 C 
BRANCH  29  30
ATOM     30  O   UNL     1     -10.653  26.340 -33.570  1.00  0.00    -0.396 OA
ATOM     31  H   UNL     1     -10.479  26.950 -32.807  1.00  0.00     0.210 HD
ENDBRANCH  29  30
ENDBRANCH  28  29
ENDBRANCH  27  28
ENDBRANCH  26  27
ENDBRANCH  25  26
ENDBRANCH  24  25
ENDBRANCH  23  24
ENDBRANCH  22  23
ENDBRANCH  21  22
ENDBRANCH  20  21
ENDBRANCH  19  20
ENDBRANCH  18  19
ENDBRANCH  17  18
ENDBRANCH   1  17
TORSDOF 28
ENDMDL
MODEL 6
REMARK VINA RESULT:    -3.569      5.410      9.348
REMARK INTER + INTRA:         -13.729
REMARK INTER:                  -9.094
REMARK INTRA:                  -4.635
REMARK UNBOUND:                -4.423
REMARK SMILES CCCCCCCCCCCCCCCCCCCCCCCCCCCCCO
REMARK SMILES IDX 16 1 15 2 14 3 13 4 12 5 11 6 10 7 9 8 8 9 7 10 6 11 5 12
REMARK SMILES IDX 4 13 3 14 2 15 1 16 17 17 18 18 19 19 20 20 21 21 22 22
REMARK SMILES IDX 23 23 24 24 25 25 26 26 27 27 28 28 29 29 30 30
REMARK H PARENT 30 31
REMARK Flexibility Score: inf
ROOT
ATOM      1  C   UNL     1      -7.759  37.747 -42.562  1.00  0.00     0.000 C 
ENDROOT
BRANCH   1   2
ATOM      2  C   UNL     1      -8.114  37.683 -41.068  1.00  0.00     0.000 C 
BRANCH   2   3
ATOM      3  C   UNL     1      -8.897  36.413 -40.685  1.00  0.00     0.000 C 
BRANCH   3   4
ATOM      4  C   UNL     1      -9.581  36.446 -39.305  1.00  0.00     0.000 C 
BRANCH   4   5
ATOM      5  C   UNL     1     -10.759  35.468 -39.189  1.00  0.00     0.000 C 
BRANCH   5   6
ATOM      6  C   UNL     1     -11.505  35.660 -37.859  1.00  0.00     0.000 C 
BRANCH   6   7
ATOM      7  C   UNL     1     -12.053  34.339 -37.293  1.00  0.00     0.000 C 
BRANCH   7   8
ATOM      8  C   UNL     1     -11.389  33.103 -37.923  1.00  0.00    -0.000 C 
BRANCH   8   9
ATOM      9  C   UNL     1     -10.876  32.098 -36.874  1.00  0.00    -0.000 C 
BRANCH   9  10
ATOM     10  C   UNL     1      -9.625  32.543 -36.094  1.00  0.00    -0.000 C 
BRANCH  10  11
ATOM     11  C   UNL     1      -8.470  32.975 -37.012  1.00  0.00    -0.000 C 
BRANCH  11  12
ATOM     12  C   UNL     1      -8.031  34.433 -36.781  1.00  0.00    -0.000 C 
BRANCH  12  13
ATOM     13  C   UNL     1      -8.576  35.092 -35.500  1.00  0.00    -0.000 C 
BRANCH  13  14
ATOM     14  C   UNL     1      -8.728  36.618 -35.625  1.00  0.00    -0.000 C 
BRANCH  14  15
ATOM     15  C   UNL     1      -7.374  37.334 -35.753  1.00  0.00    -0.003 C 
ATOM     16  C   UNL     1      -7.237  38.118 -37.058  1.00  0.00     0.004 C 
ENDBRANCH  14  15
ENDBRANCH  13  14
ENDBRANCH  12  13
ENDBRANCH  11  12
ENDBRANCH  10  11
ENDBRANCH   9  10
ENDBRANCH   8   9
ENDBRANCH   7   8
ENDBRANCH   6   7
ENDBRANCH   5   6
ENDBRANCH   4   5
ENDBRANCH   3   4
ENDBRANCH   2   3
ENDBRANCH   1   2
BRANCH   1  17
ATOM     17  C   UNL     1      -8.572  36.755 -43.411  1.00  0.00     0.000 C 
BRANCH  17  18
ATOM     18  C   UNL     1      -9.759  37.401 -44.156  1.00  0.00     0.000 C 
BRANCH  18  19
ATOM     19  C   UNL     1      -9.701  38.938 -44.121  1.00  0.00     0.000 C 
BRANCH  19  20
ATOM     20  C   UNL     1     -10.937  39.568 -43.455  1.00  0.00     0.000 C 
BRANCH  20  21
ATOM     21  C   UNL     1     -11.973  38.531 -42.972  1.00  0.00     0.000 C 
BRANCH  21  22
ATOM     22  C   UNL     1     -11.960  38.360 -41.446  1.00  0.00     0.000 C 
BRANCH  22  23
ATOM     23  C   UNL     1     -13.264  37.715 -40.954  1.00  0.00     0.000 C 
BRANCH  23  24
ATOM     24  C   UNL     1     -13.461  36.284 -41.487  1.00  0.00     0.000 C 
BRANCH  24  25
ATOM     25  C   UNL     1     -14.183  35.321 -40.522  1.00  0.00     0.000 C 
BRANCH  25  26
ATOM     26  C   UNL     1     -15.667  35.071 -40.842  1.00  0.00     0.000 C 
BRANCH  26  27
ATOM     27  C   UNL     1     -16.120  35.746 -42.144  1.00  0.00     0.002 C 
BRANCH  27  28
ATOM     28  C   UNL     1     -17.317  36.673 -41.896  1.00  0.00     0.028 C 
BRANCH  28  29
ATOM     29  C   UNL     1     -17.811  37.297 -43.201  1.00  0.00     0.156 C 
BRANCH  29  30
ATOM     30  O   UNL     1     -17.511  38.665 -43.206  1.00  0.00    -0.396 OA
ATOM     31  H   UNL     1     -17.377  38.921 -42.256  1.00  0.00     0.210 HD
ENDBRANCH  29  30
ENDBRANCH  28  29
ENDBRANCH  27  28
ENDBRANCH  26  27
ENDBRANCH  25  26
ENDBRANCH  24  25
ENDBRANCH  23  24
ENDBRANCH  22  23
ENDBRANCH  21  22
ENDBRANCH  20  21
ENDBRANCH  19  20
ENDBRANCH  18  19
ENDBRANCH  17  18
ENDBRANCH   1  17
TORSDOF 28
ENDMDL
MODEL 7
REMARK VINA RESULT:    -3.538      3.591      6.808
REMARK INTER + INTRA:         -13.648
REMARK INTER:                  -8.492
REMARK INTRA:                  -5.155
REMARK UNBOUND:                -4.423
REMARK SMILES CCCCCCCCCCCCCCCCCCCCCCCCCCCCCO
REMARK SMILES IDX 16 1 15 2 14 3 13 4 12 5 11 6 10 7 9 8 8 9 7 10 6 11 5 12
REMARK SMILES IDX 4 13 3 14 2 15 1 16 17 17 18 18 19 19 20 20 21 21 22 22
REMARK SMILES IDX 23 23 24 24 25 25 26 26 27 27 28 28 29 29 30 30
REMARK H PARENT 30 31
REMARK Flexibility Score: inf
ROOT
ATOM      1  C   UNL     1     -15.429  25.913 -38.175  1.00  0.00     0.000 C 
ENDROOT
BRANCH   1   2
ATOM      2  C   UNL     1     -14.043  26.296 -37.633  1.00  0.00     0.000 C 
BRANCH   2   3
ATOM      3  C   UNL     1     -13.407  25.196 -36.762  1.00  0.00     0.000 C 
BRANCH   3   4
ATOM      4  C   UNL     1     -12.654  24.094 -37.531  1.00  0.00     0.000 C 
BRANCH   4   5
ATOM      5  C   UNL     1     -12.077  24.577 -38.869  1.00  0.00     0.000 C 
BRANCH   5   6
ATOM      6  C   UNL     1     -10.762  23.850 -39.197  1.00  0.00     0.000 C 
BRANCH   6   7
ATOM      7  C   UNL     1      -9.892  24.625 -40.201  1.00  0.00     0.000 C 
BRANCH   7   8
ATOM      8  C   UNL     1      -9.607  23.822 -41.482  1.00  0.00    -0.000 C 
BRANCH   8   9
ATOM      9  C   UNL     1     -10.191  24.483 -42.745  1.00  0.00    -0.000 C 
BRANCH   9  10
ATOM     10  C   UNL     1     -10.464  25.994 -42.630  1.00  0.00    -0.000 C 
BRANCH  10  11
ATOM     11  C   UNL     1      -9.231  26.851 -42.958  1.00  0.00    -0.000 C 
BRANCH  11  12
ATOM     12  C   UNL     1      -9.594  28.265 -43.449  1.00  0.00    -0.000 C 
BRANCH  12  13
ATOM     13  C   UNL     1     -10.851  28.884 -42.810  1.00  0.00    -0.000 C 
BRANCH  13  14
ATOM     14  C   UNL     1     -11.999  29.089 -43.814  1.00  0.00    -0.000 C 
BRANCH  14  15
ATOM     15  C   UNL     1     -13.382  28.987 -43.154  1.00  0.00    -0.003 C 
ATOM     16  C   UNL     1     -13.897  27.549 -43.072  1.00  0.00     0.004 C 
ENDBRANCH  14  15
ENDBRANCH  13  14
ENDBRANCH  12  13
ENDBRANCH  11  12
ENDBRANCH  10  11
ENDBRANCH   9  10
ENDBRANCH   8   9
ENDBRANCH   7   8
ENDBRANCH   6   7
ENDBRANCH   5   6
ENDBRANCH   4   5
ENDBRANCH   3   4
ENDBRANCH   2   3
ENDBRANCH   1   2
BRANCH   1  17
ATOM     17  C   UNL     1     -15.906  26.844 -39.302  1.00  0.00     0.000 C 
BRANCH  17  18
ATOM     18  C   UNL     1     -16.955  27.881 -38.848  1.00  0.00     0.000 C 
BRANCH  18  19
ATOM     19  C   UNL     1     -16.488  29.327 -39.090  1.00  0.00     0.000 C 
BRANCH  19  20
ATOM     20  C   UNL     1     -15.142  29.405 -39.831  1.00  0.00     0.000 C 
BRANCH  20  21
ATOM     21  C   UNL     1     -14.047  30.154 -39.042  1.00  0.00     0.000 C 
BRANCH  21  22
ATOM     22  C   UNL     1     -12.646  29.925 -39.629  1.00  0.00     0.000 C 
BRANCH  22  23
ATOM     23  C   UNL     1     -12.331  28.425 -39.730  1.00  0.00     0.000 C 
BRANCH  23  24
ATOM     24  C   UNL     1     -10.998  28.047 -39.060  1.00  0.00     0.000 C 
BRANCH  24  25
ATOM     25  C   UNL     1     -10.713  28.764 -37.724  1.00  0.00     0.000 C 
BRANCH  25  26
ATOM     26  C   UNL     1     -10.348  27.837 -36.552  1.00  0.00     0.000 C 
BRANCH  26  27
ATOM     27  C   UNL     1      -9.635  26.555 -37.003  1.00  0.00     0.002 C 
BRANCH  27  28
ATOM     28  C   UNL     1      -9.576  25.527 -35.866  1.00  0.00     0.028 C 
BRANCH  28  29
ATOM     29  C   UNL     1      -9.546  26.216 -34.501  1.00  0.00     0.156 C 
BRANCH  29  30
ATOM     30  O   UNL     1      -9.551  25.247 -33.491  1.00  0.00    -0.396 OA
ATOM     31  H   UNL     1      -9.027  25.630 -32.739  1.00  0.00     0.210 HD
ENDBRANCH  29  30
ENDBRANCH  28  29
ENDBRANCH  27  28
ENDBRANCH  26  27
ENDBRANCH  25  26
ENDBRANCH  24  25
ENDBRANCH  23  24
ENDBRANCH  22  23
ENDBRANCH  21  22
ENDBRANCH  20  21
ENDBRANCH  19  20
ENDBRANCH  18  19
ENDBRANCH  17  18
ENDBRANCH   1  17
TORSDOF 28
ENDMDL
MODEL 8
REMARK VINA RESULT:    -3.472      6.021     10.352
REMARK INTER + INTRA:         -13.476
REMARK INTER:                  -7.765
REMARK INTRA:                  -5.711
REMARK UNBOUND:                -4.423
REMARK SMILES CCCCCCCCCCCCCCCCCCCCCCCCCCCCCO
REMARK SMILES IDX 16 1 15 2 14 3 13 4 12 5 11 6 10 7 9 8 8 9 7 10 6 11 5 12
REMARK SMILES IDX 4 13 3 14 2 15 1 16 17 17 18 18 19 19 20 20 21 21 22 22
REMARK SMILES IDX 23 23 24 24 25 25 26 26 27 27 28 28 29 29 30 30
REMARK H PARENT 30 31
REMARK Flexibility Score: inf
ROOT
ATOM      1  C   UNL     1     -10.142  38.548 -43.941  1.00  0.00     0.000 C 
ENDROOT
BRANCH   1   2
ATOM      2  C   UNL     1     -11.192  39.022 -42.924  1.00  0.00     0.000 C 
BRANCH   2   3
ATOM      3  C   UNL     1     -10.574  39.567 -41.623  1.00  0.00     0.000 C 
BRANCH   3   4
ATOM      4  C   UNL     1     -10.912  38.774 -40.346  1.00  0.00     0.000 C 
BRANCH   4   5
ATOM      5  C   UNL     1     -11.619  37.441 -40.631  1.00  0.00     0.000 C 
BRANCH   5   6
ATOM      6  C   UNL     1     -10.853  36.266 -40.001  1.00  0.00     0.000 C 
BRANCH   6   7
ATOM      7  C   UNL     1      -9.605  36.721 -39.226  1.00  0.00     0.000 C 
BRANCH   7   8
ATOM      8  C   UNL     1      -8.465  35.689 -39.278  1.00  0.00    -0.000 C 
BRANCH   8   9
ATOM      9  C   UNL     1      -8.084  35.146 -37.888  1.00  0.00    -0.000 C 
BRANCH   9  10
ATOM     10  C   UNL     1      -8.390  33.653 -37.659  1.00  0.00    -0.000 C 
BRANCH  10  11
ATOM     11  C   UNL     1      -8.808  33.344 -36.213  1.00  0.00    -0.000 C 
BRANCH  11  12
ATOM     12  C   UNL     1     -10.324  33.115 -36.061  1.00  0.00    -0.000 C 
BRANCH  12  13
ATOM     13  C   UNL     1     -11.192  33.653 -37.214  1.00  0.00    -0.000 C 
BRANCH  13  14
ATOM     14  C   UNL     1     -12.093  34.827 -36.792  1.00  0.00    -0.000 C 
BRANCH  14  15
ATOM     15  C   UNL     1     -11.570  35.547 -35.539  1.00  0.00    -0.003 C 
ATOM     16  C   UNL     1     -10.782  36.815 -35.867  1.00  0.00     0.004 C 
ENDBRANCH  14  15
ENDBRANCH  13  14
ENDBRANCH  12  13
ENDBRANCH  11  12
ENDBRANCH  10  11
ENDBRANCH   9  10
ENDBRANCH   8   9
ENDBRANCH   7   8
ENDBRANCH   6   7
ENDBRANCH   5   6
ENDBRANCH   4   5
ENDBRANCH   3   4
ENDBRANCH   2   3
ENDBRANCH   1   2
BRANCH   1  17
ATOM     17  C   UNL     1      -9.900  37.030 -43.883  1.00  0.00     0.000 C 
BRANCH  17  18
ATOM     18  C   UNL     1      -8.671  36.628 -43.041  1.00  0.00     0.000 C 
BRANCH  18  19
ATOM     19  C   UNL     1      -7.583  37.716 -43.042  1.00  0.00     0.000 C 
BRANCH  19  20
ATOM     20  C   UNL     1      -7.174  38.155 -41.625  1.00  0.00     0.000 C 
BRANCH  20  21
ATOM     21  C   UNL     1      -6.415  39.498 -41.591  1.00  0.00     0.000 C 
BRANCH  21  22
ATOM     22  C   UNL     1      -6.459  40.158 -40.204  1.00  0.00     0.000 C 
BRANCH  22  23
ATOM     23  C   UNL     1      -7.116  39.227 -39.173  1.00  0.00     0.000 C 
BRANCH  23  24
ATOM     24  C   UNL     1      -8.101  39.961 -38.246  1.00  0.00     0.000 C 
BRANCH  24  25
ATOM     25  C   UNL     1      -7.966  39.618 -36.748  1.00  0.00     0.000 C 
BRANCH  25  26
ATOM     26  C   UNL     1      -7.297  38.266 -36.446  1.00  0.00     0.000 C 
BRANCH  26  27
ATOM     27  C   UNL     1      -7.007  38.063 -34.952  1.00  0.00     0.002 C 
BRANCH  27  28
ATOM     28  C   UNL     1      -7.302  36.619 -34.526  1.00  0.00     0.028 C 
BRANCH  28  29
ATOM     29  C   UNL     1      -6.445  36.211 -33.329  1.00  0.00     0.156 C 
BRANCH  29  30
ATOM     30  O   UNL     1      -7.176  36.394 -32.149  1.00  0.00    -0.396 OA
ATOM     31  H   UNL     1      -7.419  37.357 -32.122  1.00  0.00     0.210 HD
ENDBRANCH  29  30
ENDBRANCH  28  29
ENDBRANCH  27  28
ENDBRANCH  26  27
ENDBRANCH  25  26
ENDBRANCH  24  25
ENDBRANCH  23  24
ENDBRANCH  22  23
ENDBRANCH  21  22
ENDBRANCH  20  21
ENDBRANCH  19  20
ENDBRANCH  18  19
ENDBRANCH  17  18
ENDBRANCH   1  17
TORSDOF 28
ENDMDL
MODEL 9
REMARK VINA RESULT:    -3.471      5.827      9.266
REMARK INTER + INTRA:         -13.473
REMARK INTER:                  -7.893
REMARK INTRA:                  -5.580
REMARK UNBOUND:                -4.423
REMARK SMILES CCCCCCCCCCCCCCCCCCCCCCCCCCCCCO
REMARK SMILES IDX 16 1 15 2 14 3 13 4 12 5 11 6 10 7 9 8 8 9 7 10 6 11 5 12
REMARK SMILES IDX 4 13 3 14 2 15 1 16 17 17 18 18 19 19 20 20 21 21 22 22
REMARK SMILES IDX 23 23 24 24 25 25 26 26 27 27 28 28 29 29 30 30
REMARK H PARENT 30 31
REMARK Flexibility Score: inf
ROOT
ATOM      1  C   UNL     1      -8.074  35.245 -38.448  1.00  0.00     0.000 C 
ENDROOT
BRANCH   1   2
ATOM      2  C   UNL     1      -8.037  33.897 -37.712  1.00  0.00     0.000 C 
BRANCH   2   3
ATOM      3  C   UNL     1      -8.492  33.996 -36.243  1.00  0.00     0.000 C 
BRANCH   3   4
ATOM      4  C   UNL     1      -7.959  35.214 -35.465  1.00  0.00     0.000 C 
BRANCH   4   5
ATOM      5  C   UNL     1      -9.062  36.003 -34.746  1.00  0.00     0.000 C 
BRANCH   5   6
ATOM      6  C   UNL     1     -10.398  35.242 -34.784  1.00  0.00     0.000 C 
BRANCH   6   7
ATOM      7  C   UNL     1     -11.540  36.082 -35.380  1.00  0.00     0.000 C 
BRANCH   7   8
ATOM      8  C   UNL     1     -12.321  35.332 -36.472  1.00  0.00    -0.000 C 
BRANCH   8   9
ATOM      9  C   UNL     1     -12.205  33.801 -36.347  1.00  0.00    -0.000 C 
BRANCH   9  10
ATOM     10  C   UNL     1     -11.732  33.071 -37.618  1.00  0.00    -0.000 C 
BRANCH  10  11
ATOM     11  C   UNL     1     -12.640  33.333 -38.831  1.00  0.00    -0.000 C 
BRANCH  11  12
ATOM     12  C   UNL     1     -14.096  32.887 -38.599  1.00  0.00    -0.000 C 
BRANCH  12  13
ATOM     13  C   UNL     1     -15.074  33.198 -39.748  1.00  0.00    -0.000 C 
BRANCH  13  14
ATOM     14  C   UNL     1     -14.820  34.570 -40.398  1.00  0.00    -0.000 C 
BRANCH  14  15
ATOM     15  C   UNL     1     -15.701  35.676 -39.796  1.00  0.00    -0.003 C 
ATOM     16  C   UNL     1     -14.969  36.514 -38.748  1.00  0.00     0.004 C 
ENDBRANCH  14  15
ENDBRANCH  13  14
ENDBRANCH  12  13
ENDBRANCH  11  12
ENDBRANCH  10  11
ENDBRANCH   9  10
ENDBRANCH   8   9
ENDBRANCH   7   8
ENDBRANCH   6   7
ENDBRANCH   5   6
ENDBRANCH   4   5
ENDBRANCH   3   4
ENDBRANCH   2   3
ENDBRANCH   1   2
BRANCH   1  17
ATOM     17  C   UNL     1      -9.496  35.659 -38.863  1.00  0.00     0.000 C 
BRANCH  17  18
ATOM     18  C   UNL     1      -9.847  37.119 -38.505  1.00  0.00     0.000 C 
BRANCH  18  19
ATOM     19  C   UNL     1     -11.040  37.648 -39.320  1.00  0.00     0.000 C 
BRANCH  19  20
ATOM     20  C   UNL     1     -11.561  36.629 -40.348  1.00  0.00     0.000 C 
BRANCH  20  21
ATOM     21  C   UNL     1     -12.518  37.242 -41.393  1.00  0.00     0.000 C 
BRANCH  21  22
ATOM     22  C   UNL     1     -12.048  36.990 -42.834  1.00  0.00     0.000 C 
BRANCH  22  23
ATOM     23  C   UNL     1     -10.781  37.799 -43.147  1.00  0.00     0.000 C 
BRANCH  23  24
ATOM     24  C   UNL     1      -9.659  36.940 -43.758  1.00  0.00     0.000 C 
BRANCH  24  25
ATOM     25  C   UNL     1      -8.237  37.274 -43.260  1.00  0.00     0.000 C 
BRANCH  25  26
ATOM     26  C   UNL     1      -8.071  37.299 -41.731  1.00  0.00     0.000 C 
BRANCH  26  27
ATOM     27  C   UNL     1      -7.671  38.681 -41.196  1.00  0.00     0.002 C 
BRANCH  27  28
ATOM     28  C   UNL     1      -6.208  38.689 -40.733  1.00  0.00     0.028 C 
BRANCH  28  29
ATOM     29  C   UNL     1      -6.081  38.181 -39.297  1.00  0.00     0.156 C 
BRANCH  29  30
ATOM     30  O   UNL     1      -4.729  37.980 -38.992  1.00  0.00    -0.396 OA
ATOM     31  H   UNL     1      -4.707  37.597 -38.077  1.00  0.00     0.210 HD
ENDBRANCH  29  30
ENDBRANCH  28  29
ENDBRANCH  27  28
ENDBRANCH  26  27
ENDBRANCH  25  26
ENDBRANCH  24  25
ENDBRANCH  23  24
ENDBRANCH  22  23
ENDBRANCH  21  22
ENDBRANCH  20  21
ENDBRANCH  19  20
ENDBRANCH  18  19
ENDBRANCH  17  18
ENDBRANCH   1  17
TORSDOF 28
ENDMDL
