MODEL 1
REMARK VINA RESULT:    -7.172      0.000      0.000
REMARK INTER + INTRA:         -11.537
REMARK INTER:                 -10.525
REMARK INTRA:                  -1.011
REMARK UNBOUND:                -1.011
REMARK SMILES Cc1cc2c(C(C)C)c(O)c(O)c(C=O)c2c(O)c1-c1c(C)cc2c(C(C)C)c(O)c(O)c(C=O)c2c1O
REMARK SMILES IDX 1 1 2 2 3 3 4 4 16 5 13 6 11 7 9 8 5 9 17 10 19 11 20 12
REMARK SMILES IDX 37 13 21 14 36 15 23 16 22 17 24 18 33 19 25 20 31 21 29 22
REMARK SMILES IDX 38 23 34 25 35 26 26 27 27 28 28 29 32 30 30 32 18 34 6 36
REMARK SMILES IDX 7 37 8 38 14 39 15 40 10 41 12 43
REMARK H PARENT 38 24 32 31 30 33 18 35 10 42 12 44
REMARK Flexibility Score: inf
ROOT
ATOM      1  C   UNL     1      18.425 -31.737  25.023  1.00  0.00     0.045 C 
ATOM      2  C   UNL     1      17.720 -32.256  23.794  1.00  0.00    -0.039 A 
ATOM      3  C   UNL     1      16.391 -31.897  23.566  1.00  0.00     0.013 A 
ATOM      4  C   UNL     1      15.672 -32.365  22.442  1.00  0.00    -0.006 A 
ATOM      5  C   UNL     1      16.356 -33.162  21.475  1.00  0.00     0.039 A 
ATOM      6  C   UNL     1      15.642 -33.614  20.326  1.00  0.00     0.072 A 
ATOM      7  C   UNL     1      14.348 -33.125  20.068  1.00  0.00     0.169 A 
ATOM      8  C   UNL     1      13.719 -32.262  20.982  1.00  0.00     0.162 A 
ATOM      9  C   UNL     1      14.302 -32.013  22.243  1.00  0.00     0.008 A 
ATOM     10  C   UNL     1      17.742 -33.445  21.665  1.00  0.00     0.132 A 
ATOM     11  C   UNL     1      18.403 -33.028  22.840  1.00  0.00     0.031 A 
ENDROOT
BRANCH  11  12
ATOM     12  C   UNL     1      19.834 -33.366  23.053  1.00  0.00     0.031 A 
ATOM     13  C   UNL     1      20.193 -34.565  23.706  1.00  0.00     0.132 A 
ATOM     14  C   UNL     1      20.831 -32.483  22.610  1.00  0.00    -0.039 A 
ATOM     15  C   UNL     1      21.566 -34.875  23.940  1.00  0.00     0.039 A 
ATOM     16  C   UNL     1      22.174 -32.841  22.738  1.00  0.00     0.013 A 
ATOM     17  C   UNL     1      20.472 -31.163  21.972  1.00  0.00     0.045 C 
ATOM     18  C   UNL     1      22.565 -34.063  23.329  1.00  0.00    -0.006 A 
ATOM     19  C   UNL     1      21.973 -35.983  24.740  1.00  0.00     0.072 A 
ATOM     20  C   UNL     1      23.933 -34.469  23.351  1.00  0.00     0.008 A 
ATOM     21  C   UNL     1      23.338 -36.297  24.868  1.00  0.00     0.169 A 
ATOM     22  C   UNL     1      24.315 -35.524  24.210  1.00  0.00     0.162 A 
BRANCH  13  23
ATOM     23  O   UNL     1      19.192 -35.465  24.087  1.00  0.00    -0.507 OA
ATOM     24  H   UNL     1      18.206 -35.235  24.112  1.00  0.00     0.293 HD
ENDBRANCH  13  23
BRANCH  19  25
ATOM     25  C   UNL     1      21.011 -36.753  25.566  1.00  0.00     0.264 C 
ATOM     26  O   UNL     1      21.246 -36.993  26.780  1.00  0.00    -0.298 OA
ENDBRANCH  19  25
BRANCH  20  27
ATOM     27  C   UNL     1      24.992 -33.773  22.477  1.00  0.00     0.017 C 
ATOM     28  C   UNL     1      25.910 -32.887  23.326  1.00  0.00     0.012 C 
ATOM     29  C   UNL     1      25.803 -34.742  21.597  1.00  0.00     0.012 C 
ENDBRANCH  20  27
BRANCH  21  30
ATOM     30  O   UNL     1      23.698 -37.388  25.669  1.00  0.00    -0.504 OA
ATOM     31  H   UNL     1      24.637 -37.744  25.768  1.00  0.00     0.293 HD
ENDBRANCH  21  30
BRANCH  22  32
ATOM     32  O   UNL     1      25.676 -35.759  24.423  1.00  0.00    -0.504 OA
ATOM     33  H   UNL     1      26.264 -36.321  23.826  1.00  0.00     0.293 HD
ENDBRANCH  22  32
ENDBRANCH  11  12
BRANCH  10  34
ATOM     34  O   UNL     1      18.474 -34.097  20.666  1.00  0.00    -0.507 OA
ATOM     35  H   UNL     1      19.029 -34.929  20.823  1.00  0.00     0.293 HD
ENDBRANCH  10  34
BRANCH   9  36
ATOM     36  C   UNL     1      13.472 -31.328  23.344  1.00  0.00     0.017 C 
ATOM     37  C   UNL     1      13.530 -32.124  24.651  1.00  0.00     0.012 C 
ATOM     38  C   UNL     1      13.841 -29.849  23.572  1.00  0.00     0.012 C 
ENDBRANCH   9  36
BRANCH   6  39
ATOM     39  C   UNL     1      16.181 -34.659  19.424  1.00  0.00     0.264 C 
ATOM     40  O   UNL     1      16.120 -35.880  19.730  1.00  0.00    -0.298 OA
ENDBRANCH   6  39
BRANCH   8  41
ATOM     41  O   UNL     1      12.516 -31.633  20.650  1.00  0.00    -0.504 OA
ATOM     42  H   UNL     1      11.642 -32.119  20.505  1.00  0.00     0.293 HD
ENDBRANCH   8  41
BRANCH   7  43
ATOM     43  O   UNL     1      13.685 -33.556  18.913  1.00  0.00    -0.504 OA
ATOM     44  H   UNL     1      13.238 -32.936  18.252  1.00  0.00     0.293 HD
ENDBRANCH   7  43
TORSDOF 11
ENDMDL
MODEL 2
REMARK VINA RESULT:    -7.168      5.976      8.642
REMARK INTER + INTRA:         -11.532
REMARK INTER:                 -10.862
REMARK INTRA:                  -0.671
REMARK UNBOUND:                -1.011
REMARK SMILES Cc1cc2c(C(C)C)c(O)c(O)c(C=O)c2c(O)c1-c1c(C)cc2c(C(C)C)c(O)c(O)c(C=O)c2c1O
REMARK SMILES IDX 1 1 2 2 3 3 4 4 16 5 13 6 11 7 9 8 5 9 17 10 19 11 20 12
REMARK SMILES IDX 37 13 21 14 36 15 23 16 22 17 24 18 33 19 25 20 31 21 29 22
REMARK SMILES IDX 38 23 34 25 35 26 26 27 27 28 28 29 32 30 30 32 18 34 6 36
REMARK SMILES IDX 7 37 8 38 14 39 15 40 10 41 12 43
REMARK H PARENT 38 24 32 31 30 33 18 35 10 42 12 44
REMARK Flexibility Score: inf
ROOT
ATOM      1  C   UNL     1      22.124 -27.767  25.574  1.00  0.00     0.045 C 
ATOM      2  C   UNL     1      22.373 -27.113  24.237  1.00  0.00    -0.039 A 
ATOM      3  C   UNL     1      22.606 -25.739  24.182  1.00  0.00     0.013 A 
ATOM      4  C   UNL     1      22.829 -25.067  22.958  1.00  0.00    -0.006 A 
ATOM      5  C   UNL     1      22.895 -25.836  21.757  1.00  0.00     0.039 A 
ATOM      6  C   UNL     1      23.146 -25.166  20.523  1.00  0.00     0.072 A 
ATOM      7  C   UNL     1      23.503 -23.805  20.525  1.00  0.00     0.169 A 
ATOM      8  C   UNL     1      23.528 -23.078  21.727  1.00  0.00     0.162 A 
ATOM      9  C   UNL     1      23.033 -23.654  22.918  1.00  0.00     0.008 A 
ATOM     10  C   UNL     1      22.753 -27.254  21.833  1.00  0.00     0.132 A 
ATOM     11  C   UNL     1      22.451 -27.878  23.061  1.00  0.00     0.031 A 
ENDROOT
BRANCH  11  12
ATOM     12  C   UNL     1      22.258 -29.350  23.126  1.00  0.00     0.031 A 
ATOM     13  C   UNL     1      21.080 -29.937  22.615  1.00  0.00     0.132 A 
ATOM     14  C   UNL     1      23.249 -30.158  23.706  1.00  0.00    -0.039 A 
ATOM     15  C   UNL     1      20.879 -31.346  22.705  1.00  0.00     0.039 A 
ATOM     16  C   UNL     1      23.102 -31.545  23.690  1.00  0.00     0.013 A 
ATOM     17  C   UNL     1      24.485 -29.548  24.321  1.00  0.00     0.045 C 
ATOM     18  C   UNL     1      21.964 -32.166  23.130  1.00  0.00    -0.006 A 
ATOM     19  C   UNL     1      19.641 -31.965  22.361  1.00  0.00     0.072 A 
ATOM     20  C   UNL     1      21.878 -33.587  23.017  1.00  0.00     0.008 A 
ATOM     21  C   UNL     1      19.522 -33.367  22.384  1.00  0.00     0.169 A 
ATOM     22  C   UNL     1      20.620 -34.171  22.745  1.00  0.00     0.162 A 
BRANCH  13  23
ATOM     23  O   UNL     1      20.128 -29.127  21.985  1.00  0.00    -0.507 OA
ATOM     24  H   UNL     1      19.641 -29.386  21.136  1.00  0.00     0.293 HD
ENDBRANCH  13  23
BRANCH  19  25
ATOM     25  C   UNL     1      18.412 -31.176  22.103  1.00  0.00     0.264 C 
ATOM     26  O   UNL     1      17.956 -31.050  20.936  1.00  0.00    -0.298 OA
ENDBRANCH  19  25
BRANCH  20  27
ATOM     27  C   UNL     1      23.114 -34.485  23.202  1.00  0.00     0.017 C 
ATOM     28  C   UNL     1      24.291 -33.981  22.360  1.00  0.00     0.012 C 
ATOM     29  C   UNL     1      23.520 -34.684  24.675  1.00  0.00     0.012 C 
ENDBRANCH  20  27
BRANCH  21  30
ATOM     30  O   UNL     1      18.288 -33.936  22.046  1.00  0.00    -0.504 OA
ATOM     31  H   UNL     1      18.044 -34.905  22.187  1.00  0.00     0.293 HD
ENDBRANCH  21  30
BRANCH  22  32
ATOM     32  O   UNL     1      20.479 -35.556  22.881  1.00  0.00    -0.504 OA
ATOM     33  H   UNL     1      20.557 -36.219  22.126  1.00  0.00     0.293 HD
ENDBRANCH  22  32
ENDBRANCH  11  12
BRANCH  10  34
ATOM     34  O   UNL     1      22.958 -28.048  20.698  1.00  0.00    -0.507 OA
ATOM     35  H   UNL     1      23.836 -28.105  20.199  1.00  0.00     0.293 HD
ENDBRANCH  10  34
BRANCH   9  36
ATOM     36  C   UNL     1      22.777 -22.762  24.146  1.00  0.00     0.017 C 
ATOM     37  C   UNL     1      24.096 -22.324  24.791  1.00  0.00     0.012 C 
ATOM     38  C   UNL     1      21.867 -21.552  23.857  1.00  0.00     0.012 C 
ENDBRANCH   9  36
BRANCH   6  39
ATOM     39  C   UNL     1      22.959 -25.832  19.212  1.00  0.00     0.264 C 
ATOM     40  O   UNL     1      23.938 -26.056  18.450  1.00  0.00    -0.298 OA
ENDBRANCH   6  39
BRANCH   8  41
ATOM     41  O   UNL     1      24.053 -21.783  21.764  1.00  0.00    -0.504 OA
ATOM     42  H   UNL     1      23.786 -21.045  21.127  1.00  0.00     0.293 HD
ENDBRANCH   8  41
BRANCH   7  43
ATOM     43  O   UNL     1      23.781 -23.181  19.303  1.00  0.00    -0.504 OA
ATOM     44  H   UNL     1      24.501 -22.485  19.174  1.00  0.00     0.293 HD
ENDBRANCH   7  43
TORSDOF 11
ENDMDL
MODEL 3
REMARK VINA RESULT:    -7.122      0.731      8.970
REMARK INTER + INTRA:         -11.463
REMARK INTER:                 -10.168
REMARK INTRA:                  -1.295
REMARK UNBOUND:                -1.011
REMARK SMILES Cc1cc2c(C(C)C)c(O)c(O)c(C=O)c2c(O)c1-c1c(C)cc2c(C(C)C)c(O)c(O)c(C=O)c2c1O
REMARK SMILES IDX 1 1 2 2 3 3 4 4 16 5 13 6 11 7 9 8 5 9 17 10 19 11 20 12
REMARK SMILES IDX 37 13 21 14 36 15 23 16 22 17 24 18 33 19 25 20 31 21 29 22
REMARK SMILES IDX 38 23 34 25 35 26 26 27 27 28 28 29 32 30 30 32 18 34 6 36
REMARK SMILES IDX 7 37 8 38 14 39 15 40 10 41 12 43
REMARK H PARENT 38 24 32 31 30 33 18 35 10 42 12 44
REMARK Flexibility Score: inf
ROOT
ATOM      1  C   UNL     1      20.652 -31.359  22.066  1.00  0.00     0.045 C 
ATOM      2  C   UNL     1      20.838 -32.591  22.918  1.00  0.00    -0.039 A 
ATOM      3  C   UNL     1      22.125 -32.966  23.305  1.00  0.00     0.013 A 
ATOM      4  C   UNL     1      22.363 -34.119  24.087  1.00  0.00    -0.006 A 
ATOM      5  C   UNL     1      21.245 -34.872  24.557  1.00  0.00     0.039 A 
ATOM      6  C   UNL     1      21.481 -36.021  25.369  1.00  0.00     0.072 A 
ATOM      7  C   UNL     1      22.777 -36.290  25.844  1.00  0.00     0.169 A 
ATOM      8  C   UNL     1      23.860 -35.483  25.451  1.00  0.00     0.162 A 
ATOM      9  C   UNL     1      23.691 -34.505  24.447  1.00  0.00     0.008 A 
ATOM     10  C   UNL     1      19.927 -34.427  24.239  1.00  0.00     0.132 A 
ATOM     11  C   UNL     1      19.732 -33.319  23.388  1.00  0.00     0.031 A 
ENDROOT
BRANCH  11  12
ATOM     12  C   UNL     1      18.357 -32.890  23.022  1.00  0.00     0.031 A 
ATOM     13  C   UNL     1      17.698 -33.475  21.919  1.00  0.00     0.132 A 
ATOM     14  C   UNL     1      17.717 -31.890  23.772  1.00  0.00    -0.039 A 
ATOM     15  C   UNL     1      16.391 -33.041  21.547  1.00  0.00     0.039 A 
ATOM     16  C   UNL     1      16.397 -31.548  23.476  1.00  0.00     0.013 A 
ATOM     17  C   UNL     1      18.427 -31.200  24.912  1.00  0.00     0.045 C 
ATOM     18  C   UNL     1      15.688 -32.161  22.420  1.00  0.00    -0.006 A 
ATOM     19  C   UNL     1      15.754 -33.476  20.348  1.00  0.00     0.072 A 
ATOM     20  C   UNL     1      14.305 -31.885  22.200  1.00  0.00     0.008 A 
ATOM     21  C   UNL     1      14.431 -33.088  20.071  1.00  0.00     0.169 A 
ATOM     22  C   UNL     1      13.723 -32.268  20.971  1.00  0.00     0.162 A 
BRANCH  13  23
ATOM     23  O   UNL     1      18.323 -34.513  21.218  1.00  0.00    -0.507 OA
ATOM     24  H   UNL     1      17.834 -35.316  20.845  1.00  0.00     0.293 HD
ENDBRANCH  13  23
BRANCH  19  25
ATOM     25  C   UNL     1      16.484 -34.227  19.297  1.00  0.00     0.264 C 
ATOM     26  O   UNL     1      16.403 -35.481  19.222  1.00  0.00    -0.298 OA
ENDBRANCH  19  25
BRANCH  20  27
ATOM     27  C   UNL     1      13.449 -31.170  23.262  1.00  0.00     0.017 C 
ATOM     28  C   UNL     1      13.466 -31.936  24.589  1.00  0.00     0.012 C 
ATOM     29  C   UNL     1      13.820 -29.689  23.461  1.00  0.00     0.012 C 
ENDBRANCH  20  27
BRANCH  21  30
ATOM     30  O   UNL     1      13.843 -33.530  18.879  1.00  0.00    -0.504 OA
ATOM     31  H   UNL     1      12.930 -33.954  18.811  1.00  0.00     0.293 HD
ENDBRANCH  21  30
BRANCH  22  32
ATOM     32  O   UNL     1      12.451 -31.784  20.650  1.00  0.00    -0.504 OA
ATOM     33  H   UNL     1      11.591 -32.293  20.785  1.00  0.00     0.293 HD
ENDBRANCH  22  32
ENDBRANCH  11  12
BRANCH  10  34
ATOM     34  O   UNL     1      18.812 -35.057  24.804  1.00  0.00    -0.507 OA
ATOM     35  H   UNL     1      18.141 -34.590  25.401  1.00  0.00     0.293 HD
ENDBRANCH  10  34
BRANCH   9  36
ATOM     36  C   UNL     1      24.929 -33.849  23.808  1.00  0.00     0.017 C 
ATOM     37  C   UNL     1      24.916 -34.018  22.286  1.00  0.00     0.012 C 
ATOM     38  C   UNL     1      25.124 -32.373  24.205  1.00  0.00     0.012 C 
ENDBRANCH   9  36
BRANCH   6  39
ATOM     39  C   UNL     1      20.415 -37.007  25.668  1.00  0.00     0.264 C 
ATOM     40  O   UNL     1      19.866 -37.050  26.802  1.00  0.00    -0.298 OA
ENDBRANCH   6  39
BRANCH   8  41
ATOM     41  O   UNL     1      25.111 -35.631  26.056  1.00  0.00    -0.504 OA
ATOM     42  H   UNL     1      25.845 -36.229  25.702  1.00  0.00     0.293 HD
ENDBRANCH   8  41
BRANCH   7  43
ATOM     43  O   UNL     1      22.974 -37.402  26.670  1.00  0.00    -0.504 OA
ATOM     44  H   UNL     1      23.775 -37.525  27.274  1.00  0.00     0.293 HD
ENDBRANCH   7  43
TORSDOF 11
ENDMDL
MODEL 4
REMARK VINA RESULT:    -7.011      5.926      8.554
REMARK INTER + INTRA:         -11.301
REMARK INTER:                 -10.096
REMARK INTRA:                  -1.205
REMARK UNBOUND:                -1.011
REMARK SMILES Cc1cc2c(C(C)C)c(O)c(O)c(C=O)c2c(O)c1-c1c(C)cc2c(C(C)C)c(O)c(O)c(C=O)c2c1O
REMARK SMILES IDX 1 1 2 2 3 3 4 4 16 5 13 6 11 7 9 8 5 9 17 10 19 11 20 12
REMARK SMILES IDX 37 13 21 14 36 15 23 16 22 17 24 18 33 19 25 20 31 21 29 22
REMARK SMILES IDX 38 23 34 25 35 26 26 27 27 28 28 29 32 30 30 32 18 34 6 36
REMARK SMILES IDX 7 37 8 38 14 39 15 40 10 41 12 43
REMARK H PARENT 38 24 32 31 30 33 18 35 10 42 12 44
REMARK Flexibility Score: inf
ROOT
ATOM      1  C   UNL     1      21.943 -28.035  25.262  1.00  0.00     0.045 C 
ATOM      2  C   UNL     1      22.234 -27.301  23.976  1.00  0.00    -0.039 A 
ATOM      3  C   UNL     1      22.541 -25.940  24.020  1.00  0.00     0.013 A 
ATOM      4  C   UNL     1      22.806 -25.196  22.849  1.00  0.00    -0.006 A 
ATOM      5  C   UNL     1      22.837 -25.878  21.595  1.00  0.00     0.039 A 
ATOM      6  C   UNL     1      23.131 -25.135  20.413  1.00  0.00     0.072 A 
ATOM      7  C   UNL     1      23.561 -23.799  20.514  1.00  0.00     0.169 A 
ATOM      8  C   UNL     1      23.619 -23.164  21.766  1.00  0.00     0.162 A 
ATOM      9  C   UNL     1      23.087 -23.796  22.911  1.00  0.00     0.008 A 
ATOM     10  C   UNL     1      22.619 -27.288  21.568  1.00  0.00     0.132 A 
ATOM     11  C   UNL     1      22.277 -27.982  22.748  1.00  0.00     0.031 A 
ENDROOT
BRANCH  11  12
ATOM     12  C   UNL     1      22.004 -29.442  22.705  1.00  0.00     0.031 A 
ATOM     13  C   UNL     1      23.005 -30.365  23.079  1.00  0.00     0.132 A 
ATOM     14  C   UNL     1      20.748 -29.903  22.282  1.00  0.00    -0.039 A 
ATOM     15  C   UNL     1      22.755 -31.767  23.008  1.00  0.00     0.039 A 
ATOM     16  C   UNL     1      20.468 -31.270  22.321  1.00  0.00     0.013 A 
ATOM     17  C   UNL     1      19.685 -28.940  21.811  1.00  0.00     0.045 C 
ATOM     18  C   UNL     1      21.426 -32.214  22.751  1.00  0.00    -0.006 A 
ATOM     19  C   UNL     1      23.780 -32.737  23.210  1.00  0.00     0.072 A 
ATOM     20  C   UNL     1      21.091 -33.594  22.896  1.00  0.00     0.008 A 
ATOM     21  C   UNL     1      23.464 -34.108  23.215  1.00  0.00     0.169 A 
ATOM     22  C   UNL     1      22.136 -34.536  23.023  1.00  0.00     0.162 A 
BRANCH  13  23
ATOM     23  O   UNL     1      24.232 -29.890  23.557  1.00  0.00    -0.507 OA
ATOM     24  H   UNL     1      25.097 -29.935  23.034  1.00  0.00     0.293 HD
ENDBRANCH  13  23
BRANCH  19  25
ATOM     25  C   UNL     1      25.214 -32.364  23.284  1.00  0.00     0.264 C 
ATOM     26  O   UNL     1      25.834 -32.387  24.380  1.00  0.00    -0.298 OA
ENDBRANCH  19  25
BRANCH  20  27
ATOM     27  C   UNL     1      19.627 -34.070  22.898  1.00  0.00     0.017 C 
ATOM     28  C   UNL     1      18.844 -33.434  24.051  1.00  0.00     0.012 C 
ATOM     29  C   UNL     1      18.909 -33.869  21.551  1.00  0.00     0.012 C 
ENDBRANCH  20  27
BRANCH  21  30
ATOM     30  O   UNL     1      24.501 -35.030  23.410  1.00  0.00    -0.504 OA
ATOM     31  H   UNL     1      24.620 -35.881  22.882  1.00  0.00     0.293 HD
ENDBRANCH  21  30
BRANCH  22  32
ATOM     32  O   UNL     1      21.832 -35.896  22.912  1.00  0.00    -0.504 OA
ATOM     33  H   UNL     1      22.466 -36.602  22.570  1.00  0.00     0.293 HD
ENDBRANCH  22  32
ENDBRANCH  11  12
BRANCH  10  34
ATOM     34  O   UNL     1      22.787 -28.008  20.379  1.00  0.00    -0.507 OA
ATOM     35  H   UNL     1      22.227 -28.809  20.119  1.00  0.00     0.293 HD
ENDBRANCH  10  34
BRANCH   9  36
ATOM     36  C   UNL     1      22.873 -22.982  24.200  1.00  0.00     0.017 C 
ATOM     37  C   UNL     1      24.212 -22.614  24.846  1.00  0.00     0.012 C 
ATOM     38  C   UNL     1      21.983 -21.738  24.009  1.00  0.00     0.012 C 
ENDBRANCH   9  36
BRANCH   6  39
ATOM     39  C   UNL     1      22.916 -25.694  19.057  1.00  0.00     0.264 C 
ATOM     40  O   UNL     1      23.886 -25.930  18.288  1.00  0.00    -0.298 OA
ENDBRANCH   6  39
BRANCH   8  41
ATOM     41  O   UNL     1      24.212 -21.905  21.896  1.00  0.00    -0.504 OA
ATOM     42  H   UNL     1      23.846 -21.060  21.483  1.00  0.00     0.293 HD
ENDBRANCH   8  41
BRANCH   7  43
ATOM     43  O   UNL     1      23.879 -23.105  19.341  1.00  0.00    -0.504 OA
ATOM     44  H   UNL     1      23.256 -22.458  18.879  1.00  0.00     0.293 HD
ENDBRANCH   7  43
TORSDOF 11
ENDMDL
MODEL 5
REMARK VINA RESULT:    -6.962      9.546     12.047
REMARK INTER + INTRA:         -11.229
REMARK INTER:                  -9.932
REMARK INTRA:                  -1.298
REMARK UNBOUND:                -1.011
REMARK SMILES Cc1cc2c(C(C)C)c(O)c(O)c(C=O)c2c(O)c1-c1c(C)cc2c(C(C)C)c(O)c(O)c(C=O)c2c1O
REMARK SMILES IDX 1 1 2 2 3 3 4 4 16 5 13 6 11 7 9 8 5 9 17 10 19 11 20 12
REMARK SMILES IDX 37 13 21 14 36 15 23 16 22 17 24 18 33 19 25 20 31 21 29 22
REMARK SMILES IDX 38 23 34 25 35 26 26 27 27 28 28 29 32 30 30 32 18 34 6 36
REMARK SMILES IDX 7 37 8 38 14 39 15 40 10 41 12 43
REMARK H PARENT 38 24 32 31 30 33 18 35 10 42 12 44
REMARK Flexibility Score: inf
ROOT
ATOM      1  C   UNL     1      22.949 -22.491  25.225  1.00  0.00     0.045 C 
ATOM      2  C   UNL     1      22.856 -23.972  24.949  1.00  0.00    -0.039 A 
ATOM      3  C   UNL     1      22.583 -24.409  23.652  1.00  0.00     0.013 A 
ATOM      4  C   UNL     1      22.467 -25.781  23.336  1.00  0.00    -0.006 A 
ATOM      5  C   UNL     1      22.715 -26.744  24.360  1.00  0.00     0.039 A 
ATOM      6  C   UNL     1      22.625 -28.131  24.038  1.00  0.00     0.072 A 
ATOM      7  C   UNL     1      22.478 -28.531  22.697  1.00  0.00     0.169 A 
ATOM      8  C   UNL     1      22.330 -27.571  21.681  1.00  0.00     0.162 A 
ATOM      9  C   UNL     1      22.156 -26.209  22.009  1.00  0.00     0.008 A 
ATOM     10  C   UNL     1      23.089 -26.292  25.661  1.00  0.00     0.132 A 
ATOM     11  C   UNL     1      23.115 -24.913  25.958  1.00  0.00     0.031 A 
ENDROOT
BRANCH  11  12
ATOM     12  C   UNL     1      23.459 -24.450  27.328  1.00  0.00     0.031 A 
ATOM     13  C   UNL     1      24.786 -24.086  27.644  1.00  0.00     0.132 A 
ATOM     14  C   UNL     1      22.461 -24.384  28.312  1.00  0.00    -0.039 A 
ATOM     15  C   UNL     1      25.124 -23.671  28.967  1.00  0.00     0.039 A 
ATOM     16  C   UNL     1      22.769 -23.871  29.573  1.00  0.00     0.013 A 
ATOM     17  C   UNL     1      21.050 -24.834  28.018  1.00  0.00     0.045 C 
ATOM     18  C   UNL     1      24.073 -23.438  29.900  1.00  0.00    -0.006 A 
ATOM     19  C   UNL     1      26.472 -23.457  29.379  1.00  0.00     0.072 A 
ATOM     20  C   UNL     1      24.351 -22.811  31.152  1.00  0.00     0.008 A 
ATOM     21  C   UNL     1      26.746 -22.965  30.668  1.00  0.00     0.169 A 
ATOM     22  C   UNL     1      25.696 -22.679  31.562  1.00  0.00     0.162 A 
BRANCH  13  23
ATOM     23  O   UNL     1      25.759 -24.097  26.638  1.00  0.00    -0.507 OA
ATOM     24  H   UNL     1      26.737 -23.890  26.796  1.00  0.00     0.293 HD
ENDBRANCH  13  23
BRANCH  19  25
ATOM     25  C   UNL     1      27.626 -23.863  28.540  1.00  0.00     0.264 C 
ATOM     26  O   UNL     1      28.135 -25.009  28.649  1.00  0.00    -0.298 OA
ENDBRANCH  19  25
BRANCH  20  27
ATOM     27  C   UNL     1      23.220 -22.296  32.061  1.00  0.00     0.017 C 
ATOM     28  C   UNL     1      23.035 -23.207  33.279  1.00  0.00     0.012 C 
ATOM     29  C   UNL     1      23.384 -20.823  32.480  1.00  0.00     0.012 C 
ENDBRANCH  20  27
BRANCH  21  30
ATOM     30  O   UNL     1      28.084 -22.775  31.038  1.00  0.00    -0.504 OA
ATOM     31  H   UNL     1      28.877 -22.954  30.440  1.00  0.00     0.293 HD
ENDBRANCH  21  30
BRANCH  22  32
ATOM     32  O   UNL     1      25.963 -22.299  32.881  1.00  0.00    -0.504 OA
ATOM     33  H   UNL     1      26.742 -21.726  33.169  1.00  0.00     0.293 HD
ENDBRANCH  22  32
ENDBRANCH  11  12
BRANCH  10  34
ATOM     34  O   UNL     1      23.481 -27.209  26.643  1.00  0.00    -0.507 OA
ATOM     35  H   UNL     1      23.910 -26.948  27.521  1.00  0.00     0.293 HD
ENDBRANCH  10  34
BRANCH   9  36
ATOM     36  C   UNL     1      21.689 -25.219  20.925  1.00  0.00     0.017 C 
ATOM     37  C   UNL     1      22.819 -24.913  19.938  1.00  0.00     0.012 C 
ATOM     38  C   UNL     1      20.408 -25.660  20.191  1.00  0.00     0.012 C 
ENDBRANCH   9  36
BRANCH   6  39
ATOM     39  C   UNL     1      22.594 -29.182  25.082  1.00  0.00     0.264 C 
ATOM     40  O   UNL     1      23.583 -29.940  25.274  1.00  0.00    -0.298 OA
ENDBRANCH   6  39
BRANCH   8  41
ATOM     41  O   UNL     1      22.364 -27.950  20.336  1.00  0.00    -0.504 OA
ATOM     42  H   UNL     1      22.311 -27.302  19.563  1.00  0.00     0.293 HD
ENDBRANCH   8  41
BRANCH   7  43
ATOM     43  O   UNL     1      22.431 -29.899  22.405  1.00  0.00    -0.504 OA
ATOM     44  H   UNL     1      23.239 -30.456  22.165  1.00  0.00     0.293 HD
ENDBRANCH   7  43
TORSDOF 11
ENDMDL
MODEL 6
REMARK VINA RESULT:    -6.951     10.317     12.845
REMARK INTER + INTRA:         -11.213
REMARK INTER:                 -10.178
REMARK INTRA:                  -1.035
REMARK UNBOUND:                -1.011
REMARK SMILES Cc1cc2c(C(C)C)c(O)c(O)c(C=O)c2c(O)c1-c1c(C)cc2c(C(C)C)c(O)c(O)c(C=O)c2c1O
REMARK SMILES IDX 1 1 2 2 3 3 4 4 16 5 13 6 11 7 9 8 5 9 17 10 19 11 20 12
REMARK SMILES IDX 37 13 21 14 36 15 23 16 22 17 24 18 33 19 25 20 31 21 29 22
REMARK SMILES IDX 38 23 34 25 35 26 26 27 27 28 28 29 32 30 30 32 18 34 6 36
REMARK SMILES IDX 7 37 8 38 14 39 15 40 10 41 12 43
REMARK H PARENT 38 24 32 31 30 33 18 35 10 42 12 44
REMARK Flexibility Score: inf
ROOT
ATOM      1  C   UNL     1      21.364 -26.566  26.834  1.00  0.00     0.045 C 
ATOM      2  C   UNL     1      21.988 -25.573  25.884  1.00  0.00    -0.039 A 
ATOM      3  C   UNL     1      22.009 -25.854  24.518  1.00  0.00     0.013 A 
ATOM      4  C   UNL     1      22.594 -24.971  23.582  1.00  0.00    -0.006 A 
ATOM      5  C   UNL     1      23.105 -23.721  24.045  1.00  0.00     0.039 A 
ATOM      6  C   UNL     1      23.672 -22.816  23.100  1.00  0.00     0.072 A 
ATOM      7  C   UNL     1      23.557 -23.078  21.723  1.00  0.00     0.169 A 
ATOM      8  C   UNL     1      22.965 -24.270  21.273  1.00  0.00     0.162 A 
ATOM      9  C   UNL     1      22.635 -25.291  22.190  1.00  0.00     0.008 A 
ATOM     10  C   UNL     1      22.993 -23.398  25.431  1.00  0.00     0.132 A 
ATOM     11  C   UNL     1      22.476 -24.339  26.346  1.00  0.00     0.031 A 
ENDROOT
BRANCH  11  12
ATOM     12  C   UNL     1      22.405 -24.014  27.794  1.00  0.00     0.031 A 
ATOM     13  C   UNL     1      23.455 -24.388  28.660  1.00  0.00     0.132 A 
ATOM     14  C   UNL     1      21.284 -23.340  28.302  1.00  0.00    -0.039 A 
ATOM     15  C   UNL     1      23.374 -24.105  30.056  1.00  0.00     0.039 A 
ATOM     16  C   UNL     1      21.257 -22.964  29.646  1.00  0.00     0.013 A 
ATOM     17  C   UNL     1      20.118 -22.991  27.409  1.00  0.00     0.045 C 
ATOM     18  C   UNL     1      22.321 -23.267  30.524  1.00  0.00    -0.006 A 
ATOM     19  C   UNL     1      24.322 -24.608  30.994  1.00  0.00     0.072 A 
ATOM     20  C   UNL     1      22.334 -22.778  31.865  1.00  0.00     0.008 A 
ATOM     21  C   UNL     1      24.247 -24.229  32.347  1.00  0.00     0.169 A 
ATOM     22  C   UNL     1      23.239 -23.350  32.788  1.00  0.00     0.162 A 
BRANCH  13  23
ATOM     23  O   UNL     1      24.595 -25.004  28.131  1.00  0.00    -0.507 OA
ATOM     24  H   UNL     1      24.571 -25.685  27.382  1.00  0.00     0.293 HD
ENDBRANCH  13  23
BRANCH  19  25
ATOM     25  C   UNL     1      25.324 -25.639  30.625  1.00  0.00     0.264 C 
ATOM     26  O   UNL     1      25.269 -26.799  31.111  1.00  0.00    -0.298 OA
ENDBRANCH  19  25
BRANCH  20  27
ATOM     27  C   UNL     1      21.377 -21.663  32.324  1.00  0.00     0.017 C 
ATOM     28  C   UNL     1      21.734 -20.326  31.665  1.00  0.00     0.012 C 
ATOM     29  C   UNL     1      19.888 -22.006  32.130  1.00  0.00     0.012 C 
ENDBRANCH  20  27
BRANCH  21  30
ATOM     30  O   UNL     1      25.193 -24.751  33.238  1.00  0.00    -0.504 OA
ATOM     31  H   UNL     1      26.167 -24.901  33.021  1.00  0.00     0.293 HD
ENDBRANCH  21  30
BRANCH  22  32
ATOM     32  O   UNL     1      23.088 -23.058  34.146  1.00  0.00    -0.504 OA
ATOM     33  H   UNL     1      23.292 -23.698  34.899  1.00  0.00     0.293 HD
ENDBRANCH  22  32
ENDBRANCH  11  12
BRANCH  10  34
ATOM     34  O   UNL     1      23.350 -22.125  25.891  1.00  0.00    -0.507 OA
ATOM     35  H   UNL     1      23.349 -21.856  26.867  1.00  0.00     0.293 HD
ENDBRANCH  10  34
BRANCH   9  36
ATOM     36  C   UNL     1      22.281 -26.696  21.670  1.00  0.00     0.017 C 
ATOM     37  C   UNL     1      20.860 -26.728  21.098  1.00  0.00     0.012 C 
ATOM     38  C   UNL     1      23.302 -27.262  20.664  1.00  0.00     0.012 C 
ENDBRANCH   9  36
BRANCH   6  39
ATOM     39  C   UNL     1      24.465 -21.635  23.518  1.00  0.00     0.264 C 
ATOM     40  O   UNL     1      25.722 -21.625  23.419  1.00  0.00    -0.298 OA
ENDBRANCH   6  39
BRANCH   8  41
ATOM     41  O   UNL     1      22.684 -24.455  19.916  1.00  0.00    -0.504 OA
ATOM     42  H   UNL     1      21.752 -24.546  19.537  1.00  0.00     0.293 HD
ENDBRANCH   8  41
BRANCH   7  43
ATOM     43  O   UNL     1      24.089 -22.153  20.816  1.00  0.00    -0.504 OA
ATOM     44  H   UNL     1      23.538 -21.475  20.310  1.00  0.00     0.293 HD
ENDBRANCH   7  43
TORSDOF 11
ENDMDL
MODEL 7
REMARK VINA RESULT:    -6.946      4.163      6.638
REMARK INTER + INTRA:         -11.205
REMARK INTER:                  -9.929
REMARK INTRA:                  -1.277
REMARK UNBOUND:                -1.011
REMARK SMILES Cc1cc2c(C(C)C)c(O)c(O)c(C=O)c2c(O)c1-c1c(C)cc2c(C(C)C)c(O)c(O)c(C=O)c2c1O
REMARK SMILES IDX 1 1 2 2 3 3 4 4 16 5 13 6 11 7 9 8 5 9 17 10 19 11 20 12
REMARK SMILES IDX 37 13 21 14 36 15 23 16 22 17 24 18 33 19 25 20 31 21 29 22
REMARK SMILES IDX 38 23 34 25 35 26 26 27 27 28 28 29 32 30 30 32 18 34 6 36
REMARK SMILES IDX 7 37 8 38 14 39 15 40 10 41 12 43
REMARK H PARENT 38 24 32 31 30 33 18 35 10 42 12 44
REMARK Flexibility Score: inf
ROOT
ATOM      1  C   UNL     1      22.474 -33.563  24.886  1.00  0.00     0.045 C 
ATOM      2  C   UNL     1      21.983 -32.421  24.031  1.00  0.00    -0.039 A 
ATOM      3  C   UNL     1      20.826 -32.586  23.269  1.00  0.00     0.013 A 
ATOM      4  C   UNL     1      20.327 -31.559  22.436  1.00  0.00    -0.006 A 
ATOM      5  C   UNL     1      20.985 -30.292  22.441  1.00  0.00     0.039 A 
ATOM      6  C   UNL     1      20.469 -29.244  21.623  1.00  0.00     0.072 A 
ATOM      7  C   UNL     1      19.233 -29.408  20.972  1.00  0.00     0.169 A 
ATOM      8  C   UNL     1      18.544 -30.630  21.051  1.00  0.00     0.162 A 
ATOM      9  C   UNL     1      19.160 -31.757  21.637  1.00  0.00     0.008 A 
ATOM     10  C   UNL     1      22.110 -30.099  23.298  1.00  0.00     0.132 A 
ATOM     11  C   UNL     1      22.627 -31.173  24.053  1.00  0.00     0.031 A 
ENDROOT
BRANCH  11  12
ATOM     12  C   UNL     1      23.827 -30.978  24.907  1.00  0.00     0.031 A 
ATOM     13  C   UNL     1      25.121 -31.153  24.369  1.00  0.00     0.132 A 
ATOM     14  C   UNL     1      23.672 -30.626  26.257  1.00  0.00    -0.039 A 
ATOM     15  C   UNL     1      26.273 -30.998  25.195  1.00  0.00     0.039 A 
ATOM     16  C   UNL     1      24.800 -30.363  27.034  1.00  0.00     0.013 A 
ATOM     17  C   UNL     1      22.299 -30.500  26.873  1.00  0.00     0.045 C 
ATOM     18  C   UNL     1      26.107 -30.468  26.508  1.00  0.00    -0.006 A 
ATOM     19  C   UNL     1      27.585 -31.328  24.747  1.00  0.00     0.072 A 
ATOM     20  C   UNL     1      27.247 -30.087  27.278  1.00  0.00     0.008 A 
ATOM     21  C   UNL     1      28.698 -31.074  25.570  1.00  0.00     0.169 A 
ATOM     22  C   UNL     1      28.528 -30.493  26.842  1.00  0.00     0.162 A 
BRANCH  13  23
ATOM     23  O   UNL     1      25.263 -31.443  23.007  1.00  0.00    -0.507 OA
ATOM     24  H   UNL     1      25.151 -30.759  22.270  1.00  0.00     0.293 HD
ENDBRANCH  13  23
BRANCH  19  25
ATOM     25  C   UNL     1      27.822 -32.063  23.481  1.00  0.00     0.264 C 
ATOM     26  O   UNL     1      27.860 -33.321  23.459  1.00  0.00    -0.298 OA
ENDBRANCH  19  25
BRANCH  20  27
ATOM     27  C   UNL     1      27.104 -29.265  28.572  1.00  0.00     0.017 C 
ATOM     28  C   UNL     1      27.333 -30.141  29.808  1.00  0.00     0.012 C 
ATOM     29  C   UNL     1      27.987 -28.003  28.605  1.00  0.00     0.012 C 
ENDBRANCH  20  27
BRANCH  21  30
ATOM     30  O   UNL     1      29.969 -31.420  25.096  1.00  0.00    -0.504 OA
ATOM     31  H   UNL     1      30.145 -32.043  24.322  1.00  0.00     0.293 HD
ENDBRANCH  21  30
BRANCH  22  32
ATOM     32  O   UNL     1      29.613 -30.343  27.711  1.00  0.00    -0.504 OA
ATOM     33  H   UNL     1      30.226 -29.542  27.733  1.00  0.00     0.293 HD
ENDBRANCH  22  32
ENDBRANCH  11  12
BRANCH  10  34
ATOM     34  O   UNL     1      22.685 -28.830  23.436  1.00  0.00    -0.507 OA
ATOM     35  H   UNL     1      23.207 -28.531  24.249  1.00  0.00     0.293 HD
ENDBRANCH  10  34
BRANCH   9  36
ATOM     36  C   UNL     1      18.535 -33.152  21.445  1.00  0.00     0.017 C 
ATOM     37  C   UNL     1      17.268 -33.307  22.292  1.00  0.00     0.012 C 
ATOM     38  C   UNL     1      18.271 -33.517  19.972  1.00  0.00     0.012 C 
ENDBRANCH   9  36
BRANCH   6  39
ATOM     39  C   UNL     1      21.234 -28.003  21.356  1.00  0.00     0.264 C 
ATOM     40  O   UNL     1      20.815 -26.881  21.750  1.00  0.00    -0.298 OA
ENDBRANCH   6  39
BRANCH   8  41
ATOM     41  O   UNL     1      17.239 -30.743  20.563  1.00  0.00    -0.504 OA
ATOM     42  H   UNL     1      16.456 -31.076  21.108  1.00  0.00     0.293 HD
ENDBRANCH   8  41
BRANCH   7  43
ATOM     43  O   UNL     1      18.731 -28.349  20.205  1.00  0.00    -0.504 OA
ATOM     44  H   UNL     1      19.132 -27.422  20.188  1.00  0.00     0.293 HD
ENDBRANCH   7  43
TORSDOF 11
ENDMDL
MODEL 8
REMARK VINA RESULT:    -6.908      5.397      9.094
REMARK INTER + INTRA:         -11.150
REMARK INTER:                  -9.934
REMARK INTRA:                  -1.216
REMARK UNBOUND:                -1.011
REMARK SMILES Cc1cc2c(C(C)C)c(O)c(O)c(C=O)c2c(O)c1-c1c(C)cc2c(C(C)C)c(O)c(O)c(C=O)c2c1O
REMARK SMILES IDX 1 1 2 2 3 3 4 4 16 5 13 6 11 7 9 8 5 9 17 10 19 11 20 12
REMARK SMILES IDX 37 13 21 14 36 15 23 16 22 17 24 18 33 19 25 20 31 21 29 22
REMARK SMILES IDX 38 23 34 25 35 26 26 27 27 28 28 29 32 30 30 32 18 34 6 36
REMARK SMILES IDX 7 37 8 38 14 39 15 40 10 41 12 43
REMARK H PARENT 38 24 32 31 30 33 18 35 10 42 12 44
REMARK Flexibility Score: inf
ROOT
ATOM      1  C   UNL     1      25.131 -30.419  24.121  1.00  0.00     0.045 C 
ATOM      2  C   UNL     1      23.870 -31.162  23.752  1.00  0.00    -0.039 A 
ATOM      3  C   UNL     1      23.924 -32.542  23.555  1.00  0.00     0.013 A 
ATOM      4  C   UNL     1      22.782 -33.291  23.192  1.00  0.00    -0.006 A 
ATOM      5  C   UNL     1      21.524 -32.621  23.105  1.00  0.00     0.039 A 
ATOM      6  C   UNL     1      20.363 -33.378  22.766  1.00  0.00     0.072 A 
ATOM      7  C   UNL     1      20.435 -34.781  22.702  1.00  0.00     0.169 A 
ATOM      8  C   UNL     1      21.663 -35.439  22.885  1.00  0.00     0.162 A 
ATOM      9  C   UNL     1      22.863 -34.698  22.962  1.00  0.00     0.008 A 
ATOM     10  C   UNL     1      21.458 -31.227  23.404  1.00  0.00     0.132 A 
ATOM     11  C   UNL     1      22.634 -30.500  23.683  1.00  0.00     0.031 A 
ENDROOT
BRANCH  11  12
ATOM     12  C   UNL     1      22.565 -29.039  23.947  1.00  0.00     0.031 A 
ATOM     13  C   UNL     1      22.570 -28.120  22.875  1.00  0.00     0.132 A 
ATOM     14  C   UNL     1      22.503 -28.573  25.270  1.00  0.00    -0.039 A 
ATOM     15  C   UNL     1      22.536 -26.717  23.128  1.00  0.00     0.039 A 
ATOM     16  C   UNL     1      22.356 -27.206  25.511  1.00  0.00     0.013 A 
ATOM     17  C   UNL     1      22.566 -29.531  26.434  1.00  0.00     0.045 C 
ATOM     18  C   UNL     1      22.294 -26.267  24.458  1.00  0.00    -0.006 A 
ATOM     19  C   UNL     1      22.710 -25.750  22.095  1.00  0.00     0.072 A 
ATOM     20  C   UNL     1      22.028 -24.887  24.713  1.00  0.00     0.008 A 
ATOM     21  C   UNL     1      22.581 -24.378  22.383  1.00  0.00     0.169 A 
ATOM     22  C   UNL     1      22.279 -23.947  23.689  1.00  0.00     0.162 A 
BRANCH  13  23
ATOM     23  O   UNL     1      22.570 -28.600  21.560  1.00  0.00    -0.507 OA
ATOM     24  H   UNL     1      21.787 -29.082  21.136  1.00  0.00     0.293 HD
ENDBRANCH  13  23
BRANCH  19  25
ATOM     25  C   UNL     1      23.160 -26.126  20.733  1.00  0.00     0.264 C 
ATOM     26  O   UNL     1      22.380 -26.047  19.748  1.00  0.00    -0.298 OA
ENDBRANCH  19  25
BRANCH  20  27
ATOM     27  C   UNL     1      21.495 -24.410  26.076  1.00  0.00     0.017 C 
ATOM     28  C   UNL     1      22.607 -23.759  26.905  1.00  0.00     0.012 C 
ATOM     29  C   UNL     1      20.261 -23.494  25.972  1.00  0.00     0.012 C 
ENDBRANCH  20  27
BRANCH  21  30
ATOM     30  O   UNL     1      22.767 -23.460  21.342  1.00  0.00    -0.504 OA
ATOM     31  H   UNL     1      22.833 -22.460  21.462  1.00  0.00     0.293 HD
ENDBRANCH  21  30
BRANCH  22  32
ATOM     32  O   UNL     1      22.262 -22.586  24.007  1.00  0.00    -0.504 OA
ATOM     33  H   UNL     1      23.027 -22.085  24.434  1.00  0.00     0.293 HD
ENDBRANCH  22  32
ENDBRANCH  11  12
BRANCH  10  34
ATOM     34  O   UNL     1      20.221 -30.575  23.471  1.00  0.00    -0.507 OA
ATOM     35  H   UNL     1      19.619 -30.587  24.283  1.00  0.00     0.293 HD
ENDBRANCH  10  34
BRANCH   9  36
ATOM     36  C   UNL     1      24.215 -35.425  22.850  1.00  0.00     0.017 C 
ATOM     37  C   UNL     1      25.165 -34.677  21.909  1.00  0.00     0.012 C 
ATOM     38  C   UNL     1      24.884 -35.709  24.209  1.00  0.00     0.012 C 
ENDBRANCH   9  36
BRANCH   6  39
ATOM     39  C   UNL     1      19.084 -32.731  22.387  1.00  0.00     0.264 C 
ATOM     40  O   UNL     1      18.088 -32.754  23.159  1.00  0.00    -0.298 OA
ENDBRANCH   6  39
BRANCH   8  41
ATOM     41  O   UNL     1      21.713 -36.831  23.003  1.00  0.00    -0.504 OA
ATOM     42  H   UNL     1      20.977 -37.392  23.406  1.00  0.00     0.293 HD
ENDBRANCH   8  41
BRANCH   7  43
ATOM     43  O   UNL     1      19.272 -35.502  22.404  1.00  0.00    -0.504 OA
ATOM     44  H   UNL     1      18.739 -36.024  23.086  1.00  0.00     0.293 HD
ENDBRANCH   7  43
TORSDOF 11
ENDMDL
MODEL 9
REMARK VINA RESULT:    -6.818      9.620     12.776
REMARK INTER + INTRA:         -11.018
REMARK INTER:                  -9.502
REMARK INTRA:                  -1.516
REMARK UNBOUND:                -1.011
REMARK SMILES Cc1cc2c(C(C)C)c(O)c(O)c(C=O)c2c(O)c1-c1c(C)cc2c(C(C)C)c(O)c(O)c(C=O)c2c1O
REMARK SMILES IDX 1 1 2 2 3 3 4 4 16 5 13 6 11 7 9 8 5 9 17 10 19 11 20 12
REMARK SMILES IDX 37 13 21 14 36 15 23 16 22 17 24 18 33 19 25 20 31 21 29 22
REMARK SMILES IDX 38 23 34 25 35 26 26 27 27 28 28 29 32 30 30 32 18 34 6 36
REMARK SMILES IDX 7 37 8 38 14 39 15 40 10 41 12 43
REMARK H PARENT 38 24 32 31 30 33 18 35 10 42 12 44
REMARK Flexibility Score: inf
ROOT
ATOM      1  C   UNL     1      20.626 -23.946  27.347  1.00  0.00     0.045 C 
ATOM      2  C   UNL     1      22.020 -23.752  27.892  1.00  0.00    -0.039 A 
ATOM      3  C   UNL     1      22.185 -23.270  29.191  1.00  0.00     0.013 A 
ATOM      4  C   UNL     1      23.464 -23.053  29.751  1.00  0.00    -0.006 A 
ATOM      5  C   UNL     1      24.616 -23.413  28.988  1.00  0.00     0.039 A 
ATOM      6  C   UNL     1      25.909 -23.220  29.559  1.00  0.00     0.072 A 
ATOM      7  C   UNL     1      26.030 -22.856  30.913  1.00  0.00     0.169 A 
ATOM      8  C   UNL     1      24.884 -22.596  31.684  1.00  0.00     0.162 A 
ATOM      9  C   UNL     1      23.614 -22.528  31.071  1.00  0.00     0.008 A 
ATOM     10  C   UNL     1      24.438 -23.997  27.698  1.00  0.00     0.132 A 
ATOM     11  C   UNL     1      23.148 -24.123  27.142  1.00  0.00     0.031 A 
ENDROOT
BRANCH  11  12
ATOM     12  C   UNL     1      22.973 -24.688  25.778  1.00  0.00     0.031 A 
ATOM     13  C   UNL     1      22.816 -26.079  25.598  1.00  0.00     0.132 A 
ATOM     14  C   UNL     1      22.973 -23.833  24.665  1.00  0.00    -0.039 A 
ATOM     15  C   UNL     1      22.680 -26.626  24.288  1.00  0.00     0.039 A 
ATOM     16  C   UNL     1      22.726 -24.356  23.395  1.00  0.00     0.013 A 
ATOM     17  C   UNL     1      23.208 -22.350  24.825  1.00  0.00     0.045 C 
ATOM     18  C   UNL     1      22.502 -25.735  23.190  1.00  0.00    -0.006 A 
ATOM     19  C   UNL     1      22.690 -28.030  24.041  1.00  0.00     0.072 A 
ATOM     20  C   UNL     1      22.138 -26.242  21.906  1.00  0.00     0.008 A 
ATOM     21  C   UNL     1      22.464 -28.521  22.742  1.00  0.00     0.169 A 
ATOM     22  C   UNL     1      22.227 -27.633  21.674  1.00  0.00     0.162 A 
BRANCH  13  23
ATOM     23  O   UNL     1      22.756 -26.913  26.721  1.00  0.00    -0.507 OA
ATOM     24  H   UNL     1      22.800 -27.923  26.676  1.00  0.00     0.293 HD
ENDBRANCH  13  23
BRANCH  19  25
ATOM     25  C   UNL     1      23.065 -29.011  25.089  1.00  0.00     0.264 C 
ATOM     26  O   UNL     1      22.196 -29.743  25.633  1.00  0.00    -0.298 OA
ENDBRANCH  19  25
BRANCH  20  27
ATOM     27  C   UNL     1      21.671 -25.307  20.776  1.00  0.00     0.017 C 
ATOM     28  C   UNL     1      22.777 -25.108  19.734  1.00  0.00     0.012 C 
ATOM     29  C   UNL     1      20.349 -25.743  20.117  1.00  0.00     0.012 C 
ENDBRANCH  20  27
BRANCH  21  30
ATOM     30  O   UNL     1      22.489 -29.906  22.540  1.00  0.00    -0.504 OA
ATOM     31  H   UNL     1      23.143 -30.388  21.941  1.00  0.00     0.293 HD
ENDBRANCH  21  30
BRANCH  22  32
ATOM     32  O   UNL     1      22.117 -28.105  20.363  1.00  0.00    -0.504 OA
ATOM     33  H   UNL     1      22.826 -28.004  19.653  1.00  0.00     0.293 HD
ENDBRANCH  22  32
ENDBRANCH  11  12
BRANCH  10  34
ATOM     34  O   UNL     1      25.538 -24.494  26.988  1.00  0.00    -0.507 OA
ATOM     35  H   UNL     1      26.259 -25.073  27.397  1.00  0.00     0.293 HD
ENDBRANCH  10  34
BRANCH   9  36
ATOM     36  C   UNL     1      22.422 -21.943  31.851  1.00  0.00     0.017 C 
ATOM     37  C   UNL     1      21.954 -22.910  32.944  1.00  0.00     0.012 C 
ATOM     38  C   UNL     1      22.684 -20.536  32.423  1.00  0.00     0.012 C 
ENDBRANCH   9  36
BRANCH   6  39
ATOM     39  C   UNL     1      27.148 -23.304  28.751  1.00  0.00     0.264 C 
ATOM     40  O   UNL     1      27.935 -24.283  28.863  1.00  0.00    -0.298 OA
ENDBRANCH   6  39
BRANCH   8  41
ATOM     41  O   UNL     1      24.985 -22.412  33.066  1.00  0.00    -0.504 OA
ATOM     42  H   UNL     1      24.197 -22.233  33.673  1.00  0.00     0.293 HD
ENDBRANCH   8  41
BRANCH   7  43
ATOM     43  O   UNL     1      27.310 -22.710  31.458  1.00  0.00    -0.504 OA
ATOM     44  H   UNL     1      28.160 -22.685  30.911  1.00  0.00     0.293 HD
ENDBRANCH   7  43
TORSDOF 11
ENDMDL
