MODEL 1
REMARK VINA RESULT:    -4.657      0.000      0.000
REMARK INTER + INTRA:         -15.081
REMARK INTER:                 -10.646
REMARK INTRA:                  -4.435
REMARK UNBOUND:                -4.435
REMARK SMILES CCCCCCCCCCCCCCCCCCCCCCCC(=O)[O-]
REMARK SMILES IDX 13 1 14 2 15 3 16 4 17 5 18 6 19 7 20 8 21 9 22 10 23 11
REMARK SMILES IDX 24 12 25 13 26 14 12 15 11 16 10 17 9 18 8 19 7 20 6 21 5 22
REMARK SMILES IDX 4 23 3 24 2 25 1 26
REMARK H PARENT
REMARK Flexibility Score: inf
ROOT
ATOM      1  C   UNL     1      26.847  14.808  -8.728  1.00  0.00     0.000 C 
ENDROOT
BRANCH   1   2
ATOM      2  C   UNL     1      26.149  15.823  -9.653  1.00  0.00     0.000 C 
BRANCH   2   3
ATOM      3  C   UNL     1      24.620  15.656  -9.663  1.00  0.00     0.000 C 
BRANCH   3   4
ATOM      4  C   UNL     1      23.881  16.955  -9.299  1.00  0.00     0.000 C 
BRANCH   4   5
ATOM      5  C   UNL     1      22.705  17.244 -10.246  1.00  0.00     0.000 C 
BRANCH   5   6
ATOM      6  C   UNL     1      22.720  16.349 -11.497  1.00  0.00     0.000 C 
BRANCH   6   7
ATOM      7  C   UNL     1      22.206  17.079 -12.748  1.00  0.00     0.000 C 
BRANCH   7   8
ATOM      8  C   UNL     1      22.442  18.599 -12.680  1.00  0.00     0.000 C 
BRANCH   8   9
ATOM      9  C   UNL     1      22.786  19.205 -14.050  1.00  0.00     0.000 C 
BRANCH   9  10
ATOM     10  C   UNL     1      22.951  18.137 -15.141  1.00  0.00     0.006 C 
BRANCH  10  11
ATOM     11  C   UNL     1      23.773  18.677 -16.316  1.00  0.00     0.053 C 
BRANCH  11  12
ATOM     12  C   UNL     1      24.671  17.613 -16.863  1.00  0.00     0.041 C 
ATOM     13  O   UNL     1      25.921  17.767 -16.848  1.00  0.00    -0.550 OA
ATOM     14  O   UNL     1      24.127  16.464 -17.425  1.00  0.00    -0.550 OA
ENDBRANCH  11  12
ENDBRANCH  10  11
ENDBRANCH   9  10
ENDBRANCH   8   9
ENDBRANCH   7   8
ENDBRANCH   6   7
ENDBRANCH   5   6
ENDBRANCH   4   5
ENDBRANCH   3   4
ENDBRANCH   2   3
ENDBRANCH   1   2
BRANCH   1  15
ATOM     15  C   UNL     1      28.384  14.866  -8.844  1.00  0.00     0.000 C 
BRANCH  15  16
ATOM     16  C   UNL     1      28.906  14.669 -10.278  1.00  0.00     0.000 C 
BRANCH  16  17
ATOM     17  C   UNL     1      28.858  13.202 -10.738  1.00  0.00     0.000 C 
BRANCH  17  18
ATOM     18  C   UNL     1      27.936  13.004 -11.960  1.00  0.00    -0.000 C 
BRANCH  18  19
ATOM     19  C   UNL     1      26.463  12.763 -11.586  1.00  0.00    -0.000 C 
BRANCH  19  20
ATOM     20  C   UNL     1      25.485  13.369 -12.607  1.00  0.00    -0.000 C 
BRANCH  20  21
ATOM     21  C   UNL     1      26.029  13.326 -14.043  1.00  0.00    -0.000 C 
BRANCH  21  22
ATOM     22  C   UNL     1      26.184  14.728 -14.661  1.00  0.00    -0.000 C 
BRANCH  22  23
ATOM     23  C   UNL     1      25.496  15.822 -13.825  1.00  0.00    -0.000 C 
BRANCH  23  24
ATOM     24  C   UNL     1      26.501  16.702 -13.061  1.00  0.00    -0.000 C 
BRANCH  24  25
ATOM     25  C   UNL     1      26.150  18.197 -13.133  1.00  0.00    -0.003 C 
ATOM     26  C   UNL     1      25.912  18.819 -11.757  1.00  0.00     0.004 C 
ENDBRANCH  24  25
ENDBRANCH  23  24
ENDBRANCH  22  23
ENDBRANCH  21  22
ENDBRANCH  20  21
ENDBRANCH  19  20
ENDBRANCH  18  19
ENDBRANCH  17  18
ENDBRANCH  16  17
ENDBRANCH  15  16
ENDBRANCH   1  15
TORSDOF 22
ENDMDL
MODEL 2
REMARK VINA RESULT:    -4.633      1.277      3.874
REMARK INTER + INTRA:         -15.026
REMARK INTER:                 -10.665
REMARK INTRA:                  -4.360
REMARK UNBOUND:                -4.435
REMARK SMILES CCCCCCCCCCCCCCCCCCCCCCCC(=O)[O-]
REMARK SMILES IDX 13 1 14 2 15 3 16 4 17 5 18 6 19 7 20 8 21 9 22 10 23 11
REMARK SMILES IDX 24 12 25 13 26 14 12 15 11 16 10 17 9 18 8 19 7 20 6 21 5 22
REMARK SMILES IDX 4 23 3 24 2 25 1 26
REMARK H PARENT
REMARK Flexibility Score: inf
ROOT
ATOM      1  C   UNL     1      25.780  15.301 -12.849  1.00  0.00     0.000 C 
ENDROOT
BRANCH   1   2
ATOM      2  C   UNL     1      26.030  16.204 -14.071  1.00  0.00     0.000 C 
BRANCH   2   3
ATOM      3  C   UNL     1      26.525  17.606 -13.677  1.00  0.00     0.000 C 
BRANCH   3   4
ATOM      4  C   UNL     1      26.474  17.845 -12.157  1.00  0.00     0.000 C 
BRANCH   4   5
ATOM      5  C   UNL     1      25.409  18.881 -11.763  1.00  0.00     0.000 C 
BRANCH   5   6
ATOM      6  C   UNL     1      24.095  18.230 -11.299  1.00  0.00     0.000 C 
BRANCH   6   7
ATOM      7  C   UNL     1      22.947  18.451 -12.297  1.00  0.00     0.000 C 
BRANCH   7   8
ATOM      8  C   UNL     1      22.594  17.173 -13.080  1.00  0.00     0.000 C 
BRANCH   8   9
ATOM      9  C   UNL     1      22.315  17.449 -14.566  1.00  0.00     0.000 C 
BRANCH   9  10
ATOM     10  C   UNL     1      23.248  18.519 -15.151  1.00  0.00     0.006 C 
BRANCH  10  11
ATOM     11  C   UNL     1      23.283  18.438 -16.681  1.00  0.00     0.053 C 
BRANCH  11  12
ATOM     12  C   UNL     1      24.406  17.559 -17.136  1.00  0.00     0.041 C 
ATOM     13  O   UNL     1      24.191  16.350 -17.417  1.00  0.00    -0.550 OA
ATOM     14  O   UNL     1      25.698  18.064 -17.213  1.00  0.00    -0.550 OA
ENDBRANCH  11  12
ENDBRANCH  10  11
ENDBRANCH   9  10
ENDBRANCH   8   9
ENDBRANCH   7   8
ENDBRANCH   6   7
ENDBRANCH   5   6
ENDBRANCH   4   5
ENDBRANCH   3   4
ENDBRANCH   2   3
ENDBRANCH   1   2
BRANCH   1  15
ATOM     15  C   UNL     1      25.741  13.804 -13.221  1.00  0.00     0.000 C 
BRANCH  15  16
ATOM     16  C   UNL     1      27.108  13.105 -13.122  1.00  0.00     0.000 C 
BRANCH  16  17
ATOM     17  C   UNL     1      27.447  12.651 -11.692  1.00  0.00     0.000 C 
BRANCH  17  18
ATOM     18  C   UNL     1      28.869  13.077 -11.268  1.00  0.00    -0.000 C 
BRANCH  18  19
ATOM     19  C   UNL     1      28.910  13.830  -9.928  1.00  0.00    -0.000 C 
BRANCH  19  20
ATOM     20  C   UNL     1      28.067  15.116  -9.943  1.00  0.00    -0.000 C 
BRANCH  20  21
ATOM     21  C   UNL     1      26.962  15.110  -8.874  1.00  0.00    -0.000 C 
BRANCH  21  22
ATOM     22  C   UNL     1      25.613  15.620  -9.413  1.00  0.00    -0.000 C 
BRANCH  22  23
ATOM     23  C   UNL     1      24.439  14.699  -9.036  1.00  0.00    -0.000 C 
BRANCH  23  24
ATOM     24  C   UNL     1      24.809  13.208  -9.115  1.00  0.00    -0.000 C 
BRANCH  24  25
ATOM     25  C   UNL     1      24.073  12.477 -10.252  1.00  0.00    -0.003 C 
ATOM     26  C   UNL     1      22.791  13.188 -10.683  1.00  0.00     0.004 C 
ENDBRANCH  24  25
ENDBRANCH  23  24
ENDBRANCH  22  23
ENDBRANCH  21  22
ENDBRANCH  20  21
ENDBRANCH  19  20
ENDBRANCH  18  19
ENDBRANCH  17  18
ENDBRANCH  16  17
ENDBRANCH  15  16
ENDBRANCH   1  15
TORSDOF 22
ENDMDL
MODEL 3
REMARK VINA RESULT:    -4.625      3.397      5.517
REMARK INTER + INTRA:         -15.007
REMARK INTER:                 -10.435
REMARK INTRA:                  -4.572
REMARK UNBOUND:                -4.435
REMARK SMILES CCCCCCCCCCCCCCCCCCCCCCCC(=O)[O-]
REMARK SMILES IDX 13 1 14 2 15 3 16 4 17 5 18 6 19 7 20 8 21 9 22 10 23 11
REMARK SMILES IDX 24 12 25 13 26 14 12 15 11 16 10 17 9 18 8 19 7 20 6 21 5 22
REMARK SMILES IDX 4 23 3 24 2 25 1 26
REMARK H PARENT
REMARK Flexibility Score: inf
ROOT
ATOM      1  C   UNL     1      27.707  14.824  -8.648  1.00  0.00     0.000 C 
ENDROOT
BRANCH   1   2
ATOM      2  C   UNL     1      27.727  13.286  -8.573  1.00  0.00     0.000 C 
BRANCH   2   3
ATOM      3  C   UNL     1      26.317  12.683  -8.456  1.00  0.00     0.000 C 
BRANCH   3   4
ATOM      4  C   UNL     1      25.735  12.271  -9.820  1.00  0.00     0.000 C 
BRANCH   4   5
ATOM      5  C   UNL     1      24.338  12.864 -10.064  1.00  0.00     0.000 C 
BRANCH   5   6
ATOM      6  C   UNL     1      23.710  13.443  -8.785  1.00  0.00     0.000 C 
BRANCH   6   7
ATOM      7  C   UNL     1      22.679  14.543  -9.084  1.00  0.00     0.000 C 
BRANCH   7   8
ATOM      8  C   UNL     1      22.350  14.649 -10.584  1.00  0.00     0.000 C 
BRANCH   8   9
ATOM      9  C   UNL     1      21.504  15.889 -10.917  1.00  0.00     0.000 C 
BRANCH   9  10
ATOM     10  C   UNL     1      20.801  16.469  -9.681  1.00  0.00     0.006 C 
BRANCH  10  11
ATOM     11  C   UNL     1      21.274  17.900  -9.403  1.00  0.00     0.053 C 
BRANCH  11  12
ATOM     12  C   UNL     1      21.168  18.215  -7.944  1.00  0.00     0.041 C 
ATOM     13  O   UNL     1      20.088  18.652  -7.467  1.00  0.00    -0.550 OA
ATOM     14  O   UNL     1      22.273  18.061  -7.115  1.00  0.00    -0.550 OA
ENDBRANCH  11  12
ENDBRANCH  10  11
ENDBRANCH   9  10
ENDBRANCH   8   9
ENDBRANCH   7   8
ENDBRANCH   6   7
ENDBRANCH   5   6
ENDBRANCH   4   5
ENDBRANCH   3   4
ENDBRANCH   2   3
ENDBRANCH   1   2
BRANCH   1  15
ATOM     15  C   UNL     1      28.092  15.350 -10.046  1.00  0.00     0.000 C 
BRANCH  15  16
ATOM     16  C   UNL     1      26.900  15.877 -10.861  1.00  0.00     0.000 C 
BRANCH  16  17
ATOM     17  C   UNL     1      25.720  16.323  -9.979  1.00  0.00     0.000 C 
BRANCH  17  18
ATOM     18  C   UNL     1      24.902  17.458 -10.632  1.00  0.00    -0.000 C 
BRANCH  18  19
ATOM     19  C   UNL     1      25.746  18.398 -11.509  1.00  0.00    -0.000 C 
BRANCH  19  20
ATOM     20  C   UNL     1      25.247  18.460 -12.963  1.00  0.00    -0.000 C 
BRANCH  20  21
ATOM     21  C   UNL     1      23.855  17.834 -13.136  1.00  0.00    -0.000 C 
BRANCH  21  22
ATOM     22  C   UNL     1      23.827  16.740 -14.220  1.00  0.00    -0.000 C 
BRANCH  22  23
ATOM     23  C   UNL     1      25.063  15.825 -14.168  1.00  0.00    -0.000 C 
BRANCH  23  24
ATOM     24  C   UNL     1      24.829  14.562 -13.321  1.00  0.00    -0.000 C 
BRANCH  24  25
ATOM     25  C   UNL     1      25.514  13.319 -13.913  1.00  0.00    -0.003 C 
ATOM     26  C   UNL     1      26.939  13.124 -13.396  1.00  0.00     0.004 C 
ENDBRANCH  24  25
ENDBRANCH  23  24
ENDBRANCH  22  23
ENDBRANCH  21  22
ENDBRANCH  20  21
ENDBRANCH  19  20
ENDBRANCH  18  19
ENDBRANCH  17  18
ENDBRANCH  16  17
ENDBRANCH  15  16
ENDBRANCH   1  15
TORSDOF 22
ENDMDL
MODEL 4
REMARK VINA RESULT:    -4.611      1.451      4.087
REMARK INTER + INTRA:         -14.975
REMARK INTER:                 -10.541
REMARK INTRA:                  -4.435
REMARK UNBOUND:                -4.435
REMARK SMILES CCCCCCCCCCCCCCCCCCCCCCCC(=O)[O-]
REMARK SMILES IDX 13 1 14 2 15 3 16 4 17 5 18 6 19 7 20 8 21 9 22 10 23 11
REMARK SMILES IDX 24 12 25 13 26 14 12 15 11 16 10 17 9 18 8 19 7 20 6 21 5 22
REMARK SMILES IDX 4 23 3 24 2 25 1 26
REMARK H PARENT
REMARK Flexibility Score: inf
ROOT
ATOM      1  C   UNL     1      29.001  14.161 -10.247  1.00  0.00     0.000 C 
ENDROOT
BRANCH   1   2
ATOM      2  C   UNL     1      28.968  13.032 -11.294  1.00  0.00     0.000 C 
BRANCH   2   3
ATOM      3  C   UNL     1      27.543  12.725 -11.784  1.00  0.00     0.000 C 
BRANCH   3   4
ATOM      4  C   UNL     1      27.432  12.729 -13.319  1.00  0.00     0.000 C 
BRANCH   4   5
ATOM      5  C   UNL     1      26.174  13.463 -13.812  1.00  0.00     0.000 C 
BRANCH   5   6
ATOM      6  C   UNL     1      25.427  14.183 -12.677  1.00  0.00     0.000 C 
BRANCH   6   7
ATOM      7  C   UNL     1      25.366  15.704 -12.886  1.00  0.00     0.000 C 
BRANCH   7   8
ATOM      8  C   UNL     1      26.564  16.434 -12.251  1.00  0.00     0.000 C 
BRANCH   8   9
ATOM      9  C   UNL     1      26.581  17.936 -12.576  1.00  0.00     0.000 C 
BRANCH   9  10
ATOM     10  C   UNL     1      26.088  18.236 -13.999  1.00  0.00     0.006 C 
BRANCH  10  11
ATOM     11  C   UNL     1      27.218  18.058 -15.019  1.00  0.00     0.053 C 
BRANCH  11  12
ATOM     12  C   UNL     1      26.817  17.086 -16.084  1.00  0.00     0.041 C 
ATOM     13  O   UNL     1      27.626  16.203 -16.474  1.00  0.00    -0.550 OA
ATOM     14  O   UNL     1      25.562  17.178 -16.674  1.00  0.00    -0.550 OA
ENDBRANCH  11  12
ENDBRANCH  10  11
ENDBRANCH   9  10
ENDBRANCH   8   9
ENDBRANCH   7   8
ENDBRANCH   6   7
ENDBRANCH   5   6
ENDBRANCH   4   5
ENDBRANCH   3   4
ENDBRANCH   2   3
ENDBRANCH   1   2
BRANCH   1  15
ATOM     15  C   UNL     1      27.921  13.987  -9.159  1.00  0.00     0.000 C 
BRANCH  15  16
ATOM     16  C   UNL     1      27.021  15.221  -8.976  1.00  0.00     0.000 C 
BRANCH  16  17
ATOM     17  C   UNL     1      25.521  14.885  -9.048  1.00  0.00     0.000 C 
BRANCH  17  18
ATOM     18  C   UNL     1      25.258  13.369  -8.933  1.00  0.00    -0.000 C 
BRANCH  18  19
ATOM     19  C   UNL     1      23.766  12.999  -8.975  1.00  0.00    -0.000 C 
BRANCH  19  20
ATOM     20  C   UNL     1      22.853  14.230  -9.109  1.00  0.00    -0.000 C 
BRANCH  20  21
ATOM     21  C   UNL     1      22.089  14.255 -10.442  1.00  0.00    -0.000 C 
BRANCH  21  22
ATOM     22  C   UNL     1      22.083  15.649 -11.096  1.00  0.00    -0.000 C 
BRANCH  22  23
ATOM     23  C   UNL     1      22.498  16.763 -10.118  1.00  0.00    -0.000 C 
BRANCH  23  24
ATOM     24  C   UNL     1      23.310  17.878 -10.802  1.00  0.00    -0.000 C 
BRANCH  24  25
ATOM     25  C   UNL     1      22.733  18.272 -12.172  1.00  0.00    -0.003 C 
ATOM     26  C   UNL     1      22.972  19.742 -12.516  1.00  0.00     0.004 C 
ENDBRANCH  24  25
ENDBRANCH  23  24
ENDBRANCH  22  23
ENDBRANCH  21  22
ENDBRANCH  20  21
ENDBRANCH  19  20
ENDBRANCH  18  19
ENDBRANCH  17  18
ENDBRANCH  16  17
ENDBRANCH  15  16
ENDBRANCH   1  15
TORSDOF 22
ENDMDL
MODEL 5
REMARK VINA RESULT:    -4.556      1.995      2.705
REMARK INTER + INTRA:         -14.850
REMARK INTER:                 -10.976
REMARK INTRA:                  -3.874
REMARK UNBOUND:                -4.435
REMARK SMILES CCCCCCCCCCCCCCCCCCCCCCCC(=O)[O-]
REMARK SMILES IDX 13 1 14 2 15 3 16 4 17 5 18 6 19 7 20 8 21 9 22 10 23 11
REMARK SMILES IDX 24 12 25 13 26 14 12 15 11 16 10 17 9 18 8 19 7 20 6 21 5 22
REMARK SMILES IDX 4 23 3 24 2 25 1 26
REMARK H PARENT
REMARK Flexibility Score: inf
ROOT
ATOM      1  C   UNL     1      26.116  15.899 -10.484  1.00  0.00     0.000 C 
ENDROOT
BRANCH   1   2
ATOM      2  C   UNL     1      27.132  16.559 -11.435  1.00  0.00     0.000 C 
BRANCH   2   3
ATOM      3  C   UNL     1      26.550  17.784 -12.160  1.00  0.00     0.000 C 
BRANCH   3   4
ATOM      4  C   UNL     1      25.328  18.375 -11.436  1.00  0.00     0.000 C 
BRANCH   4   5
ATOM      5  C   UNL     1      24.456  19.236 -12.365  1.00  0.00     0.000 C 
BRANCH   5   6
ATOM      6  C   UNL     1      22.981  18.800 -12.363  1.00  0.00     0.000 C 
BRANCH   6   7
ATOM      7  C   UNL     1      22.804  17.324 -12.750  1.00  0.00     0.000 C 
BRANCH   7   8
ATOM      8  C   UNL     1      22.648  17.128 -14.269  1.00  0.00     0.000 C 
BRANCH   8   9
ATOM      9  C   UNL     1      22.048  18.360 -14.964  1.00  0.00     0.000 C 
BRANCH   9  10
ATOM     10  C   UNL     1      22.734  18.673 -16.302  1.00  0.00     0.006 C 
BRANCH  10  11
ATOM     11  C   UNL     1      22.000  19.795 -17.045  1.00  0.00     0.053 C 
BRANCH  11  12
ATOM     12  C   UNL     1      22.425  21.133 -16.528  1.00  0.00     0.041 C 
ATOM     13  O   UNL     1      21.637  21.820 -15.826  1.00  0.00    -0.550 OA
ATOM     14  O   UNL     1      23.678  21.640 -16.852  1.00  0.00    -0.550 OA
ENDBRANCH  11  12
ENDBRANCH  10  11
ENDBRANCH   9  10
ENDBRANCH   8   9
ENDBRANCH   7   8
ENDBRANCH   6   7
ENDBRANCH   5   6
ENDBRANCH   4   5
ENDBRANCH   3   4
ENDBRANCH   2   3
ENDBRANCH   1   2
BRANCH   1  15
ATOM     15  C   UNL     1      26.798  15.148  -9.322  1.00  0.00     0.000 C 
BRANCH  15  16
ATOM     16  C   UNL     1      28.284  14.840  -9.570  1.00  0.00     0.000 C 
BRANCH  16  17
ATOM     17  C   UNL     1      28.543  13.359  -9.899  1.00  0.00     0.000 C 
BRANCH  17  18
ATOM     18  C   UNL     1      28.633  13.108 -11.420  1.00  0.00    -0.000 C 
BRANCH  18  19
ATOM     19  C   UNL     1      27.313  12.624 -12.041  1.00  0.00    -0.000 C 
BRANCH  19  20
ATOM     20  C   UNL     1      27.138  13.086 -13.498  1.00  0.00    -0.000 C 
BRANCH  20  21
ATOM     21  C   UNL     1      25.666  13.330 -13.867  1.00  0.00    -0.000 C 
BRANCH  21  22
ATOM     22  C   UNL     1      25.369  14.810 -14.173  1.00  0.00    -0.000 C 
BRANCH  22  23
ATOM     23  C   UNL     1      26.376  15.423 -15.162  1.00  0.00    -0.000 C 
BRANCH  23  24
ATOM     24  C   UNL     1      25.825  16.675 -15.866  1.00  0.00    -0.000 C 
BRANCH  24  25
ATOM     25  C   UNL     1      26.838  17.832 -15.891  1.00  0.00    -0.003 C 
ATOM     26  C   UNL     1      26.211  19.179 -15.529  1.00  0.00     0.004 C 
ENDBRANCH  24  25
ENDBRANCH  23  24
ENDBRANCH  22  23
ENDBRANCH  21  22
ENDBRANCH  20  21
ENDBRANCH  19  20
ENDBRANCH  18  19
ENDBRANCH  17  18
ENDBRANCH  16  17
ENDBRANCH  15  16
ENDBRANCH   1  15
TORSDOF 22
ENDMDL
MODEL 6
REMARK VINA RESULT:    -4.530      4.242      5.550
REMARK INTER + INTRA:         -14.792
REMARK INTER:                 -11.100
REMARK INTRA:                  -3.692
REMARK UNBOUND:                -4.435
REMARK SMILES CCCCCCCCCCCCCCCCCCCCCCCC(=O)[O-]
REMARK SMILES IDX 13 1 14 2 15 3 16 4 17 5 18 6 19 7 20 8 21 9 22 10 23 11
REMARK SMILES IDX 24 12 25 13 26 14 12 15 11 16 10 17 9 18 8 19 7 20 6 21 5 22
REMARK SMILES IDX 4 23 3 24 2 25 1 26
REMARK H PARENT
REMARK Flexibility Score: inf
ROOT
ATOM      1  C   UNL     1      26.919  15.268  -9.404  1.00  0.00     0.000 C 
ENDROOT
BRANCH   1   2
ATOM      2  C   UNL     1      25.418  15.061  -9.128  1.00  0.00     0.000 C 
BRANCH   2   3
ATOM      3  C   UNL     1      25.032  13.574  -9.051  1.00  0.00     0.000 C 
BRANCH   3   4
ATOM      4  C   UNL     1      23.659  13.285  -9.682  1.00  0.00     0.000 C 
BRANCH   4   5
ATOM      5  C   UNL     1      22.627  14.380  -9.365  1.00  0.00     0.000 C 
BRANCH   5   6
ATOM      6  C   UNL     1      21.944  14.932 -10.628  1.00  0.00     0.000 C 
BRANCH   6   7
ATOM      7  C   UNL     1      21.601  16.425 -10.505  1.00  0.00     0.000 C 
BRANCH   7   8
ATOM      8  C   UNL     1      20.737  16.730  -9.268  1.00  0.00     0.000 C 
BRANCH   8   9
ATOM      9  C   UNL     1      21.108  18.066  -8.604  1.00  0.00     0.000 C 
BRANCH   9  10
ATOM     10  C   UNL     1      21.606  17.889  -7.163  1.00  0.00     0.006 C 
BRANCH  10  11
ATOM     11  C   UNL     1      20.919  18.882  -6.219  1.00  0.00     0.053 C 
BRANCH  11  12
ATOM     12  C   UNL     1      19.908  18.182  -5.366  1.00  0.00     0.041 C 
ATOM     13  O   UNL     1      19.973  18.265  -4.111  1.00  0.00    -0.550 OA
ATOM     14  O   UNL     1      18.916  17.407  -5.954  1.00  0.00    -0.550 OA
ENDBRANCH  11  12
ENDBRANCH  10  11
ENDBRANCH   9  10
ENDBRANCH   8   9
ENDBRANCH   7   8
ENDBRANCH   6   7
ENDBRANCH   5   6
ENDBRANCH   4   5
ENDBRANCH   3   4
ENDBRANCH   2   3
ENDBRANCH   1   2
BRANCH   1  15
ATOM     15  C   UNL     1      27.791  14.164  -8.772  1.00  0.00     0.000 C 
BRANCH  15  16
ATOM     16  C   UNL     1      28.530  13.291  -9.801  1.00  0.00     0.000 C 
BRANCH  16  17
ATOM     17  C   UNL     1      28.277  13.732 -11.253  1.00  0.00     0.000 C 
BRANCH  17  18
ATOM     18  C   UNL     1      27.530  12.654 -12.067  1.00  0.00    -0.000 C 
BRANCH  18  19
ATOM     19  C   UNL     1      26.749  13.220 -13.265  1.00  0.00    -0.000 C 
BRANCH  19  20
ATOM     20  C   UNL     1      25.283  13.535 -12.921  1.00  0.00    -0.000 C 
BRANCH  20  21
ATOM     21  C   UNL     1      25.009  15.044 -12.831  1.00  0.00    -0.000 C 
BRANCH  21  22
ATOM     22  C   UNL     1      25.365  15.790 -14.130  1.00  0.00    -0.000 C 
BRANCH  22  23
ATOM     23  C   UNL     1      26.281  17.002 -13.885  1.00  0.00    -0.000 C 
BRANCH  23  24
ATOM     24  C   UNL     1      26.639  17.182 -12.399  1.00  0.00    -0.000 C 
BRANCH  24  25
ATOM     25  C   UNL     1      26.075  18.486 -11.810  1.00  0.00    -0.003 C 
ATOM     26  C   UNL     1      24.902  18.250 -10.858  1.00  0.00     0.004 C 
ENDBRANCH  24  25
ENDBRANCH  23  24
ENDBRANCH  22  23
ENDBRANCH  21  22
ENDBRANCH  20  21
ENDBRANCH  19  20
ENDBRANCH  18  19
ENDBRANCH  17  18
ENDBRANCH  16  17
ENDBRANCH  15  16
ENDBRANCH   1  15
TORSDOF 22
ENDMDL
MODEL 7
REMARK VINA RESULT:    -4.505      4.268      5.665
REMARK INTER + INTRA:         -14.733
REMARK INTER:                 -11.710
REMARK INTRA:                  -3.023
REMARK UNBOUND:                -4.435
REMARK SMILES CCCCCCCCCCCCCCCCCCCCCCCC(=O)[O-]
REMARK SMILES IDX 13 1 14 2 15 3 16 4 17 5 18 6 19 7 20 8 21 9 22 10 23 11
REMARK SMILES IDX 24 12 25 13 26 14 12 15 11 16 10 17 9 18 8 19 7 20 6 21 5 22
REMARK SMILES IDX 4 23 3 24 2 25 1 26
REMARK H PARENT
REMARK Flexibility Score: inf
ROOT
ATOM      1  C   UNL     1      26.934  15.157  -8.912  1.00  0.00     0.000 C 
ENDROOT
BRANCH   1   2
ATOM      2  C   UNL     1      25.466  15.577  -9.116  1.00  0.00     0.000 C 
BRANCH   2   3
ATOM      3  C   UNL     1      24.580  14.412  -9.587  1.00  0.00     0.000 C 
BRANCH   3   4
ATOM      4  C   UNL     1      23.079  14.701  -9.411  1.00  0.00     0.000 C 
BRANCH   4   5
ATOM      5  C   UNL     1      22.622  15.930 -10.214  1.00  0.00     0.000 C 
BRANCH   5   6
ATOM      6  C   UNL     1      21.973  17.008  -9.328  1.00  0.00     0.000 C 
BRANCH   6   7
ATOM      7  C   UNL     1      21.583  16.471  -7.942  1.00  0.00     0.000 C 
BRANCH   7   8
ATOM      8  C   UNL     1      20.770  17.490  -7.123  1.00  0.00     0.000 C 
BRANCH   8   9
ATOM      9  C   UNL     1      21.648  18.600  -6.523  1.00  0.00     0.000 C 
BRANCH   9  10
ATOM     10  C   UNL     1      20.821  19.704  -5.848  1.00  0.00     0.006 C 
BRANCH  10  11
ATOM     11  C   UNL     1      19.400  19.752  -6.421  1.00  0.00     0.053 C 
BRANCH  11  12
ATOM     12  C   UNL     1      19.069  21.134  -6.889  1.00  0.00     0.041 C 
ATOM     13  O   UNL     1      17.899  21.582  -6.764  1.00  0.00    -0.550 OA
ATOM     14  O   UNL     1      20.044  21.915  -7.498  1.00  0.00    -0.550 OA
ENDBRANCH  11  12
ENDBRANCH  10  11
ENDBRANCH   9  10
ENDBRANCH   8   9
ENDBRANCH   7   8
ENDBRANCH   6   7
ENDBRANCH   5   6
ENDBRANCH   4   5
ENDBRANCH   3   4
ENDBRANCH   2   3
ENDBRANCH   1   2
BRANCH   1  15
ATOM     15  C   UNL     1      27.746  15.201 -10.223  1.00  0.00     0.000 C 
BRANCH  15  16
ATOM     16  C   UNL     1      28.916  14.204 -10.261  1.00  0.00     0.000 C 
BRANCH  16  17
ATOM     17  C   UNL     1      28.674  13.031 -11.227  1.00  0.00     0.000 C 
BRANCH  17  18
ATOM     18  C   UNL     1      27.260  13.069 -11.846  1.00  0.00    -0.000 C 
BRANCH  18  19
ATOM     19  C   UNL     1      27.252  12.881 -13.372  1.00  0.00    -0.000 C 
BRANCH  19  20
ATOM     20  C   UNL     1      26.134  13.680 -14.063  1.00  0.00    -0.000 C 
BRANCH  20  21
ATOM     21  C   UNL     1      25.217  14.398 -13.061  1.00  0.00    -0.000 C 
BRANCH  21  22
ATOM     22  C   UNL     1      24.506  15.618 -13.677  1.00  0.00    -0.000 C 
BRANCH  22  23
ATOM     23  C   UNL     1      25.459  16.805 -13.903  1.00  0.00    -0.000 C 
BRANCH  23  24
ATOM     24  C   UNL     1      26.279  17.153 -12.648  1.00  0.00    -0.000 C 
BRANCH  24  25
ATOM     25  C   UNL     1      26.010  18.582 -12.145  1.00  0.00    -0.003 C 
ATOM     26  C   UNL     1      25.090  18.618 -10.924  1.00  0.00     0.004 C 
ENDBRANCH  24  25
ENDBRANCH  23  24
ENDBRANCH  22  23
ENDBRANCH  21  22
ENDBRANCH  20  21
ENDBRANCH  19  20
ENDBRANCH  18  19
ENDBRANCH  17  18
ENDBRANCH  16  17
ENDBRANCH  15  16
ENDBRANCH   1  15
TORSDOF 22
ENDMDL
MODEL 8
REMARK VINA RESULT:    -4.504      3.330      5.443
REMARK INTER + INTRA:         -14.731
REMARK INTER:                 -10.343
REMARK INTRA:                  -4.388
REMARK UNBOUND:                -4.435
REMARK SMILES CCCCCCCCCCCCCCCCCCCCCCCC(=O)[O-]
REMARK SMILES IDX 13 1 14 2 15 3 16 4 17 5 18 6 19 7 20 8 21 9 22 10 23 11
REMARK SMILES IDX 24 12 25 13 26 14 12 15 11 16 10 17 9 18 8 19 7 20 6 21 5 22
REMARK SMILES IDX 4 23 3 24 2 25 1 26
REMARK H PARENT
REMARK Flexibility Score: inf
ROOT
ATOM      1  C   UNL     1      24.884  16.535  -9.505  1.00  0.00     0.000 C 
ENDROOT
BRANCH   1   2
ATOM      2  C   UNL     1      25.912  16.482 -10.651  1.00  0.00     0.000 C 
BRANCH   2   3
ATOM      3  C   UNL     1      25.915  17.765 -11.499  1.00  0.00     0.000 C 
BRANCH   3   4
ATOM      4  C   UNL     1      26.284  17.501 -12.969  1.00  0.00     0.000 C 
BRANCH   4   5
ATOM      5  C   UNL     1      25.051  17.201 -13.837  1.00  0.00     0.000 C 
BRANCH   5   6
ATOM      6  C   UNL     1      23.872  18.142 -13.535  1.00  0.00     0.000 C 
BRANCH   6   7
ATOM      7  C   UNL     1      22.582  17.378 -13.199  1.00  0.00     0.000 C 
BRANCH   7   8
ATOM      8  C   UNL     1      22.184  17.517 -11.718  1.00  0.00     0.000 C 
BRANCH   8   9
ATOM      9  C   UNL     1      21.466  16.270 -11.180  1.00  0.00     0.000 C 
BRANCH   9  10
ATOM     10  C   UNL     1      20.828  16.506  -9.803  1.00  0.00     0.006 C 
BRANCH  10  11
ATOM     11  C   UNL     1      21.482  17.697  -9.093  1.00  0.00     0.053 C 
BRANCH  11  12
ATOM     12  C   UNL     1      21.299  17.591  -7.612  1.00  0.00     0.041 C 
ATOM     13  O   UNL     1      20.542  16.708  -7.128  1.00  0.00    -0.550 OA
ATOM     14  O   UNL     1      21.935  18.491  -6.765  1.00  0.00    -0.550 OA
ENDBRANCH  11  12
ENDBRANCH  10  11
ENDBRANCH   9  10
ENDBRANCH   8   9
ENDBRANCH   7   8
ENDBRANCH   6   7
ENDBRANCH   5   6
ENDBRANCH   4   5
ENDBRANCH   3   4
ENDBRANCH   2   3
ENDBRANCH   1   2
BRANCH   1  15
ATOM     15  C   UNL     1      24.314  15.143  -9.161  1.00  0.00     0.000 C 
BRANCH  15  16
ATOM     16  C   UNL     1      24.480  14.109 -10.287  1.00  0.00     0.000 C 
BRANCH  16  17
ATOM     17  C   UNL     1      25.101  12.787  -9.801  1.00  0.00     0.000 C 
BRANCH  17  18
ATOM     18  C   UNL     1      25.720  12.918  -8.393  1.00  0.00    -0.000 C 
BRANCH  18  19
ATOM     19  C   UNL     1      27.257  12.889  -8.393  1.00  0.00    -0.000 C 
BRANCH  19  20
ATOM     20  C   UNL     1      27.877  14.297  -8.405  1.00  0.00    -0.000 C 
BRANCH  20  21
ATOM     21  C   UNL     1      28.893  14.485  -9.543  1.00  0.00    -0.000 C 
BRANCH  21  22
ATOM     22  C   UNL     1      28.251  14.358 -10.937  1.00  0.00    -0.000 C 
BRANCH  22  23
ATOM     23  C   UNL     1      28.547  13.003 -11.603  1.00  0.00    -0.000 C 
BRANCH  23  24
ATOM     24  C   UNL     1      27.504  12.628 -12.671  1.00  0.00    -0.000 C 
BRANCH  24  25
ATOM     25  C   UNL     1      26.679  13.839 -13.140  1.00  0.00    -0.003 C 
ATOM     26  C   UNL     1      25.478  13.442 -13.998  1.00  0.00     0.004 C 
ENDBRANCH  24  25
ENDBRANCH  23  24
ENDBRANCH  22  23
ENDBRANCH  21  22
ENDBRANCH  20  21
ENDBRANCH  19  20
ENDBRANCH  18  19
ENDBRANCH  17  18
ENDBRANCH  16  17
ENDBRANCH  15  16
ENDBRANCH   1  15
TORSDOF 22
ENDMDL
MODEL 9
REMARK VINA RESULT:    -4.496      1.413      5.161
REMARK INTER + INTRA:         -14.712
REMARK INTER:                 -10.394
REMARK INTRA:                  -4.318
REMARK UNBOUND:                -4.435
REMARK SMILES CCCCCCCCCCCCCCCCCCCCCCCC(=O)[O-]
REMARK SMILES IDX 13 1 14 2 15 3 16 4 17 5 18 6 19 7 20 8 21 9 22 10 23 11
REMARK SMILES IDX 24 12 25 13 26 14 12 15 11 16 10 17 9 18 8 19 7 20 6 21 5 22
REMARK SMILES IDX 4 23 3 24 2 25 1 26
REMARK H PARENT
REMARK Flexibility Score: inf
ROOT
ATOM      1  C   UNL     1      27.207  16.331 -10.977  1.00  0.00     0.000 C 
ENDROOT
BRANCH   1   2
ATOM      2  C   UNL     1      28.554  15.680 -10.608  1.00  0.00     0.000 C 
BRANCH   2   3
ATOM      3  C   UNL     1      28.432  14.704  -9.426  1.00  0.00     0.000 C 
BRANCH   3   4
ATOM      4  C   UNL     1      28.654  13.240  -9.842  1.00  0.00     0.000 C 
BRANCH   4   5
ATOM      5  C   UNL     1      28.720  13.068 -11.369  1.00  0.00     0.000 C 
BRANCH   5   6
ATOM      6  C   UNL     1      27.396  12.558 -11.964  1.00  0.00     0.000 C 
BRANCH   6   7
ATOM      7  C   UNL     1      27.195  13.009 -13.419  1.00  0.00     0.000 C 
BRANCH   7   8
ATOM      8  C   UNL     1      25.982  13.943 -13.584  1.00  0.00     0.000 C 
BRANCH   8   9
ATOM      9  C   UNL     1      26.113  14.871 -14.802  1.00  0.00     0.000 C 
BRANCH   9  10
ATOM     10  C   UNL     1      24.869  15.747 -15.011  1.00  0.00     0.006 C 
BRANCH  10  11
ATOM     11  C   UNL     1      24.952  16.507 -16.339  1.00  0.00     0.053 C 
BRANCH  11  12
ATOM     12  C   UNL     1      25.613  17.835 -16.144  1.00  0.00     0.041 C 
ATOM     13  O   UNL     1      25.057  18.723 -15.445  1.00  0.00    -0.550 OA
ATOM     14  O   UNL     1      26.826  18.108 -16.766  1.00  0.00    -0.550 OA
ENDBRANCH  11  12
ENDBRANCH  10  11
ENDBRANCH   9  10
ENDBRANCH   8   9
ENDBRANCH   7   8
ENDBRANCH   6   7
ENDBRANCH   5   6
ENDBRANCH   4   5
ENDBRANCH   3   4
ENDBRANCH   2   3
ENDBRANCH   1   2
BRANCH   1  15
ATOM     15  C   UNL     1      27.308  17.222 -12.232  1.00  0.00     0.000 C 
BRANCH  15  16
ATOM     16  C   UNL     1      26.308  18.390 -12.246  1.00  0.00     0.000 C 
BRANCH  16  17
ATOM     17  C   UNL     1      25.119  18.173 -11.293  1.00  0.00     0.000 C 
BRANCH  17  18
ATOM     18  C   UNL     1      23.806  18.754 -11.860  1.00  0.00    -0.000 C 
BRANCH  18  19
ATOM     19  C   UNL     1      22.904  17.699 -12.523  1.00  0.00    -0.000 C 
BRANCH  19  20
ATOM     20  C   UNL     1      23.015  16.318 -11.854  1.00  0.00    -0.000 C 
BRANCH  20  21
ATOM     21  C   UNL     1      21.881  16.056 -10.851  1.00  0.00    -0.000 C 
BRANCH  21  22
ATOM     22  C   UNL     1      22.347  15.243  -9.628  1.00  0.00    -0.000 C 
BRANCH  22  23
ATOM     23  C   UNL     1      23.747  15.657  -9.142  1.00  0.00    -0.000 C 
BRANCH  23  24
ATOM     24  C   UNL     1      24.732  14.475  -9.102  1.00  0.00    -0.000 C 
BRANCH  24  25
ATOM     25  C   UNL     1      24.441  13.426 -10.189  1.00  0.00    -0.003 C 
ATOM     26  C   UNL     1      24.518  11.992  -9.666  1.00  0.00     0.004 C 
ENDBRANCH  24  25
ENDBRANCH  23  24
ENDBRANCH  22  23
ENDBRANCH  21  22
ENDBRANCH  20  21
ENDBRANCH  19  20
ENDBRANCH  18  19
ENDBRANCH  17  18
ENDBRANCH  16  17
ENDBRANCH  15  16
ENDBRANCH   1  15
TORSDOF 22
ENDMDL
