MODEL 1
REMARK VINA RESULT:    -4.633      0.000      0.000
REMARK INTER + INTRA:          -7.746
REMARK INTER:                  -7.071
REMARK INTRA:                  -0.675
REMARK UNBOUND:                -0.675
REMARK SMILES C=CCCCCCCCCCC
REMARK SMILES IDX 7 1 8 2 9 3 10 4 11 5 12 6 6 7 5 8 4 9 3 10 2 11 1 12
REMARK H PARENT
REMARK Flexibility Score: inf
ROOT
ATOM      1  C   UNL     1     142.946 143.341 163.790  1.00  0.00     0.000 C 
ENDROOT
BRANCH   1   2
ATOM      2  C   UNL     1     142.344 144.747 163.960  1.00  0.00    -0.000 C 
BRANCH   2   3
ATOM      3  C   UNL     1     141.347 145.100 162.844  1.00  0.00    -0.000 C 
BRANCH   3   4
ATOM      4  C   UNL     1     140.048 145.723 163.382  1.00  0.00    -0.000 C 
BRANCH   4   5
ATOM      5  C   UNL     1     140.213 146.154 164.843  1.00  0.00    -0.003 C 
ATOM      6  C   UNL     1     140.352 147.670 164.958  1.00  0.00     0.004 C 
ENDBRANCH   4   5
ENDBRANCH   3   4
ENDBRANCH   2   3
ENDBRANCH   1   2
BRANCH   1   7
ATOM      7  C   UNL     1     143.337 142.701 165.132  1.00  0.00     0.000 C 
BRANCH   7   8
ATOM      8  C   UNL     1     143.307 141.165 165.089  1.00  0.00     0.000 C 
BRANCH   8   9
ATOM      9  C   UNL     1     144.726 140.592 164.992  1.00  0.00     0.004 C 
BRANCH   9  10
ATOM     10  C   UNL     1     144.859 139.652 163.788  1.00  0.00     0.027 C 
BRANCH  10  11
ATOM     11  C   UNL     1     145.238 140.409 162.544  1.00  0.00    -0.035 C 
ATOM     12  C   UNL     1     145.976 141.522 162.596  1.00  0.00     0.004 C 
ENDBRANCH  10  11
ENDBRANCH   9  10
ENDBRANCH   8   9
ENDBRANCH   7   8
ENDBRANCH   1   7
TORSDOF 9
ENDMDL
MODEL 2
REMARK VINA RESULT:    -4.558      4.729      6.748
REMARK INTER + INTRA:          -7.631
REMARK INTER:                  -7.004
REMARK INTRA:                  -0.628
REMARK UNBOUND:                -0.675
REMARK SMILES C=CCCCCCCCCCC
REMARK SMILES IDX 7 1 8 2 9 3 10 4 11 5 12 6 6 7 5 8 4 9 3 10 2 11 1 12
REMARK H PARENT
REMARK Flexibility Score: inf
ROOT
ATOM      1  C   UNL     1     143.258 147.968 163.315  1.00  0.00     0.000 C 
ENDROOT
BRANCH   1   2
ATOM      2  C   UNL     1     144.757 148.315 163.260  1.00  0.00    -0.000 C 
BRANCH   2   3
ATOM      3  C   UNL     1     145.018 149.714 162.679  1.00  0.00    -0.000 C 
BRANCH   3   4
ATOM      4  C   UNL     1     145.928 150.570 163.574  1.00  0.00    -0.000 C 
BRANCH   4   5
ATOM      5  C   UNL     1     147.285 149.890 163.784  1.00  0.00    -0.003 C 
ATOM      6  C   UNL     1     147.933 150.343 165.089  1.00  0.00     0.004 C 
ENDBRANCH   4   5
ENDBRANCH   3   4
ENDBRANCH   2   3
ENDBRANCH   1   2
BRANCH   1   7
ATOM      7  C   UNL     1     142.832 147.409 164.681  1.00  0.00     0.000 C 
BRANCH   7   8
ATOM      8  C   UNL     1     141.323 147.550 164.936  1.00  0.00     0.000 C 
BRANCH   8   9
ATOM      9  C   UNL     1     140.661 146.175 165.084  1.00  0.00     0.004 C 
BRANCH   9  10
ATOM     10  C   UNL     1     139.681 145.909 163.934  1.00  0.00     0.027 C 
BRANCH  10  11
ATOM     11  C   UNL     1     140.401 145.424 162.705  1.00  0.00    -0.035 C 
ATOM     12  C   UNL     1     140.391 146.121 161.565  1.00  0.00     0.004 C 
ENDBRANCH  10  11
ENDBRANCH   9  10
ENDBRANCH   8   9
ENDBRANCH   7   8
ENDBRANCH   1   7
TORSDOF 9
ENDMDL
MODEL 3
REMARK VINA RESULT:    -4.518      2.554      5.596
REMARK INTER + INTRA:          -7.570
REMARK INTER:                  -5.817
REMARK INTRA:                  -1.754
REMARK UNBOUND:                -0.675
REMARK SMILES C=CCCCCCCCCCC
REMARK SMILES IDX 7 1 8 2 9 3 10 4 11 5 12 6 6 7 5 8 4 9 3 10 2 11 1 12
REMARK H PARENT
REMARK Flexibility Score: inf
ROOT
ATOM      1  C   UNL     1     140.435 146.204 162.436  1.00  0.00     0.000 C 
ENDROOT
BRANCH   1   2
ATOM      2  C   UNL     1     140.809 145.011 161.538  1.00  0.00    -0.000 C 
BRANCH   2   3
ATOM      3  C   UNL     1     142.325 144.758 161.494  1.00  0.00    -0.000 C 
BRANCH   3   4
ATOM      4  C   UNL     1     142.769 143.636 162.446  1.00  0.00    -0.000 C 
BRANCH   4   5
ATOM      5  C   UNL     1     143.639 144.192 163.578  1.00  0.00    -0.003 C 
ATOM      6  C   UNL     1     143.126 143.737 164.942  1.00  0.00     0.004 C 
ENDBRANCH   4   5
ENDBRANCH   3   4
ENDBRANCH   2   3
ENDBRANCH   1   2
BRANCH   1   7
ATOM      7  C   UNL     1     139.795 145.765 163.762  1.00  0.00     0.000 C 
BRANCH   7   8
ATOM      8  C   UNL     1     140.426 146.453 164.983  1.00  0.00     0.000 C 
BRANCH   8   9
ATOM      9  C   UNL     1     141.335 147.610 164.551  1.00  0.00     0.004 C 
BRANCH   9  10
ATOM     10  C   UNL     1     142.727 147.482 165.181  1.00  0.00     0.027 C 
BRANCH  10  11
ATOM     11  C   UNL     1     143.810 147.747 164.170  1.00  0.00    -0.035 C 
ATOM     12  C   UNL     1     143.529 147.989 162.886  1.00  0.00     0.004 C 
ENDBRANCH  10  11
ENDBRANCH   9  10
ENDBRANCH   8   9
ENDBRANCH   7   8
ENDBRANCH   1   7
TORSDOF 9
ENDMDL
MODEL 4
REMARK VINA RESULT:    -4.496      6.626      8.539
REMARK INTER + INTRA:          -7.536
REMARK INTER:                  -6.103
REMARK INTRA:                  -1.433
REMARK UNBOUND:                -0.675
REMARK SMILES C=CCCCCCCCCCC
REMARK SMILES IDX 7 1 8 2 9 3 10 4 11 5 12 6 6 7 5 8 4 9 3 10 2 11 1 12
REMARK H PARENT
REMARK Flexibility Score: inf
ROOT
ATOM      1  C   UNL     1     146.305 150.299 164.934  1.00  0.00     0.000 C 
ENDROOT
BRANCH   1   2
ATOM      2  C   UNL     1     147.510 149.341 164.924  1.00  0.00    -0.000 C 
BRANCH   2   3
ATOM      3  C   UNL     1     147.125 147.904 165.312  1.00  0.00    -0.000 C 
BRANCH   3   4
ATOM      4  C   UNL     1     147.881 146.844 164.496  1.00  0.00    -0.000 C 
BRANCH   4   5
ATOM      5  C   UNL     1     147.882 147.200 163.005  1.00  0.00    -0.003 C 
ATOM      6  C   UNL     1     146.758 146.480 162.265  1.00  0.00     0.004 C 
ENDBRANCH   4   5
ENDBRANCH   3   4
ENDBRANCH   2   3
ENDBRANCH   1   2
BRANCH   1   7
ATOM      7  C   UNL     1     145.932 150.791 163.527  1.00  0.00     0.000 C 
BRANCH   7   8
ATOM      8  C   UNL     1     145.020 149.807 162.776  1.00  0.00     0.000 C 
BRANCH   8   9
ATOM      9  C   UNL     1     145.340 149.799 161.276  1.00  0.00     0.004 C 
BRANCH   9  10
ATOM     10  C   UNL     1     146.802 150.187 161.023  1.00  0.00     0.027 C 
BRANCH  10  11
ATOM     11  C   UNL     1     147.341 149.511 159.792  1.00  0.00    -0.035 C 
ATOM     12  C   UNL     1     148.476 148.806 159.816  1.00  0.00     0.004 C 
ENDBRANCH  10  11
ENDBRANCH   9  10
ENDBRANCH   8   9
ENDBRANCH   7   8
ENDBRANCH   1   7
TORSDOF 9
ENDMDL
MODEL 5
REMARK VINA RESULT:    -4.495      6.518      7.978
REMARK INTER + INTRA:          -7.536
REMARK INTER:                  -5.988
REMARK INTRA:                  -1.548
REMARK UNBOUND:                -0.675
REMARK SMILES C=CCCCCCCCCCC
REMARK SMILES IDX 7 1 8 2 9 3 10 4 11 5 12 6 6 7 5 8 4 9 3 10 2 11 1 12
REMARK H PARENT
REMARK Flexibility Score: inf
ROOT
ATOM      1  C   UNL     1     145.888 150.885 163.266  1.00  0.00     0.000 C 
ENDROOT
BRANCH   1   2
ATOM      2  C   UNL     1     144.994 149.911 162.479  1.00  0.00    -0.000 C 
BRANCH   2   3
ATOM      3  C   UNL     1     145.504 149.668 161.049  1.00  0.00    -0.000 C 
BRANCH   3   4
ATOM      4  C   UNL     1     147.011 149.929 160.902  1.00  0.00    -0.000 C 
BRANCH   4   5
ATOM      5  C   UNL     1     147.555 149.286 159.621  1.00  0.00    -0.003 C 
ATOM      6  C   UNL     1     148.630 148.250 159.939  1.00  0.00     0.004 C 
ENDBRANCH   4   5
ENDBRANCH   3   4
ENDBRANCH   2   3
ENDBRANCH   1   2
BRANCH   1   7
ATOM      7  C   UNL     1     146.131 150.424 164.712  1.00  0.00     0.000 C 
BRANCH   7   8
ATOM      8  C   UNL     1     147.500 149.751 164.899  1.00  0.00     0.000 C 
BRANCH   8   9
ATOM      9  C   UNL     1     147.358 148.226 164.955  1.00  0.00     0.004 C 
BRANCH   9  10
ATOM     10  C   UNL     1     147.837 147.579 163.649  1.00  0.00     0.027 C 
BRANCH  10  11
ATOM     11  C   UNL     1     146.767 146.713 163.045  1.00  0.00    -0.035 C 
ATOM     12  C   UNL     1     145.657 146.393 163.718  1.00  0.00     0.004 C 
ENDBRANCH  10  11
ENDBRANCH   9  10
ENDBRANCH   8   9
ENDBRANCH   7   8
ENDBRANCH   1   7
TORSDOF 9
ENDMDL
MODEL 6
REMARK VINA RESULT:    -4.482      2.034      4.817
REMARK INTER + INTRA:          -7.516
REMARK INTER:                  -6.299
REMARK INTRA:                  -1.217
REMARK UNBOUND:                -0.675
REMARK SMILES C=CCCCCCCCCCC
REMARK SMILES IDX 7 1 8 2 9 3 10 4 11 5 12 6 6 7 5 8 4 9 3 10 2 11 1 12
REMARK H PARENT
REMARK Flexibility Score: inf
ROOT
ATOM      1  C   UNL     1     145.737 140.787 162.683  1.00  0.00     0.000 C 
ENDROOT
BRANCH   1   2
ATOM      2  C   UNL     1     145.249 140.915 161.229  1.00  0.00    -0.000 C 
BRANCH   2   3
ATOM      3  C   UNL     1     143.776 140.506 161.063  1.00  0.00    -0.000 C 
BRANCH   3   4
ATOM      4  C   UNL     1     143.131 141.104 159.803  1.00  0.00    -0.000 C 
BRANCH   4   5
ATOM      5  C   UNL     1     143.043 142.631 159.905  1.00  0.00    -0.003 C 
ATOM      6  C   UNL     1     141.602 143.111 159.757  1.00  0.00     0.004 C 
ENDBRANCH   4   5
ENDBRANCH   3   4
ENDBRANCH   2   3
ENDBRANCH   1   2
BRANCH   1   7
ATOM      7  C   UNL     1     144.921 139.765 163.491  1.00  0.00     0.000 C 
BRANCH   7   8
ATOM      8  C   UNL     1     144.523 140.287 164.880  1.00  0.00     0.000 C 
BRANCH   8   9
ATOM      9  C   UNL     1     143.137 140.942 164.843  1.00  0.00     0.004 C 
BRANCH   9  10
ATOM     10  C   UNL     1     143.247 142.470 164.926  1.00  0.00     0.027 C 
BRANCH  10  11
ATOM     11  C   UNL     1     143.105 143.101 163.568  1.00  0.00    -0.035 C 
ATOM     12  C   UNL     1     142.349 144.186 163.372  1.00  0.00     0.004 C 
ENDBRANCH  10  11
ENDBRANCH   9  10
ENDBRANCH   8   9
ENDBRANCH   7   8
ENDBRANCH   1   7
TORSDOF 9
ENDMDL
MODEL 7
REMARK VINA RESULT:    -4.465      4.283      6.292
REMARK INTER + INTRA:          -7.489
REMARK INTER:                  -6.612
REMARK INTRA:                  -0.878
REMARK UNBOUND:                -0.675
REMARK SMILES C=CCCCCCCCCCC
REMARK SMILES IDX 7 1 8 2 9 3 10 4 11 5 12 6 6 7 5 8 4 9 3 10 2 11 1 12
REMARK H PARENT
REMARK Flexibility Score: inf
ROOT
ATOM      1  C   UNL     1     147.292 142.742 162.908  1.00  0.00     0.000 C 
ENDROOT
BRANCH   1   2
ATOM      2  C   UNL     1     145.863 142.488 162.394  1.00  0.00    -0.000 C 
BRANCH   2   3
ATOM      3  C   UNL     1     145.705 141.098 161.755  1.00  0.00    -0.000 C 
BRANCH   3   4
ATOM      4  C   UNL     1     145.010 140.091 162.685  1.00  0.00    -0.000 C 
BRANCH   4   5
ATOM      5  C   UNL     1     144.338 140.807 163.862  1.00  0.00    -0.003 C 
ATOM      6  C   UNL     1     144.867 140.288 165.197  1.00  0.00     0.004 C 
ENDBRANCH   4   5
ENDBRANCH   3   4
ENDBRANCH   2   3
ENDBRANCH   1   2
BRANCH   1   7
ATOM      7  C   UNL     1     147.325 143.706 164.104  1.00  0.00     0.000 C 
BRANCH   7   8
ATOM      8  C   UNL     1     148.183 143.182 165.266  1.00  0.00     0.000 C 
BRANCH   8   9
ATOM      9  C   UNL     1     149.669 143.168 164.888  1.00  0.00     0.004 C 
BRANCH   9  10
ATOM     10  C   UNL     1     150.283 144.567 165.019  1.00  0.00     0.027 C 
BRANCH  10  11
ATOM     11  C   UNL     1     151.015 144.960 163.765  1.00  0.00    -0.035 C 
ATOM     12  C   UNL     1     150.367 145.224 162.626  1.00  0.00     0.004 C 
ENDBRANCH  10  11
ENDBRANCH   9  10
ENDBRANCH   8   9
ENDBRANCH   7   8
ENDBRANCH   1   7
TORSDOF 9
ENDMDL
MODEL 8
REMARK VINA RESULT:    -4.441      2.939      5.372
REMARK INTER + INTRA:          -7.452
REMARK INTER:                  -6.357
REMARK INTRA:                  -1.095
REMARK UNBOUND:                -0.675
REMARK SMILES C=CCCCCCCCCCC
REMARK SMILES IDX 7 1 8 2 9 3 10 4 11 5 12 6 6 7 5 8 4 9 3 10 2 11 1 12
REMARK H PARENT
REMARK Flexibility Score: inf
ROOT
ATOM      1  C   UNL     1     144.758 143.821 163.688  1.00  0.00     0.000 C 
ENDROOT
BRANCH   1   2
ATOM      2  C   UNL     1     143.352 143.298 164.033  1.00  0.00    -0.000 C 
BRANCH   2   3
ATOM      3  C   UNL     1     143.177 141.809 163.696  1.00  0.00    -0.000 C 
BRANCH   3   4
ATOM      4  C   UNL     1     143.517 140.887 164.878  1.00  0.00    -0.000 C 
BRANCH   4   5
ATOM      5  C   UNL     1     144.692 139.965 164.533  1.00  0.00    -0.003 C 
ATOM      6  C   UNL     1     145.074 140.087 163.060  1.00  0.00     0.004 C 
ENDBRANCH   4   5
ENDBRANCH   3   4
ENDBRANCH   2   3
ENDBRANCH   1   2
BRANCH   1   7
ATOM      7  C   UNL     1     145.662 143.941 164.925  1.00  0.00     0.000 C 
BRANCH   7   8
ATOM      8  C   UNL     1     146.915 143.056 164.834  1.00  0.00     0.000 C 
BRANCH   8   9
ATOM      9  C   UNL     1     147.623 143.245 163.487  1.00  0.00     0.004 C 
BRANCH   9  10
ATOM     10  C   UNL     1     149.145 143.137 163.644  1.00  0.00     0.027 C 
BRANCH  10  11
ATOM     11  C   UNL     1     149.614 143.823 164.898  1.00  0.00    -0.035 C 
ATOM     12  C   UNL     1     150.668 144.644 164.898  1.00  0.00     0.004 C 
ENDBRANCH  10  11
ENDBRANCH   9  10
ENDBRANCH   8   9
ENDBRANCH   7   8
ENDBRANCH   1   7
TORSDOF 9
ENDMDL
MODEL 9
REMARK VINA RESULT:    -4.434      5.537      8.410
REMARK INTER + INTRA:          -7.442
REMARK INTER:                  -6.410
REMARK INTRA:                  -1.033
REMARK UNBOUND:                -0.675
REMARK SMILES C=CCCCCCCCCCC
REMARK SMILES IDX 7 1 8 2 9 3 10 4 11 5 12 6 6 7 5 8 4 9 3 10 2 11 1 12
REMARK H PARENT
REMARK Flexibility Score: inf
ROOT
ATOM      1  C   UNL     1     146.551 144.657 164.200  1.00  0.00     0.000 C 
ENDROOT
BRANCH   1   2
ATOM      2  C   UNL     1     147.565 143.776 164.952  1.00  0.00    -0.000 C 
BRANCH   2   3
ATOM      3  C   UNL     1     148.805 143.449 164.103  1.00  0.00    -0.000 C 
BRANCH   3   4
ATOM      4  C   UNL     1     150.117 143.582 164.891  1.00  0.00    -0.000 C 
BRANCH   4   5
ATOM      5  C   UNL     1     150.971 144.730 164.343  1.00  0.00    -0.003 C 
ATOM      6  C   UNL     1     150.585 145.066 162.905  1.00  0.00     0.004 C 
ENDBRANCH   4   5
ENDBRANCH   3   4
ENDBRANCH   2   3
ENDBRANCH   1   2
BRANCH   1   7
ATOM      7  C   UNL     1     146.282 145.990 164.918  1.00  0.00     0.000 C 
BRANCH   7   8
ATOM      8  C   UNL     1     147.509 146.916 164.931  1.00  0.00     0.000 C 
BRANCH   8   9
ATOM      9  C   UNL     1     147.829 147.421 163.519  1.00  0.00     0.004 C 
BRANCH   9  10
ATOM     10  C   UNL     1     147.512 148.915 163.384  1.00  0.00     0.027 C 
BRANCH  10  11
ATOM     11  C   UNL     1     147.483 149.591 164.728  1.00  0.00    -0.035 C 
ATOM     12  C   UNL     1     146.557 150.504 165.037  1.00  0.00     0.004 C 
ENDBRANCH  10  11
ENDBRANCH   9  10
ENDBRANCH   8   9
ENDBRANCH   7   8
ENDBRANCH   1   7
TORSDOF 9
ENDMDL
