MODEL 1
REMARK VINA RESULT:    -3.827      0.000      0.000
REMARK INTER + INTRA:          -4.620
REMARK INTER:                  -4.498
REMARK INTRA:                  -0.122
REMARK UNBOUND:                -0.122
REMARK SMILES O=C([O-])C=Cc1ccc(O)c(O)c1
REMARK SMILES IDX 6 1 13 2 7 3 11 4 8 5 9 6 5 7 4 8 2 9 1 10 3 11 12 12 10 14
REMARK H PARENT 12 13 10 15
REMARK Flexibility Score: inf
ROOT
ATOM      1  C   UNL     1       9.447  12.526  60.532  1.00  0.00    -0.022 A 
ATOM      2  C   UNL     1       8.816  11.414  61.123  1.00  0.00     0.058 A 
ATOM      3  C   UNL     1      10.240  12.328  59.390  1.00  0.00     0.012 A 
ATOM      4  C   UNL     1       8.955  10.136  60.569  1.00  0.00     0.157 A 
ATOM      5  C   UNL     1      10.378  11.054  58.833  1.00  0.00     0.051 A 
ATOM      6  C   UNL     1       9.736   9.954  59.416  1.00  0.00     0.157 A 
ENDROOT
BRANCH   1   7
ATOM      7  C   UNL     1       9.339  13.897  61.090  1.00  0.00     0.010 C 
ATOM      8  C   UNL     1       8.185  14.450  61.489  1.00  0.00     0.025 C 
BRANCH   8   9
ATOM      9  C   UNL     1       8.114  15.818  62.028  1.00  0.00     0.064 C 
ATOM     10  O   UNL     1       7.091  16.534  61.859  1.00  0.00    -0.545 OA
ATOM     11  O   UNL     1       9.194  16.330  62.735  1.00  0.00    -0.545 OA
ENDBRANCH   8   9
ENDBRANCH   1   7
BRANCH   4  12
ATOM     12  O   UNL     1       8.312   9.060  61.180  1.00  0.00    -0.504 OA
ATOM     13  H   UNL     1       8.473   8.816  62.151  1.00  0.00     0.293 HD
ENDBRANCH   4  12
BRANCH   6  14
ATOM     14  O   UNL     1       9.875   8.684  58.858  1.00  0.00    -0.504 OA
ATOM     15  H   UNL     1       9.511   7.859  59.318  1.00  0.00     0.293 HD
ENDBRANCH   6  14
TORSDOF 4
ENDMDL
MODEL 2
REMARK VINA RESULT:    -3.794     12.640     13.853
REMARK INTER + INTRA:          -4.581
REMARK INTER:                  -4.439
REMARK INTRA:                  -0.142
REMARK UNBOUND:                -0.122
REMARK SMILES O=C([O-])C=Cc1ccc(O)c(O)c1
REMARK SMILES IDX 6 1 13 2 7 3 11 4 8 5 9 6 5 7 4 8 2 9 1 10 3 11 12 12 10 14
REMARK H PARENT 12 13 10 15
REMARK Flexibility Score: inf
ROOT
ATOM      1  C   UNL     1      -3.469   9.713  59.012  1.00  0.00    -0.022 A 
ATOM      2  C   UNL     1      -2.955  11.023  58.939  1.00  0.00     0.058 A 
ATOM      3  C   UNL     1      -2.650   8.691  59.517  1.00  0.00     0.012 A 
ATOM      4  C   UNL     1      -1.659  11.307  59.386  1.00  0.00     0.157 A 
ATOM      5  C   UNL     1      -1.357   8.972  59.966  1.00  0.00     0.051 A 
ATOM      6  C   UNL     1      -0.856  10.278  59.905  1.00  0.00     0.157 A 
ENDROOT
BRANCH   1   7
ATOM      7  C   UNL     1      -4.831   9.362  58.540  1.00  0.00     0.010 C 
ATOM      8  C   UNL     1      -5.104   8.290  57.781  1.00  0.00     0.025 C 
BRANCH   8   9
ATOM      9  C   UNL     1      -6.467   7.979  57.321  1.00  0.00     0.064 C 
ATOM     10  O   UNL     1      -7.125   8.799  56.627  1.00  0.00    -0.545 OA
ATOM     11  O   UNL     1      -7.039   6.760  57.660  1.00  0.00    -0.545 OA
ENDBRANCH   8   9
ENDBRANCH   1   7
BRANCH   4  12
ATOM     12  O   UNL     1      -1.185  12.616  59.302  1.00  0.00    -0.504 OA
ATOM     13  H   UNL     1      -1.168  13.236  60.104  1.00  0.00     0.293 HD
ENDBRANCH   4  12
BRANCH   6  14
ATOM     14  O   UNL     1       0.434  10.556  60.355  1.00  0.00    -0.504 OA
ATOM     15  H   UNL     1       0.952   9.895  60.920  1.00  0.00     0.293 HD
ENDBRANCH   6  14
TORSDOF 4
ENDMDL
MODEL 3
REMARK VINA RESULT:    -3.775     13.760     15.504
REMARK INTER + INTRA:          -4.559
REMARK INTER:                  -4.426
REMARK INTRA:                  -0.132
REMARK UNBOUND:                -0.122
REMARK SMILES O=C([O-])C=Cc1ccc(O)c(O)c1
REMARK SMILES IDX 6 1 13 2 7 3 11 4 8 5 9 6 5 7 4 8 2 9 1 10 3 11 12 12 10 14
REMARK H PARENT 12 13 10 15
REMARK Flexibility Score: inf
ROOT
ATOM      1  C   UNL     1       3.313  12.765  74.090  1.00  0.00    -0.022 A 
ATOM      2  C   UNL     1       2.346  11.801  74.438  1.00  0.00     0.058 A 
ATOM      3  C   UNL     1       2.921  14.109  73.980  1.00  0.00     0.012 A 
ATOM      4  C   UNL     1       1.023  12.177  74.696  1.00  0.00     0.157 A 
ATOM      5  C   UNL     1       1.602  14.488  74.239  1.00  0.00     0.051 A 
ATOM      6  C   UNL     1       0.648  13.527  74.600  1.00  0.00     0.157 A 
ENDROOT
BRANCH   1   7
ATOM      7  C   UNL     1       4.724  12.412  73.795  1.00  0.00     0.010 C 
ATOM      8  C   UNL     1       5.767  12.844  74.520  1.00  0.00     0.025 C 
BRANCH   8   9
ATOM      9  C   UNL     1       7.155  12.482  74.192  1.00  0.00     0.064 C 
ATOM     10  O   UNL     1       7.759  11.571  74.820  1.00  0.00    -0.545 OA
ATOM     11  O   UNL     1       7.813  13.158  73.172  1.00  0.00    -0.545 OA
ENDBRANCH   8   9
ENDBRANCH   1   7
BRANCH   4  12
ATOM     12  O   UNL     1       0.095  11.195  75.043  1.00  0.00    -0.504 OA
ATOM     13  H   UNL     1       0.037  10.816  75.981  1.00  0.00     0.293 HD
ENDBRANCH   4  12
BRANCH   6  14
ATOM     14  O   UNL     1      -0.668  13.909  74.859  1.00  0.00    -0.504 OA
ATOM     15  H   UNL     1      -0.940  14.883  74.897  1.00  0.00     0.293 HD
ENDBRANCH   6  14
TORSDOF 4
ENDMDL
MODEL 4
REMARK VINA RESULT:    -3.708      1.974      2.819
REMARK INTER + INTRA:          -4.480
REMARK INTER:                  -4.358
REMARK INTRA:                  -0.122
REMARK UNBOUND:                -0.122
REMARK SMILES O=C([O-])C=Cc1ccc(O)c(O)c1
REMARK SMILES IDX 6 1 13 2 7 3 11 4 8 5 9 6 5 7 4 8 2 9 1 10 3 11 12 12 10 14
REMARK H PARENT 12 13 10 15
REMARK Flexibility Score: inf
ROOT
ATOM      1  C   UNL     1      10.550  10.605  59.001  1.00  0.00    -0.022 A 
ATOM      2  C   UNL     1      10.638   9.456  59.812  1.00  0.00     0.058 A 
ATOM      3  C   UNL     1      10.727  10.471  57.615  1.00  0.00     0.012 A 
ATOM      4  C   UNL     1      10.874   8.198  59.245  1.00  0.00     0.157 A 
ATOM      5  C   UNL     1      10.960   9.217  57.046  1.00  0.00     0.051 A 
ATOM      6  C   UNL     1      11.032   8.075  57.855  1.00  0.00     0.157 A 
ENDROOT
BRANCH   1   7
ATOM      7  C   UNL     1      10.313  11.960  59.558  1.00  0.00     0.010 C 
ATOM      8  C   UNL     1       9.508  12.206  60.602  1.00  0.00     0.025 C 
BRANCH   8   9
ATOM      9  C   UNL     1       9.288  13.566  61.120  1.00  0.00     0.064 C 
ATOM     10  O   UNL     1       8.126  14.006  61.330  1.00  0.00    -0.545 OA
ATOM     11  O   UNL     1      10.382  14.381  61.383  1.00  0.00    -0.545 OA
ENDBRANCH   8   9
ENDBRANCH   1   7
BRANCH   4  12
ATOM     12  O   UNL     1      10.951   7.083  60.079  1.00  0.00    -0.504 OA
ATOM     13  H   UNL     1      10.929   6.136  59.716  1.00  0.00     0.293 HD
ENDBRANCH   4  12
BRANCH   6  14
ATOM     14  O   UNL     1      11.264   6.825  57.284  1.00  0.00    -0.504 OA
ATOM     15  H   UNL     1      12.202   6.489  57.103  1.00  0.00     0.293 HD
ENDBRANCH   6  14
TORSDOF 4
ENDMDL
MODEL 5
REMARK VINA RESULT:    -3.669      0.966      1.999
REMARK INTER + INTRA:          -4.434
REMARK INTER:                  -4.291
REMARK INTRA:                  -0.143
REMARK UNBOUND:                -0.122
REMARK SMILES O=C([O-])C=Cc1ccc(O)c(O)c1
REMARK SMILES IDX 6 1 13 2 7 3 11 4 8 5 9 6 5 7 4 8 2 9 1 10 3 11 12 12 10 14
REMARK H PARENT 12 13 10 15
REMARK Flexibility Score: inf
ROOT
ATOM      1  C   UNL     1       9.669  12.384  60.303  1.00  0.00    -0.022 A 
ATOM      2  C   UNL     1      10.480  12.204  59.165  1.00  0.00     0.058 A 
ATOM      3  C   UNL     1       8.948  11.287  60.802  1.00  0.00     0.012 A 
ATOM      4  C   UNL     1      10.587  10.948  58.556  1.00  0.00     0.157 A 
ATOM      5  C   UNL     1       9.055  10.032  60.198  1.00  0.00     0.051 A 
ATOM      6  C   UNL     1       9.874   9.855  59.075  1.00  0.00     0.157 A 
ENDROOT
BRANCH   1   7
ATOM      7  C   UNL     1       9.515  13.698  60.974  1.00  0.00     0.010 C 
ATOM      8  C   UNL     1       8.344  14.170  61.429  1.00  0.00     0.025 C 
BRANCH   8   9
ATOM      9  C   UNL     1       8.227  15.484  62.081  1.00  0.00     0.064 C 
ATOM     10  O   UNL     1       7.340  16.309  61.734  1.00  0.00    -0.545 OA
ATOM     11  O   UNL     1       9.112  15.823  63.097  1.00  0.00    -0.545 OA
ENDBRANCH   8   9
ENDBRANCH   1   7
BRANCH   4  12
ATOM     12  O   UNL     1      11.403  10.806  57.433  1.00  0.00    -0.504 OA
ATOM     13  H   UNL     1      11.507  11.544  56.746  1.00  0.00     0.293 HD
ENDBRANCH   4  12
BRANCH   6  14
ATOM     14  O   UNL     1       9.979   8.601  58.476  1.00  0.00    -0.504 OA
ATOM     15  H   UNL     1      10.863   8.253  58.124  1.00  0.00     0.293 HD
ENDBRANCH   6  14
TORSDOF 4
ENDMDL
MODEL 6
REMARK VINA RESULT:    -3.658      2.488      6.545
REMARK INTER + INTRA:          -4.422
REMARK INTER:                  -4.271
REMARK INTRA:                  -0.151
REMARK UNBOUND:                -0.122
REMARK SMILES O=C([O-])C=Cc1ccc(O)c(O)c1
REMARK SMILES IDX 6 1 13 2 7 3 11 4 8 5 9 6 5 7 4 8 2 9 1 10 3 11 12 12 10 14
REMARK H PARENT 12 13 10 15
REMARK Flexibility Score: inf
ROOT
ATOM      1  C   UNL     1      10.353  10.160  58.920  1.00  0.00    -0.022 A 
ATOM      2  C   UNL     1       9.491  10.117  60.035  1.00  0.00     0.058 A 
ATOM      3  C   UNL     1      10.860  11.401  58.503  1.00  0.00     0.012 A 
ATOM      4  C   UNL     1       9.166  11.287  60.731  1.00  0.00     0.157 A 
ATOM      5  C   UNL     1      10.539  12.570  59.197  1.00  0.00     0.051 A 
ATOM      6  C   UNL     1       9.694  12.520  60.314  1.00  0.00     0.157 A 
ENDROOT
BRANCH   1   7
ATOM      7  C   UNL     1      10.716   8.949  58.144  1.00  0.00     0.010 C 
ATOM      8  C   UNL     1      11.353   8.983  56.964  1.00  0.00     0.025 C 
BRANCH   8   9
ATOM      9  C   UNL     1      11.687   7.760  56.216  1.00  0.00     0.064 C 
ATOM     10  O   UNL     1      12.874   7.507  55.876  1.00  0.00    -0.545 OA
ATOM     11  O   UNL     1      10.677   6.869  55.878  1.00  0.00    -0.545 OA
ENDBRANCH   8   9
ENDBRANCH   1   7
BRANCH   4  12
ATOM     12  O   UNL     1       8.314  11.205  61.832  1.00  0.00    -0.504 OA
ATOM     13  H   UNL     1       8.556  10.678  62.664  1.00  0.00     0.293 HD
ENDBRANCH   4  12
BRANCH   6  14
ATOM     14  O   UNL     1       9.377  13.688  61.005  1.00  0.00    -0.504 OA
ATOM     15  H   UNL     1      10.012  14.094  61.681  1.00  0.00     0.293 HD
ENDBRANCH   6  14
TORSDOF 4
ENDMDL
MODEL 7
REMARK VINA RESULT:    -3.624      1.885      2.445
REMARK INTER + INTRA:          -4.382
REMARK INTER:                  -4.249
REMARK INTRA:                  -0.133
REMARK UNBOUND:                -0.122
REMARK SMILES O=C([O-])C=Cc1ccc(O)c(O)c1
REMARK SMILES IDX 6 1 13 2 7 3 11 4 8 5 9 6 5 7 4 8 2 9 1 10 3 11 12 12 10 14
REMARK H PARENT 12 13 10 15
REMARK Flexibility Score: inf
ROOT
ATOM      1  C   UNL     1       9.190  11.882  60.723  1.00  0.00    -0.022 A 
ATOM      2  C   UNL     1       9.190  10.540  60.292  1.00  0.00     0.058 A 
ATOM      3  C   UNL     1       9.980  12.815  60.033  1.00  0.00     0.012 A 
ATOM      4  C   UNL     1       9.944  10.147  59.180  1.00  0.00     0.157 A 
ATOM      5  C   UNL     1      10.732  12.426  58.922  1.00  0.00     0.051 A 
ATOM      6  C   UNL     1      10.717  11.094  58.488  1.00  0.00     0.157 A 
ENDROOT
BRANCH   1   7
ATOM      7  C   UNL     1       8.416  12.343  61.902  1.00  0.00     0.010 C 
ATOM      8  C   UNL     1       7.333  13.129  61.822  1.00  0.00     0.025 C 
BRANCH   8   9
ATOM      9  C   UNL     1       6.596  13.576  63.015  1.00  0.00     0.064 C 
ATOM     10  O   UNL     1       7.179  14.185  63.952  1.00  0.00    -0.545 OA
ATOM     11  O   UNL     1       5.234  13.322  63.111  1.00  0.00    -0.545 OA
ENDBRANCH   8   9
ENDBRANCH   1   7
BRANCH   4  12
ATOM     12  O   UNL     1       9.916   8.811  58.781  1.00  0.00    -0.504 OA
ATOM     13  H   UNL     1      10.742   8.333  58.439  1.00  0.00     0.293 HD
ENDBRANCH   4  12
BRANCH   6  14
ATOM     14  O   UNL     1      11.467  10.710  57.378  1.00  0.00    -0.504 OA
ATOM     15  H   UNL     1      12.391  10.306  57.476  1.00  0.00     0.293 HD
ENDBRANCH   6  14
TORSDOF 4
ENDMDL
MODEL 8
REMARK VINA RESULT:    -3.531      8.183      9.563
REMARK INTER + INTRA:          -4.272
REMARK INTER:                  -4.146
REMARK INTRA:                  -0.126
REMARK UNBOUND:                -0.122
REMARK SMILES O=C([O-])C=Cc1ccc(O)c(O)c1
REMARK SMILES IDX 6 1 13 2 7 3 11 4 8 5 9 6 5 7 4 8 2 9 1 10 3 11 12 12 10 14
REMARK H PARENT 12 13 10 15
REMARK Flexibility Score: inf
ROOT
ATOM      1  C   UNL     1       2.360  18.457  59.410  1.00  0.00    -0.022 A 
ATOM      2  C   UNL     1       3.063  17.666  60.340  1.00  0.00     0.058 A 
ATOM      3  C   UNL     1       0.970  18.294  59.295  1.00  0.00     0.012 A 
ATOM      4  C   UNL     1       2.386  16.750  61.154  1.00  0.00     0.157 A 
ATOM      5  C   UNL     1       0.291  17.383  60.108  1.00  0.00     0.051 A 
ATOM      6  C   UNL     1       0.993  16.609  61.042  1.00  0.00     0.157 A 
ENDROOT
BRANCH   1   7
ATOM      7  C   UNL     1       3.035  19.432  58.517  1.00  0.00     0.010 C 
ATOM      8  C   UNL     1       3.718  19.085  57.416  1.00  0.00     0.025 C 
BRANCH   8   9
ATOM      9  C   UNL     1       4.385  20.079  56.560  1.00  0.00     0.064 C 
ATOM     10  O   UNL     1       3.730  20.983  55.976  1.00  0.00    -0.545 OA
ATOM     11  O   UNL     1       5.762  20.019  56.391  1.00  0.00    -0.545 OA
ENDBRANCH   8   9
ENDBRANCH   1   7
BRANCH   4  12
ATOM     12  O   UNL     1       3.115  15.987  62.066  1.00  0.00    -0.504 OA
ATOM     13  H   UNL     1       3.039  16.127  63.067  1.00  0.00     0.293 HD
ENDBRANCH   4  12
BRANCH   6  14
ATOM     14  O   UNL     1       0.313  15.702  61.852  1.00  0.00    -0.504 OA
ATOM     15  H   UNL     1       0.787  14.920  62.287  1.00  0.00     0.293 HD
ENDBRANCH   6  14
TORSDOF 4
ENDMDL
MODEL 9
REMARK VINA RESULT:    -3.117      3.320      6.706
REMARK INTER + INTRA:          -3.786
REMARK INTER:                  -3.638
REMARK INTRA:                  -0.147
REMARK UNBOUND:                -0.122
REMARK SMILES O=C([O-])C=Cc1ccc(O)c(O)c1
REMARK SMILES IDX 6 1 13 2 7 3 11 4 8 5 9 6 5 7 4 8 2 9 1 10 3 11 12 12 10 14
REMARK H PARENT 12 13 10 15
REMARK Flexibility Score: inf
ROOT
ATOM      1  C   UNL     1      10.295   9.319  59.444  1.00  0.00    -0.022 A 
ATOM      2  C   UNL     1       9.300  10.300  59.628  1.00  0.00     0.058 A 
ATOM      3  C   UNL     1      10.858   8.704  60.574  1.00  0.00     0.012 A 
ATOM      4  C   UNL     1       8.862  10.639  60.913  1.00  0.00     0.157 A 
ATOM      5  C   UNL     1      10.420   9.039  61.857  1.00  0.00     0.051 A 
ATOM      6  C   UNL     1       9.421  10.004  62.034  1.00  0.00     0.157 A 
ENDROOT
BRANCH   1   7
ATOM      7  C   UNL     1      10.800   8.934  58.103  1.00  0.00     0.010 C 
ATOM      8  C   UNL     1      11.378   7.754  57.834  1.00  0.00     0.025 C 
BRANCH   8   9
ATOM      9  C   UNL     1      11.878   7.412  56.492  1.00  0.00     0.064 C 
ATOM     10  O   UNL     1      11.485   6.375  55.894  1.00  0.00    -0.545 OA
ATOM     11  O   UNL     1      12.801   8.246  55.875  1.00  0.00    -0.545 OA
ENDBRANCH   8   9
ENDBRANCH   1   7
BRANCH   4  12
ATOM     12  O   UNL     1       7.873  11.612  61.057  1.00  0.00    -0.504 OA
ATOM     13  H   UNL     1       7.909  12.314  61.787  1.00  0.00     0.293 HD
ENDBRANCH   4  12
BRANCH   6  14
ATOM     14  O   UNL     1       8.986  10.335  63.317  1.00  0.00    -0.504 OA
ATOM     15  H   UNL     1       9.192  11.235  63.731  1.00  0.00     0.293 HD
ENDBRANCH   6  14
TORSDOF 4
ENDMDL
