MODEL 1
REMARK VINA RESULT:    -3.661      0.000      0.000
REMARK INTER + INTRA:          -5.007
REMARK INTER:                  -4.731
REMARK INTRA:                  -0.275
REMARK UNBOUND:                -0.275
REMARK SMILES CCCCCCC(=O)[O-]
REMARK SMILES IDX 5 1 6 2 7 3 8 4 9 5 4 6 3 7 2 8 1 9
REMARK H PARENT
REMARK Flexibility Score: inf
ROOT
ATOM      1  C   UNL     1      14.608  43.133  21.208  1.00  0.00     0.006 C 
ENDROOT
BRANCH   1   2
ATOM      2  C   UNL     1      13.576  42.328  20.408  1.00  0.00     0.053 C 
BRANCH   2   3
ATOM      3  C   UNL     1      13.435  40.951  20.975  1.00  0.00     0.041 C 
ATOM      4  O   UNL     1      12.597  40.148  20.488  1.00  0.00    -0.550 OA
ATOM      5  O   UNL     1      14.193  40.571  22.076  1.00  0.00    -0.550 OA
ENDBRANCH   2   3
ENDBRANCH   1   2
BRANCH   1   6
ATOM      6  C   UNL     1      15.650  43.826  20.312  1.00  0.00     0.000 C 
BRANCH   6   7
ATOM      7  C   UNL     1      15.401  43.693  18.796  1.00  0.00    -0.000 C 
BRANCH   7   8
ATOM      8  C   UNL     1      14.918  44.979  18.103  1.00  0.00    -0.003 C 
ATOM      9  C   UNL     1      13.407  45.000  17.875  1.00  0.00     0.004 C 
ENDBRANCH   7   8
ENDBRANCH   6   7
ENDBRANCH   1   6
TORSDOF 5
ENDMDL
MODEL 2
REMARK VINA RESULT:    -3.574      1.332      2.631
REMARK INTER + INTRA:          -4.894
REMARK INTER:                  -4.521
REMARK INTRA:                  -0.373
REMARK UNBOUND:                -0.275
REMARK SMILES CCCCCCC(=O)[O-]
REMARK SMILES IDX 5 1 6 2 7 3 8 4 9 5 4 6 3 7 2 8 1 9
REMARK H PARENT
REMARK Flexibility Score: inf
ROOT
ATOM      1  C   UNL     1      12.932  43.425  17.958  1.00  0.00     0.006 C 
ENDROOT
BRANCH   1   2
ATOM      2  C   UNL     1      11.926  43.011  19.039  1.00  0.00     0.053 C 
BRANCH   2   3
ATOM      3  C   UNL     1      12.482  41.900  19.871  1.00  0.00     0.041 C 
ATOM      4  O   UNL     1      12.178  41.807  21.089  1.00  0.00    -0.550 OA
ATOM      5  O   UNL     1      13.378  40.995  19.314  1.00  0.00    -0.550 OA
ENDBRANCH   2   3
ENDBRANCH   1   2
BRANCH   1   6
ATOM      6  C   UNL     1      13.410  44.881  18.112  1.00  0.00     0.000 C 
BRANCH   6   7
ATOM      7  C   UNL     1      14.910  45.047  18.423  1.00  0.00    -0.000 C 
BRANCH   7   8
ATOM      8  C   UNL     1      15.592  43.803  19.018  1.00  0.00    -0.003 C 
ATOM      9  C   UNL     1      15.518  43.755  20.543  1.00  0.00     0.004 C 
ENDBRANCH   7   8
ENDBRANCH   6   7
ENDBRANCH   1   6
TORSDOF 5
ENDMDL
MODEL 3
REMARK VINA RESULT:    -3.545      1.133      1.996
REMARK INTER + INTRA:          -4.857
REMARK INTER:                  -4.615
REMARK INTRA:                  -0.242
REMARK UNBOUND:                -0.275
REMARK SMILES CCCCCCC(=O)[O-]
REMARK SMILES IDX 5 1 6 2 7 3 8 4 9 5 4 6 3 7 2 8 1 9
REMARK H PARENT
REMARK Flexibility Score: inf
ROOT
ATOM      1  C   UNL     1      12.539  42.521  19.648  1.00  0.00     0.006 C 
ENDROOT
BRANCH   1   2
ATOM      2  C   UNL     1      13.454  41.290  19.676  1.00  0.00     0.053 C 
BRANCH   2   3
ATOM      3  C   UNL     1      13.276  40.536  20.955  1.00  0.00     0.041 C 
ATOM      4  O   UNL     1      12.272  39.795  21.120  1.00  0.00    -0.550 OA
ATOM      5  O   UNL     1      14.194  40.692  21.987  1.00  0.00    -0.550 OA
ENDBRANCH   2   3
ENDBRANCH   1   2
BRANCH   1   6
ATOM      6  C   UNL     1      12.688  43.347  18.358  1.00  0.00     0.000 C 
BRANCH   6   7
ATOM      7  C   UNL     1      13.442  44.682  18.520  1.00  0.00    -0.000 C 
BRANCH   7   8
ATOM      8  C   UNL     1      14.927  44.642  18.120  1.00  0.00    -0.003 C 
ATOM      9  C   UNL     1      15.841  44.219  19.268  1.00  0.00     0.004 C 
ENDBRANCH   7   8
ENDBRANCH   6   7
ENDBRANCH   1   6
TORSDOF 5
ENDMDL
MODEL 4
REMARK VINA RESULT:    -3.365      2.458      4.161
REMARK INTER + INTRA:          -4.624
REMARK INTER:                  -4.243
REMARK INTRA:                  -0.381
REMARK UNBOUND:                -0.275
REMARK SMILES CCCCCCC(=O)[O-]
REMARK SMILES IDX 5 1 6 2 7 3 8 4 9 5 4 6 3 7 2 8 1 9
REMARK H PARENT
REMARK Flexibility Score: inf
ROOT
ATOM      1  C   UNL     1      13.341  43.798  18.489  1.00  0.00     0.006 C 
ENDROOT
BRANCH   1   2
ATOM      2  C   UNL     1      14.542  44.747  18.598  1.00  0.00     0.053 C 
BRANCH   2   3
ATOM      3  C   UNL     1      15.589  44.163  19.493  1.00  0.00     0.041 C 
ATOM      4  O   UNL     1      16.753  43.960  19.057  1.00  0.00    -0.550 OA
ATOM      5  O   UNL     1      15.266  43.795  20.793  1.00  0.00    -0.550 OA
ENDBRANCH   2   3
ENDBRANCH   1   2
BRANCH   1   6
ATOM      6  C   UNL     1      13.711  42.436  17.875  1.00  0.00     0.000 C 
BRANCH   6   7
ATOM      7  C   UNL     1      13.277  41.207  18.699  1.00  0.00    -0.000 C 
BRANCH   7   8
ATOM      8  C   UNL     1      12.760  41.525  20.114  1.00  0.00    -0.003 C 
ATOM      9  C   UNL     1      13.498  40.752  21.204  1.00  0.00     0.004 C 
ENDBRANCH   7   8
ENDBRANCH   6   7
ENDBRANCH   1   6
TORSDOF 5
ENDMDL
MODEL 5
REMARK VINA RESULT:    -3.005      2.727      4.548
REMARK INTER + INTRA:          -4.159
REMARK INTER:                  -3.998
REMARK INTRA:                  -0.161
REMARK UNBOUND:                -0.275
REMARK SMILES CCCCCCC(=O)[O-]
REMARK SMILES IDX 5 1 6 2 7 3 8 4 9 5 4 6 3 7 2 8 1 9
REMARK H PARENT
REMARK Flexibility Score: inf
ROOT
ATOM      1  C   UNL     1      14.826  43.371  20.398  1.00  0.00     0.006 C 
ENDROOT
BRANCH   1   2
ATOM      2  C   UNL     1      15.027  43.392  18.878  1.00  0.00     0.053 C 
BRANCH   2   3
ATOM      3  C   UNL     1      14.056  44.332  18.235  1.00  0.00     0.041 C 
ATOM      4  O   UNL     1      14.365  45.540  18.061  1.00  0.00    -0.550 OA
ATOM      5  O   UNL     1      12.791  43.885  17.875  1.00  0.00    -0.550 OA
ENDBRANCH   2   3
ENDBRANCH   1   2
BRANCH   1   6
ATOM      6  C   UNL     1      13.656  42.471  20.834  1.00  0.00     0.000 C 
BRANCH   6   7
ATOM      7  C   UNL     1      13.466  41.192  19.993  1.00  0.00    -0.000 C 
BRANCH   7   8
ATOM      8  C   UNL     1      12.557  40.126  20.630  1.00  0.00    -0.003 C 
ATOM      9  C   UNL     1      12.012  40.546  21.994  1.00  0.00     0.004 C 
ENDBRANCH   7   8
ENDBRANCH   6   7
ENDBRANCH   1   6
TORSDOF 5
ENDMDL
MODEL 6
REMARK VINA RESULT:    -2.949      2.896      4.632
REMARK INTER + INTRA:          -4.087
REMARK INTER:                  -3.832
REMARK INTRA:                  -0.255
REMARK UNBOUND:                -0.275
REMARK SMILES CCCCCCC(=O)[O-]
REMARK SMILES IDX 5 1 6 2 7 3 8 4 9 5 4 6 3 7 2 8 1 9
REMARK H PARENT
REMARK Flexibility Score: inf
ROOT
ATOM      1  C   UNL     1      12.800  43.451  18.628  1.00  0.00     0.006 C 
ENDROOT
BRANCH   1   2
ATOM      2  C   UNL     1      14.276  43.047  18.516  1.00  0.00     0.053 C 
BRANCH   2   3
ATOM      3  C   UNL     1      15.159  44.237  18.717  1.00  0.00     0.041 C 
ATOM      4  O   UNL     1      14.827  45.359  18.251  1.00  0.00    -0.550 OA
ATOM      5  O   UNL     1      16.375  44.098  19.375  1.00  0.00    -0.550 OA
ENDBRANCH   2   3
ENDBRANCH   1   2
BRANCH   1   6
ATOM      6  C   UNL     1      11.986  42.498  19.522  1.00  0.00     0.000 C 
BRANCH   6   7
ATOM      7  C   UNL     1      12.404  41.015  19.448  1.00  0.00    -0.000 C 
BRANCH   7   8
ATOM      8  C   UNL     1      12.577  40.321  20.810  1.00  0.00    -0.003 C 
ATOM      9  C   UNL     1      13.751  40.875  21.615  1.00  0.00     0.004 C 
ENDBRANCH   7   8
ENDBRANCH   6   7
ENDBRANCH   1   6
TORSDOF 5
ENDMDL
MODEL 7
REMARK VINA RESULT:    -2.641      2.925      3.895
REMARK INTER + INTRA:          -3.689
REMARK INTER:                  -3.458
REMARK INTRA:                  -0.231
REMARK UNBOUND:                -0.275
REMARK SMILES CCCCCCC(=O)[O-]
REMARK SMILES IDX 5 1 6 2 7 3 8 4 9 5 4 6 3 7 2 8 1 9
REMARK H PARENT
REMARK Flexibility Score: inf
ROOT
ATOM      1  C   UNL     1      13.402  43.122  20.482  1.00  0.00     0.006 C 
ENDROOT
BRANCH   1   2
ATOM      2  C   UNL     1      14.885  43.487  20.623  1.00  0.00     0.053 C 
BRANCH   2   3
ATOM      3  C   UNL     1      15.388  44.126  19.368  1.00  0.00     0.041 C 
ATOM      4  O   UNL     1      14.604  44.783  18.634  1.00  0.00    -0.550 OA
ATOM      5  O   UNL     1      16.711  43.954  18.981  1.00  0.00    -0.550 OA
ENDBRANCH   2   3
ENDBRANCH   1   2
BRANCH   1   6
ATOM      6  C   UNL     1      13.122  41.639  20.785  1.00  0.00     0.000 C 
BRANCH   6   7
ATOM      7  C   UNL     1      13.582  40.650  19.695  1.00  0.00    -0.000 C 
BRANCH   7   8
ATOM      8  C   UNL     1      13.354  41.125  18.249  1.00  0.00    -0.003 C 
ATOM      9  C   UNL     1      11.875  41.231  17.884  1.00  0.00     0.004 C 
ENDBRANCH   7   8
ENDBRANCH   6   7
ENDBRANCH   1   6
TORSDOF 5
ENDMDL
MODEL 8
REMARK VINA RESULT:    -2.130     14.783     15.719
REMARK INTER + INTRA:          -3.028
REMARK INTER:                  -2.944
REMARK INTRA:                  -0.084
REMARK UNBOUND:                -0.275
REMARK SMILES CCCCCCC(=O)[O-]
REMARK SMILES IDX 5 1 6 2 7 3 8 4 9 5 4 6 3 7 2 8 1 9
REMARK H PARENT
REMARK Flexibility Score: inf
ROOT
ATOM      1  C   UNL     1      28.357  37.230  18.713  1.00  0.00     0.006 C 
ENDROOT
BRANCH   1   2
ATOM      2  C   UNL     1      29.322  38.358  18.326  1.00  0.00     0.053 C 
BRANCH   2   3
ATOM      3  C   UNL     1      30.735  37.869  18.358  1.00  0.00     0.041 C 
ATOM      4  O   UNL     1      31.007  36.749  18.862  1.00  0.00    -0.550 OA
ATOM      5  O   UNL     1      31.760  38.674  17.876  1.00  0.00    -0.550 OA
ENDBRANCH   2   3
ENDBRANCH   1   2
BRANCH   1   6
ATOM      6  C   UNL     1      27.059  37.245  17.886  1.00  0.00     0.000 C 
BRANCH   6   7
ATOM      7  C   UNL     1      26.180  35.986  18.025  1.00  0.00    -0.000 C 
BRANCH   7   8
ATOM      8  C   UNL     1      24.665  36.238  17.927  1.00  0.00    -0.003 C 
ATOM      9  C   UNL     1      23.875  35.559  19.044  1.00  0.00     0.004 C 
ENDBRANCH   7   8
ENDBRANCH   6   7
ENDBRANCH   1   6
TORSDOF 5
ENDMDL
