MODEL 1
REMARK VINA RESULT:    -4.830      0.000      0.000
REMARK INTER + INTRA:         -11.006
REMARK INTER:                  -8.784
REMARK INTRA:                  -2.222
REMARK UNBOUND:                -2.222
REMARK SMILES CCCCCCCCCCCCCCCC(=O)[O-]
REMARK SMILES IDX 9 1 10 2 11 3 12 4 13 5 14 6 15 7 16 8 17 9 18 10 8 11 7 12
REMARK SMILES IDX 6 13 5 14 4 15 3 16 2 17 1 18
REMARK H PARENT
REMARK Flexibility Score: inf
ROOT
ATOM      1  C   UNL     1      13.361  13.370   5.407  1.00  0.00     0.000 C 
ENDROOT
BRANCH   1   2
ATOM      2  C   UNL     1      12.821  12.094   4.731  1.00  0.00     0.000 C 
BRANCH   2   3
ATOM      3  C   UNL     1      12.429  12.256   3.250  1.00  0.00     0.000 C 
BRANCH   3   4
ATOM      4  C   UNL     1      12.456  13.705   2.726  1.00  0.00     0.000 C 
BRANCH   4   5
ATOM      5  C   UNL     1      13.077  13.880   1.324  1.00  0.00     0.000 C 
BRANCH   5   6
ATOM      6  C   UNL     1      14.368  14.718   1.286  1.00  0.00     0.006 C 
BRANCH   6   7
ATOM      7  C   UNL     1      15.047  14.830   2.656  1.00  0.00     0.053 C 
BRANCH   7   8
ATOM      8  C   UNL     1      16.137  13.813   2.783  1.00  0.00     0.041 C 
ATOM      9  O   UNL     1      16.060  12.722   2.160  1.00  0.00    -0.550 OA
ATOM     10  O   UNL     1      17.262  14.091   3.549  1.00  0.00    -0.550 OA
ENDBRANCH   7   8
ENDBRANCH   6   7
ENDBRANCH   5   6
ENDBRANCH   4   5
ENDBRANCH   3   4
ENDBRANCH   2   3
ENDBRANCH   1   2
BRANCH   1  11
ATOM     11  C   UNL     1      12.647  13.776   6.710  1.00  0.00     0.000 C 
BRANCH  11  12
ATOM     12  C   UNL     1      11.156  13.401   6.716  1.00  0.00    -0.000 C 
BRANCH  12  13
ATOM     13  C   UNL     1      10.286  14.396   5.927  1.00  0.00    -0.000 C 
BRANCH  13  14
ATOM     14  C   UNL     1       8.954  13.829   5.398  1.00  0.00    -0.000 C 
BRANCH  14  15
ATOM     15  C   UNL     1       8.993  13.301   3.951  1.00  0.00    -0.000 C 
BRANCH  15  16
ATOM     16  C   UNL     1       8.725  11.793   3.803  1.00  0.00    -0.000 C 
BRANCH  16  17
ATOM     17  C   UNL     1       8.700  11.058   5.150  1.00  0.00    -0.003 C 
ATOM     18  C   UNL     1       9.893  10.114   5.283  1.00  0.00     0.004 C 
ENDBRANCH  16  17
ENDBRANCH  15  16
ENDBRANCH  14  15
ENDBRANCH  13  14
ENDBRANCH  12  13
ENDBRANCH  11  12
ENDBRANCH   1  11
TORSDOF 14
ENDMDL
MODEL 2
REMARK VINA RESULT:    -4.626      1.071      2.021
REMARK INTER + INTRA:         -10.635
REMARK INTER:                  -8.443
REMARK INTRA:                  -2.192
REMARK UNBOUND:                -2.222
REMARK SMILES CCCCCCCCCCCCCCCC(=O)[O-]
REMARK SMILES IDX 9 1 10 2 11 3 12 4 13 5 14 6 15 7 16 8 17 9 18 10 8 11 7 12
REMARK SMILES IDX 6 13 5 14 4 15 3 16 2 17 1 18
REMARK H PARENT
REMARK Flexibility Score: inf
ROOT
ATOM      1  C   UNL     1      11.610  13.789   6.277  1.00  0.00     0.000 C 
ENDROOT
BRANCH   1   2
ATOM      2  C   UNL     1      12.976  13.994   5.591  1.00  0.00     0.000 C 
BRANCH   2   3
ATOM      3  C   UNL     1      13.707  12.698   5.190  1.00  0.00     0.000 C 
BRANCH   3   4
ATOM      4  C   UNL     1      13.393  12.190   3.769  1.00  0.00     0.000 C 
BRANCH   4   5
ATOM      5  C   UNL     1      13.099  13.292   2.732  1.00  0.00     0.000 C 
BRANCH   5   6
ATOM      6  C   UNL     1      14.327  13.794   1.951  1.00  0.00     0.006 C 
BRANCH   6   7
ATOM      7  C   UNL     1      15.629  13.107   2.382  1.00  0.00     0.053 C 
BRANCH   7   8
ATOM      8  C   UNL     1      16.506  14.068   3.121  1.00  0.00     0.041 C 
ATOM      9  O   UNL     1      16.151  15.268   3.265  1.00  0.00    -0.550 OA
ATOM     10  O   UNL     1      17.692  13.628   3.694  1.00  0.00    -0.550 OA
ENDBRANCH   7   8
ENDBRANCH   6   7
ENDBRANCH   5   6
ENDBRANCH   4   5
ENDBRANCH   3   4
ENDBRANCH   2   3
ENDBRANCH   1   2
BRANCH   1  11
ATOM     11  C   UNL     1      10.595  14.929   6.072  1.00  0.00     0.000 C 
BRANCH  11  12
ATOM     12  C   UNL     1       9.326  14.473   5.334  1.00  0.00    -0.000 C 
BRANCH  12  13
ATOM     13  C   UNL     1       9.627  13.823   3.971  1.00  0.00    -0.000 C 
BRANCH  13  14
ATOM     14  C   UNL     1       9.010  12.427   3.758  1.00  0.00    -0.000 C 
BRANCH  14  15
ATOM     15  C   UNL     1      10.000  11.250   3.852  1.00  0.00    -0.000 C 
BRANCH  15  16
ATOM     16  C   UNL     1      10.045  10.547   5.221  1.00  0.00    -0.000 C 
BRANCH  16  17
ATOM     17  C   UNL     1       8.836  10.887   6.104  1.00  0.00    -0.003 C 
ATOM     18  C   UNL     1       9.278  11.291   7.508  1.00  0.00     0.004 C 
ENDBRANCH  16  17
ENDBRANCH  15  16
ENDBRANCH  14  15
ENDBRANCH  13  14
ENDBRANCH  12  13
ENDBRANCH  11  12
ENDBRANCH   1  11
TORSDOF 14
ENDMDL
MODEL 3
REMARK VINA RESULT:    -4.599      1.523      2.438
REMARK INTER + INTRA:         -10.585
REMARK INTER:                  -8.495
REMARK INTRA:                  -2.090
REMARK UNBOUND:                -2.222
REMARK SMILES CCCCCCCCCCCCCCCC(=O)[O-]
REMARK SMILES IDX 9 1 10 2 11 3 12 4 13 5 14 6 15 7 16 8 17 9 18 10 8 11 7 12
REMARK SMILES IDX 6 13 5 14 4 15 3 16 2 17 1 18
REMARK H PARENT
REMARK Flexibility Score: inf
ROOT
ATOM      1  C   UNL     1      12.830  15.232   4.858  1.00  0.00     0.000 C 
ENDROOT
BRANCH   1   2
ATOM      2  C   UNL     1      12.442  16.007   3.583  1.00  0.00     0.000 C 
BRANCH   2   3
ATOM      3  C   UNL     1      11.544  15.234   2.597  1.00  0.00     0.000 C 
BRANCH   3   4
ATOM      4  C   UNL     1      12.219  14.853   1.265  1.00  0.00     0.000 C 
BRANCH   4   5
ATOM      5  C   UNL     1      13.231  13.692   1.355  1.00  0.00     0.000 C 
BRANCH   5   6
ATOM      6  C   UNL     1      14.664  14.108   1.733  1.00  0.00     0.006 C 
BRANCH   6   7
ATOM      7  C   UNL     1      15.471  12.963   2.358  1.00  0.00     0.053 C 
BRANCH   7   8
ATOM      8  C   UNL     1      16.318  13.474   3.482  1.00  0.00     0.041 C 
ATOM      9  O   UNL     1      15.987  13.250   4.676  1.00  0.00    -0.550 OA
ATOM     10  O   UNL     1      17.498  14.153   3.210  1.00  0.00    -0.550 OA
ENDBRANCH   7   8
ENDBRANCH   6   7
ENDBRANCH   5   6
ENDBRANCH   4   5
ENDBRANCH   3   4
ENDBRANCH   2   3
ENDBRANCH   1   2
BRANCH   1  11
ATOM     11  C   UNL     1      11.920  14.038   5.203  1.00  0.00     0.000 C 
BRANCH  11  12
ATOM     12  C   UNL     1      12.699  12.723   5.373  1.00  0.00    -0.000 C 
BRANCH  12  13
ATOM     13  C   UNL     1      12.373  11.690   4.279  1.00  0.00    -0.000 C 
BRANCH  13  14
ATOM     14  C   UNL     1      10.890  11.618   3.864  1.00  0.00    -0.000 C 
BRANCH  14  15
ATOM     15  C   UNL     1      10.101  10.431   4.450  1.00  0.00    -0.000 C 
BRANCH  15  16
ATOM     16  C   UNL     1       9.988  10.422   5.985  1.00  0.00    -0.000 C 
BRANCH  16  17
ATOM     17  C   UNL     1       9.243  11.647   6.534  1.00  0.00    -0.003 C 
ATOM     18  C   UNL     1       7.855  11.772   5.908  1.00  0.00     0.004 C 
ENDBRANCH  16  17
ENDBRANCH  15  16
ENDBRANCH  14  15
ENDBRANCH  13  14
ENDBRANCH  12  13
ENDBRANCH  11  12
ENDBRANCH   1  11
TORSDOF 14
ENDMDL
MODEL 4
REMARK VINA RESULT:    -4.555      3.309      5.055
REMARK INTER + INTRA:         -10.505
REMARK INTER:                  -8.619
REMARK INTRA:                  -1.887
REMARK UNBOUND:                -2.222
REMARK SMILES CCCCCCCCCCCCCCCC(=O)[O-]
REMARK SMILES IDX 9 1 10 2 11 3 12 4 13 5 14 6 15 7 16 8 17 9 18 10 8 11 7 12
REMARK SMILES IDX 6 13 5 14 4 15 3 16 2 17 1 18
REMARK H PARENT
REMARK Flexibility Score: inf
ROOT
ATOM      1  C   UNL     1      10.734  11.644   3.638  1.00  0.00     0.000 C 
ENDROOT
BRANCH   1   2
ATOM      2  C   UNL     1      12.132  12.273   3.471  1.00  0.00     0.000 C 
BRANCH   2   3
ATOM      3  C   UNL     1      13.072  12.106   4.681  1.00  0.00     0.000 C 
BRANCH   3   4
ATOM      4  C   UNL     1      13.216  13.356   5.570  1.00  0.00     0.000 C 
BRANCH   4   5
ATOM      5  C   UNL     1      12.128  13.515   6.652  1.00  0.00     0.000 C 
BRANCH   5   6
ATOM      6  C   UNL     1      10.943  14.414   6.255  1.00  0.00     0.006 C 
BRANCH   6   7
ATOM      7  C   UNL     1      11.382  15.802   5.774  1.00  0.00     0.053 C 
BRANCH   7   8
ATOM      8  C   UNL     1      11.077  16.835   6.813  1.00  0.00     0.041 C 
ATOM      9  O   UNL     1      12.008  17.504   7.334  1.00  0.00    -0.550 OA
ATOM     10  O   UNL     1       9.760  17.094   7.171  1.00  0.00    -0.550 OA
ENDBRANCH   7   8
ENDBRANCH   6   7
ENDBRANCH   5   6
ENDBRANCH   4   5
ENDBRANCH   3   4
ENDBRANCH   2   3
ENDBRANCH   1   2
BRANCH   1  11
ATOM     11  C   UNL     1      10.626  10.566   4.733  1.00  0.00     0.000 C 
BRANCH  11  12
ATOM     12  C   UNL     1       9.305  10.641   5.516  1.00  0.00    -0.000 C 
BRANCH  12  13
ATOM     13  C   UNL     1       9.505  11.039   6.989  1.00  0.00    -0.000 C 
BRANCH  13  14
ATOM     14  C   UNL     1       8.216  11.407   7.750  1.00  0.00    -0.000 C 
BRANCH  14  15
ATOM     15  C   UNL     1       7.136  12.116   6.910  1.00  0.00    -0.000 C 
BRANCH  15  16
ATOM     16  C   UNL     1       7.375  13.620   6.683  1.00  0.00    -0.000 C 
BRANCH  16  17
ATOM     17  C   UNL     1       6.546  14.503   7.624  1.00  0.00    -0.003 C 
ATOM     18  C   UNL     1       7.407  15.063   8.753  1.00  0.00     0.004 C 
ENDBRANCH  16  17
ENDBRANCH  15  16
ENDBRANCH  14  15
ENDBRANCH  13  14
ENDBRANCH  12  13
ENDBRANCH  11  12
ENDBRANCH   1  11
TORSDOF 14
ENDMDL
MODEL 5
REMARK VINA RESULT:    -4.529      3.571      6.453
REMARK INTER + INTRA:         -10.459
REMARK INTER:                  -8.532
REMARK INTRA:                  -1.927
REMARK UNBOUND:                -2.222
REMARK SMILES CCCCCCCCCCCCCCCC(=O)[O-]
REMARK SMILES IDX 9 1 10 2 11 3 12 4 13 5 14 6 15 7 16 8 17 9 18 10 8 11 7 12
REMARK SMILES IDX 6 13 5 14 4 15 3 16 2 17 1 18
REMARK H PARENT
REMARK Flexibility Score: inf
ROOT
ATOM      1  C   UNL     1      12.964  12.568   5.035  1.00  0.00     0.000 C 
ENDROOT
BRANCH   1   2
ATOM      2  C   UNL     1      12.374  11.613   3.979  1.00  0.00     0.000 C 
BRANCH   2   3
ATOM      3  C   UNL     1      10.862  11.348   4.111  1.00  0.00     0.000 C 
BRANCH   3   4
ATOM      4  C   UNL     1      10.493   9.972   4.700  1.00  0.00     0.000 C 
BRANCH   4   5
ATOM      5  C   UNL     1      10.013   9.997   6.166  1.00  0.00     0.000 C 
BRANCH   5   6
ATOM      6  C   UNL     1       9.844  11.403   6.770  1.00  0.00     0.006 C 
BRANCH   6   7
ATOM      7  C   UNL     1       8.494  11.591   7.472  1.00  0.00     0.053 C 
BRANCH   7   8
ATOM      8  C   UNL     1       7.574  12.410   6.623  1.00  0.00     0.041 C 
ATOM      9  O   UNL     1       6.338  12.430   6.866  1.00  0.00    -0.550 OA
ATOM     10  O   UNL     1       8.086  13.191   5.595  1.00  0.00    -0.550 OA
ENDBRANCH   7   8
ENDBRANCH   6   7
ENDBRANCH   5   6
ENDBRANCH   4   5
ENDBRANCH   3   4
ENDBRANCH   2   3
ENDBRANCH   1   2
BRANCH   1  11
ATOM     11  C   UNL     1      14.493  12.742   4.982  1.00  0.00     0.000 C 
BRANCH  11  12
ATOM     12  C   UNL     1      14.935  13.865   4.030  1.00  0.00    -0.000 C 
BRANCH  12  13
ATOM     13  C   UNL     1      15.354  13.344   2.644  1.00  0.00    -0.000 C 
BRANCH  13  14
ATOM     14  C   UNL     1      14.729  14.087   1.446  1.00  0.00    -0.000 C 
BRANCH  14  15
ATOM     15  C   UNL     1      13.283  13.678   1.101  1.00  0.00    -0.000 C 
BRANCH  15  16
ATOM     16  C   UNL     1      12.259  14.827   1.135  1.00  0.00    -0.000 C 
BRANCH  16  17
ATOM     17  C   UNL     1      11.369  14.794   2.385  1.00  0.00    -0.003 C 
ATOM     18  C   UNL     1      11.835  15.818   3.418  1.00  0.00     0.004 C 
ENDBRANCH  16  17
ENDBRANCH  15  16
ENDBRANCH  14  15
ENDBRANCH  13  14
ENDBRANCH  12  13
ENDBRANCH  11  12
ENDBRANCH   1  11
TORSDOF 14
ENDMDL
MODEL 6
REMARK VINA RESULT:    -4.514      1.431      2.776
REMARK INTER + INTRA:         -10.431
REMARK INTER:                  -8.289
REMARK INTRA:                  -2.142
REMARK UNBOUND:                -2.222
REMARK SMILES CCCCCCCCCCCCCCCC(=O)[O-]
REMARK SMILES IDX 9 1 10 2 11 3 12 4 13 5 14 6 15 7 16 8 17 9 18 10 8 11 7 12
REMARK SMILES IDX 6 13 5 14 4 15 3 16 2 17 1 18
REMARK H PARENT
REMARK Flexibility Score: inf
ROOT
ATOM      1  C   UNL     1      12.583  12.837   5.220  1.00  0.00     0.000 C 
ENDROOT
BRANCH   1   2
ATOM      2  C   UNL     1      11.871  14.134   4.784  1.00  0.00     0.000 C 
BRANCH   2   3
ATOM      3  C   UNL     1      12.735  15.108   3.961  1.00  0.00     0.000 C 
BRANCH   3   4
ATOM      4  C   UNL     1      12.488  15.068   2.440  1.00  0.00     0.000 C 
BRANCH   4   5
ATOM      5  C   UNL     1      13.148  13.885   1.702  1.00  0.00     0.000 C 
BRANCH   5   6
ATOM      6  C   UNL     1      14.670  14.009   1.508  1.00  0.00     0.006 C 
BRANCH   6   7
ATOM      7  C   UNL     1      15.470  13.183   2.523  1.00  0.00     0.053 C 
BRANCH   7   8
ATOM      8  C   UNL     1      16.473  14.045   3.223  1.00  0.00     0.041 C 
ATOM      9  O   UNL     1      17.570  13.558   3.604  1.00  0.00    -0.550 OA
ATOM     10  O   UNL     1      16.219  15.397   3.409  1.00  0.00    -0.550 OA
ENDBRANCH   7   8
ENDBRANCH   6   7
ENDBRANCH   5   6
ENDBRANCH   4   5
ENDBRANCH   3   4
ENDBRANCH   2   3
ENDBRANCH   1   2
BRANCH   1  11
ATOM     11  C   UNL     1      12.242  11.589   4.385  1.00  0.00     0.000 C 
BRANCH  11  12
ATOM     12  C   UNL     1      10.937  11.741   3.587  1.00  0.00    -0.000 C 
BRANCH  12  13
ATOM     13  C   UNL     1       9.774  10.927   4.184  1.00  0.00    -0.000 C 
BRANCH  13  14
ATOM     14  C   UNL     1      10.167   9.949   5.309  1.00  0.00    -0.000 C 
BRANCH  14  15
ATOM     15  C   UNL     1       9.734  10.370   6.727  1.00  0.00    -0.000 C 
BRANCH  15  16
ATOM     16  C   UNL     1       8.848  11.628   6.788  1.00  0.00    -0.000 C 
BRANCH  16  17
ATOM     17  C   UNL     1       9.552  12.820   7.449  1.00  0.00    -0.003 C 
ATOM     18  C   UNL     1       8.891  14.138   7.053  1.00  0.00     0.004 C 
ENDBRANCH  16  17
ENDBRANCH  15  16
ENDBRANCH  14  15
ENDBRANCH  13  14
ENDBRANCH  12  13
ENDBRANCH  11  12
ENDBRANCH   1  11
TORSDOF 14
ENDMDL
MODEL 7
REMARK VINA RESULT:    -4.489      1.102      2.872
REMARK INTER + INTRA:         -10.386
REMARK INTER:                  -8.223
REMARK INTRA:                  -2.163
REMARK UNBOUND:                -2.222
REMARK SMILES CCCCCCCCCCCCCCCC(=O)[O-]
REMARK SMILES IDX 9 1 10 2 11 3 12 4 13 5 14 6 15 7 16 8 17 9 18 10 8 11 7 12
REMARK SMILES IDX 6 13 5 14 4 15 3 16 2 17 1 18
REMARK H PARENT
REMARK Flexibility Score: inf
ROOT
ATOM      1  C   UNL     1      11.198  10.779   4.604  1.00  0.00     0.000 C 
ENDROOT
BRANCH   1   2
ATOM      2  C   UNL     1      12.279  11.731   4.053  1.00  0.00     0.000 C 
BRANCH   2   3
ATOM      3  C   UNL     1      11.863  12.542   2.811  1.00  0.00     0.000 C 
BRANCH   3   4
ATOM      4  C   UNL     1      12.546  13.917   2.675  1.00  0.00     0.000 C 
BRANCH   4   5
ATOM      5  C   UNL     1      13.456  14.075   1.441  1.00  0.00     0.000 C 
BRANCH   5   6
ATOM      6  C   UNL     1      14.936  14.361   1.757  1.00  0.00     0.006 C 
BRANCH   6   7
ATOM      7  C   UNL     1      15.672  13.140   2.321  1.00  0.00     0.053 C 
BRANCH   7   8
ATOM      8  C   UNL     1      16.234  13.448   3.673  1.00  0.00     0.041 C 
ATOM      9  O   UNL     1      15.470  13.546   4.669  1.00  0.00    -0.550 OA
ATOM     10  O   UNL     1      17.607  13.576   3.843  1.00  0.00    -0.550 OA
ENDBRANCH   7   8
ENDBRANCH   6   7
ENDBRANCH   5   6
ENDBRANCH   4   5
ENDBRANCH   3   4
ENDBRANCH   2   3
ENDBRANCH   1   2
BRANCH   1  11
ATOM     11  C   UNL     1       9.775  11.023   4.070  1.00  0.00     0.000 C 
BRANCH  11  12
ATOM     12  C   UNL     1       8.766  11.344   5.185  1.00  0.00    -0.000 C 
BRANCH  12  13
ATOM     13  C   UNL     1       8.054  12.693   4.976  1.00  0.00    -0.000 C 
BRANCH  13  14
ATOM     14  C   UNL     1       8.987  13.895   4.725  1.00  0.00    -0.000 C 
BRANCH  14  15
ATOM     15  C   UNL     1       9.779  14.380   5.955  1.00  0.00    -0.000 C 
BRANCH  15  16
ATOM     16  C   UNL     1      10.845  15.450   5.660  1.00  0.00    -0.000 C 
BRANCH  16  17
ATOM     17  C   UNL     1      12.250  15.031   6.112  1.00  0.00    -0.003 C 
ATOM     18  C   UNL     1      12.204  13.736   6.921  1.00  0.00     0.004 C 
ENDBRANCH  16  17
ENDBRANCH  15  16
ENDBRANCH  14  15
ENDBRANCH  13  14
ENDBRANCH  12  13
ENDBRANCH  11  12
ENDBRANCH   1  11
TORSDOF 14
ENDMDL
MODEL 8
REMARK VINA RESULT:    -4.485      4.095      6.846
REMARK INTER + INTRA:         -10.378
REMARK INTER:                  -8.229
REMARK INTRA:                  -2.149
REMARK UNBOUND:                -2.222
REMARK SMILES CCCCCCCCCCCCCCCC(=O)[O-]
REMARK SMILES IDX 9 1 10 2 11 3 12 4 13 5 14 6 15 7 16 8 17 9 18 10 8 11 7 12
REMARK SMILES IDX 6 13 5 14 4 15 3 16 2 17 1 18
REMARK H PARENT
REMARK Flexibility Score: inf
ROOT
ATOM      1  C   UNL     1      10.405  11.260   3.712  1.00  0.00     0.000 C 
ENDROOT
BRANCH   1   2
ATOM      2  C   UNL     1      10.438  10.294   4.913  1.00  0.00     0.000 C 
BRANCH   2   3
ATOM      3  C   UNL     1       9.394  10.579   6.010  1.00  0.00     0.000 C 
BRANCH   3   4
ATOM      4  C   UNL     1       8.217  11.471   5.569  1.00  0.00     0.000 C 
BRANCH   4   5
ATOM      5  C   UNL     1       7.422  12.120   6.721  1.00  0.00     0.000 C 
BRANCH   5   6
ATOM      6  C   UNL     1       7.217  13.640   6.593  1.00  0.00     0.006 C 
BRANCH   6   7
ATOM      7  C   UNL     1       6.438  14.238   7.770  1.00  0.00     0.053 C 
BRANCH   7   8
ATOM      8  C   UNL     1       7.378  14.705   8.836  1.00  0.00     0.041 C 
ATOM      9  O   UNL     1       7.915  15.841   8.754  1.00  0.00    -0.550 OA
ATOM     10  O   UNL     1       7.624  13.906   9.945  1.00  0.00    -0.550 OA
ENDBRANCH   7   8
ENDBRANCH   6   7
ENDBRANCH   5   6
ENDBRANCH   4   5
ENDBRANCH   3   4
ENDBRANCH   2   3
ENDBRANCH   1   2
BRANCH   1  11
ATOM     11  C   UNL     1      11.720  12.012   3.436  1.00  0.00     0.000 C 
BRANCH  11  12
ATOM     12  C   UNL     1      12.878  11.537   4.329  1.00  0.00    -0.000 C 
BRANCH  12  13
ATOM     13  C   UNL     1      13.880  12.659   4.656  1.00  0.00    -0.000 C 
BRANCH  13  14
ATOM     14  C   UNL     1      13.274  13.901   5.341  1.00  0.00    -0.000 C 
BRANCH  14  15
ATOM     15  C   UNL     1      12.660  13.650   6.732  1.00  0.00    -0.000 C 
BRANCH  15  16
ATOM     16  C   UNL     1      11.121  13.659   6.773  1.00  0.00    -0.000 C 
BRANCH  16  17
ATOM     17  C   UNL     1      10.505  14.626   5.753  1.00  0.00    -0.003 C 
ATOM     18  C   UNL     1      10.382  16.033   6.333  1.00  0.00     0.004 C 
ENDBRANCH  16  17
ENDBRANCH  15  16
ENDBRANCH  14  15
ENDBRANCH  13  14
ENDBRANCH  12  13
ENDBRANCH  11  12
ENDBRANCH   1  11
TORSDOF 14
ENDMDL
MODEL 9
REMARK VINA RESULT:    -4.471      3.898      6.677
REMARK INTER + INTRA:         -10.353
REMARK INTER:                  -7.764
REMARK INTRA:                  -2.589
REMARK UNBOUND:                -2.222
REMARK SMILES CCCCCCCCCCCCCCCC(=O)[O-]
REMARK SMILES IDX 9 1 10 2 11 3 12 4 13 5 14 6 15 7 16 8 17 9 18 10 8 11 7 12
REMARK SMILES IDX 6 13 5 14 4 15 3 16 2 17 1 18
REMARK H PARENT
REMARK Flexibility Score: inf
ROOT
ATOM      1  C   UNL     1       9.108  12.331   3.638  1.00  0.00     0.000 C 
ENDROOT
BRANCH   1   2
ATOM      2  C   UNL     1       8.478  11.349   4.645  1.00  0.00     0.000 C 
BRANCH   2   3
ATOM      3  C   UNL     1       9.484  10.557   5.502  1.00  0.00     0.000 C 
BRANCH   3   4
ATOM      4  C   UNL     1       9.409  10.837   7.016  1.00  0.00     0.000 C 
BRANCH   4   5
ATOM      5  C   UNL     1       9.175  12.314   7.396  1.00  0.00     0.000 C 
BRANCH   5   6
ATOM      6  C   UNL     1       7.818  12.607   8.061  1.00  0.00     0.006 C 
BRANCH   6   7
ATOM      7  C   UNL     1       6.910  13.492   7.199  1.00  0.00     0.053 C 
BRANCH   7   8
ATOM      8  C   UNL     1       7.212  14.938   7.438  1.00  0.00     0.041 C 
ATOM      9  O   UNL     1       7.324  15.376   8.613  1.00  0.00    -0.550 OA
ATOM     10  O   UNL     1       7.421  15.792   6.363  1.00  0.00    -0.550 OA
ENDBRANCH   7   8
ENDBRANCH   6   7
ENDBRANCH   5   6
ENDBRANCH   4   5
ENDBRANCH   3   4
ENDBRANCH   2   3
ENDBRANCH   1   2
BRANCH   1  11
ATOM     11  C   UNL     1       8.829  13.821   3.912  1.00  0.00     0.000 C 
BRANCH  11  12
ATOM     12  C   UNL     1      10.108  14.673   3.939  1.00  0.00    -0.000 C 
BRANCH  12  13
ATOM     13  C   UNL     1      10.754  14.736   5.335  1.00  0.00    -0.000 C 
BRANCH  13  14
ATOM     14  C   UNL     1      12.235  14.312   5.393  1.00  0.00    -0.000 C 
BRANCH  14  15
ATOM     15  C   UNL     1      12.480  12.796   5.525  1.00  0.00    -0.000 C 
BRANCH  15  16
ATOM     16  C   UNL     1      12.719  12.059   4.195  1.00  0.00    -0.000 C 
BRANCH  16  17
ATOM     17  C   UNL     1      13.646  12.831   3.247  1.00  0.00    -0.003 C 
ATOM     18  C   UNL     1      12.923  13.207   1.956  1.00  0.00     0.004 C 
ENDBRANCH  16  17
ENDBRANCH  15  16
ENDBRANCH  14  15
ENDBRANCH  13  14
ENDBRANCH  12  13
ENDBRANCH  11  12
ENDBRANCH   1  11
TORSDOF 14
ENDMDL
