MODEL 1
REMARK VINA RESULT:    -3.473      0.000      0.000
REMARK INTER + INTRA:         -15.237
REMARK INTER:                  -9.158
REMARK INTRA:                  -6.078
REMARK UNBOUND:                -6.078
REMARK SMILES CCCCCCCCCCCCCCCCCCCCCCCCCCCCCC(=O)[O-]
REMARK SMILES IDX 16 1 17 2 18 3 19 4 20 5 21 6 22 7 23 8 24 9 25 10 26 11
REMARK SMILES IDX 27 12 28 13 29 14 30 15 31 16 32 17 15 18 14 19 13 20 12 21
REMARK SMILES IDX 11 22 10 23 9 24 8 25 7 26 6 27 5 28 4 29 3 30 2 31 1 32
REMARK H PARENT
REMARK Flexibility Score: inf
ROOT
ATOM      1  C   UNL     1     130.314 143.301 121.787  1.00  0.00     0.000 C 
ENDROOT
BRANCH   1   2
ATOM      2  C   UNL     1     131.235 142.871 120.631  1.00  0.00     0.000 C 
BRANCH   2   3
ATOM      3  C   UNL     1     131.588 144.039 119.696  1.00  0.00     0.000 C 
BRANCH   3   4
ATOM      4  C   UNL     1     131.386 145.388 120.401  1.00  0.00     0.000 C 
BRANCH   4   5
ATOM      5  C   UNL     1     132.541 146.369 120.150  1.00  0.00     0.000 C 
BRANCH   5   6
ATOM      6  C   UNL     1     133.682 145.741 119.327  1.00  0.00     0.000 C 
BRANCH   6   7
ATOM      7  C   UNL     1     134.823 146.733 119.047  1.00  0.00     0.000 C 
BRANCH   7   8
ATOM      8  C   UNL     1     136.142 146.326 119.721  1.00  0.00     0.000 C 
BRANCH   8   9
ATOM      9  C   UNL     1     136.162 146.765 121.190  1.00  0.00     0.000 C 
BRANCH   9  10
ATOM     10  C   UNL     1     136.288 145.555 122.128  1.00  0.00     0.000 C 
BRANCH  10  11
ATOM     11  C   UNL     1     134.949 145.195 122.806  1.00  0.00     0.000 C 
BRANCH  11  12
ATOM     12  C   UNL     1     134.391 143.820 122.389  1.00  0.00     0.000 C 
BRANCH  12  13
ATOM     13  C   UNL     1     135.397 142.903 121.674  1.00  0.00     0.006 C 
BRANCH  13  14
ATOM     14  C   UNL     1     134.980 142.573 120.235  1.00  0.00     0.053 C 
BRANCH  14  15
ATOM     15  C   UNL     1     136.171 142.542 119.327  1.00  0.00     0.041 C 
ATOM     16  O   UNL     1     136.078 142.039 118.176  1.00  0.00    -0.550 OA
ATOM     17  O   UNL     1     137.374 143.104 119.737  1.00  0.00    -0.550 OA
ENDBRANCH  14  15
ENDBRANCH  13  14
ENDBRANCH  12  13
ENDBRANCH  11  12
ENDBRANCH  10  11
ENDBRANCH   9  10
ENDBRANCH   8   9
ENDBRANCH   7   8
ENDBRANCH   6   7
ENDBRANCH   5   6
ENDBRANCH   4   5
ENDBRANCH   3   4
ENDBRANCH   2   3
ENDBRANCH   1   2
BRANCH   1  18
ATOM     18  C   UNL     1     129.014 142.481 121.881  1.00  0.00     0.000 C 
BRANCH  18  19
ATOM     19  C   UNL     1     128.385 142.228 120.499  1.00  0.00     0.000 C 
BRANCH  19  20
ATOM     20  C   UNL     1     127.314 143.269 120.134  1.00  0.00     0.000 C 
BRANCH  20  21
ATOM     21  C   UNL     1     127.854 144.379 119.215  1.00  0.00     0.000 C 
BRANCH  21  22
ATOM     22  C   UNL     1     127.694 145.782 119.821  1.00  0.00     0.000 C 
BRANCH  22  23
ATOM     23  C   UNL     1     127.218 145.746 121.285  1.00  0.00     0.000 C 
BRANCH  23  24
ATOM     24  C   UNL     1     128.256 146.347 122.256  1.00  0.00    -0.000 C 
BRANCH  24  25
ATOM     25  C   UNL     1     127.838 146.278 123.738  1.00  0.00    -0.000 C 
BRANCH  25  26
ATOM     26  C   UNL     1     128.000 144.901 124.403  1.00  0.00    -0.000 C 
BRANCH  26  27
ATOM     27  C   UNL     1     127.575 144.897 125.882  1.00  0.00    -0.000 C 
BRANCH  27  28
ATOM     28  C   UNL     1     128.751 144.652 126.845  1.00  0.00    -0.000 C 
BRANCH  28  29
ATOM     29  C   UNL     1     129.687 145.856 127.063  1.00  0.00    -0.000 C 
BRANCH  29  30
ATOM     30  C   UNL     1     131.091 145.641 126.472  1.00  0.00    -0.000 C 
BRANCH  30  31
ATOM     31  C   UNL     1     131.453 146.699 125.417  1.00  0.00    -0.003 C 
ATOM     32  C   UNL     1     131.552 146.121 124.005  1.00  0.00     0.004 C 
ENDBRANCH  30  31
ENDBRANCH  29  30
ENDBRANCH  28  29
ENDBRANCH  27  28
ENDBRANCH  26  27
ENDBRANCH  25  26
ENDBRANCH  24  25
ENDBRANCH  23  24
ENDBRANCH  22  23
ENDBRANCH  21  22
ENDBRANCH  20  21
ENDBRANCH  19  20
ENDBRANCH  18  19
ENDBRANCH   1  18
TORSDOF 28
ENDMDL
MODEL 2
REMARK VINA RESULT:    -3.455      2.288      4.123
REMARK INTER + INTRA:         -15.188
REMARK INTER:                  -9.673
REMARK INTRA:                  -5.515
REMARK UNBOUND:                -6.078
REMARK SMILES CCCCCCCCCCCCCCCCCCCCCCCCCCCCCC(=O)[O-]
REMARK SMILES IDX 16 1 17 2 18 3 19 4 20 5 21 6 22 7 23 8 24 9 25 10 26 11
REMARK SMILES IDX 27 12 28 13 29 14 30 15 31 16 32 17 15 18 14 19 13 20 12 21
REMARK SMILES IDX 11 22 10 23 9 24 8 25 7 26 6 27 5 28 4 29 3 30 2 31 1 32
REMARK H PARENT
REMARK Flexibility Score: inf
ROOT
ATOM      1  C   UNL     1     133.385 143.824 119.457  1.00  0.00     0.000 C 
ENDROOT
BRANCH   1   2
ATOM      2  C   UNL     1     134.514 143.731 118.414  1.00  0.00     0.000 C 
BRANCH   2   3
ATOM      3  C   UNL     1     135.034 145.114 117.990  1.00  0.00     0.000 C 
BRANCH   3   4
ATOM      4  C   UNL     1     134.573 146.201 118.972  1.00  0.00     0.000 C 
BRANCH   4   5
ATOM      5  C   UNL     1     135.741 146.858 119.722  1.00  0.00     0.000 C 
BRANCH   5   6
ATOM      6  C   UNL     1     135.759 146.500 121.220  1.00  0.00     0.000 C 
BRANCH   6   7
ATOM      7  C   UNL     1     134.346 146.368 121.812  1.00  0.00     0.000 C 
BRANCH   7   8
ATOM      8  C   UNL     1     134.212 145.174 122.769  1.00  0.00     0.000 C 
BRANCH   8   9
ATOM      9  C   UNL     1     132.751 144.976 123.192  1.00  0.00     0.000 C 
BRANCH   9  10
ATOM     10  C   UNL     1     132.304 143.522 122.975  1.00  0.00     0.000 C 
BRANCH  10  11
ATOM     11  C   UNL     1     131.156 143.113 123.924  1.00  0.00     0.000 C 
BRANCH  11  12
ATOM     12  C   UNL     1     130.022 142.335 123.228  1.00  0.00     0.000 C 
BRANCH  12  13
ATOM     13  C   UNL     1     130.490 141.306 122.185  1.00  0.00     0.006 C 
BRANCH  13  14
ATOM     14  C   UNL     1     129.401 140.967 121.158  1.00  0.00     0.053 C 
BRANCH  14  15
ATOM     15  C   UNL     1     129.789 139.773 120.342  1.00  0.00     0.041 C 
ATOM     16  O   UNL     1     128.973 138.828 120.172  1.00  0.00    -0.550 OA
ATOM     17  O   UNL     1     131.038 139.719 119.736  1.00  0.00    -0.550 OA
ENDBRANCH  14  15
ENDBRANCH  13  14
ENDBRANCH  12  13
ENDBRANCH  11  12
ENDBRANCH  10  11
ENDBRANCH   9  10
ENDBRANCH   8   9
ENDBRANCH   7   8
ENDBRANCH   6   7
ENDBRANCH   5   6
ENDBRANCH   4   5
ENDBRANCH   3   4
ENDBRANCH   2   3
ENDBRANCH   1   2
BRANCH   1  18
ATOM     18  C   UNL     1     132.125 143.023 119.078  1.00  0.00     0.000 C 
BRANCH  18  19
ATOM     19  C   UNL     1     130.832 143.728 119.524  1.00  0.00     0.000 C 
BRANCH  19  20
ATOM     20  C   UNL     1     131.065 145.191 119.936  1.00  0.00     0.000 C 
BRANCH  20  21
ATOM     21  C   UNL     1     129.824 146.075 119.718  1.00  0.00     0.000 C 
BRANCH  21  22
ATOM     22  C   UNL     1     128.701 145.345 118.964  1.00  0.00     0.000 C 
BRANCH  22  23
ATOM     23  C   UNL     1     127.374 145.329 119.745  1.00  0.00     0.000 C 
BRANCH  23  24
ATOM     24  C   UNL     1     127.369 144.275 120.873  1.00  0.00    -0.000 C 
BRANCH  24  25
ATOM     25  C   UNL     1     127.622 144.861 122.276  1.00  0.00    -0.000 C 
BRANCH  25  26
ATOM     26  C   UNL     1     127.188 146.325 122.463  1.00  0.00    -0.000 C 
BRANCH  26  27
ATOM     27  C   UNL     1     128.084 147.092 123.451  1.00  0.00    -0.000 C 
BRANCH  27  28
ATOM     28  C   UNL     1     129.424 146.384 123.723  1.00  0.00    -0.000 C 
BRANCH  28  29
ATOM     29  C   UNL     1     129.872 146.364 125.197  1.00  0.00    -0.000 C 
BRANCH  29  30
ATOM     30  C   UNL     1     129.112 145.328 126.043  1.00  0.00    -0.000 C 
BRANCH  30  31
ATOM     31  C   UNL     1     129.236 145.594 127.551  1.00  0.00    -0.003 C 
ATOM     32  C   UNL     1     130.382 146.545 127.894  1.00  0.00     0.004 C 
ENDBRANCH  30  31
ENDBRANCH  29  30
ENDBRANCH  28  29
ENDBRANCH  27  28
ENDBRANCH  26  27
ENDBRANCH  25  26
ENDBRANCH  24  25
ENDBRANCH  23  24
ENDBRANCH  22  23
ENDBRANCH  21  22
ENDBRANCH  20  21
ENDBRANCH  19  20
ENDBRANCH  18  19
ENDBRANCH   1  18
TORSDOF 28
ENDMDL
MODEL 3
REMARK VINA RESULT:    -3.422      2.497      4.710
REMARK INTER + INTRA:         -15.103
REMARK INTER:                  -8.912
REMARK INTRA:                  -6.191
REMARK UNBOUND:                -6.078
REMARK SMILES CCCCCCCCCCCCCCCCCCCCCCCCCCCCCC(=O)[O-]
REMARK SMILES IDX 16 1 17 2 18 3 19 4 20 5 21 6 22 7 23 8 24 9 25 10 26 11
REMARK SMILES IDX 27 12 28 13 29 14 30 15 31 16 32 17 15 18 14 19 13 20 12 21
REMARK SMILES IDX 11 22 10 23 9 24 8 25 7 26 6 27 5 28 4 29 3 30 2 31 1 32
REMARK H PARENT
REMARK Flexibility Score: inf
ROOT
ATOM      1  C   UNL     1     130.532 140.923 122.308  1.00  0.00     0.000 C 
ENDROOT
BRANCH   1   2
ATOM      2  C   UNL     1     129.418 139.993 121.795  1.00  0.00     0.000 C 
BRANCH   2   3
ATOM      3  C   UNL     1     128.760 140.520 120.510  1.00  0.00     0.000 C 
BRANCH   3   4
ATOM      4  C   UNL     1     127.259 140.771 120.723  1.00  0.00     0.000 C 
BRANCH   4   5
ATOM      5  C   UNL     1     126.882 142.255 120.610  1.00  0.00     0.000 C 
BRANCH   5   6
ATOM      6  C   UNL     1     128.056 143.129 120.130  1.00  0.00     0.000 C 
BRANCH   6   7
ATOM      7  C   UNL     1     127.648 144.107 119.016  1.00  0.00     0.000 C 
BRANCH   7   8
ATOM      8  C   UNL     1     127.480 145.547 119.522  1.00  0.00     0.000 C 
BRANCH   8   9
ATOM      9  C   UNL     1     128.691 145.975 120.360  1.00  0.00     0.000 C 
BRANCH   9  10
ATOM     10  C   UNL     1     129.919 146.224 119.471  1.00  0.00     0.000 C 
BRANCH  10  11
ATOM     11  C   UNL     1     131.247 146.001 120.228  1.00  0.00     0.000 C 
BRANCH  11  12
ATOM     12  C   UNL     1     131.444 144.557 120.726  1.00  0.00     0.000 C 
BRANCH  12  13
ATOM     13  C   UNL     1     131.422 143.483 119.624  1.00  0.00     0.006 C 
BRANCH  13  14
ATOM     14  C   UNL     1     132.829 143.071 119.171  1.00  0.00     0.053 C 
BRANCH  14  15
ATOM     15  C   UNL     1     133.302 141.867 119.925  1.00  0.00     0.041 C 
ATOM     16  O   UNL     1     133.248 140.725 119.396  1.00  0.00    -0.550 OA
ATOM     17  O   UNL     1     133.839 142.010 121.199  1.00  0.00    -0.550 OA
ENDBRANCH  14  15
ENDBRANCH  13  14
ENDBRANCH  12  13
ENDBRANCH  11  12
ENDBRANCH  10  11
ENDBRANCH   9  10
ENDBRANCH   8   9
ENDBRANCH   7   8
ENDBRANCH   6   7
ENDBRANCH   5   6
ENDBRANCH   4   5
ENDBRANCH   3   4
ENDBRANCH   2   3
ENDBRANCH   1   2
BRANCH   1  18
ATOM     18  C   UNL     1     130.009 142.137 123.099  1.00  0.00     0.000 C 
BRANCH  18  19
ATOM     19  C   UNL     1     128.900 141.750 124.093  1.00  0.00     0.000 C 
BRANCH  19  20
ATOM     20  C   UNL     1     128.014 142.943 124.490  1.00  0.00     0.000 C 
BRANCH  20  21
ATOM     21  C   UNL     1     128.252 144.179 123.605  1.00  0.00     0.000 C 
BRANCH  21  22
ATOM     22  C   UNL     1     127.913 145.496 124.321  1.00  0.00     0.000 C 
BRANCH  22  23
ATOM     23  C   UNL     1     128.754 146.682 123.815  1.00  0.00     0.000 C 
BRANCH  23  24
ATOM     24  C   UNL     1     130.268 146.378 123.834  1.00  0.00    -0.000 C 
BRANCH  24  25
ATOM     25  C   UNL     1     130.953 146.701 125.176  1.00  0.00    -0.000 C 
BRANCH  25  26
ATOM     26  C   UNL     1     131.936 145.633 125.684  1.00  0.00    -0.000 C 
BRANCH  26  27
ATOM     27  C   UNL     1     131.294 144.240 125.809  1.00  0.00    -0.000 C 
BRANCH  27  28
ATOM     28  C   UNL     1     130.962 143.859 127.263  1.00  0.00    -0.000 C 
BRANCH  28  29
ATOM     29  C   UNL     1     129.463 143.861 127.620  1.00  0.00    -0.000 C 
BRANCH  29  30
ATOM     30  C   UNL     1     128.884 145.279 127.775  1.00  0.00    -0.000 C 
BRANCH  30  31
ATOM     31  C   UNL     1     129.728 146.159 128.711  1.00  0.00    -0.003 C 
ATOM     32  C   UNL     1     128.942 146.662 129.922  1.00  0.00     0.004 C 
ENDBRANCH  30  31
ENDBRANCH  29  30
ENDBRANCH  28  29
ENDBRANCH  27  28
ENDBRANCH  26  27
ENDBRANCH  25  26
ENDBRANCH  24  25
ENDBRANCH  23  24
ENDBRANCH  22  23
ENDBRANCH  21  22
ENDBRANCH  20  21
ENDBRANCH  19  20
ENDBRANCH  18  19
ENDBRANCH   1  18
TORSDOF 28
ENDMDL
MODEL 4
REMARK VINA RESULT:    -3.345      2.170      4.811
REMARK INTER + INTRA:         -14.899
REMARK INTER:                  -8.937
REMARK INTRA:                  -5.962
REMARK UNBOUND:                -6.078
REMARK SMILES CCCCCCCCCCCCCCCCCCCCCCCCCCCCCC(=O)[O-]
REMARK SMILES IDX 16 1 17 2 18 3 19 4 20 5 21 6 22 7 23 8 24 9 25 10 26 11
REMARK SMILES IDX 27 12 28 13 29 14 30 15 31 16 32 17 15 18 14 19 13 20 12 21
REMARK SMILES IDX 11 22 10 23 9 24 8 25 7 26 6 27 5 28 4 29 3 30 2 31 1 32
REMARK H PARENT
REMARK Flexibility Score: inf
ROOT
ATOM      1  C   UNL     1     131.515 140.854 122.866  1.00  0.00     0.000 C 
ENDROOT
BRANCH   1   2
ATOM      2  C   UNL     1     130.902 140.785 121.456  1.00  0.00     0.000 C 
BRANCH   2   3
ATOM      3  C   UNL     1     129.790 139.729 121.352  1.00  0.00     0.000 C 
BRANCH   3   4
ATOM      4  C   UNL     1     128.491 140.347 120.814  1.00  0.00     0.000 C 
BRANCH   4   5
ATOM      5  C   UNL     1     128.631 141.844 120.500  1.00  0.00     0.000 C 
BRANCH   5   6
ATOM      6  C   UNL     1     127.271 142.566 120.449  1.00  0.00     0.000 C 
BRANCH   6   7
ATOM      7  C   UNL     1     127.350 143.920 119.725  1.00  0.00     0.000 C 
BRANCH   7   8
ATOM      8  C   UNL     1     128.742 144.202 119.140  1.00  0.00     0.000 C 
BRANCH   8   9
ATOM      9  C   UNL     1     129.124 145.675 119.328  1.00  0.00     0.000 C 
BRANCH   9  10
ATOM     10  C   UNL     1     130.585 145.814 119.784  1.00  0.00     0.000 C 
BRANCH  10  11
ATOM     11  C   UNL     1     131.304 144.450 119.877  1.00  0.00     0.000 C 
BRANCH  11  12
ATOM     12  C   UNL     1     132.029 144.220 121.217  1.00  0.00     0.000 C 
BRANCH  12  13
ATOM     13  C   UNL     1     132.856 145.416 121.719  1.00  0.00     0.006 C 
BRANCH  13  14
ATOM     14  C   UNL     1     134.345 145.296 121.369  1.00  0.00     0.053 C 
BRANCH  14  15
ATOM     15  C   UNL     1     134.765 146.392 120.439  1.00  0.00     0.041 C 
ATOM     16  O   UNL     1     135.795 147.073 120.686  1.00  0.00    -0.550 OA
ATOM     17  O   UNL     1     134.042 146.636 119.277  1.00  0.00    -0.550 OA
ENDBRANCH  14  15
ENDBRANCH  13  14
ENDBRANCH  12  13
ENDBRANCH  11  12
ENDBRANCH  10  11
ENDBRANCH   9  10
ENDBRANCH   8   9
ENDBRANCH   7   8
ENDBRANCH   6   7
ENDBRANCH   5   6
ENDBRANCH   4   5
ENDBRANCH   3   4
ENDBRANCH   2   3
ENDBRANCH   1   2
BRANCH   1  18
ATOM     18  C   UNL     1     130.470 140.962 123.992  1.00  0.00     0.000 C 
BRANCH  18  19
ATOM     19  C   UNL     1     130.008 142.411 124.221  1.00  0.00     0.000 C 
BRANCH  19  20
ATOM     20  C   UNL     1     128.483 142.532 124.375  1.00  0.00     0.000 C 
BRANCH  20  21
ATOM     21  C   UNL     1     127.944 143.896 123.908  1.00  0.00     0.000 C 
BRANCH  21  22
ATOM     22  C   UNL     1     128.921 144.632 122.977  1.00  0.00     0.000 C 
BRANCH  22  23
ATOM     23  C   UNL     1     128.695 146.155 122.964  1.00  0.00     0.000 C 
BRANCH  23  24
ATOM     24  C   UNL     1     129.307 146.851 124.199  1.00  0.00    -0.000 C 
BRANCH  24  25
ATOM     25  C   UNL     1     130.768 146.448 124.481  1.00  0.00    -0.000 C 
BRANCH  25  26
ATOM     26  C   UNL     1     130.986 145.634 125.768  1.00  0.00    -0.000 C 
BRANCH  26  27
ATOM     27  C   UNL     1     129.993 146.002 126.884  1.00  0.00    -0.000 C 
BRANCH  27  28
ATOM     28  C   UNL     1     129.237 144.783 127.442  1.00  0.00    -0.000 C 
BRANCH  28  29
ATOM     29  C   UNL     1     127.701 144.907 127.451  1.00  0.00    -0.000 C 
BRANCH  29  30
ATOM     30  C   UNL     1     127.160 145.593 128.718  1.00  0.00    -0.000 C 
BRANCH  30  31
ATOM     31  C   UNL     1     128.125 145.475 129.908  1.00  0.00    -0.003 C 
ATOM     32  C   UNL     1     127.968 144.160 130.672  1.00  0.00     0.004 C 
ENDBRANCH  30  31
ENDBRANCH  29  30
ENDBRANCH  28  29
ENDBRANCH  27  28
ENDBRANCH  26  27
ENDBRANCH  25  26
ENDBRANCH  24  25
ENDBRANCH  23  24
ENDBRANCH  22  23
ENDBRANCH  21  22
ENDBRANCH  20  21
ENDBRANCH  19  20
ENDBRANCH  18  19
ENDBRANCH   1  18
TORSDOF 28
ENDMDL
MODEL 5
REMARK VINA RESULT:    -3.333      2.787      5.477
REMARK INTER + INTRA:         -14.867
REMARK INTER:                  -8.530
REMARK INTRA:                  -6.337
REMARK UNBOUND:                -6.078
REMARK SMILES CCCCCCCCCCCCCCCCCCCCCCCCCCCCCC(=O)[O-]
REMARK SMILES IDX 16 1 17 2 18 3 19 4 20 5 21 6 22 7 23 8 24 9 25 10 26 11
REMARK SMILES IDX 27 12 28 13 29 14 30 15 31 16 32 17 15 18 14 19 13 20 12 21
REMARK SMILES IDX 11 22 10 23 9 24 8 25 7 26 6 27 5 28 4 29 3 30 2 31 1 32
REMARK H PARENT
REMARK Flexibility Score: inf
ROOT
ATOM      1  C   UNL     1     134.070 146.352 121.110  1.00  0.00     0.000 C 
ENDROOT
BRANCH   1   2
ATOM      2  C   UNL     1     135.357 145.925 120.381  1.00  0.00     0.000 C 
BRANCH   2   3
ATOM      3  C   UNL     1     135.119 145.646 118.888  1.00  0.00     0.000 C 
BRANCH   3   4
ATOM      4  C   UNL     1     135.488 144.197 118.534  1.00  0.00     0.000 C 
BRANCH   4   5
ATOM      5  C   UNL     1     134.314 143.418 117.921  1.00  0.00     0.000 C 
BRANCH   5   6
ATOM      6  C   UNL     1     133.522 142.618 118.973  1.00  0.00     0.000 C 
BRANCH   6   7
ATOM      7  C   UNL     1     132.072 143.106 119.117  1.00  0.00     0.000 C 
BRANCH   7   8
ATOM      8  C   UNL     1     131.574 143.069 120.569  1.00  0.00     0.000 C 
BRANCH   8   9
ATOM      9  C   UNL     1     132.709 142.685 121.525  1.00  0.00     0.000 C 
BRANCH   9  10
ATOM     10  C   UNL     1     132.357 143.046 122.977  1.00  0.00     0.000 C 
BRANCH  10  11
ATOM     11  C   UNL     1     133.579 142.957 123.917  1.00  0.00     0.000 C 
BRANCH  11  12
ATOM     12  C   UNL     1     134.501 144.190 123.856  1.00  0.00     0.000 C 
BRANCH  12  13
ATOM     13  C   UNL     1     134.630 144.968 125.176  1.00  0.00     0.006 C 
BRANCH  13  14
ATOM     14  C   UNL     1     133.564 144.569 126.206  1.00  0.00     0.053 C 
BRANCH  14  15
ATOM     15  C   UNL     1     132.726 145.748 126.591  1.00  0.00     0.041 C 
ATOM     16  O   UNL     1     132.037 145.719 127.646  1.00  0.00    -0.550 OA
ATOM     17  O   UNL     1     132.734 146.896 125.808  1.00  0.00    -0.550 OA
ENDBRANCH  14  15
ENDBRANCH  13  14
ENDBRANCH  12  13
ENDBRANCH  11  12
ENDBRANCH  10  11
ENDBRANCH   9  10
ENDBRANCH   8   9
ENDBRANCH   7   8
ENDBRANCH   6   7
ENDBRANCH   5   6
ENDBRANCH   4   5
ENDBRANCH   3   4
ENDBRANCH   2   3
ENDBRANCH   1   2
BRANCH   1  18
ATOM     18  C   UNL     1     132.861 146.537 120.174  1.00  0.00     0.000 C 
BRANCH  18  19
ATOM     19  C   UNL     1     131.555 146.781 120.951  1.00  0.00     0.000 C 
BRANCH  19  20
ATOM     20  C   UNL     1     131.713 146.554 122.464  1.00  0.00     0.000 C 
BRANCH  20  21
ATOM     21  C   UNL     1     130.395 146.145 123.144  1.00  0.00     0.000 C 
BRANCH  21  22
ATOM     22  C   UNL     1     129.441 145.406 122.192  1.00  0.00     0.000 C 
BRANCH  22  23
ATOM     23  C   UNL     1     128.053 146.067 122.111  1.00  0.00     0.000 C 
BRANCH  23  24
ATOM     24  C   UNL     1     127.474 146.046 120.680  1.00  0.00    -0.000 C 
BRANCH  24  25
ATOM     25  C   UNL     1     128.493 145.630 119.601  1.00  0.00    -0.000 C 
BRANCH  25  26
ATOM     26  C   UNL     1     128.114 144.380 118.790  1.00  0.00    -0.000 C 
BRANCH  26  27
ATOM     27  C   UNL     1     127.267 143.378 119.595  1.00  0.00    -0.000 C 
BRANCH  27  28
ATOM     28  C   UNL     1     128.119 142.380 120.400  1.00  0.00    -0.000 C 
BRANCH  28  29
ATOM     29  C   UNL     1     127.584 142.036 121.803  1.00  0.00    -0.000 C 
BRANCH  29  30
ATOM     30  C   UNL     1     128.697 141.914 122.858  1.00  0.00    -0.000 C 
BRANCH  30  31
ATOM     31  C   UNL     1     128.212 142.281 124.270  1.00  0.00    -0.003 C 
ATOM     32  C   UNL     1     129.295 142.952 125.114  1.00  0.00     0.004 C 
ENDBRANCH  30  31
ENDBRANCH  29  30
ENDBRANCH  28  29
ENDBRANCH  27  28
ENDBRANCH  26  27
ENDBRANCH  25  26
ENDBRANCH  24  25
ENDBRANCH  23  24
ENDBRANCH  22  23
ENDBRANCH  21  22
ENDBRANCH  20  21
ENDBRANCH  19  20
ENDBRANCH  18  19
ENDBRANCH   1  18
TORSDOF 28
ENDMDL
MODEL 6
REMARK VINA RESULT:    -3.332      1.688      5.532
REMARK INTER + INTRA:         -14.863
REMARK INTER:                  -8.222
REMARK INTRA:                  -6.642
REMARK UNBOUND:                -6.078
REMARK SMILES CCCCCCCCCCCCCCCCCCCCCCCCCCCCCC(=O)[O-]
REMARK SMILES IDX 16 1 17 2 18 3 19 4 20 5 21 6 22 7 23 8 24 9 25 10 26 11
REMARK SMILES IDX 27 12 28 13 29 14 30 15 31 16 32 17 15 18 14 19 13 20 12 21
REMARK SMILES IDX 11 22 10 23 9 24 8 25 7 26 6 27 5 28 4 29 3 30 2 31 1 32
REMARK H PARENT
REMARK Flexibility Score: inf
ROOT
ATOM      1  C   UNL     1     131.980 142.528 119.750  1.00  0.00     0.000 C 
ENDROOT
BRANCH   1   2
ATOM      2  C   UNL     1     131.274 143.091 120.997  1.00  0.00     0.000 C 
BRANCH   2   3
ATOM      3  C   UNL     1     131.636 142.316 122.274  1.00  0.00     0.000 C 
BRANCH   3   4
ATOM      4  C   UNL     1     130.758 142.760 123.454  1.00  0.00     0.000 C 
BRANCH   4   5
ATOM      5  C   UNL     1     129.883 143.977 123.120  1.00  0.00     0.000 C 
BRANCH   5   6
ATOM      6  C   UNL     1     129.149 144.535 124.353  1.00  0.00     0.000 C 
BRANCH   6   7
ATOM      7  C   UNL     1     129.086 146.071 124.359  1.00  0.00     0.000 C 
BRANCH   7   8
ATOM      8  C   UNL     1     130.461 146.720 124.581  1.00  0.00     0.000 C 
BRANCH   8   9
ATOM      9  C   UNL     1     130.935 146.513 126.024  1.00  0.00     0.000 C 
BRANCH   9  10
ATOM     10  C   UNL     1     132.370 145.966 126.063  1.00  0.00     0.000 C 
BRANCH  10  11
ATOM     11  C   UNL     1     132.921 145.661 124.653  1.00  0.00     0.000 C 
BRANCH  11  12
ATOM     12  C   UNL     1     133.838 144.425 124.598  1.00  0.00     0.000 C 
BRANCH  12  13
ATOM     13  C   UNL     1     134.635 144.268 123.292  1.00  0.00     0.006 C 
BRANCH  13  14
ATOM     14  C   UNL     1     136.151 144.207 123.526  1.00  0.00     0.053 C 
BRANCH  14  15
ATOM     15  C   UNL     1     136.879 145.056 122.531  1.00  0.00     0.041 C 
ATOM     16  O   UNL     1     137.011 146.293 122.728  1.00  0.00    -0.550 OA
ATOM     17  O   UNL     1     137.449 144.476 121.404  1.00  0.00    -0.550 OA
ENDBRANCH  14  15
ENDBRANCH  13  14
ENDBRANCH  12  13
ENDBRANCH  11  12
ENDBRANCH  10  11
ENDBRANCH   9  10
ENDBRANCH   8   9
ENDBRANCH   7   8
ENDBRANCH   6   7
ENDBRANCH   5   6
ENDBRANCH   4   5
ENDBRANCH   3   4
ENDBRANCH   2   3
ENDBRANCH   1   2
BRANCH   1  18
ATOM     18  C   UNL     1     132.837 143.566 119.003  1.00  0.00     0.000 C 
BRANCH  18  19
ATOM     19  C   UNL     1     134.144 143.887 119.749  1.00  0.00     0.000 C 
BRANCH  19  20
ATOM     20  C   UNL     1     134.513 145.378 119.685  1.00  0.00     0.000 C 
BRANCH  20  21
ATOM     21  C   UNL     1     133.278 146.295 119.650  1.00  0.00     0.000 C 
BRANCH  21  22
ATOM     22  C   UNL     1     132.686 146.547 121.046  1.00  0.00     0.000 C 
BRANCH  22  23
ATOM     23  C   UNL     1     131.151 146.665 121.027  1.00  0.00     0.000 C 
BRANCH  23  24
ATOM     24  C   UNL     1     130.568 146.534 119.604  1.00  0.00    -0.000 C 
BRANCH  24  25
ATOM     25  C   UNL     1     129.321 145.632 119.520  1.00  0.00    -0.000 C 
BRANCH  25  26
ATOM     26  C   UNL     1     128.176 146.008 120.475  1.00  0.00    -0.000 C 
BRANCH  26  27
ATOM     27  C   UNL     1     127.269 144.813 120.820  1.00  0.00    -0.000 C 
BRANCH  27  28
ATOM     28  C   UNL     1     127.683 143.517 120.101  1.00  0.00    -0.000 C 
BRANCH  28  29
ATOM     29  C   UNL     1     126.989 142.235 120.601  1.00  0.00    -0.000 C 
BRANCH  29  30
ATOM     30  C   UNL     1     127.925 141.322 121.413  1.00  0.00    -0.000 C 
BRANCH  30  31
ATOM     31  C   UNL     1     128.721 140.354 120.523  1.00  0.00    -0.003 C 
ATOM     32  C   UNL     1     127.852 139.252 119.920  1.00  0.00     0.004 C 
ENDBRANCH  30  31
ENDBRANCH  29  30
ENDBRANCH  28  29
ENDBRANCH  27  28
ENDBRANCH  26  27
ENDBRANCH  25  26
ENDBRANCH  24  25
ENDBRANCH  23  24
ENDBRANCH  22  23
ENDBRANCH  21  22
ENDBRANCH  20  21
ENDBRANCH  19  20
ENDBRANCH  18  19
ENDBRANCH   1  18
TORSDOF 28
ENDMDL
MODEL 7
REMARK VINA RESULT:    -3.298      2.557      6.361
REMARK INTER + INTRA:         -14.775
REMARK INTER:                  -8.862
REMARK INTRA:                  -5.913
REMARK UNBOUND:                -6.078
REMARK SMILES CCCCCCCCCCCCCCCCCCCCCCCCCCCCCC(=O)[O-]
REMARK SMILES IDX 16 1 17 2 18 3 19 4 20 5 21 6 22 7 23 8 24 9 25 10 26 11
REMARK SMILES IDX 27 12 28 13 29 14 30 15 31 16 32 17 15 18 14 19 13 20 12 21
REMARK SMILES IDX 11 22 10 23 9 24 8 25 7 26 6 27 5 28 4 29 3 30 2 31 1 32
REMARK H PARENT
REMARK Flexibility Score: inf
ROOT
ATOM      1  C   UNL     1     135.216 143.346 118.869  1.00  0.00     0.000 C 
ENDROOT
BRANCH   1   2
ATOM      2  C   UNL     1     134.012 142.540 119.389  1.00  0.00     0.000 C 
BRANCH   2   3
ATOM      3  C   UNL     1     132.679 143.037 118.806  1.00  0.00     0.000 C 
BRANCH   3   4
ATOM      4  C   UNL     1     131.527 142.811 119.797  1.00  0.00     0.000 C 
BRANCH   4   5
ATOM      5  C   UNL     1     131.193 144.066 120.617  1.00  0.00     0.000 C 
BRANCH   5   6
ATOM      6  C   UNL     1     131.616 145.366 119.908  1.00  0.00     0.000 C 
BRANCH   6   7
ATOM      7  C   UNL     1     130.458 146.368 119.772  1.00  0.00     0.000 C 
BRANCH   7   8
ATOM      8  C   UNL     1     129.147 145.703 119.326  1.00  0.00     0.000 C 
BRANCH   8   9
ATOM      9  C   UNL     1     128.004 146.051 120.287  1.00  0.00     0.000 C 
BRANCH   9  10
ATOM     10  C   UNL     1     127.222 144.793 120.696  1.00  0.00     0.000 C 
BRANCH  10  11
ATOM     11  C   UNL     1     127.561 143.576 119.808  1.00  0.00     0.000 C 
BRANCH  11  12
ATOM     12  C   UNL     1     127.339 142.219 120.504  1.00  0.00     0.000 C 
BRANCH  12  13
ATOM     13  C   UNL     1     128.453 141.801 121.479  1.00  0.00     0.006 C 
BRANCH  13  14
ATOM     14  C   UNL     1     128.027 140.658 122.411  1.00  0.00     0.053 C 
BRANCH  14  15
ATOM     15  C   UNL     1     129.111 140.335 123.391  1.00  0.00     0.041 C 
ATOM     16  O   UNL     1     128.918 139.476 124.291  1.00  0.00    -0.550 OA
ATOM     17  O   UNL     1     130.352 140.954 123.287  1.00  0.00    -0.550 OA
ENDBRANCH  14  15
ENDBRANCH  13  14
ENDBRANCH  12  13
ENDBRANCH  11  12
ENDBRANCH  10  11
ENDBRANCH   9  10
ENDBRANCH   8   9
ENDBRANCH   7   8
ENDBRANCH   6   7
ENDBRANCH   5   6
ENDBRANCH   4   5
ENDBRANCH   3   4
ENDBRANCH   2   3
ENDBRANCH   1   2
BRANCH   1  18
ATOM     18  C   UNL     1     134.823 144.560 118.008  1.00  0.00     0.000 C 
BRANCH  18  19
ATOM     19  C   UNL     1     135.135 145.895 118.707  1.00  0.00     0.000 C 
BRANCH  19  20
ATOM     20  C   UNL     1     135.888 145.709 120.035  1.00  0.00     0.000 C 
BRANCH  20  21
ATOM     21  C   UNL     1     135.449 146.715 121.113  1.00  0.00     0.000 C 
BRANCH  21  22
ATOM     22  C   UNL     1     134.349 146.159 122.032  1.00  0.00     0.000 C 
BRANCH  22  23
ATOM     23  C   UNL     1     134.563 144.676 122.385  1.00  0.00     0.000 C 
BRANCH  23  24
ATOM     24  C   UNL     1     134.010 144.319 123.782  1.00  0.00    -0.000 C 
BRANCH  24  25
ATOM     25  C   UNL     1     132.669 143.560 123.746  1.00  0.00    -0.000 C 
BRANCH  25  26
ATOM     26  C   UNL     1     131.506 144.250 124.478  1.00  0.00    -0.000 C 
BRANCH  26  27
ATOM     27  C   UNL     1     131.253 145.684 123.981  1.00  0.00    -0.000 C 
BRANCH  27  28
ATOM     28  C   UNL     1     129.810 145.905 123.492  1.00  0.00    -0.000 C 
BRANCH  28  29
ATOM     29  C   UNL     1     128.807 144.800 123.873  1.00  0.00    -0.000 C 
BRANCH  29  30
ATOM     30  C   UNL     1     127.710 145.289 124.835  1.00  0.00    -0.000 C 
BRANCH  30  31
ATOM     31  C   UNL     1     127.679 144.488 126.147  1.00  0.00    -0.003 C 
ATOM     32  C   UNL     1     128.643 145.034 127.199  1.00  0.00     0.004 C 
ENDBRANCH  30  31
ENDBRANCH  29  30
ENDBRANCH  28  29
ENDBRANCH  27  28
ENDBRANCH  26  27
ENDBRANCH  25  26
ENDBRANCH  24  25
ENDBRANCH  23  24
ENDBRANCH  22  23
ENDBRANCH  21  22
ENDBRANCH  20  21
ENDBRANCH  19  20
ENDBRANCH  18  19
ENDBRANCH   1  18
TORSDOF 28
ENDMDL
MODEL 8
REMARK VINA RESULT:    -3.286      1.787      3.997
REMARK INTER + INTRA:         -14.744
REMARK INTER:                  -8.817
REMARK INTRA:                  -5.927
REMARK UNBOUND:                -6.078
REMARK SMILES CCCCCCCCCCCCCCCCCCCCCCCCCCCCCC(=O)[O-]
REMARK SMILES IDX 16 1 17 2 18 3 19 4 20 5 21 6 22 7 23 8 24 9 25 10 26 11
REMARK SMILES IDX 27 12 28 13 29 14 30 15 31 16 32 17 15 18 14 19 13 20 12 21
REMARK SMILES IDX 11 22 10 23 9 24 8 25 7 26 6 27 5 28 4 29 3 30 2 31 1 32
REMARK H PARENT
REMARK Flexibility Score: inf
ROOT
ATOM      1  C   UNL     1     127.269 143.464 120.409  1.00  0.00     0.000 C 
ENDROOT
BRANCH   1   2
ATOM      2  C   UNL     1     127.574 144.122 119.052  1.00  0.00     0.000 C 
BRANCH   2   3
ATOM      3  C   UNL     1     127.999 145.592 119.197  1.00  0.00     0.000 C 
BRANCH   3   4
ATOM      4  C   UNL     1     128.889 145.790 120.433  1.00  0.00     0.000 C 
BRANCH   4   5
ATOM      5  C   UNL     1     130.227 146.466 120.101  1.00  0.00     0.000 C 
BRANCH   5   6
ATOM      6  C   UNL     1     131.405 145.474 120.089  1.00  0.00     0.000 C 
BRANCH   6   7
ATOM      7  C   UNL     1     131.019 144.094 120.645  1.00  0.00     0.000 C 
BRANCH   7   8
ATOM      8  C   UNL     1     130.984 143.005 119.563  1.00  0.00     0.000 C 
BRANCH   8   9
ATOM      9  C   UNL     1     132.022 141.914 119.853  1.00  0.00     0.000 C 
BRANCH   9  10
ATOM     10  C   UNL     1     133.452 142.454 119.697  1.00  0.00     0.000 C 
BRANCH  10  11
ATOM     11  C   UNL     1     133.697 143.074 118.304  1.00  0.00     0.000 C 
BRANCH  11  12
ATOM     12  C   UNL     1     134.890 144.048 118.259  1.00  0.00     0.000 C 
BRANCH  12  13
ATOM     13  C   UNL     1     134.883 145.132 119.351  1.00  0.00     0.006 C 
BRANCH  13  14
ATOM     14  C   UNL     1     136.001 144.939 120.384  1.00  0.00     0.053 C 
BRANCH  14  15
ATOM     15  C   UNL     1     136.630 146.250 120.740  1.00  0.00     0.041 C 
ATOM     16  O   UNL     1     136.820 147.125 119.854  1.00  0.00    -0.550 OA
ATOM     17  O   UNL     1     136.973 146.523 122.059  1.00  0.00    -0.550 OA
ENDBRANCH  14  15
ENDBRANCH  13  14
ENDBRANCH  12  13
ENDBRANCH  11  12
ENDBRANCH  10  11
ENDBRANCH   9  10
ENDBRANCH   8   9
ENDBRANCH   7   8
ENDBRANCH   6   7
ENDBRANCH   5   6
ENDBRANCH   4   5
ENDBRANCH   3   4
ENDBRANCH   2   3
ENDBRANCH   1   2
BRANCH   1  18
ATOM     18  C   UNL     1     127.662 141.976 120.478  1.00  0.00     0.000 C 
BRANCH  18  19
ATOM     19  C   UNL     1     128.329 141.611 121.816  1.00  0.00     0.000 C 
BRANCH  19  20
ATOM     20  C   UNL     1     128.311 142.772 122.824  1.00  0.00     0.000 C 
BRANCH  20  21
ATOM     21  C   UNL     1     129.563 142.800 123.720  1.00  0.00     0.000 C 
BRANCH  21  22
ATOM     22  C   UNL     1     129.238 143.133 125.184  1.00  0.00     0.000 C 
BRANCH  22  23
ATOM     23  C   UNL     1     127.790 143.621 125.375  1.00  0.00     0.000 C 
BRANCH  23  24
ATOM     24  C   UNL     1     127.711 145.140 125.638  1.00  0.00    -0.000 C 
BRANCH  24  25
ATOM     25  C   UNL     1     127.651 145.993 124.356  1.00  0.00    -0.000 C 
BRANCH  25  26
ATOM     26  C   UNL     1     129.009 146.501 123.843  1.00  0.00    -0.000 C 
BRANCH  26  27
ATOM     27  C   UNL     1     129.894 147.076 124.964  1.00  0.00    -0.000 C 
BRANCH  27  28
ATOM     28  C   UNL     1     131.242 146.345 125.100  1.00  0.00    -0.000 C 
BRANCH  28  29
ATOM     29  C   UNL     1     131.978 146.064 123.776  1.00  0.00    -0.000 C 
BRANCH  29  30
ATOM     30  C   UNL     1     133.345 145.387 123.979  1.00  0.00    -0.000 C 
BRANCH  30  31
ATOM     31  C   UNL     1     133.615 144.285 122.943  1.00  0.00    -0.003 C 
ATOM     32  C   UNL     1     133.191 142.899 123.427  1.00  0.00     0.004 C 
ENDBRANCH  30  31
ENDBRANCH  29  30
ENDBRANCH  28  29
ENDBRANCH  27  28
ENDBRANCH  26  27
ENDBRANCH  25  26
ENDBRANCH  24  25
ENDBRANCH  23  24
ENDBRANCH  22  23
ENDBRANCH  21  22
ENDBRANCH  20  21
ENDBRANCH  19  20
ENDBRANCH  18  19
ENDBRANCH   1  18
TORSDOF 28
ENDMDL
MODEL 9
REMARK VINA RESULT:    -3.253      2.721      7.131
REMARK INTER + INTRA:         -14.655
REMARK INTER:                  -8.468
REMARK INTRA:                  -6.187
REMARK UNBOUND:                -6.078
REMARK SMILES CCCCCCCCCCCCCCCCCCCCCCCCCCCCCC(=O)[O-]
REMARK SMILES IDX 16 1 17 2 18 3 19 4 20 5 21 6 22 7 23 8 24 9 25 10 26 11
REMARK SMILES IDX 27 12 28 13 29 14 30 15 31 16 32 17 15 18 14 19 13 20 12 21
REMARK SMILES IDX 11 22 10 23 9 24 8 25 7 26 6 27 5 28 4 29 3 30 2 31 1 32
REMARK H PARENT
REMARK Flexibility Score: inf
ROOT
ATOM      1  C   UNL     1     131.830 144.019 124.556  1.00  0.00     0.000 C 
ENDROOT
BRANCH   1   2
ATOM      2  C   UNL     1     130.685 143.157 125.118  1.00  0.00     0.000 C 
BRANCH   2   3
ATOM      3  C   UNL     1     129.611 142.849 124.062  1.00  0.00     0.000 C 
BRANCH   3   4
ATOM      4  C   UNL     1     128.211 143.210 124.580  1.00  0.00     0.000 C 
BRANCH   4   5
ATOM      5  C   UNL     1     128.229 144.376 125.580  1.00  0.00     0.000 C 
BRANCH   5   6
ATOM      6  C   UNL     1     127.406 145.584 125.095  1.00  0.00     0.000 C 
BRANCH   6   7
ATOM      7  C   UNL     1     127.958 146.191 123.795  1.00  0.00     0.000 C 
BRANCH   7   8
ATOM      8  C   UNL     1     126.875 146.383 122.722  1.00  0.00     0.000 C 
BRANCH   8   9
ATOM      9  C   UNL     1     127.501 146.467 121.325  1.00  0.00     0.000 C 
BRANCH   9  10
ATOM     10  C   UNL     1     127.244 145.180 120.525  1.00  0.00     0.000 C 
BRANCH  10  11
ATOM     11  C   UNL     1     128.122 145.091 119.258  1.00  0.00     0.000 C 
BRANCH  11  12
ATOM     12  C   UNL     1     128.844 143.739 119.097  1.00  0.00     0.000 C 
BRANCH  12  13
ATOM     13  C   UNL     1     129.489 143.193 120.382  1.00  0.00     0.006 C 
BRANCH  13  14
ATOM     14  C   UNL     1     129.570 141.660 120.399  1.00  0.00     0.053 C 
BRANCH  14  15
ATOM     15  C   UNL     1     128.272 141.063 120.847  1.00  0.00     0.041 C 
ATOM     16  O   UNL     1     127.408 141.778 121.420  1.00  0.00    -0.550 OA
ATOM     17  O   UNL     1     127.999 139.723 120.598  1.00  0.00    -0.550 OA
ENDBRANCH  14  15
ENDBRANCH  13  14
ENDBRANCH  12  13
ENDBRANCH  11  12
ENDBRANCH  10  11
ENDBRANCH   9  10
ENDBRANCH   8   9
ENDBRANCH   7   8
ENDBRANCH   6   7
ENDBRANCH   5   6
ENDBRANCH   4   5
ENDBRANCH   3   4
ENDBRANCH   2   3
ENDBRANCH   1   2
BRANCH   1  18
ATOM     18  C   UNL     1     131.662 145.525 124.831  1.00  0.00     0.000 C 
BRANCH  18  19
ATOM     19  C   UNL     1     131.890 146.375 123.568  1.00  0.00     0.000 C 
BRANCH  19  20
ATOM     20  C   UNL     1     131.306 145.726 122.302  1.00  0.00     0.000 C 
BRANCH  20  21
ATOM     21  C   UNL     1     131.025 146.749 121.187  1.00  0.00     0.000 C 
BRANCH  21  22
ATOM     22  C   UNL     1     131.502 146.268 119.807  1.00  0.00     0.000 C 
BRANCH  22  23
ATOM     23  C   UNL     1     132.826 146.924 119.375  1.00  0.00     0.000 C 
BRANCH  23  24
ATOM     24  C   UNL     1     134.055 146.069 119.750  1.00  0.00    -0.000 C 
BRANCH  24  25
ATOM     25  C   UNL     1     134.831 145.523 118.535  1.00  0.00    -0.000 C 
BRANCH  25  26
ATOM     26  C   UNL     1     134.738 144.002 118.328  1.00  0.00    -0.000 C 
BRANCH  26  27
ATOM     27  C   UNL     1     133.395 143.416 118.797  1.00  0.00    -0.000 C 
BRANCH  27  28
ATOM     28  C   UNL     1     133.555 142.338 119.884  1.00  0.00    -0.000 C 
BRANCH  28  29
ATOM     29  C   UNL     1     133.405 142.836 121.334  1.00  0.00    -0.000 C 
BRANCH  29  30
ATOM     30  C   UNL     1     134.755 143.015 122.051  1.00  0.00    -0.000 C 
BRANCH  30  31
ATOM     31  C   UNL     1     134.897 144.401 122.699  1.00  0.00    -0.003 C 
ATOM     32  C   UNL     1     136.295 144.995 122.529  1.00  0.00     0.004 C 
ENDBRANCH  30  31
ENDBRANCH  29  30
ENDBRANCH  28  29
ENDBRANCH  27  28
ENDBRANCH  26  27
ENDBRANCH  25  26
ENDBRANCH  24  25
ENDBRANCH  23  24
ENDBRANCH  22  23
ENDBRANCH  21  22
ENDBRANCH  20  21
ENDBRANCH  19  20
ENDBRANCH  18  19
ENDBRANCH   1  18
TORSDOF 28
ENDMDL
