MODEL 1
REMARK VINA RESULT:    -3.899      0.000      0.000
REMARK INTER + INTRA:          -4.936
REMARK INTER:                  -4.811
REMARK INTRA:                  -0.125
REMARK UNBOUND:                -0.125
REMARK SMILES CCCCCC(=O)[O-]
REMARK SMILES IDX 4 1 5 2 6 3 7 4 8 5 3 6 2 7 1 8
REMARK H PARENT
REMARK Flexibility Score: inf
ROOT
ATOM      1  C   UNL     1     117.026 164.917 120.355  1.00  0.00     0.006 C 
ENDROOT
BRANCH   1   2
ATOM      2  C   UNL     1     117.291 165.229 121.834  1.00  0.00     0.053 C 
BRANCH   2   3
ATOM      3  C   UNL     1     116.131 165.937 122.467  1.00  0.00     0.041 C 
ATOM      4  O   UNL     1     115.978 165.911 123.716  1.00  0.00    -0.550 OA
ATOM      5  O   UNL     1     115.240 166.652 121.679  1.00  0.00    -0.550 OA
ENDBRANCH   2   3
ENDBRANCH   1   2
BRANCH   1   6
ATOM      6  C   UNL     1     117.724 163.623 119.901  1.00  0.00     0.000 C 
BRANCH   6   7
ATOM      7  C   UNL     1     117.624 162.502 120.946  1.00  0.00    -0.003 C 
ATOM      8  C   UNL     1     118.982 161.880 121.275  1.00  0.00     0.004 C 
ENDBRANCH   6   7
ENDBRANCH   1   6
TORSDOF 4
ENDMDL
MODEL 2
REMARK VINA RESULT:    -3.878      2.184      3.168
REMARK INTER + INTRA:          -4.910
REMARK INTER:                  -4.867
REMARK INTRA:                  -0.043
REMARK UNBOUND:                -0.125
REMARK SMILES CCCCCC(=O)[O-]
REMARK SMILES IDX 4 1 5 2 6 3 7 4 8 5 3 6 2 7 1 8
REMARK H PARENT
REMARK Flexibility Score: inf
ROOT
ATOM      1  C   UNL     1     116.738 165.195 119.776  1.00  0.00     0.006 C 
ENDROOT
BRANCH   1   2
ATOM      2  C   UNL     1     117.400 164.682 121.062  1.00  0.00     0.053 C 
BRANCH   2   3
ATOM      3  C   UNL     1     117.072 165.551 122.238  1.00  0.00     0.041 C 
ATOM      4  O   UNL     1     115.878 165.871 122.478  1.00  0.00    -0.550 OA
ATOM      5  O   UNL     1     118.083 165.980 123.089  1.00  0.00    -0.550 OA
ENDBRANCH   2   3
ENDBRANCH   1   2
BRANCH   1   6
ATOM      6  C   UNL     1     117.489 164.738 118.514  1.00  0.00     0.000 C 
BRANCH   6   7
ATOM      7  C   UNL     1     117.469 165.796 117.401  1.00  0.00    -0.003 C 
ATOM      8  C   UNL     1     118.158 165.321 116.121  1.00  0.00     0.004 C 
ENDBRANCH   6   7
ENDBRANCH   1   6
TORSDOF 4
ENDMDL
MODEL 3
REMARK VINA RESULT:    -3.877      3.100      3.969
REMARK INTER + INTRA:          -4.909
REMARK INTER:                  -4.811
REMARK INTRA:                  -0.097
REMARK UNBOUND:                -0.125
REMARK SMILES CCCCCC(=O)[O-]
REMARK SMILES IDX 4 1 5 2 6 3 7 4 8 5 3 6 2 7 1 8
REMARK H PARENT
REMARK Flexibility Score: inf
ROOT
ATOM      1  C   UNL     1     117.095 165.164 119.701  1.00  0.00     0.006 C 
ENDROOT
BRANCH   1   2
ATOM      2  C   UNL     1     117.393 164.545 118.328  1.00  0.00     0.053 C 
BRANCH   2   3
ATOM      3  C   UNL     1     117.540 165.595 117.268  1.00  0.00     0.041 C 
ATOM      4  O   UNL     1     118.388 165.453 116.349  1.00  0.00    -0.550 OA
ATOM      5  O   UNL     1     116.717 166.713 117.278  1.00  0.00    -0.550 OA
ENDBRANCH   2   3
ENDBRANCH   1   2
BRANCH   1   6
ATOM      6  C   UNL     1     117.739 164.368 120.849  1.00  0.00     0.000 C 
BRANCH   6   7
ATOM      7  C   UNL     1     117.682 162.851 120.618  1.00  0.00    -0.003 C 
ATOM      8  C   UNL     1     118.796 162.100 121.348  1.00  0.00     0.004 C 
ENDBRANCH   6   7
ENDBRANCH   1   6
TORSDOF 4
ENDMDL
MODEL 4
REMARK VINA RESULT:    -3.818      1.591      2.494
REMARK INTER + INTRA:          -4.836
REMARK INTER:                  -4.771
REMARK INTRA:                  -0.065
REMARK UNBOUND:                -0.125
REMARK SMILES CCCCCC(=O)[O-]
REMARK SMILES IDX 4 1 5 2 6 3 7 4 8 5 3 6 2 7 1 8
REMARK H PARENT
REMARK Flexibility Score: inf
ROOT
ATOM      1  C   UNL     1     116.804 165.413 121.941  1.00  0.00     0.006 C 
ENDROOT
BRANCH   1   2
ATOM      2  C   UNL     1     117.345 166.169 123.162  1.00  0.00     0.053 C 
BRANCH   2   3
ATOM      3  C   UNL     1     116.449 167.305 123.551  1.00  0.00     0.041 C 
ATOM      4  O   UNL     1     115.285 167.386 123.076  1.00  0.00    -0.550 OA
ATOM      5  O   UNL     1     116.886 168.255 124.465  1.00  0.00    -0.550 OA
ENDBRANCH   2   3
ENDBRANCH   1   2
BRANCH   1   6
ATOM      6  C   UNL     1     117.903 164.610 121.222  1.00  0.00     0.000 C 
BRANCH   6   7
ATOM      7  C   UNL     1     117.412 163.991 119.905  1.00  0.00    -0.003 C 
ATOM      8  C   UNL     1     117.287 165.019 118.780  1.00  0.00     0.004 C 
ENDBRANCH   6   7
ENDBRANCH   1   6
TORSDOF 4
ENDMDL
MODEL 5
REMARK VINA RESULT:    -3.676     14.538     15.179
REMARK INTER + INTRA:          -4.660
REMARK INTER:                  -4.402
REMARK INTRA:                  -0.258
REMARK UNBOUND:                -0.125
REMARK SMILES CCCCCC(=O)[O-]
REMARK SMILES IDX 4 1 5 2 6 3 7 4 8 5 3 6 2 7 1 8
REMARK H PARENT
REMARK Flexibility Score: inf
ROOT
ATOM      1  C   UNL     1     120.204 179.963 125.126  1.00  0.00     0.006 C 
ENDROOT
BRANCH   1   2
ATOM      2  C   UNL     1     118.899 179.698 125.888  1.00  0.00     0.053 C 
BRANCH   2   3
ATOM      3  C   UNL     1     117.942 178.878 125.078  1.00  0.00     0.041 C 
ATOM      4  O   UNL     1     117.436 179.349 124.025  1.00  0.00    -0.550 OA
ATOM      5  O   UNL     1     117.635 177.581 125.467  1.00  0.00    -0.550 OA
ENDBRANCH   2   3
ENDBRANCH   1   2
BRANCH   1   6
ATOM      6  C   UNL     1     121.011 178.673 124.892  1.00  0.00     0.000 C 
BRANCH   6   7
ATOM      7  C   UNL     1     121.528 178.556 123.451  1.00  0.00    -0.003 C 
ATOM      8  C   UNL     1     120.783 179.473 122.480  1.00  0.00     0.004 C 
ENDBRANCH   6   7
ENDBRANCH   1   6
TORSDOF 4
ENDMDL
MODEL 6
REMARK VINA RESULT:    -3.659      1.662      2.018
REMARK INTER + INTRA:          -4.639
REMARK INTER:                  -4.420
REMARK INTRA:                  -0.219
REMARK UNBOUND:                -0.125
REMARK SMILES CCCCCC(=O)[O-]
REMARK SMILES IDX 4 1 5 2 6 3 7 4 8 5 3 6 2 7 1 8
REMARK H PARENT
REMARK Flexibility Score: inf
ROOT
ATOM      1  C   UNL     1     117.727 165.027 120.400  1.00  0.00     0.006 C 
ENDROOT
BRANCH   1   2
ATOM      2  C   UNL     1     117.219 165.190 121.840  1.00  0.00     0.053 C 
BRANCH   2   3
ATOM      3  C   UNL     1     118.308 165.646 122.762  1.00  0.00     0.041 C 
ATOM      4  O   UNL     1     118.081 166.539 123.620  1.00  0.00    -0.550 OA
ATOM      5  O   UNL     1     119.566 165.060 122.697  1.00  0.00    -0.550 OA
ENDBRANCH   2   3
ENDBRANCH   1   2
BRANCH   1   6
ATOM      6  C   UNL     1     117.532 163.595 119.875  1.00  0.00     0.000 C 
BRANCH   6   7
ATOM      7  C   UNL     1     117.550 162.548 120.998  1.00  0.00    -0.003 C 
ATOM      8  C   UNL     1     118.923 161.897 121.177  1.00  0.00     0.004 C 
ENDBRANCH   6   7
ENDBRANCH   1   6
TORSDOF 4
ENDMDL
MODEL 7
REMARK VINA RESULT:    -3.624     11.226     12.092
REMARK INTER + INTRA:          -4.596
REMARK INTER:                  -4.480
REMARK INTRA:                  -0.116
REMARK UNBOUND:                -0.125
REMARK SMILES CCCCCC(=O)[O-]
REMARK SMILES IDX 4 1 5 2 6 3 7 4 8 5 3 6 2 7 1 8
REMARK H PARENT
REMARK Flexibility Score: inf
ROOT
ATOM      1  C   UNL     1     123.869 165.759 129.288  1.00  0.00     0.006 C 
ENDROOT
BRANCH   1   2
ATOM      2  C   UNL     1     124.913 165.255 130.294  1.00  0.00     0.053 C 
BRANCH   2   3
ATOM      3  C   UNL     1     125.977 164.438 129.624  1.00  0.00     0.041 C 
ATOM      4  O   UNL     1     125.836 163.193 129.499  1.00  0.00    -0.550 OA
ATOM      5  O   UNL     1     127.107 165.058 129.109  1.00  0.00    -0.550 OA
ENDBRANCH   2   3
ENDBRANCH   1   2
BRANCH   1   6
ATOM      6  C   UNL     1     124.243 167.133 128.703  1.00  0.00     0.000 C 
BRANCH   6   7
ATOM      7  C   UNL     1     124.206 168.250 129.756  1.00  0.00    -0.003 C 
ATOM      8  C   UNL     1     123.140 169.306 129.460  1.00  0.00     0.004 C 
ENDBRANCH   6   7
ENDBRANCH   1   6
TORSDOF 4
ENDMDL
MODEL 8
REMARK VINA RESULT:    -3.551      3.285      3.746
REMARK INTER + INTRA:          -4.506
REMARK INTER:                  -4.435
REMARK INTRA:                  -0.072
REMARK UNBOUND:                -0.125
REMARK SMILES CCCCCC(=O)[O-]
REMARK SMILES IDX 4 1 5 2 6 3 7 4 8 5 3 6 2 7 1 8
REMARK H PARENT
REMARK Flexibility Score: inf
ROOT
ATOM      1  C   UNL     1     118.970 165.090 122.330  1.00  0.00     0.006 C 
ENDROOT
BRANCH   1   2
ATOM      2  C   UNL     1     119.281 166.311 123.206  1.00  0.00     0.053 C 
BRANCH   2   3
ATOM      3  C   UNL     1     120.514 167.026 122.741  1.00  0.00     0.041 C 
ATOM      4  O   UNL     1     121.487 166.375 122.278  1.00  0.00    -0.550 OA
ATOM      5  O   UNL     1     120.573 168.412 122.789  1.00  0.00    -0.550 OA
ENDBRANCH   2   3
ENDBRANCH   1   2
BRANCH   1   6
ATOM      6  C   UNL     1     117.609 165.215 121.622  1.00  0.00     0.000 C 
BRANCH   6   7
ATOM      7  C   UNL     1     117.495 164.294 120.399  1.00  0.00    -0.003 C 
ATOM      8  C   UNL     1     117.787 162.830 120.733  1.00  0.00     0.004 C 
ENDBRANCH   6   7
ENDBRANCH   1   6
TORSDOF 4
ENDMDL
MODEL 9
REMARK VINA RESULT:    -1.009     14.600     15.713
REMARK INTER + INTRA:          -1.370
REMARK INTER:                  -1.221
REMARK INTRA:                  -0.149
REMARK UNBOUND:                -0.125
REMARK SMILES CCCCCC(=O)[O-]
REMARK SMILES IDX 4 1 5 2 6 3 7 4 8 5 3 6 2 7 1 8
REMARK H PARENT
REMARK Flexibility Score: inf
ROOT
ATOM      1  C   UNL     1     118.972 180.035 126.376  1.00  0.00     0.006 C 
ENDROOT
BRANCH   1   2
ATOM      2  C   UNL     1     117.715 180.125 125.500  1.00  0.00     0.053 C 
BRANCH   2   3
ATOM      3  C   UNL     1     117.504 178.872 124.705  1.00  0.00     0.041 C 
ATOM      4  O   UNL     1     117.199 178.938 123.485  1.00  0.00    -0.550 OA
ATOM      5  O   UNL     1     117.676 177.631 125.304  1.00  0.00    -0.550 OA
ENDBRANCH   2   3
ENDBRANCH   1   2
BRANCH   1   6
ATOM      6  C   UNL     1     120.265 180.125 125.546  1.00  0.00     0.000 C 
BRANCH   6   7
ATOM      7  C   UNL     1     121.475 179.525 126.276  1.00  0.00    -0.003 C 
ATOM      8  C   UNL     1     121.147 179.091 127.706  1.00  0.00     0.004 C 
ENDBRANCH   6   7
ENDBRANCH   1   6
TORSDOF 4
ENDMDL
