MODEL 1
REMARK VINA RESULT:    -5.538      0.000      0.000
REMARK INTER + INTRA:         -12.116
REMARK INTER:                 -10.070
REMARK INTRA:                  -2.046
REMARK UNBOUND:                -2.046
REMARK SMILES CCCCCCCCCCCCCC[C@@H](C)C(=O)[O-]
REMARK SMILES IDX 9 1 10 2 11 3 12 4 13 5 14 6 15 7 16 8 17 9 18 10 19 11 8 12
REMARK SMILES IDX 7 13 6 14 5 15 4 16 3 17 2 18 1 19
REMARK H PARENT
REMARK Flexibility Score: inf
ROOT
ATOM      1  C   UNL     1     102.357 -82.220  21.563  1.00  0.00     0.000 C 
ENDROOT
BRANCH   1   2
ATOM      2  C   UNL     1     102.777 -82.544  23.009  1.00  0.00     0.000 C 
BRANCH   2   3
ATOM      3  C   UNL     1     103.750 -83.731  23.093  1.00  0.00     0.000 C 
BRANCH   3   4
ATOM      4  C   UNL     1     105.221 -83.296  22.980  1.00  0.00     0.000 C 
BRANCH   4   5
ATOM      5  C   UNL     1     105.490 -81.922  23.621  1.00  0.00     0.001 C 
BRANCH   5   6
ATOM      6  C   UNL     1     106.965 -81.466  23.614  1.00  0.00     0.009 C 
BRANCH   6   7
ATOM      7  C   UNL     1     107.943 -82.398  24.363  1.00  0.00     0.032 C 
ATOM      8  C   UNL     1     109.355 -82.368  23.762  1.00  0.00     0.014 C 
BRANCH   7   9
ATOM      9  C   UNL     1     108.003 -82.002  25.813  1.00  0.00     0.044 C 
ATOM     10  O   UNL     1     106.959 -82.018  26.517  1.00  0.00    -0.550 OA
ATOM     11  O   UNL     1     109.206 -81.600  26.382  1.00  0.00    -0.550 OA
ENDBRANCH   7   9
ENDBRANCH   6   7
ENDBRANCH   5   6
ENDBRANCH   4   5
ENDBRANCH   3   4
ENDBRANCH   2   3
ENDBRANCH   1   2
BRANCH   1  12
ATOM     12  C   UNL     1     102.400 -83.453  20.647  1.00  0.00     0.000 C 
BRANCH  12  13
ATOM     13  C   UNL     1     103.196 -83.203  19.357  1.00  0.00    -0.000 C 
BRANCH  13  14
ATOM     14  C   UNL     1     104.506 -84.000  19.357  1.00  0.00    -0.000 C 
BRANCH  14  15
ATOM     15  C   UNL     1     105.655 -83.170  18.762  1.00  0.00    -0.000 C 
BRANCH  15  16
ATOM     16  C   UNL     1     105.383 -81.659  18.819  1.00  0.00    -0.000 C 
BRANCH  16  17
ATOM     17  C   UNL     1     105.977 -80.997  20.072  1.00  0.00    -0.000 C 
BRANCH  17  18
ATOM     18  C   UNL     1     105.341 -79.625  20.320  1.00  0.00    -0.003 C 
ATOM     19  C   UNL     1     106.393 -78.590  20.708  1.00  0.00     0.004 C 
ENDBRANCH  17  18
ENDBRANCH  16  17
ENDBRANCH  15  16
ENDBRANCH  14  15
ENDBRANCH  13  14
ENDBRANCH  12  13
ENDBRANCH   1  12
TORSDOF 14
ENDMDL
MODEL 2
REMARK VINA RESULT:    -5.444      3.263      5.760
REMARK INTER + INTRA:         -11.946
REMARK INTER:                 -10.322
REMARK INTRA:                  -1.624
REMARK UNBOUND:                -2.046
REMARK SMILES CCCCCCCCCCCCCC[C@@H](C)C(=O)[O-]
REMARK SMILES IDX 9 1 10 2 11 3 12 4 13 5 14 6 15 7 16 8 17 9 18 10 19 11 8 12
REMARK SMILES IDX 7 13 6 14 5 15 4 16 3 17 2 18 1 19
REMARK H PARENT
REMARK Flexibility Score: inf
ROOT
ATOM      1  C   UNL     1     103.517 -82.915  19.413  1.00  0.00     0.000 C 
ENDROOT
BRANCH   1   2
ATOM      2  C   UNL     1     105.015 -83.232  19.245  1.00  0.00     0.000 C 
BRANCH   2   3
ATOM      3  C   UNL     1     105.832 -82.010  18.794  1.00  0.00     0.000 C 
BRANCH   3   4
ATOM      4  C   UNL     1     105.244 -80.685  19.309  1.00  0.00     0.000 C 
BRANCH   4   5
ATOM      5  C   UNL     1     105.890 -80.214  20.625  1.00  0.00     0.001 C 
BRANCH   5   6
ATOM      6  C   UNL     1     106.287 -78.723  20.672  1.00  0.00     0.009 C 
BRANCH   6   7
ATOM      7  C   UNL     1     105.534 -77.812  19.677  1.00  0.00     0.032 C 
ATOM      8  C   UNL     1     104.171 -77.357  20.218  1.00  0.00     0.014 C 
BRANCH   7   9
ATOM      9  C   UNL     1     106.380 -76.609  19.360  1.00  0.00     0.044 C 
ATOM     10  O   UNL     1     105.844 -75.557  18.923  1.00  0.00    -0.550 OA
ATOM     11  O   UNL     1     107.758 -76.656  19.532  1.00  0.00    -0.550 OA
ENDBRANCH   7   9
ENDBRANCH   6   7
ENDBRANCH   5   6
ENDBRANCH   4   5
ENDBRANCH   3   4
ENDBRANCH   2   3
ENDBRANCH   1   2
BRANCH   1  12
ATOM     12  C   UNL     1     102.978 -83.330  20.791  1.00  0.00     0.000 C 
BRANCH  12  13
ATOM     13  C   UNL     1     102.986 -82.174  21.801  1.00  0.00    -0.000 C 
BRANCH  13  14
ATOM     14  C   UNL     1     104.001 -82.430  22.922  1.00  0.00    -0.000 C 
BRANCH  14  15
ATOM     15  C   UNL     1     104.526 -83.873  22.869  1.00  0.00    -0.000 C 
BRANCH  15  16
ATOM     16  C   UNL     1     106.030 -83.966  23.167  1.00  0.00    -0.000 C 
BRANCH  16  17
ATOM     17  C   UNL     1     106.356 -83.727  24.650  1.00  0.00    -0.000 C 
BRANCH  17  18
ATOM     18  C   UNL     1     107.171 -82.441  24.830  1.00  0.00    -0.003 C 
ATOM     19  C   UNL     1     107.073 -81.920  26.261  1.00  0.00     0.004 C 
ENDBRANCH  17  18
ENDBRANCH  16  17
ENDBRANCH  15  16
ENDBRANCH  14  15
ENDBRANCH  13  14
ENDBRANCH  12  13
ENDBRANCH   1  12
TORSDOF 14
ENDMDL
MODEL 3
REMARK VINA RESULT:    -5.413      7.808     10.672
REMARK INTER + INTRA:         -11.889
REMARK INTER:                  -9.932
REMARK INTRA:                  -1.957
REMARK UNBOUND:                -2.046
REMARK SMILES CCCCCCCCCCCCCC[C@@H](C)C(=O)[O-]
REMARK SMILES IDX 9 1 10 2 11 3 12 4 13 5 14 6 15 7 16 8 17 9 18 10 19 11 8 12
REMARK SMILES IDX 7 13 6 14 5 15 4 16 3 17 2 18 1 19
REMARK H PARENT
REMARK Flexibility Score: inf
ROOT
ATOM      1  C   UNL     1     113.151 -83.401  21.750  1.00  0.00     0.000 C 
ENDROOT
BRANCH   1   2
ATOM      2  C   UNL     1     113.835 -83.604  20.386  1.00  0.00     0.000 C 
BRANCH   2   3
ATOM      3  C   UNL     1     115.331 -83.251  20.414  1.00  0.00     0.000 C 
BRANCH   3   4
ATOM      4  C   UNL     1     115.749 -82.557  21.721  1.00  0.00     0.000 C 
BRANCH   4   5
ATOM      5  C   UNL     1     117.115 -83.039  22.245  1.00  0.00     0.001 C 
BRANCH   5   6
ATOM      6  C   UNL     1     118.293 -82.885  21.260  1.00  0.00     0.009 C 
BRANCH   6   7
ATOM      7  C   UNL     1     119.205 -81.665  21.513  1.00  0.00     0.032 C 
ATOM      8  C   UNL     1     118.601 -80.361  20.973  1.00  0.00     0.014 C 
BRANCH   7   9
ATOM      9  C   UNL     1     119.462 -81.528  22.989  1.00  0.00     0.044 C 
ATOM     10  O   UNL     1     119.041 -80.520  23.614  1.00  0.00    -0.550 OA
ATOM     11  O   UNL     1     120.179 -82.506  23.670  1.00  0.00    -0.550 OA
ENDBRANCH   7   9
ENDBRANCH   6   7
ENDBRANCH   5   6
ENDBRANCH   4   5
ENDBRANCH   3   4
ENDBRANCH   2   3
ENDBRANCH   1   2
BRANCH   1  12
ATOM     12  C   UNL     1     111.912 -82.497  21.661  1.00  0.00     0.000 C 
BRANCH  12  13
ATOM     13  C   UNL     1     112.109 -81.319  20.695  1.00  0.00    -0.000 C 
BRANCH  13  14
ATOM     14  C   UNL     1     112.939 -80.206  21.347  1.00  0.00    -0.000 C 
BRANCH  14  15
ATOM     15  C   UNL     1     113.841 -79.515  20.313  1.00  0.00    -0.000 C 
BRANCH  15  16
ATOM     16  C   UNL     1     115.194 -79.086  20.901  1.00  0.00    -0.000 C 
BRANCH  16  17
ATOM     17  C   UNL     1     115.086 -78.638  22.368  1.00  0.00    -0.000 C 
BRANCH  17  18
ATOM     18  C   UNL     1     115.378 -77.139  22.505  1.00  0.00    -0.003 C 
ATOM     19  C   UNL     1     114.096 -76.317  22.408  1.00  0.00     0.004 C 
ENDBRANCH  17  18
ENDBRANCH  16  17
ENDBRANCH  15  16
ENDBRANCH  14  15
ENDBRANCH  13  14
ENDBRANCH  12  13
ENDBRANCH   1  12
TORSDOF 14
ENDMDL
MODEL 4
REMARK VINA RESULT:    -5.384     10.024     12.771
REMARK INTER + INTRA:         -11.836
REMARK INTER:                  -9.797
REMARK INTRA:                  -2.039
REMARK UNBOUND:                -2.046
REMARK SMILES CCCCCCCCCCCCCC[C@@H](C)C(=O)[O-]
REMARK SMILES IDX 9 1 10 2 11 3 12 4 13 5 14 6 15 7 16 8 17 9 18 10 19 11 8 12
REMARK SMILES IDX 7 13 6 14 5 15 4 16 3 17 2 18 1 19
REMARK H PARENT
REMARK Flexibility Score: inf
ROOT
ATOM      1  C   UNL     1     117.997 -78.903  22.059  1.00  0.00     0.000 C 
ENDROOT
BRANCH   1   2
ATOM      2  C   UNL     1     116.566 -79.003  22.620  1.00  0.00     0.000 C 
BRANCH   2   3
ATOM      3  C   UNL     1     115.570 -78.106  21.868  1.00  0.00     0.000 C 
BRANCH   3   4
ATOM      4  C   UNL     1     115.327 -76.766  22.584  1.00  0.00     0.000 C 
BRANCH   4   5
ATOM      5  C   UNL     1     115.462 -76.872  24.114  1.00  0.00     0.001 C 
BRANCH   5   6
ATOM      6  C   UNL     1     116.517 -75.942  24.752  1.00  0.00     0.009 C 
BRANCH   6   7
ATOM      7  C   UNL     1     117.523 -76.641  25.693  1.00  0.00     0.032 C 
ATOM      8  C   UNL     1     117.023 -78.011  26.171  1.00  0.00     0.014 C 
BRANCH   7   9
ATOM      9  C   UNL     1     118.842 -76.802  24.987  1.00  0.00     0.044 C 
ATOM     10  O   UNL     1     119.648 -77.700  25.348  1.00  0.00    -0.550 OA
ATOM     11  O   UNL     1     119.188 -75.952  23.943  1.00  0.00    -0.550 OA
ENDBRANCH   7   9
ENDBRANCH   6   7
ENDBRANCH   5   6
ENDBRANCH   4   5
ENDBRANCH   3   4
ENDBRANCH   2   3
ENDBRANCH   1   2
BRANCH   1  12
ATOM     12  C   UNL     1     118.192 -79.744  20.787  1.00  0.00     0.000 C 
BRANCH  12  13
ATOM     13  C   UNL     1     119.262 -80.832  20.956  1.00  0.00    -0.000 C 
BRANCH  13  14
ATOM     14  C   UNL     1     119.158 -81.496  22.335  1.00  0.00    -0.000 C 
BRANCH  14  15
ATOM     15  C   UNL     1     118.873 -82.999  22.201  1.00  0.00    -0.000 C 
BRANCH  15  16
ATOM     16  C   UNL     1     117.652 -83.293  21.315  1.00  0.00    -0.000 C 
BRANCH  16  17
ATOM     17  C   UNL     1     116.339 -82.782  21.928  1.00  0.00    -0.000 C 
BRANCH  17  18
ATOM     18  C   UNL     1     115.205 -82.811  20.896  1.00  0.00    -0.003 C 
ATOM     19  C   UNL     1     114.437 -81.492  20.883  1.00  0.00     0.004 C 
ENDBRANCH  17  18
ENDBRANCH  16  17
ENDBRANCH  15  16
ENDBRANCH  14  15
ENDBRANCH  13  14
ENDBRANCH  12  13
ENDBRANCH   1  12
TORSDOF 14
ENDMDL
MODEL 5
REMARK VINA RESULT:    -5.375      1.796      2.519
REMARK INTER + INTRA:         -11.820
REMARK INTER:                  -9.553
REMARK INTRA:                  -2.267
REMARK UNBOUND:                -2.046
REMARK SMILES CCCCCCCCCCCCCC[C@@H](C)C(=O)[O-]
REMARK SMILES IDX 9 1 10 2 11 3 12 4 13 5 14 6 15 7 16 8 17 9 18 10 19 11 8 12
REMARK SMILES IDX 7 13 6 14 5 15 4 16 3 17 2 18 1 19
REMARK H PARENT
REMARK Flexibility Score: inf
ROOT
ATOM      1  C   UNL     1     104.149 -82.409  22.813  1.00  0.00     0.000 C 
ENDROOT
BRANCH   1   2
ATOM      2  C   UNL     1     104.650 -83.842  23.069  1.00  0.00     0.000 C 
BRANCH   2   3
ATOM      3  C   UNL     1     106.147 -83.894  23.413  1.00  0.00     0.000 C 
BRANCH   3   4
ATOM      4  C   UNL     1     106.419 -83.636  24.905  1.00  0.00     0.000 C 
BRANCH   4   5
ATOM      5  C   UNL     1     106.996 -82.234  25.175  1.00  0.00     0.001 C 
BRANCH   5   6
ATOM      6  C   UNL     1     107.575 -81.508  23.942  1.00  0.00     0.009 C 
BRANCH   6   7
ATOM      7  C   UNL     1     109.117 -81.495  23.852  1.00  0.00     0.032 C 
ATOM      8  C   UNL     1     109.680 -82.808  23.291  1.00  0.00     0.014 C 
BRANCH   7   9
ATOM      9  C   UNL     1     109.560 -80.346  22.988  1.00  0.00     0.044 C 
ATOM     10  O   UNL     1     110.770 -80.231  22.658  1.00  0.00    -0.550 OA
ATOM     11  O   UNL     1     108.641 -79.394  22.562  1.00  0.00    -0.550 OA
ENDBRANCH   7   9
ENDBRANCH   6   7
ENDBRANCH   5   6
ENDBRANCH   4   5
ENDBRANCH   3   4
ENDBRANCH   2   3
ENDBRANCH   1   2
BRANCH   1  12
ATOM     12  C   UNL     1     102.907 -82.371  21.907  1.00  0.00     0.000 C 
BRANCH  12  13
ATOM     13  C   UNL     1     102.762 -83.638  21.052  1.00  0.00    -0.000 C 
BRANCH  13  14
ATOM     14  C   UNL     1     103.213 -83.382  19.609  1.00  0.00    -0.000 C 
BRANCH  14  15
ATOM     15  C   UNL     1     104.612 -83.968  19.358  1.00  0.00    -0.000 C 
BRANCH  15  16
ATOM     16  C   UNL     1     105.555 -82.971  18.667  1.00  0.00    -0.000 C 
BRANCH  16  17
ATOM     17  C   UNL     1     105.023 -81.530  18.704  1.00  0.00    -0.000 C 
BRANCH  17  18
ATOM     18  C   UNL     1     105.694 -80.727  19.825  1.00  0.00    -0.003 C 
ATOM     19  C   UNL     1     106.840 -81.513  20.456  1.00  0.00     0.004 C 
ENDBRANCH  17  18
ENDBRANCH  16  17
ENDBRANCH  15  16
ENDBRANCH  14  15
ENDBRANCH  13  14
ENDBRANCH  12  13
ENDBRANCH   1  12
TORSDOF 14
ENDMDL
MODEL 6
REMARK VINA RESULT:    -5.329      6.914     10.515
REMARK INTER + INTRA:         -11.735
REMARK INTER:                  -9.308
REMARK INTRA:                  -2.427
REMARK UNBOUND:                -2.046
REMARK SMILES CCCCCCCCCCCCCC[C@@H](C)C(=O)[O-]
REMARK SMILES IDX 9 1 10 2 11 3 12 4 13 5 14 6 15 7 16 8 17 9 18 10 19 11 8 12
REMARK SMILES IDX 7 13 6 14 5 15 4 16 3 17 2 18 1 19
REMARK H PARENT
REMARK Flexibility Score: inf
ROOT
ATOM      1  C   UNL     1     115.703 -83.119  21.448  1.00  0.00     0.000 C 
ENDROOT
BRANCH   1   2
ATOM      2  C   UNL     1     114.934 -83.380  20.139  1.00  0.00     0.000 C 
BRANCH   2   3
ATOM      3  C   UNL     1     113.409 -83.366  20.334  1.00  0.00     0.000 C 
BRANCH   3   4
ATOM      4  C   UNL     1     113.003 -83.036  21.780  1.00  0.00     0.000 C 
BRANCH   4   5
ATOM      5  C   UNL     1     111.770 -82.116  21.861  1.00  0.00     0.001 C 
BRANCH   5   6
ATOM      6  C   UNL     1     111.632 -81.091  20.715  1.00  0.00     0.009 C 
BRANCH   6   7
ATOM      7  C   UNL     1     110.945 -79.763  21.102  1.00  0.00     0.032 C 
ATOM      8  C   UNL     1     110.975 -79.508  22.615  1.00  0.00     0.014 C 
BRANCH   7   9
ATOM      9  C   UNL     1     111.615 -78.624  20.384  1.00  0.00     0.044 C 
ATOM     10  O   UNL     1     111.907 -78.729  19.163  1.00  0.00    -0.550 OA
ATOM     11  O   UNL     1     111.931 -77.453  21.065  1.00  0.00    -0.550 OA
ENDBRANCH   7   9
ENDBRANCH   6   7
ENDBRANCH   5   6
ENDBRANCH   4   5
ENDBRANCH   3   4
ENDBRANCH   2   3
ENDBRANCH   1   2
BRANCH   1  12
ATOM     12  C   UNL     1     117.195 -83.468  21.335  1.00  0.00     0.000 C 
BRANCH  12  13
ATOM     13  C   UNL     1     118.067 -82.655  22.303  1.00  0.00    -0.000 C 
BRANCH  13  14
ATOM     14  C   UNL     1     118.622 -81.399  21.618  1.00  0.00    -0.000 C 
BRANCH  14  15
ATOM     15  C   UNL     1     118.410 -80.155  22.496  1.00  0.00    -0.000 C 
BRANCH  15  16
ATOM     16  C   UNL     1     117.380 -79.181  21.903  1.00  0.00    -0.000 C 
BRANCH  16  17
ATOM     17  C   UNL     1     116.751 -79.704  20.603  1.00  0.00    -0.000 C 
BRANCH  17  18
ATOM     18  C   UNL     1     115.222 -79.619  20.662  1.00  0.00    -0.003 C 
ATOM     19  C   UNL     1     114.733 -79.471  22.101  1.00  0.00     0.004 C 
ENDBRANCH  17  18
ENDBRANCH  16  17
ENDBRANCH  15  16
ENDBRANCH  14  15
ENDBRANCH  13  14
ENDBRANCH  12  13
ENDBRANCH   1  12
TORSDOF 14
ENDMDL
MODEL 7
REMARK VINA RESULT:    -5.317      3.131      5.687
REMARK INTER + INTRA:         -11.715
REMARK INTER:                  -9.319
REMARK INTRA:                  -2.395
REMARK UNBOUND:                -2.046
REMARK SMILES CCCCCCCCCCCCCC[C@@H](C)C(=O)[O-]
REMARK SMILES IDX 9 1 10 2 11 3 12 4 13 5 14 6 15 7 16 8 17 9 18 10 19 11 8 12
REMARK SMILES IDX 7 13 6 14 5 15 4 16 3 17 2 18 1 19
REMARK H PARENT
REMARK Flexibility Score: inf
ROOT
ATOM      1  C   UNL     1     108.791 -81.869  24.639  1.00  0.00     0.000 C 
ENDROOT
BRANCH   1   2
ATOM      2  C   UNL     1     109.194 -82.472  23.281  1.00  0.00     0.000 C 
BRANCH   2   3
ATOM      3  C   UNL     1     109.644 -81.406  22.269  1.00  0.00     0.000 C 
BRANCH   3   4
ATOM      4  C   UNL     1     109.784 -80.012  22.903  1.00  0.00     0.000 C 
BRANCH   4   5
ATOM      5  C   UNL     1     109.237 -78.888  22.005  1.00  0.00     0.001 C 
BRANCH   5   6
ATOM      6  C   UNL     1     107.699 -78.759  21.968  1.00  0.00     0.009 C 
BRANCH   6   7
ATOM      7  C   UNL     1     107.143 -77.857  20.843  1.00  0.00     0.032 C 
ATOM      8  C   UNL     1     105.786 -78.345  20.319  1.00  0.00     0.014 C 
BRANCH   7   9
ATOM      9  C   UNL     1     107.011 -76.447  21.351  1.00  0.00     0.044 C 
ATOM     10  O   UNL     1     108.024 -75.702  21.421  1.00  0.00    -0.550 OA
ATOM     11  O   UNL     1     105.775 -75.961  21.760  1.00  0.00    -0.550 OA
ENDBRANCH   7   9
ENDBRANCH   6   7
ENDBRANCH   5   6
ENDBRANCH   4   5
ENDBRANCH   3   4
ENDBRANCH   2   3
ENDBRANCH   1   2
BRANCH   1  12
ATOM     12  C   UNL     1     107.460 -82.431  25.163  1.00  0.00     0.000 C 
BRANCH  12  13
ATOM     13  C   UNL     1     106.538 -82.915  24.035  1.00  0.00    -0.000 C 
BRANCH  13  14
ATOM     14  C   UNL     1     105.420 -81.900  23.766  1.00  0.00    -0.000 C 
BRANCH  14  15
ATOM     15  C   UNL     1     105.396 -81.488  22.286  1.00  0.00    -0.000 C 
BRANCH  15  16
ATOM     16  C   UNL     1     106.076 -82.520  21.373  1.00  0.00    -0.000 C 
BRANCH  16  17
ATOM     17  C   UNL     1     106.701 -81.883  20.122  1.00  0.00    -0.000 C 
BRANCH  17  18
ATOM     18  C   UNL     1     106.039 -82.419  18.847  1.00  0.00    -0.003 C 
ATOM     19  C   UNL     1     105.056 -81.405  18.268  1.00  0.00     0.004 C 
ENDBRANCH  17  18
ENDBRANCH  16  17
ENDBRANCH  15  16
ENDBRANCH  14  15
ENDBRANCH  13  14
ENDBRANCH  12  13
ENDBRANCH   1  12
TORSDOF 14
ENDMDL
MODEL 8
REMARK VINA RESULT:    -5.294      7.367     10.260
REMARK INTER + INTRA:         -11.673
REMARK INTER:                  -9.794
REMARK INTRA:                  -1.880
REMARK UNBOUND:                -2.046
REMARK SMILES CCCCCCCCCCCCCC[C@@H](C)C(=O)[O-]
REMARK SMILES IDX 9 1 10 2 11 3 12 4 13 5 14 6 15 7 16 8 17 9 18 10 19 11 8 12
REMARK SMILES IDX 7 13 6 14 5 15 4 16 3 17 2 18 1 19
REMARK H PARENT
REMARK Flexibility Score: inf
ROOT
ATOM      1  C   UNL     1     112.234 -83.411  22.258  1.00  0.00     0.000 C 
ENDROOT
BRANCH   1   2
ATOM      2  C   UNL     1     112.979 -82.903  21.009  1.00  0.00     0.000 C 
BRANCH   2   3
ATOM      3  C   UNL     1     114.038 -83.897  20.507  1.00  0.00     0.000 C 
BRANCH   3   4
ATOM      4  C   UNL     1     115.420 -83.247  20.328  1.00  0.00     0.000 C 
BRANCH   4   5
ATOM      5  C   UNL     1     116.202 -83.130  21.649  1.00  0.00     0.001 C 
BRANCH   5   6
ATOM      6  C   UNL     1     117.740 -83.119  21.511  1.00  0.00     0.009 C 
BRANCH   6   7
ATOM      7  C   UNL     1     118.495 -82.384  22.641  1.00  0.00     0.032 C 
ATOM      8  C   UNL     1     119.382 -83.330  23.462  1.00  0.00     0.014 C 
BRANCH   7   9
ATOM      9  C   UNL     1     119.338 -81.287  22.050  1.00  0.00     0.044 C 
ATOM     10  O   UNL     1     120.371 -80.890  22.650  1.00  0.00    -0.550 OA
ATOM     11  O   UNL     1     118.974 -80.693  20.847  1.00  0.00    -0.550 OA
ENDBRANCH   7   9
ENDBRANCH   6   7
ENDBRANCH   5   6
ENDBRANCH   4   5
ENDBRANCH   3   4
ENDBRANCH   2   3
ENDBRANCH   1   2
BRANCH   1  12
ATOM     12  C   UNL     1     111.070 -82.492  22.663  1.00  0.00     0.000 C 
BRANCH  12  13
ATOM     13  C   UNL     1     110.975 -81.236  21.786  1.00  0.00    -0.000 C 
BRANCH  13  14
ATOM     14  C   UNL     1     111.197 -79.966  22.618  1.00  0.00    -0.000 C 
BRANCH  14  15
ATOM     15  C   UNL     1     111.932 -78.893  21.800  1.00  0.00    -0.000 C 
BRANCH  15  16
ATOM     16  C   UNL     1     113.460 -78.994  21.928  1.00  0.00    -0.000 C 
BRANCH  16  17
ATOM     17  C   UNL     1     114.142 -79.368  20.603  1.00  0.00    -0.000 C 
BRANCH  17  18
ATOM     18  C   UNL     1     115.657 -79.511  20.788  1.00  0.00    -0.003 C 
ATOM     19  C   UNL     1     116.036 -79.486  22.267  1.00  0.00     0.004 C 
ENDBRANCH  17  18
ENDBRANCH  16  17
ENDBRANCH  15  16
ENDBRANCH  14  15
ENDBRANCH  13  14
ENDBRANCH  12  13
ENDBRANCH   1  12
TORSDOF 14
ENDMDL
MODEL 9
REMARK VINA RESULT:    -5.227      4.835      8.013
REMARK INTER + INTRA:         -11.551
REMARK INTER:                 -10.044
REMARK INTRA:                  -1.507
REMARK UNBOUND:                -2.046
REMARK SMILES CCCCCCCCCCCCCC[C@@H](C)C(=O)[O-]
REMARK SMILES IDX 9 1 10 2 11 3 12 4 13 5 14 6 15 7 16 8 17 9 18 10 19 11 8 12
REMARK SMILES IDX 7 13 6 14 5 15 4 16 3 17 2 18 1 19
REMARK H PARENT
REMARK Flexibility Score: inf
ROOT
ATOM      1  C   UNL     1     112.019 -82.266  20.943  1.00  0.00     0.000 C 
ENDROOT
BRANCH   1   2
ATOM      2  C   UNL     1     111.856 -81.029  21.845  1.00  0.00     0.000 C 
BRANCH   2   3
ATOM      3  C   UNL     1     110.480 -80.362  21.695  1.00  0.00     0.000 C 
BRANCH   3   4
ATOM      4  C   UNL     1     109.691 -80.332  23.015  1.00  0.00     0.000 C 
BRANCH   4   5
ATOM      5  C   UNL     1     109.884 -81.607  23.856  1.00  0.00     0.001 C 
BRANCH   5   6
ATOM      6  C   UNL     1     109.010 -82.811  23.445  1.00  0.00     0.009 C 
BRANCH   6   7
ATOM      7  C   UNL     1     107.671 -82.939  24.205  1.00  0.00     0.032 C 
ATOM      8  C   UNL     1     107.681 -82.182  25.540  1.00  0.00     0.014 C 
BRANCH   7   9
ATOM      9  C   UNL     1     106.553 -82.423  23.341  1.00  0.00     0.044 C 
ATOM     10  O   UNL     1     105.803 -81.502  23.759  1.00  0.00    -0.550 OA
ATOM     11  O   UNL     1     106.329 -82.970  22.083  1.00  0.00    -0.550 OA
ENDBRANCH   7   9
ENDBRANCH   6   7
ENDBRANCH   5   6
ENDBRANCH   4   5
ENDBRANCH   3   4
ENDBRANCH   2   3
ENDBRANCH   1   2
BRANCH   1  12
ATOM     12  C   UNL     1     113.049 -83.265  21.492  1.00  0.00     0.000 C 
BRANCH  12  13
ATOM     13  C   UNL     1     114.030 -83.754  20.416  1.00  0.00    -0.000 C 
BRANCH  13  14
ATOM     14  C   UNL     1     115.471 -83.359  20.765  1.00  0.00    -0.000 C 
BRANCH  14  15
ATOM     15  C   UNL     1     115.496 -82.130  21.687  1.00  0.00    -0.000 C 
BRANCH  15  16
ATOM     16  C   UNL     1     116.793 -81.317  21.552  1.00  0.00    -0.000 C 
BRANCH  16  17
ATOM     17  C   UNL     1     116.562 -79.937  20.916  1.00  0.00    -0.000 C 
BRANCH  17  18
ATOM     18  C   UNL     1     115.099 -79.767  20.494  1.00  0.00    -0.003 C 
ATOM     19  C   UNL     1     114.487 -78.513  21.113  1.00  0.00     0.004 C 
ENDBRANCH  17  18
ENDBRANCH  16  17
ENDBRANCH  15  16
ENDBRANCH  14  15
ENDBRANCH  13  14
ENDBRANCH  12  13
ENDBRANCH   1  12
TORSDOF 14
ENDMDL
