MODEL 1
REMARK VINA RESULT:    -6.451      0.000      0.000
REMARK INTER + INTRA:          -7.142
REMARK INTER:                  -7.017
REMARK INTRA:                  -0.125
REMARK UNBOUND:                -0.125
REMARK SMILES Cc1ccc(C(C)C)cc1O
REMARK SMILES IDX 1 1 2 2 10 3 9 4 5 5 4 6 3 7 11 8 6 10 7 11 8 12
REMARK H PARENT 11 9
REMARK Flexibility Score: inf
ROOT
ATOM      1  C   UNL     1     -14.716  -1.536 -10.694  1.00  0.00     0.048 C 
ATOM      2  C   UNL     1     -14.206  -0.208 -10.208  1.00  0.00    -0.009 A 
ATOM      3  C   UNL     1     -12.825   0.021 -10.015  1.00  0.00     0.118 A 
ATOM      4  C   UNL     1     -12.384   1.269  -9.561  1.00  0.00     0.050 A 
ATOM      5  C   UNL     1     -13.294   2.305  -9.293  1.00  0.00    -0.042 A 
ATOM      6  C   UNL     1     -14.666   2.069  -9.488  1.00  0.00     0.004 A 
ATOM      7  C   UNL     1     -15.115   0.828  -9.941  1.00  0.00     0.007 A 
ENDROOT
BRANCH   3   8
ATOM      8  O   UNL     1     -11.872  -0.968 -10.262  1.00  0.00    -0.508 OA
ATOM      9  H   UNL     1     -11.915  -1.892  -9.853  1.00  0.00     0.293 HD
ENDBRANCH   3   8
BRANCH   5  10
ATOM     10  C   UNL     1     -12.791   3.650  -8.802  1.00  0.00     0.013 C 
ATOM     11  C   UNL     1     -11.376   3.532  -8.222  1.00  0.00     0.012 C 
ATOM     12  C   UNL     1     -13.756   4.262  -7.781  1.00  0.00     0.012 C 
ENDBRANCH   5  10
TORSDOF 2
ENDMDL
MODEL 2
REMARK VINA RESULT:    -6.157      1.533      4.267
REMARK INTER + INTRA:          -6.821
REMARK INTER:                  -6.695
REMARK INTRA:                  -0.126
REMARK UNBOUND:                -0.125
REMARK SMILES Cc1ccc(C(C)C)cc1O
REMARK SMILES IDX 1 1 2 2 10 3 9 4 5 5 4 6 3 7 11 8 6 10 7 11 8 12
REMARK H PARENT 11 9
REMARK Flexibility Score: inf
ROOT
ATOM      1  C   UNL     1     -13.897   4.288  -8.282  1.00  0.00     0.048 C 
ATOM      2  C   UNL     1     -13.778   2.914  -8.883  1.00  0.00    -0.009 A 
ATOM      3  C   UNL     1     -12.528   2.264  -8.982  1.00  0.00     0.118 A 
ATOM      4  C   UNL     1     -12.453   0.985  -9.546  1.00  0.00     0.050 A 
ATOM      5  C   UNL     1     -13.605   0.333 -10.017  1.00  0.00    -0.042 A 
ATOM      6  C   UNL     1     -14.844   0.987  -9.914  1.00  0.00     0.004 A 
ATOM      7  C   UNL     1     -14.929   2.263  -9.353  1.00  0.00     0.007 A 
ENDROOT
BRANCH   3   8
ATOM      8  O   UNL     1     -11.348   2.859  -8.532  1.00  0.00    -0.508 OA
ATOM      9  H   UNL     1     -11.242   3.859  -8.421  1.00  0.00     0.293 HD
ENDBRANCH   3   8
BRANCH   5  10
ATOM     10  C   UNL     1     -13.498  -1.053 -10.624  1.00  0.00     0.013 C 
ATOM     11  C   UNL     1     -14.797  -1.844 -10.429  1.00  0.00     0.012 C 
ATOM     12  C   UNL     1     -12.298  -1.816 -10.051  1.00  0.00     0.012 C 
ENDBRANCH   5  10
TORSDOF 2
ENDMDL
MODEL 3
REMARK VINA RESULT:    -5.467      2.339      4.313
REMARK INTER + INTRA:          -6.071
REMARK INTER:                  -5.972
REMARK INTRA:                  -0.099
REMARK UNBOUND:                -0.125
REMARK SMILES Cc1ccc(C(C)C)cc1O
REMARK SMILES IDX 1 1 2 2 10 3 9 4 5 5 4 6 3 7 11 8 6 10 7 11 8 12
REMARK H PARENT 11 9
REMARK Flexibility Score: inf
ROOT
ATOM      1  C   UNL     1     -15.063   1.684  -9.967  1.00  0.00     0.048 C 
ATOM      2  C   UNL     1     -13.952   0.671  -9.939  1.00  0.00    -0.009 A 
ATOM      3  C   UNL     1     -12.639   1.035  -9.565  1.00  0.00     0.118 A 
ATOM      4  C   UNL     1     -11.628   0.068  -9.549  1.00  0.00     0.050 A 
ATOM      5  C   UNL     1     -11.896  -1.266  -9.900  1.00  0.00    -0.042 A 
ATOM      6  C   UNL     1     -13.205  -1.619 -10.271  1.00  0.00     0.004 A 
ATOM      7  C   UNL     1     -14.220  -0.661 -10.290  1.00  0.00     0.007 A 
ENDROOT
BRANCH   3   8
ATOM      8  O   UNL     1     -12.309   2.343  -9.206  1.00  0.00    -0.508 OA
ATOM      9  H   UNL     1     -12.420   2.702  -8.266  1.00  0.00     0.293 HD
ENDBRANCH   3   8
BRANCH   5  10
ATOM     10  C   UNL     1     -10.783  -2.296  -9.875  1.00  0.00     0.013 C 
ATOM     11  C   UNL     1     -10.271  -2.521  -8.447  1.00  0.00     0.012 C 
ATOM     12  C   UNL     1      -9.639  -1.898 -10.814  1.00  0.00     0.012 C 
ENDBRANCH   5  10
TORSDOF 2
ENDMDL
MODEL 4
REMARK VINA RESULT:    -5.245      5.918      7.956
REMARK INTER + INTRA:          -5.830
REMARK INTER:                  -5.706
REMARK INTRA:                  -0.125
REMARK UNBOUND:                -0.125
REMARK SMILES Cc1ccc(C(C)C)cc1O
REMARK SMILES IDX 1 1 2 2 10 3 9 4 5 5 4 6 3 7 11 8 6 10 7 11 8 12
REMARK H PARENT 11 9
REMARK Flexibility Score: inf
ROOT
ATOM      1  C   UNL     1     -10.506  -1.946  -9.934  1.00  0.00     0.048 C 
ATOM      2  C   UNL     1     -10.562  -3.228  -9.150  1.00  0.00    -0.009 A 
ATOM      3  C   UNL     1      -9.442  -3.692  -8.424  1.00  0.00     0.118 A 
ATOM      4  C   UNL     1      -9.527  -4.890  -7.705  1.00  0.00     0.050 A 
ATOM      5  C   UNL     1     -10.713  -5.644  -7.692  1.00  0.00    -0.042 A 
ATOM      6  C   UNL     1     -11.821  -5.175  -8.417  1.00  0.00     0.004 A 
ATOM      7  C   UNL     1     -11.746  -3.981  -9.137  1.00  0.00     0.007 A 
ENDROOT
BRANCH   3   8
ATOM      8  O   UNL     1      -8.236  -2.989  -8.397  1.00  0.00    -0.508 OA
ATOM      9  H   UNL     1      -7.396  -3.350  -7.965  1.00  0.00     0.293 HD
ENDBRANCH   3   8
BRANCH   5  10
ATOM     10  C   UNL     1     -10.780  -6.939  -6.905  1.00  0.00     0.013 C 
ATOM     11  C   UNL     1     -11.113  -8.124  -7.819  1.00  0.00     0.012 C 
ATOM     12  C   UNL     1     -11.785  -6.833  -5.751  1.00  0.00     0.012 C 
ENDBRANCH   5  10
TORSDOF 2
ENDMDL
MODEL 5
REMARK VINA RESULT:    -5.148      3.759      5.148
REMARK INTER + INTRA:          -5.725
REMARK INTER:                  -5.598
REMARK INTRA:                  -0.127
REMARK UNBOUND:                -0.125
REMARK SMILES Cc1ccc(C(C)C)cc1O
REMARK SMILES IDX 1 1 2 2 10 3 9 4 5 5 4 6 3 7 11 8 6 10 7 11 8 12
REMARK H PARENT 11 9
REMARK Flexibility Score: inf
ROOT
ATOM      1  C   UNL     1      -9.910  -5.422  -7.838  1.00  0.00     0.048 C 
ATOM      2  C   UNL     1     -10.491  -4.195  -8.486  1.00  0.00    -0.009 A 
ATOM      3  C   UNL     1      -9.748  -2.997  -8.583  1.00  0.00     0.118 A 
ATOM      4  C   UNL     1     -10.318  -1.873  -9.192  1.00  0.00     0.050 A 
ATOM      5  C   UNL     1     -11.623  -1.915  -9.712  1.00  0.00    -0.042 A 
ATOM      6  C   UNL     1     -12.355  -3.111  -9.611  1.00  0.00     0.004 A 
ATOM      7  C   UNL     1     -11.794  -4.237  -9.006  1.00  0.00     0.007 A 
ENDROOT
BRANCH   3   8
ATOM      8  O   UNL     1      -8.448  -2.891  -8.085  1.00  0.00    -0.508 OA
ATOM      9  H   UNL     1      -7.814  -3.678  -8.027  1.00  0.00     0.293 HD
ENDBRANCH   3   8
BRANCH   5  10
ATOM     10  C   UNL     1     -12.219  -0.684 -10.368  1.00  0.00     0.013 C 
ATOM     11  C   UNL     1     -11.969   0.569  -9.520  1.00  0.00     0.012 C 
ATOM     12  C   UNL     1     -13.715  -0.873 -10.644  1.00  0.00     0.012 C 
ENDBRANCH   5  10
TORSDOF 2
ENDMDL
MODEL 6
REMARK VINA RESULT:    -4.938      6.158      7.721
REMARK INTER + INTRA:          -5.496
REMARK INTER:                  -5.380
REMARK INTRA:                  -0.115
REMARK UNBOUND:                -0.125
REMARK SMILES Cc1ccc(C(C)C)cc1O
REMARK SMILES IDX 1 1 2 2 10 3 9 4 5 5 4 6 3 7 11 8 6 10 7 11 8 12
REMARK H PARENT 11 9
REMARK Flexibility Score: inf
ROOT
ATOM      1  C   UNL     1     -13.758  -7.521  -5.538  1.00  0.00     0.048 C 
ATOM      2  C   UNL     1     -12.827  -6.588  -6.263  1.00  0.00    -0.009 A 
ATOM      3  C   UNL     1     -12.883  -6.443  -7.667  1.00  0.00     0.118 A 
ATOM      4  C   UNL     1     -12.002  -5.567  -8.311  1.00  0.00     0.050 A 
ATOM      5  C   UNL     1     -11.058  -4.824  -7.582  1.00  0.00    -0.042 A 
ATOM      6  C   UNL     1     -11.009  -4.975  -6.186  1.00  0.00     0.004 A 
ATOM      7  C   UNL     1     -11.884  -5.847  -5.535  1.00  0.00     0.007 A 
ENDROOT
BRANCH   3   8
ATOM      8  O   UNL     1     -13.798  -7.152  -8.447  1.00  0.00    -0.508 OA
ATOM      9  H   UNL     1     -13.658  -8.115  -8.723  1.00  0.00     0.293 HD
ENDBRANCH   3   8
BRANCH   5  10
ATOM     10  C   UNL     1     -10.114  -3.880  -8.303  1.00  0.00     0.013 C 
ATOM     11  C   UNL     1     -10.355  -2.427  -7.877  1.00  0.00     0.012 C 
ATOM     12  C   UNL     1     -10.231  -4.036  -9.823  1.00  0.00     0.012 C 
ENDBRANCH   5  10
TORSDOF 2
ENDMDL
MODEL 7
REMARK VINA RESULT:    -4.857      6.003      7.509
REMARK INTER + INTRA:          -5.408
REMARK INTER:                  -5.283
REMARK INTRA:                  -0.125
REMARK UNBOUND:                -0.125
REMARK SMILES Cc1ccc(C(C)C)cc1O
REMARK SMILES IDX 1 1 2 2 10 3 9 4 5 5 4 6 3 7 11 8 6 10 7 11 8 12
REMARK H PARENT 11 9
REMARK Flexibility Score: inf
ROOT
ATOM      1  C   UNL     1     -13.653  -7.343  -5.923  1.00  0.00     0.048 C 
ATOM      2  C   UNL     1     -12.711  -6.375  -6.584  1.00  0.00    -0.009 A 
ATOM      3  C   UNL     1     -11.689  -5.732  -5.850  1.00  0.00     0.118 A 
ATOM      4  C   UNL     1     -10.829  -4.835  -6.495  1.00  0.00     0.050 A 
ATOM      5  C   UNL     1     -10.964  -4.563  -7.867  1.00  0.00    -0.042 A 
ATOM      6  C   UNL     1     -11.983  -5.207  -8.589  1.00  0.00     0.004 A 
ATOM      7  C   UNL     1     -12.846  -6.103  -7.954  1.00  0.00     0.007 A 
ENDROOT
BRANCH   3   8
ATOM      8  O   UNL     1     -11.504  -5.960  -4.486  1.00  0.00    -0.508 OA
ATOM      9  H   UNL     1     -11.069  -5.287  -3.867  1.00  0.00     0.293 HD
ENDBRANCH   3   8
BRANCH   5  10
ATOM     10  C   UNL     1     -10.019  -3.588  -8.544  1.00  0.00     0.013 C 
ATOM     11  C   UNL     1     -10.363  -2.139  -8.175  1.00  0.00     0.012 C 
ATOM     12  C   UNL     1     -10.018  -3.784 -10.064  1.00  0.00     0.012 C 
ENDBRANCH   5  10
TORSDOF 2
ENDMDL
MODEL 8
REMARK VINA RESULT:    -4.833      1.867      4.733
REMARK INTER + INTRA:          -5.382
REMARK INTER:                  -5.256
REMARK INTRA:                  -0.126
REMARK UNBOUND:                -0.125
REMARK SMILES Cc1ccc(C(C)C)cc1O
REMARK SMILES IDX 1 1 2 2 10 3 9 4 5 5 4 6 3 7 11 8 6 10 7 11 8 12
REMARK H PARENT 11 9
REMARK Flexibility Score: inf
ROOT
ATOM      1  C   UNL     1     -12.411   3.883  -8.520  1.00  0.00     0.048 C 
ATOM      2  C   UNL     1     -12.749   2.517  -9.051  1.00  0.00    -0.009 A 
ATOM      3  C   UNL     1     -14.066   2.189  -9.443  1.00  0.00     0.118 A 
ATOM      4  C   UNL     1     -14.347   0.908  -9.932  1.00  0.00     0.050 A 
ATOM      5  C   UNL     1     -13.337  -0.063 -10.043  1.00  0.00    -0.042 A 
ATOM      6  C   UNL     1     -12.030   0.272  -9.651  1.00  0.00     0.004 A 
ATOM      7  C   UNL     1     -11.740   1.547  -9.162  1.00  0.00     0.007 A 
ENDROOT
BRANCH   3   8
ATOM      8  O   UNL     1     -15.113   3.108  -9.357  1.00  0.00    -0.508 OA
ATOM      9  H   UNL     1     -15.159   3.827  -8.646  1.00  0.00     0.293 HD
ENDBRANCH   3   8
BRANCH   5  10
ATOM     10  C   UNL     1     -13.667  -1.444 -10.577  1.00  0.00     0.013 C 
ATOM     11  C   UNL     1     -15.118  -1.826 -10.260  1.00  0.00     0.012 C 
ATOM     12  C   UNL     1     -12.690  -2.494 -10.037  1.00  0.00     0.012 C 
ENDBRANCH   5  10
TORSDOF 2
ENDMDL
