MODEL 1
REMARK VINA RESULT:    -3.375      0.000      0.000
REMARK INTER + INTRA:          -8.587
REMARK INTER:                  -5.940
REMARK INTRA:                  -2.648
REMARK UNBOUND:                -2.648
REMARK SMILES CCCCCCCCCCCCCCC(=O)[O-]
REMARK SMILES IDX 9 1 10 2 11 3 12 4 13 5 14 6 15 7 16 8 17 9 8 10 7 11 6 12
REMARK SMILES IDX 5 13 4 14 3 15 2 16 1 17
REMARK H PARENT
REMARK Flexibility Score: inf
ROOT
ATOM      1  C   UNL     1      26.520  -1.791  52.263  1.00  0.00     0.000 C 
ENDROOT
BRANCH   1   2
ATOM      2  C   UNL     1      25.367  -2.083  53.237  1.00  0.00     0.000 C 
BRANCH   2   3
ATOM      3  C   UNL     1      25.742  -1.789  54.699  1.00  0.00     0.000 C 
BRANCH   3   4
ATOM      4  C   UNL     1      26.291  -3.025  55.426  1.00  0.00     0.000 C 
BRANCH   4   5
ATOM      5  C   UNL     1      25.351  -4.227  55.253  1.00  0.00     0.006 C 
BRANCH   5   6
ATOM      6  C   UNL     1      26.046  -5.559  55.570  1.00  0.00     0.053 C 
BRANCH   6   7
ATOM      7  C   UNL     1      26.583  -5.587  56.968  1.00  0.00     0.041 C 
ATOM      8  O   UNL     1      27.820  -5.709  57.169  1.00  0.00    -0.550 OA
ATOM      9  O   UNL     1      25.721  -5.446  58.048  1.00  0.00    -0.550 OA
ENDBRANCH   6   7
ENDBRANCH   5   6
ENDBRANCH   4   5
ENDBRANCH   3   4
ENDBRANCH   2   3
ENDBRANCH   1   2
BRANCH   1  10
ATOM     10  C   UNL     1      26.796  -2.960  51.300  1.00  0.00     0.000 C 
BRANCH  10  11
ATOM     11  C   UNL     1      25.921  -4.210  51.523  1.00  0.00    -0.000 C 
BRANCH  11  12
ATOM     12  C   UNL     1      26.687  -5.478  51.943  1.00  0.00    -0.000 C 
BRANCH  12  13
ATOM     13  C   UNL     1      28.211  -5.314  51.848  1.00  0.00    -0.000 C 
BRANCH  13  14
ATOM     14  C   UNL     1      28.896  -5.799  53.134  1.00  0.00    -0.000 C 
BRANCH  14  15
ATOM     15  C   UNL     1      29.281  -4.645  54.073  1.00  0.00    -0.000 C 
BRANCH  15  16
ATOM     16  C   UNL     1      29.796  -3.413  53.314  1.00  0.00    -0.003 C 
ATOM     17  C   UNL     1      29.684  -2.155  54.171  1.00  0.00     0.004 C 
ENDBRANCH  15  16
ENDBRANCH  14  15
ENDBRANCH  13  14
ENDBRANCH  12  13
ENDBRANCH  11  12
ENDBRANCH  10  11
ENDBRANCH   1  10
TORSDOF 13
ENDMDL
MODEL 2
REMARK VINA RESULT:    -3.368      2.849      5.264
REMARK INTER + INTRA:          -8.576
REMARK INTER:                  -6.288
REMARK INTRA:                  -2.287
REMARK UNBOUND:                -2.648
REMARK SMILES CCCCCCCCCCCCCCC(=O)[O-]
REMARK SMILES IDX 9 1 10 2 11 3 12 4 13 5 14 6 15 7 16 8 17 9 8 10 7 11 6 12
REMARK SMILES IDX 5 13 4 14 3 15 2 16 1 17
REMARK H PARENT
REMARK Flexibility Score: inf
ROOT
ATOM      1  C   UNL     1      26.527  -5.374  51.981  1.00  0.00     0.000 C 
ENDROOT
BRANCH   1   2
ATOM      2  C   UNL     1      28.049  -5.509  51.803  1.00  0.00     0.000 C 
BRANCH   2   3
ATOM      3  C   UNL     1      28.760  -5.912  53.105  1.00  0.00     0.000 C 
BRANCH   3   4
ATOM      4  C   UNL     1      29.250  -4.698  53.909  1.00  0.00     0.000 C 
BRANCH   4   5
ATOM      5  C   UNL     1      30.187  -3.822  53.064  1.00  0.00     0.006 C 
BRANCH   5   6
ATOM      6  C   UNL     1      30.202  -2.363  53.538  1.00  0.00     0.053 C 
BRANCH   6   7
ATOM      7  C   UNL     1      30.165  -1.404  52.387  1.00  0.00     0.041 C 
ATOM      8  O   UNL     1      29.739  -0.231  52.554  1.00  0.00    -0.550 OA
ATOM      9  O   UNL     1      30.634  -1.795  51.139  1.00  0.00    -0.550 OA
ENDBRANCH   6   7
ENDBRANCH   5   6
ENDBRANCH   4   5
ENDBRANCH   3   4
ENDBRANCH   2   3
ENDBRANCH   1   2
BRANCH   1  10
ATOM     10  C   UNL     1      25.956  -4.121  51.291  1.00  0.00     0.000 C 
BRANCH  10  11
ATOM     11  C   UNL     1      26.860  -2.873  51.355  1.00  0.00    -0.000 C 
BRANCH  11  12
ATOM     12  C   UNL     1      26.390  -1.775  52.327  1.00  0.00    -0.000 C 
BRANCH  12  13
ATOM     13  C   UNL     1      26.423  -2.223  53.796  1.00  0.00    -0.000 C 
BRANCH  13  14
ATOM     14  C   UNL     1      25.003  -2.305  54.375  1.00  0.00    -0.000 C 
BRANCH  14  15
ATOM     15  C   UNL     1      24.561  -3.748  54.660  1.00  0.00    -0.000 C 
BRANCH  15  16
ATOM     16  C   UNL     1      25.164  -4.305  55.958  1.00  0.00    -0.003 C 
ATOM     17  C   UNL     1      26.078  -5.495  55.673  1.00  0.00     0.004 C 
ENDBRANCH  15  16
ENDBRANCH  14  15
ENDBRANCH  13  14
ENDBRANCH  12  13
ENDBRANCH  11  12
ENDBRANCH  10  11
ENDBRANCH   1  10
TORSDOF 13
ENDMDL
MODEL 3
REMARK VINA RESULT:    -3.347      1.462      2.635
REMARK INTER + INTRA:          -8.538
REMARK INTER:                  -6.223
REMARK INTRA:                  -2.316
REMARK UNBOUND:                -2.648
REMARK SMILES CCCCCCCCCCCCCCC(=O)[O-]
REMARK SMILES IDX 9 1 10 2 11 3 12 4 13 5 14 6 15 7 16 8 17 9 8 10 7 11 6 12
REMARK SMILES IDX 5 13 4 14 3 15 2 16 1 17
REMARK H PARENT
REMARK Flexibility Score: inf
ROOT
ATOM      1  C   UNL     1      26.702  -2.439  54.770  1.00  0.00     0.000 C 
ENDROOT
BRANCH   1   2
ATOM      2  C   UNL     1      25.182  -2.662  54.686  1.00  0.00     0.000 C 
BRANCH   2   3
ATOM      3  C   UNL     1      24.784  -4.118  54.973  1.00  0.00     0.000 C 
BRANCH   3   4
ATOM      4  C   UNL     1      25.987  -4.993  55.356  1.00  0.00     0.000 C 
BRANCH   4   5
ATOM      5  C   UNL     1      25.792  -5.616  56.746  1.00  0.00     0.006 C 
BRANCH   5   6
ATOM      6  C   UNL     1      26.200  -4.659  57.874  1.00  0.00     0.053 C 
BRANCH   6   7
ATOM      7  C   UNL     1      25.020  -4.227  58.691  1.00  0.00     0.041 C 
ATOM      8  O   UNL     1      23.910  -4.806  58.555  1.00  0.00    -0.550 OA
ATOM      9  O   UNL     1      25.156  -3.208  59.625  1.00  0.00    -0.550 OA
ENDBRANCH   6   7
ENDBRANCH   5   6
ENDBRANCH   4   5
ENDBRANCH   3   4
ENDBRANCH   2   3
ENDBRANCH   1   2
BRANCH   1  10
ATOM     10  C   UNL     1      27.266  -1.709  53.537  1.00  0.00     0.000 C 
BRANCH  10  11
ATOM     11  C   UNL     1      26.420  -1.846  52.255  1.00  0.00    -0.000 C 
BRANCH  11  12
ATOM     12  C   UNL     1      26.841  -2.990  51.314  1.00  0.00    -0.000 C 
BRANCH  12  13
ATOM     13  C   UNL     1      25.866  -4.177  51.344  1.00  0.00    -0.000 C 
BRANCH  13  14
ATOM     14  C   UNL     1      26.569  -5.450  51.839  1.00  0.00    -0.000 C 
BRANCH  14  15
ATOM     15  C   UNL     1      28.100  -5.332  51.809  1.00  0.00    -0.000 C 
BRANCH  15  16
ATOM     16  C   UNL     1      28.758  -5.842  53.099  1.00  0.00    -0.003 C 
ATOM     17  C   UNL     1      29.520  -4.724  53.806  1.00  0.00     0.004 C 
ENDBRANCH  15  16
ENDBRANCH  14  15
ENDBRANCH  13  14
ENDBRANCH  12  13
ENDBRANCH  11  12
ENDBRANCH  10  11
ENDBRANCH   1  10
TORSDOF 13
ENDMDL
MODEL 4
REMARK VINA RESULT:    -3.347      1.303      2.637
REMARK INTER + INTRA:          -8.538
REMARK INTER:                  -6.437
REMARK INTRA:                  -2.101
REMARK UNBOUND:                -2.648
REMARK SMILES CCCCCCCCCCCCCCC(=O)[O-]
REMARK SMILES IDX 9 1 10 2 11 3 12 4 13 5 14 6 15 7 16 8 17 9 8 10 7 11 6 12
REMARK SMILES IDX 5 13 4 14 3 15 2 16 1 17
REMARK H PARENT
REMARK Flexibility Score: inf
ROOT
ATOM      1  C   UNL     1      25.753  -3.992  52.053  1.00  0.00     0.000 C 
ENDROOT
BRANCH   1   2
ATOM      2  C   UNL     1      24.891  -3.356  53.157  1.00  0.00     0.000 C 
BRANCH   2   3
ATOM      3  C   UNL     1      25.173  -3.955  54.543  1.00  0.00     0.000 C 
BRANCH   3   4
ATOM      4  C   UNL     1      26.024  -5.233  54.471  1.00  0.00     0.000 C 
BRANCH   4   5
ATOM      5  C   UNL     1      26.387  -5.731  55.877  1.00  0.00     0.006 C 
BRANCH   5   6
ATOM      6  C   UNL     1      26.261  -4.627  56.936  1.00  0.00     0.053 C 
BRANCH   6   7
ATOM      7  C   UNL     1      25.464  -5.081  58.120  1.00  0.00     0.041 C 
ATOM      8  O   UNL     1      24.211  -4.955  58.126  1.00  0.00    -0.550 OA
ATOM      9  O   UNL     1      26.101  -5.673  59.203  1.00  0.00    -0.550 OA
ENDBRANCH   6   7
ENDBRANCH   5   6
ENDBRANCH   4   5
ENDBRANCH   3   4
ENDBRANCH   2   3
ENDBRANCH   1   2
BRANCH   1  10
ATOM     10  C   UNL     1      26.661  -2.971  51.344  1.00  0.00     0.000 C 
BRANCH  10  11
ATOM     11  C   UNL     1      26.824  -1.624  52.076  1.00  0.00    -0.000 C 
BRANCH  11  12
ATOM     12  C   UNL     1      28.205  -1.389  52.714  1.00  0.00    -0.000 C 
BRANCH  12  13
ATOM     13  C   UNL     1      28.416  -2.204  53.999  1.00  0.00    -0.000 C 
BRANCH  13  14
ATOM     14  C   UNL     1      29.697  -3.047  53.908  1.00  0.00    -0.000 C 
BRANCH  14  15
ATOM     15  C   UNL     1      29.411  -4.534  53.649  1.00  0.00    -0.000 C 
BRANCH  15  16
ATOM     16  C   UNL     1      30.160  -5.075  52.423  1.00  0.00    -0.003 C 
ATOM     17  C   UNL     1      29.187  -5.624  51.383  1.00  0.00     0.004 C 
ENDBRANCH  15  16
ENDBRANCH  14  15
ENDBRANCH  13  14
ENDBRANCH  12  13
ENDBRANCH  11  12
ENDBRANCH  10  11
ENDBRANCH   1  10
TORSDOF 13
ENDMDL
MODEL 5
REMARK VINA RESULT:    -3.318     10.867     12.691
REMARK INTER + INTRA:          -8.488
REMARK INTER:                  -6.011
REMARK INTRA:                  -2.477
REMARK UNBOUND:                -2.648
REMARK SMILES CCCCCCCCCCCCCCC(=O)[O-]
REMARK SMILES IDX 9 1 10 2 11 3 12 4 13 5 14 6 15 7 16 8 17 9 8 10 7 11 6 12
REMARK SMILES IDX 5 13 4 14 3 15 2 16 1 17
REMARK H PARENT
REMARK Flexibility Score: inf
ROOT
ATOM      1  C   UNL     1      15.349   1.949  59.519  1.00  0.00     0.000 C 
ENDROOT
BRANCH   1   2
ATOM      2  C   UNL     1      16.827   2.354  59.658  1.00  0.00     0.000 C 
BRANCH   2   3
ATOM      3  C   UNL     1      17.549   1.575  60.768  1.00  0.00     0.000 C 
BRANCH   3   4
ATOM      4  C   UNL     1      18.305   0.350  60.231  1.00  0.00     0.000 C 
BRANCH   4   5
ATOM      5  C   UNL     1      17.523  -0.942  60.505  1.00  0.00     0.006 C 
BRANCH   5   6
ATOM      6  C   UNL     1      16.590  -0.811  61.717  1.00  0.00     0.053 C 
BRANCH   6   7
ATOM      7  C   UNL     1      15.359  -1.651  61.565  1.00  0.00     0.041 C 
ATOM      8  O   UNL     1      14.440  -1.292  60.783  1.00  0.00    -0.550 OA
ATOM      9  O   UNL     1      15.241  -2.847  62.262  1.00  0.00    -0.550 OA
ENDBRANCH   6   7
ENDBRANCH   5   6
ENDBRANCH   4   5
ENDBRANCH   3   4
ENDBRANCH   2   3
ENDBRANCH   1   2
BRANCH   1  10
ATOM     10  C   UNL     1      14.974   1.553  58.079  1.00  0.00     0.000 C 
BRANCH  10  11
ATOM     11  C   UNL     1      15.242   0.079  57.717  1.00  0.00    -0.000 C 
BRANCH  11  12
ATOM     12  C   UNL     1      16.069  -0.139  56.436  1.00  0.00    -0.000 C 
BRANCH  12  13
ATOM     13  C   UNL     1      17.533  -0.502  56.725  1.00  0.00    -0.000 C 
BRANCH  13  14
ATOM     14  C   UNL     1      18.449   0.715  56.525  1.00  0.00    -0.000 C 
BRANCH  14  15
ATOM     15  C   UNL     1      17.840   1.767  55.586  1.00  0.00    -0.000 C 
BRANCH  15  16
ATOM     16  C   UNL     1      17.863   3.180  56.187  1.00  0.00    -0.003 C 
ATOM     17  C   UNL     1      16.631   3.976  55.765  1.00  0.00     0.004 C 
ENDBRANCH  15  16
ENDBRANCH  14  15
ENDBRANCH  13  14
ENDBRANCH  12  13
ENDBRANCH  11  12
ENDBRANCH  10  11
ENDBRANCH   1  10
TORSDOF 13
ENDMDL
MODEL 6
REMARK VINA RESULT:    -3.300     10.983     13.449
REMARK INTER + INTRA:          -8.455
REMARK INTER:                  -6.109
REMARK INTRA:                  -2.346
REMARK UNBOUND:                -2.648
REMARK SMILES CCCCCCCCCCCCCCC(=O)[O-]
REMARK SMILES IDX 9 1 10 2 11 3 12 4 13 5 14 6 15 7 16 8 17 9 8 10 7 11 6 12
REMARK SMILES IDX 5 13 4 14 3 15 2 16 1 17
REMARK H PARENT
REMARK Flexibility Score: inf
ROOT
ATOM      1  C   UNL     1      16.913   1.487  59.830  1.00  0.00     0.000 C 
ENDROOT
BRANCH   1   2
ATOM      2  C   UNL     1      16.537   2.435  58.678  1.00  0.00     0.000 C 
BRANCH   2   3
ATOM      3  C   UNL     1      15.411   1.872  57.796  1.00  0.00     0.000 C 
BRANCH   3   4
ATOM      4  C   UNL     1      15.428   0.337  57.728  1.00  0.00     0.000 C 
BRANCH   4   5
ATOM      5  C   UNL     1      16.061  -0.147  56.415  1.00  0.00     0.006 C 
BRANCH   5   6
ATOM      6  C   UNL     1      17.325  -0.984  56.654  1.00  0.00     0.053 C 
BRANCH   6   7
ATOM      7  C   UNL     1      18.537  -0.122  56.836  1.00  0.00     0.041 C 
ATOM      8  O   UNL     1      18.607   1.000  56.268  1.00  0.00    -0.550 OA
ATOM      9  O   UNL     1      19.574  -0.542  57.660  1.00  0.00    -0.550 OA
ENDBRANCH   6   7
ENDBRANCH   5   6
ENDBRANCH   4   5
ENDBRANCH   3   4
ENDBRANCH   2   3
ENDBRANCH   1   2
BRANCH   1  10
ATOM     10  C   UNL     1      16.505   2.037  61.210  1.00  0.00     0.000 C 
BRANCH  10  11
ATOM     11  C   UNL     1      15.535   1.143  62.008  1.00  0.00    -0.000 C 
BRANCH  11  12
ATOM     12  C   UNL     1      14.316   0.632  61.217  1.00  0.00    -0.000 C 
BRANCH  12  13
ATOM     13  C   UNL     1      13.756  -0.687  61.770  1.00  0.00    -0.000 C 
BRANCH  13  14
ATOM     14  C   UNL     1      14.847  -1.767  61.819  1.00  0.00    -0.000 C 
BRANCH  14  15
ATOM     15  C   UNL     1      15.252  -2.264  60.423  1.00  0.00    -0.000 C 
BRANCH  15  16
ATOM     16  C   UNL     1      16.763  -2.150  60.171  1.00  0.00    -0.003 C 
ATOM     17  C   UNL     1      17.527  -1.980  61.482  1.00  0.00     0.004 C 
ENDBRANCH  15  16
ENDBRANCH  14  15
ENDBRANCH  13  14
ENDBRANCH  12  13
ENDBRANCH  11  12
ENDBRANCH  10  11
ENDBRANCH   1  10
TORSDOF 13
ENDMDL
MODEL 7
REMARK VINA RESULT:    -3.279     11.502     13.938
REMARK INTER + INTRA:          -8.418
REMARK INTER:                  -6.029
REMARK INTRA:                  -2.389
REMARK UNBOUND:                -2.648
REMARK SMILES CCCCCCCCCCCCCCC(=O)[O-]
REMARK SMILES IDX 9 1 10 2 11 3 12 4 13 5 14 6 15 7 16 8 17 9 8 10 7 11 6 12
REMARK SMILES IDX 5 13 4 14 3 15 2 16 1 17
REMARK H PARENT
REMARK Flexibility Score: inf
ROOT
ATOM      1  C   UNL     1      17.800  -1.332  60.415  1.00  0.00     0.000 C 
ENDROOT
BRANCH   1   2
ATOM      2  C   UNL     1      18.659  -0.600  59.369  1.00  0.00     0.000 C 
BRANCH   2   3
ATOM      3  C   UNL     1      18.779   0.905  59.655  1.00  0.00     0.000 C 
BRANCH   3   4
ATOM      4  C   UNL     1      18.626   1.235  61.148  1.00  0.00     0.000 C 
BRANCH   4   5
ATOM      5  C   UNL     1      18.079   2.657  61.343  1.00  0.00     0.006 C 
BRANCH   5   6
ATOM      6  C   UNL     1      17.378   2.828  62.698  1.00  0.00     0.053 C 
BRANCH   6   7
ATOM      7  C   UNL     1      17.804   4.088  63.389  1.00  0.00     0.041 C 
ATOM      8  O   UNL     1      17.419   4.327  64.564  1.00  0.00    -0.550 OA
ATOM      9  O   UNL     1      18.652   4.982  62.748  1.00  0.00    -0.550 OA
ENDBRANCH   6   7
ENDBRANCH   5   6
ENDBRANCH   4   5
ENDBRANCH   3   4
ENDBRANCH   2   3
ENDBRANCH   1   2
BRANCH   1  10
ATOM     10  C   UNL     1      16.528  -1.954  59.809  1.00  0.00     0.000 C 
BRANCH  10  11
ATOM     11  C   UNL     1      15.214  -1.573  60.520  1.00  0.00    -0.000 C 
BRANCH  11  12
ATOM     12  C   UNL     1      15.257  -0.254  61.313  1.00  0.00    -0.000 C 
BRANCH  12  13
ATOM     13  C   UNL     1      14.369   0.840  60.701  1.00  0.00    -0.000 C 
BRANCH  13  14
ATOM     14  C   UNL     1      15.121   1.604  59.601  1.00  0.00    -0.000 C 
BRANCH  14  15
ATOM     15  C   UNL     1      14.826   1.063  58.195  1.00  0.00    -0.000 C 
BRANCH  15  16
ATOM     16  C   UNL     1      16.039   1.157  57.258  1.00  0.00    -0.003 C 
ATOM     17  C   UNL     1      16.271  -0.162  56.525  1.00  0.00     0.004 C 
ENDBRANCH  15  16
ENDBRANCH  14  15
ENDBRANCH  13  14
ENDBRANCH  12  13
ENDBRANCH  11  12
ENDBRANCH  10  11
ENDBRANCH   1  10
TORSDOF 13
ENDMDL
MODEL 8
REMARK VINA RESULT:    -3.262     10.687     12.894
REMARK INTER + INTRA:          -8.389
REMARK INTER:                  -5.874
REMARK INTRA:                  -2.515
REMARK UNBOUND:                -2.648
REMARK SMILES CCCCCCCCCCCCCCC(=O)[O-]
REMARK SMILES IDX 9 1 10 2 11 3 12 4 13 5 14 6 15 7 16 8 17 9 8 10 7 11 6 12
REMARK SMILES IDX 5 13 4 14 3 15 2 16 1 17
REMARK H PARENT
REMARK Flexibility Score: inf
ROOT
ATOM      1  C   UNL     1      15.651  -0.079  56.973  1.00  0.00     0.000 C 
ENDROOT
BRANCH   1   2
ATOM      2  C   UNL     1      15.103   0.764  58.137  1.00  0.00     0.000 C 
BRANCH   2   3
ATOM      3  C   UNL     1      15.239   2.274  57.885  1.00  0.00     0.000 C 
BRANCH   3   4
ATOM      4  C   UNL     1      16.467   2.879  58.582  1.00  0.00     0.000 C 
BRANCH   4   5
ATOM      5  C   UNL     1      17.418   3.520  57.561  1.00  0.00     0.006 C 
BRANCH   5   6
ATOM      6  C   UNL     1      16.812   3.566  56.151  1.00  0.00     0.053 C 
BRANCH   6   7
ATOM      7  C   UNL     1      17.831   3.257  55.097  1.00  0.00     0.041 C 
ATOM      8  O   UNL     1      17.857   2.121  54.555  1.00  0.00    -0.550 OA
ATOM      9  O   UNL     1      18.730   4.235  54.690  1.00  0.00    -0.550 OA
ENDBRANCH   6   7
ENDBRANCH   5   6
ENDBRANCH   4   5
ENDBRANCH   3   4
ENDBRANCH   2   3
ENDBRANCH   1   2
BRANCH   1  10
ATOM     10  C   UNL     1      16.849  -0.955  57.385  1.00  0.00     0.000 C 
BRANCH  10  11
ATOM     11  C   UNL     1      18.234  -0.346  57.089  1.00  0.00    -0.000 C 
BRANCH  11  12
ATOM     12  C   UNL     1      18.989   0.189  58.320  1.00  0.00    -0.000 C 
BRANCH  12  13
ATOM     13  C   UNL     1      18.632  -0.561  59.612  1.00  0.00    -0.000 C 
BRANCH  13  14
ATOM     14  C   UNL     1      18.111   0.409  60.683  1.00  0.00    -0.000 C 
BRANCH  14  15
ATOM     15  C   UNL     1      16.810  -0.076  61.341  1.00  0.00    -0.000 C 
BRANCH  15  16
ATOM     16  C   UNL     1      16.507  -1.550  61.033  1.00  0.00    -0.003 C 
ATOM     17  C   UNL     1      15.026  -1.752  60.721  1.00  0.00     0.004 C 
ENDBRANCH  15  16
ENDBRANCH  14  15
ENDBRANCH  13  14
ENDBRANCH  12  13
ENDBRANCH  11  12
ENDBRANCH  10  11
ENDBRANCH   1  10
TORSDOF 13
ENDMDL
MODEL 9
REMARK VINA RESULT:    -3.256     11.937     14.215
REMARK INTER + INTRA:          -8.378
REMARK INTER:                  -5.896
REMARK INTRA:                  -2.482
REMARK UNBOUND:                -2.648
REMARK SMILES CCCCCCCCCCCCCCC(=O)[O-]
REMARK SMILES IDX 9 1 10 2 11 3 12 4 13 5 14 6 15 7 16 8 17 9 8 10 7 11 6 12
REMARK SMILES IDX 5 13 4 14 3 15 2 16 1 17
REMARK H PARENT
REMARK Flexibility Score: inf
ROOT
ATOM      1  C   UNL     1      18.724   1.177  60.096  1.00  0.00     0.000 C 
ENDROOT
BRANCH   1   2
ATOM      2  C   UNL     1      18.024   2.160  61.051  1.00  0.00     0.000 C 
BRANCH   2   3
ATOM      3  C   UNL     1      16.861   2.906  60.379  1.00  0.00     0.000 C 
BRANCH   3   4
ATOM      4  C   UNL     1      15.542   2.760  61.153  1.00  0.00     0.000 C 
BRANCH   4   5
ATOM      5  C   UNL     1      15.795   2.239  62.575  1.00  0.00     0.006 C 
BRANCH   5   6
ATOM      6  C   UNL     1      15.361   3.248  63.648  1.00  0.00     0.053 C 
BRANCH   6   7
ATOM      7  C   UNL     1      16.294   4.419  63.721  1.00  0.00     0.041 C 
ATOM      8  O   UNL     1      15.885   5.572  63.425  1.00  0.00    -0.550 OA
ATOM      9  O   UNL     1      17.604   4.241  64.147  1.00  0.00    -0.550 OA
ENDBRANCH   6   7
ENDBRANCH   5   6
ENDBRANCH   4   5
ENDBRANCH   3   4
ENDBRANCH   2   3
ENDBRANCH   1   2
BRANCH   1  10
ATOM     10  C   UNL     1      19.277  -0.064  60.821  1.00  0.00     0.000 C 
BRANCH  10  11
ATOM     11  C   UNL     1      18.347  -1.293  60.814  1.00  0.00    -0.000 C 
BRANCH  11  12
ATOM     12  C   UNL     1      17.268  -1.303  61.913  1.00  0.00    -0.000 C 
BRANCH  12  13
ATOM     13  C   UNL     1      15.845  -1.160  61.355  1.00  0.00    -0.000 C 
BRANCH  13  14
ATOM     14  C   UNL     1      15.826  -1.392  59.836  1.00  0.00    -0.000 C 
BRANCH  14  15
ATOM     15  C   UNL     1      15.134  -0.254  59.071  1.00  0.00    -0.000 C 
BRANCH  15  16
ATOM     16  C   UNL     1      15.940   0.211  57.849  1.00  0.00    -0.003 C 
ATOM     17  C   UNL     1      16.878  -0.890  57.358  1.00  0.00     0.004 C 
ENDBRANCH  15  16
ENDBRANCH  14  15
ENDBRANCH  13  14
ENDBRANCH  12  13
ENDBRANCH  11  12
ENDBRANCH  10  11
ENDBRANCH   1  10
TORSDOF 13
ENDMDL
