MODEL 1
REMARK VINA RESULT:    -4.727      0.000      0.000
REMARK INTER + INTRA:          -5.335
REMARK INTER:                  -5.142
REMARK INTRA:                  -0.193
REMARK UNBOUND:                -0.193
REMARK SMILES C=C(C)[C@@H]1CC[C@@H](C)C[C@@H]1O
REMARK SMILES IDX 8 1 7 2 6 3 5 4 4 5 10 6 9 7 11 8 2 10 1 11 3 12
REMARK H PARENT 11 9
REMARK Flexibility Score: inf
ROOT
ATOM      1  C   UNL     1     119.031 116.557 116.129  1.00  0.00     0.008 C 
ATOM      2  C   UNL     1     120.220 117.521 116.219  1.00  0.00    -0.012 C 
ATOM      3  C   UNL     1     120.475 118.190 114.853  1.00  0.00     0.004 C 
ATOM      4  C   UNL     1     121.681 119.137 114.917  1.00  0.00     0.011 C 
ATOM      5  C   UNL     1     122.940 118.388 115.404  1.00  0.00     0.043 C 
ATOM      6  C   UNL     1     122.700 117.722 116.780  1.00  0.00     0.121 C 
ATOM      7  C   UNL     1     121.481 116.780 116.709  1.00  0.00     0.035 C 
ENDROOT
BRANCH   6   8
ATOM      8  O   UNL     1     122.494 118.692 117.775  1.00  0.00    -0.392 OA
ATOM      9  H   UNL     1     121.544 118.622 118.054  1.00  0.00     0.210 HD
ENDBRANCH   6   8
BRANCH   5  10
ATOM     10  C   UNL     1     124.178 119.279 115.403  1.00  0.00    -0.075 C 
ATOM     11  C   UNL     1     124.099 120.603 115.184  1.00  0.00     0.008 C 
ATOM     12  C   UNL     1     125.538 118.675 115.648  1.00  0.00     0.039 C 
ENDBRANCH   5  10
TORSDOF 2
ENDMDL
MODEL 2
REMARK VINA RESULT:    -4.566     15.785     17.357
REMARK INTER + INTRA:          -5.159
REMARK INTER:                  -5.009
REMARK INTRA:                  -0.150
REMARK UNBOUND:                -0.193
REMARK SMILES C=C(C)[C@@H]1CC[C@@H](C)C[C@@H]1O
REMARK SMILES IDX 8 1 7 2 6 3 5 4 4 5 10 6 9 7 11 8 2 10 1 11 3 12
REMARK H PARENT 11 9
REMARK Flexibility Score: inf
ROOT
ATOM      1  C   UNL     1     109.195 118.049 124.330  1.00  0.00     0.008 C 
ATOM      2  C   UNL     1     109.862 117.825 125.692  1.00  0.00    -0.012 C 
ATOM      3  C   UNL     1     110.038 116.318 125.965  1.00  0.00     0.004 C 
ATOM      4  C   UNL     1     110.678 116.074 127.338  1.00  0.00     0.011 C 
ATOM      5  C   UNL     1     109.845 116.739 128.455  1.00  0.00     0.043 C 
ATOM      6  C   UNL     1     109.670 118.255 128.199  1.00  0.00     0.121 C 
ATOM      7  C   UNL     1     109.036 118.490 126.814  1.00  0.00     0.035 C 
ENDROOT
BRANCH   6   8
ATOM      8  O   UNL     1     110.906 118.920 128.277  1.00  0.00    -0.392 OA
ATOM      9  H   UNL     1     110.823 119.599 128.996  1.00  0.00     0.210 HD
ENDBRANCH   6   8
BRANCH   5  10
ATOM     10  C   UNL     1     110.407 116.450 129.844  1.00  0.00    -0.075 C 
ATOM     11  C   UNL     1     109.907 117.036 130.946  1.00  0.00     0.008 C 
ATOM     12  C   UNL     1     111.556 115.488 130.004  1.00  0.00     0.039 C 
ENDBRANCH   5  10
TORSDOF 2
ENDMDL
MODEL 3
REMARK VINA RESULT:    -4.538     15.478     15.987
REMARK INTER + INTRA:          -5.129
REMARK INTER:                  -4.961
REMARK INTRA:                  -0.167
REMARK UNBOUND:                -0.193
REMARK SMILES C=C(C)[C@@H]1CC[C@@H](C)C[C@@H]1O
REMARK SMILES IDX 8 1 7 2 6 3 5 4 4 5 10 6 9 7 11 8 2 10 1 11 3 12
REMARK H PARENT 11 9
REMARK Flexibility Score: inf
ROOT
ATOM      1  C   UNL     1     115.653 125.601 125.969  1.00  0.00     0.008 C 
ATOM      2  C   UNL     1     116.029 127.056 125.667  1.00  0.00    -0.012 C 
ATOM      3  C   UNL     1     117.554 127.251 125.773  1.00  0.00     0.004 C 
ATOM      4  C   UNL     1     117.947 128.710 125.503  1.00  0.00     0.011 C 
ATOM      5  C   UNL     1     117.204 129.663 126.464  1.00  0.00     0.043 C 
ATOM      6  C   UNL     1     115.671 129.485 126.358  1.00  0.00     0.121 C 
ATOM      7  C   UNL     1     115.287 128.015 126.622  1.00  0.00     0.035 C 
ENDROOT
BRANCH   6   8
ATOM      8  O   UNL     1     115.209 129.878 125.091  1.00  0.00    -0.392 OA
ATOM      9  H   UNL     1     115.821 130.591 124.770  1.00  0.00     0.210 HD
ENDBRANCH   6   8
BRANCH   5  10
ATOM     10  C   UNL     1     117.629 131.117 126.279  1.00  0.00    -0.075 C 
ATOM     11  C   UNL     1     118.249 131.537 125.162  1.00  0.00     0.008 C 
ATOM     12  C   UNL     1     117.362 132.123 127.369  1.00  0.00     0.039 C 
ENDBRANCH   5  10
TORSDOF 2
ENDMDL
MODEL 4
REMARK VINA RESULT:    -4.380     13.944     15.825
REMARK INTER + INTRA:          -4.957
REMARK INTER:                  -4.764
REMARK INTRA:                  -0.192
REMARK UNBOUND:                -0.193
REMARK SMILES C=C(C)[C@@H]1CC[C@@H](C)C[C@@H]1O
REMARK SMILES IDX 8 1 7 2 6 3 5 4 4 5 10 6 9 7 11 8 2 10 1 11 3 12
REMARK H PARENT 11 9
REMARK Flexibility Score: inf
ROOT
ATOM      1  C   UNL     1     109.591 115.979 128.641  1.00  0.00     0.008 C 
ATOM      2  C   UNL     1     109.492 116.931 127.444  1.00  0.00    -0.012 C 
ATOM      3  C   UNL     1     109.866 116.199 126.140  1.00  0.00     0.004 C 
ATOM      4  C   UNL     1     109.801 117.146 124.934  1.00  0.00     0.011 C 
ATOM      5  C   UNL     1     110.710 118.373 125.153  1.00  0.00     0.043 C 
ATOM      6  C   UNL     1     110.338 119.124 126.453  1.00  0.00     0.121 C 
ATOM      7  C   UNL     1     110.397 118.163 127.657  1.00  0.00     0.035 C 
ENDROOT
BRANCH   6   8
ATOM      8  O   UNL     1     109.054 119.686 126.354  1.00  0.00    -0.392 OA
ATOM      9  H   UNL     1     108.785 119.625 125.400  1.00  0.00     0.210 HD
ENDBRANCH   6   8
BRANCH   5  10
ATOM     10  C   UNL     1     110.734 119.298 123.939  1.00  0.00    -0.075 C 
ATOM     11  C   UNL     1     111.609 120.313 123.839  1.00  0.00     0.008 C 
ATOM     12  C   UNL     1     109.753 119.087 122.814  1.00  0.00     0.039 C 
ENDBRANCH   5  10
TORSDOF 2
ENDMDL
MODEL 5
REMARK VINA RESULT:    -4.345     14.686     16.918
REMARK INTER + INTRA:          -4.918
REMARK INTER:                  -4.727
REMARK INTRA:                  -0.192
REMARK UNBOUND:                -0.193
REMARK SMILES C=C(C)[C@@H]1CC[C@@H](C)C[C@@H]1O
REMARK SMILES IDX 8 1 7 2 6 3 5 4 4 5 10 6 9 7 11 8 2 10 1 11 3 12
REMARK H PARENT 11 9
REMARK Flexibility Score: inf
ROOT
ATOM      1  C   UNL     1     111.180 115.633 130.805  1.00  0.00     0.008 C 
ATOM      2  C   UNL     1     110.738 116.644 129.742  1.00  0.00    -0.012 C 
ATOM      3  C   UNL     1     109.737 115.996 128.765  1.00  0.00     0.004 C 
ATOM      4  C   UNL     1     109.305 116.986 127.675  1.00  0.00     0.011 C 
ATOM      5  C   UNL     1     110.533 117.535 126.917  1.00  0.00     0.043 C 
ATOM      6  C   UNL     1     111.540 118.199 127.886  1.00  0.00     0.121 C 
ATOM      7  C   UNL     1     111.960 117.200 128.982  1.00  0.00     0.035 C 
ENDROOT
BRANCH   6   8
ATOM      8  O   UNL     1     110.983 119.347 128.475  1.00  0.00    -0.392 OA
ATOM      9  H   UNL     1     110.105 119.497 128.038  1.00  0.00     0.210 HD
ENDBRANCH   6   8
BRANCH   5  10
ATOM     10  C   UNL     1     110.137 118.463 125.772  1.00  0.00    -0.075 C 
ATOM     11  C   UNL     1     108.875 118.899 125.617  1.00  0.00     0.008 C 
ATOM     12  C   UNL     1     111.175 118.908 124.773  1.00  0.00     0.039 C 
ENDBRANCH   5  10
TORSDOF 2
ENDMDL
MODEL 6
REMARK VINA RESULT:    -4.298     14.231     15.822
REMARK INTER + INTRA:          -4.867
REMARK INTER:                  -4.691
REMARK INTRA:                  -0.177
REMARK UNBOUND:                -0.193
REMARK SMILES C=C(C)[C@@H]1CC[C@@H](C)C[C@@H]1O
REMARK SMILES IDX 8 1 7 2 6 3 5 4 4 5 10 6 9 7 11 8 2 10 1 11 3 12
REMARK H PARENT 11 9
REMARK Flexibility Score: inf
ROOT
ATOM      1  C   UNL     1     109.741 116.314 128.863  1.00  0.00     0.008 C 
ATOM      2  C   UNL     1     110.077 116.764 127.437  1.00  0.00    -0.012 C 
ATOM      3  C   UNL     1     109.102 117.865 126.975  1.00  0.00     0.004 C 
ATOM      4  C   UNL     1     109.405 118.308 125.538  1.00  0.00     0.011 C 
ATOM      5  C   UNL     1     109.366 117.102 124.575  1.00  0.00     0.043 C 
ATOM      6  C   UNL     1     110.350 115.995 125.020  1.00  0.00     0.121 C 
ATOM      7  C   UNL     1     110.043 115.563 126.468  1.00  0.00     0.035 C 
ENDROOT
BRANCH   6   8
ATOM      8  O   UNL     1     111.679 116.441 124.927  1.00  0.00    -0.392 OA
ATOM      9  H   UNL     1     111.863 116.969 125.748  1.00  0.00     0.210 HD
ENDBRANCH   6   8
BRANCH   5  10
ATOM     10  C   UNL     1     109.584 117.517 123.122  1.00  0.00    -0.075 C 
ATOM     11  C   UNL     1     109.663 118.809 122.758  1.00  0.00     0.008 C 
ATOM     12  C   UNL     1     109.711 116.463 122.051  1.00  0.00     0.039 C 
ENDBRANCH   5  10
TORSDOF 2
ENDMDL
MODEL 7
REMARK VINA RESULT:    -4.225     15.993     17.357
REMARK INTER + INTRA:          -4.789
REMARK INTER:                  -4.602
REMARK INTRA:                  -0.187
REMARK UNBOUND:                -0.193
REMARK SMILES C=C(C)[C@@H]1CC[C@@H](C)C[C@@H]1O
REMARK SMILES IDX 8 1 7 2 6 3 5 4 4 5 10 6 9 7 11 8 2 10 1 11 3 12
REMARK H PARENT 11 9
REMARK Flexibility Score: inf
ROOT
ATOM      1  C   UNL     1     115.220 117.389 131.125  1.00  0.00     0.008 C 
ATOM      2  C   UNL     1     113.784 117.330 130.591  1.00  0.00    -0.012 C 
ATOM      3  C   UNL     1     113.210 115.907 130.745  1.00  0.00     0.004 C 
ATOM      4  C   UNL     1     111.783 115.822 130.188  1.00  0.00     0.011 C 
ATOM      5  C   UNL     1     111.745 116.271 128.712  1.00  0.00     0.043 C 
ATOM      6  C   UNL     1     112.308 117.702 128.545  1.00  0.00     0.121 C 
ATOM      7  C   UNL     1     113.737 117.781 129.116  1.00  0.00     0.035 C 
ENDROOT
BRANCH   6   8
ATOM      8  O   UNL     1     111.484 118.640 129.191  1.00  0.00    -0.392 OA
ATOM      9  H   UNL     1     111.460 119.447 128.613  1.00  0.00     0.210 HD
ENDBRANCH   6   8
BRANCH   5  10
ATOM     10  C   UNL     1     110.355 116.123 128.099  1.00  0.00    -0.075 C 
ATOM     11  C   UNL     1     109.268 115.896 128.857  1.00  0.00     0.008 C 
ATOM     12  C   UNL     1     110.177 116.225 126.606  1.00  0.00     0.039 C 
ENDBRANCH   5  10
TORSDOF 2
ENDMDL
MODEL 8
REMARK VINA RESULT:    -4.219     16.033     17.307
REMARK INTER + INTRA:          -4.782
REMARK INTER:                  -4.638
REMARK INTRA:                  -0.144
REMARK UNBOUND:                -0.193
REMARK SMILES C=C(C)[C@@H]1CC[C@@H](C)C[C@@H]1O
REMARK SMILES IDX 8 1 7 2 6 3 5 4 4 5 10 6 9 7 11 8 2 10 1 11 3 12
REMARK H PARENT 11 9
REMARK Flexibility Score: inf
ROOT
ATOM      1  C   UNL     1     113.167 115.941 131.083  1.00  0.00     0.008 C 
ATOM      2  C   UNL     1     112.182 115.939 129.909  1.00  0.00    -0.012 C 
ATOM      3  C   UNL     1     112.892 116.365 128.609  1.00  0.00     0.004 C 
ATOM      4  C   UNL     1     111.913 116.397 127.427  1.00  0.00     0.011 C 
ATOM      5  C   UNL     1     110.722 117.330 127.730  1.00  0.00     0.043 C 
ATOM      6  C   UNL     1     109.992 116.906 129.027  1.00  0.00     0.121 C 
ATOM      7  C   UNL     1     110.985 116.867 130.206  1.00  0.00     0.035 C 
ENDROOT
BRANCH   6   8
ATOM      8  O   UNL     1     109.388 115.647 128.872  1.00  0.00    -0.392 OA
ATOM      9  H   UNL     1     108.516 115.686 129.346  1.00  0.00     0.210 HD
ENDBRANCH   6   8
BRANCH   5  10
ATOM     10  C   UNL     1     109.767 117.450 126.546  1.00  0.00    -0.075 C 
ATOM     11  C   UNL     1     109.696 116.503 125.594  1.00  0.00     0.008 C 
ATOM     12  C   UNL     1     108.877 118.660 126.418  1.00  0.00     0.039 C 
ENDBRANCH   5  10
TORSDOF 2
ENDMDL
MODEL 9
REMARK VINA RESULT:    -4.146     13.389     14.521
REMARK INTER + INTRA:          -4.702
REMARK INTER:                  -4.514
REMARK INTRA:                  -0.188
REMARK UNBOUND:                -0.193
REMARK SMILES C=C(C)[C@@H]1CC[C@@H](C)C[C@@H]1O
REMARK SMILES IDX 8 1 7 2 6 3 5 4 4 5 10 6 9 7 11 8 2 10 1 11 3 12
REMARK H PARENT 11 9
REMARK Flexibility Score: inf
ROOT
ATOM      1  C   UNL     1     112.522 124.988 129.244  1.00  0.00     0.008 C 
ATOM      2  C   UNL     1     113.326 124.339 128.112  1.00  0.00    -0.012 C 
ATOM      3  C   UNL     1     113.806 125.408 127.110  1.00  0.00     0.004 C 
ATOM      4  C   UNL     1     114.588 124.772 125.953  1.00  0.00     0.011 C 
ATOM      5  C   UNL     1     113.737 123.699 125.243  1.00  0.00     0.043 C 
ATOM      6  C   UNL     1     113.259 122.613 126.236  1.00  0.00     0.121 C 
ATOM      7  C   UNL     1     112.482 123.262 127.399  1.00  0.00     0.035 C 
ENDROOT
BRANCH   6   8
ATOM      8  O   UNL     1     114.348 121.882 126.739  1.00  0.00    -0.392 OA
ATOM      9  H   UNL     1     114.681 121.314 125.996  1.00  0.00     0.210 HD
ENDBRANCH   6   8
BRANCH   5  10
ATOM     10  C   UNL     1     114.453 123.100 124.035  1.00  0.00    -0.075 C 
ATOM     11  C   UNL     1     115.662 123.537 123.641  1.00  0.00     0.008 C 
ATOM     12  C   UNL     1     113.801 121.993 123.247  1.00  0.00     0.039 C 
ENDBRANCH   5  10
TORSDOF 2
ENDMDL
