MODEL 1
REMARK VINA RESULT:    -3.473      0.000      0.000
REMARK INTER + INTRA:          -4.155
REMARK INTER:                  -4.082
REMARK INTRA:                  -0.073
REMARK UNBOUND:                -0.073
REMARK SMILES CCCCC(=O)[O-]
REMARK SMILES IDX 4 1 5 2 6 3 7 4 3 5 2 6 1 7
REMARK H PARENT
REMARK Flexibility Score: inf
ROOT
ATOM      1  C   UNL     1      12.508 -30.609  22.364  1.00  0.00     0.053 C 
ENDROOT
BRANCH   1   2
ATOM      2  C   UNL     1      13.502 -31.005  21.319  1.00  0.00     0.041 C 
ATOM      3  O   UNL     1      13.261 -31.972  20.550  1.00  0.00    -0.550 OA
ATOM      4  O   UNL     1      14.716 -30.337  21.226  1.00  0.00    -0.550 OA
ENDBRANCH   1   2
BRANCH   1   5
ATOM      5  C   UNL     1      13.221 -30.181  23.649  1.00  0.00     0.006 C 
BRANCH   5   6
ATOM      6  C   UNL     1      12.704 -28.823  24.139  1.00  0.00    -0.003 C 
ATOM      7  C   UNL     1      11.454 -28.401  23.373  1.00  0.00     0.004 C 
ENDBRANCH   5   6
ENDBRANCH   1   5
TORSDOF 3
ENDMDL
MODEL 2
REMARK VINA RESULT:    -3.275      9.878     10.612
REMARK INTER + INTRA:          -3.922
REMARK INTER:                  -3.814
REMARK INTRA:                  -0.108
REMARK UNBOUND:                -0.073
REMARK SMILES CCCCC(=O)[O-]
REMARK SMILES IDX 4 1 5 2 6 3 7 4 3 5 2 6 1 7
REMARK H PARENT
REMARK Flexibility Score: inf
ROOT
ATOM      1  C   UNL     1      22.067 -25.097  20.756  1.00  0.00     0.053 C 
ENDROOT
BRANCH   1   2
ATOM      2  C   UNL     1      23.196 -25.050  19.775  1.00  0.00     0.041 C 
ATOM      3  O   UNL     1      23.467 -26.059  19.073  1.00  0.00    -0.550 OA
ATOM      4  O   UNL     1      23.980 -23.908  19.671  1.00  0.00    -0.550 OA
ENDBRANCH   1   2
BRANCH   1   5
ATOM      5  C   UNL     1      20.820 -25.709  20.111  1.00  0.00     0.006 C 
BRANCH   5   6
ATOM      6  C   UNL     1      20.249 -26.835  20.979  1.00  0.00    -0.003 C 
ATOM      7  C   UNL     1      21.158 -28.060  20.962  1.00  0.00     0.004 C 
ENDBRANCH   5   6
ENDBRANCH   1   5
TORSDOF 3
ENDMDL
MODEL 3
REMARK VINA RESULT:    -3.228      2.553      3.855
REMARK INTER + INTRA:          -3.867
REMARK INTER:                  -3.813
REMARK INTRA:                  -0.055
REMARK UNBOUND:                -0.073
REMARK SMILES CCCCC(=O)[O-]
REMARK SMILES IDX 4 1 5 2 6 3 7 4 3 5 2 6 1 7
REMARK H PARENT
REMARK Flexibility Score: inf
ROOT
ATOM      1  C   UNL     1      13.060 -30.042  23.457  1.00  0.00     0.053 C 
ENDROOT
BRANCH   1   2
ATOM      2  C   UNL     1      12.520 -28.679  23.757  1.00  0.00     0.041 C 
ATOM      3  O   UNL     1      13.261 -27.804  24.277  1.00  0.00    -0.550 OA
ATOM      4  O   UNL     1      11.185 -28.390  23.508  1.00  0.00    -0.550 OA
ENDBRANCH   1   2
BRANCH   1   5
ATOM      5  C   UNL     1      12.302 -30.674  22.286  1.00  0.00     0.006 C 
BRANCH   5   6
ATOM      6  C   UNL     1      13.267 -31.356  21.310  1.00  0.00    -0.003 C 
ATOM      7  C   UNL     1      14.628 -30.667  21.309  1.00  0.00     0.004 C 
ENDBRANCH   5   6
ENDBRANCH   1   5
TORSDOF 3
ENDMDL
MODEL 4
REMARK VINA RESULT:    -3.206      1.829      2.066
REMARK INTER + INTRA:          -3.841
REMARK INTER:                  -3.724
REMARK INTRA:                  -0.117
REMARK UNBOUND:                -0.073
REMARK SMILES CCCCC(=O)[O-]
REMARK SMILES IDX 4 1 5 2 6 3 7 4 3 5 2 6 1 7
REMARK H PARENT
REMARK Flexibility Score: inf
ROOT
ATOM      1  C   UNL     1      14.674 -30.275  23.494  1.00  0.00     0.053 C 
ENDROOT
BRANCH   1   2
ATOM      2  C   UNL     1      13.808 -31.475  23.271  1.00  0.00     0.041 C 
ATOM      3  O   UNL     1      13.246 -31.652  22.158  1.00  0.00    -0.550 OA
ATOM      4  O   UNL     1      13.582 -32.371  24.307  1.00  0.00    -0.550 OA
ENDBRANCH   1   2
BRANCH   1   5
ATOM      5  C   UNL     1      13.888 -28.988  23.229  1.00  0.00     0.006 C 
BRANCH   5   6
ATOM      6  C   UNL     1      12.671 -28.887  24.156  1.00  0.00    -0.003 C 
ATOM      7  C   UNL     1      11.429 -28.444  23.388  1.00  0.00     0.004 C 
ENDBRANCH   5   6
ENDBRANCH   1   5
TORSDOF 3
ENDMDL
MODEL 5
REMARK VINA RESULT:    -3.178      1.390      1.943
REMARK INTER + INTRA:          -3.808
REMARK INTER:                  -3.760
REMARK INTRA:                  -0.048
REMARK UNBOUND:                -0.073
REMARK SMILES CCCCC(=O)[O-]
REMARK SMILES IDX 4 1 5 2 6 3 7 4 3 5 2 6 1 7
REMARK H PARENT
REMARK Flexibility Score: inf
ROOT
ATOM      1  C   UNL     1      13.850 -31.003  21.558  1.00  0.00     0.053 C 
ENDROOT
BRANCH   1   2
ATOM      2  C   UNL     1      14.196 -32.457  21.490  1.00  0.00     0.041 C 
ATOM      3  O   UNL     1      14.613 -33.058  22.515  1.00  0.00    -0.550 OA
ATOM      4  O   UNL     1      14.106 -33.137  20.282  1.00  0.00    -0.550 OA
ENDBRANCH   1   2
BRANCH   1   5
ATOM      5  C   UNL     1      12.783 -30.755  22.628  1.00  0.00     0.006 C 
BRANCH   5   6
ATOM      6  C   UNL     1      13.361 -29.967  23.809  1.00  0.00    -0.003 C 
ATOM      7  C   UNL     1      12.469 -28.784  24.171  1.00  0.00     0.004 C 
ENDBRANCH   5   6
ENDBRANCH   1   5
TORSDOF 3
ENDMDL
MODEL 6
REMARK VINA RESULT:    -3.140      2.409      3.420
REMARK INTER + INTRA:          -3.763
REMARK INTER:                  -3.657
REMARK INTRA:                  -0.106
REMARK UNBOUND:                -0.073
REMARK SMILES CCCCC(=O)[O-]
REMARK SMILES IDX 4 1 5 2 6 3 7 4 3 5 2 6 1 7
REMARK H PARENT
REMARK Flexibility Score: inf
ROOT
ATOM      1  C   UNL     1      13.020 -29.019  23.871  1.00  0.00     0.053 C 
ENDROOT
BRANCH   1   2
ATOM      2  C   UNL     1      11.761 -29.028  23.063  1.00  0.00     0.041 C 
ATOM      3  O   UNL     1      10.930 -28.088  23.174  1.00  0.00    -0.550 OA
ATOM      4  O   UNL     1      11.481 -30.098  22.223  1.00  0.00    -0.550 OA
ENDBRANCH   1   2
BRANCH   1   5
ATOM      5  C   UNL     1      13.666 -30.408  23.873  1.00  0.00     0.006 C 
BRANCH   5   6
ATOM      6  C   UNL     1      15.086 -30.354  23.298  1.00  0.00    -0.003 C 
ATOM      7  C   UNL     1      15.061 -30.229  21.778  1.00  0.00     0.004 C 
ENDBRANCH   5   6
ENDBRANCH   1   5
TORSDOF 3
ENDMDL
MODEL 7
REMARK VINA RESULT:    -3.136      2.112      2.525
REMARK INTER + INTRA:          -3.759
REMARK INTER:                  -3.657
REMARK INTRA:                  -0.102
REMARK UNBOUND:                -0.073
REMARK SMILES CCCCC(=O)[O-]
REMARK SMILES IDX 4 1 5 2 6 3 7 4 3 5 2 6 1 7
REMARK H PARENT
REMARK Flexibility Score: inf
ROOT
ATOM      1  C   UNL     1      13.543 -31.604  20.978  1.00  0.00     0.053 C 
ENDROOT
BRANCH   1   2
ATOM      2  C   UNL     1      14.227 -32.929  20.864  1.00  0.00     0.041 C 
ATOM      3  O   UNL     1      14.235 -33.546  19.767  1.00  0.00    -0.550 OA
ATOM      4  O   UNL     1      14.815 -33.506  21.982  1.00  0.00    -0.550 OA
ENDBRANCH   1   2
BRANCH   1   5
ATOM      5  C   UNL     1      14.509 -30.544  21.515  1.00  0.00     0.006 C 
BRANCH   5   6
ATOM      6  C   UNL     1      13.897 -29.794  22.703  1.00  0.00    -0.003 C 
ATOM      7  C   UNL     1      13.721 -30.715  23.906  1.00  0.00     0.004 C 
ENDBRANCH   5   6
ENDBRANCH   1   5
TORSDOF 3
ENDMDL
MODEL 8
REMARK VINA RESULT:    -3.068      2.856      3.977
REMARK INTER + INTRA:          -3.679
REMARK INTER:                  -3.650
REMARK INTRA:                  -0.029
REMARK UNBOUND:                -0.073
REMARK SMILES CCCCC(=O)[O-]
REMARK SMILES IDX 4 1 5 2 6 3 7 4 3 5 2 6 1 7
REMARK H PARENT
REMARK Flexibility Score: inf
ROOT
ATOM      1  C   UNL     1      12.693 -30.034  23.076  1.00  0.00     0.053 C 
ENDROOT
BRANCH   1   2
ATOM      2  C   UNL     1      12.232 -28.712  23.603  1.00  0.00     0.041 C 
ATOM      3  O   UNL     1      12.889 -28.124  24.501  1.00  0.00    -0.550 OA
ATOM      4  O   UNL     1      11.048 -28.153  23.138  1.00  0.00    -0.550 OA
ENDBRANCH   1   2
BRANCH   1   5
ATOM      5  C   UNL     1      13.899 -30.539  23.874  1.00  0.00     0.006 C 
BRANCH   5   6
ATOM      6  C   UNL     1      13.834 -32.059  24.065  1.00  0.00    -0.003 C 
ATOM      7  C   UNL     1      15.223 -32.684  23.986  1.00  0.00     0.004 C 
ENDBRANCH   5   6
ENDBRANCH   1   5
TORSDOF 3
ENDMDL
MODEL 9
REMARK VINA RESULT:    -1.476      9.065      9.791
REMARK INTER + INTRA:          -1.809
REMARK INTER:                  -1.738
REMARK INTRA:                  -0.070
REMARK UNBOUND:                -0.073
REMARK SMILES CCCCC(=O)[O-]
REMARK SMILES IDX 4 1 5 2 6 3 7 4 3 5 2 6 1 7
REMARK H PARENT
REMARK Flexibility Score: inf
ROOT
ATOM      1  C   UNL     1      17.910 -37.617  27.049  1.00  0.00     0.053 C 
ENDROOT
BRANCH   1   2
ATOM      2  C   UNL     1      17.985 -36.441  26.128  1.00  0.00     0.041 C 
ATOM      3  O   UNL     1      19.101 -35.944  25.824  1.00  0.00    -0.550 OA
ATOM      4  O   UNL     1      16.819 -35.863  25.643  1.00  0.00    -0.550 OA
ENDBRANCH   1   2
BRANCH   1   5
ATOM      5  C   UNL     1      16.455 -38.046  27.256  1.00  0.00     0.006 C 
BRANCH   5   6
ATOM      6  C   UNL     1      16.112 -38.125  28.748  1.00  0.00    -0.003 C 
ATOM      7  C   UNL     1      17.320 -37.776  29.611  1.00  0.00     0.004 C 
ENDBRANCH   5   6
ENDBRANCH   1   5
TORSDOF 3
ENDMDL
