MODEL 1
REMARK VINA RESULT:    10.849      0.000      0.000
REMARK INTER + INTRA:          15.016
REMARK INTER:                  14.338
REMARK INTRA:                   0.678
REMARK UNBOUND:                 0.678
REMARK SMILES CC[C@H](C=C[C@H](C)[C@@H]1CC[C@H]2C3=CC[C@H]4C[C@@H](O)CC[C@]4(C)[C@@H]3CC[C@]21C)C(C)C
REMARK SMILES IDX 6 1 7 2 5 3 4 4 3 5 2 6 1 7 28 8 29 9 30 10 8 11 9 12 26 13
REMARK SMILES IDX 10 14 11 15 25 16 27 17 12 18 24 19 23 20 13 21 21 22 14 23
REMARK SMILES IDX 15 24 20 25 22 26 16 27 19 28 17 29 18 30
REMARK H PARENT 18 31
REMARK Flexibility Score: inf
ROOT
ATOM      1  C   UNL     1     135.801 134.661 139.204  1.00  0.00     0.012 C 
ATOM      2  C   UNL     1     134.733 135.480 139.941  1.00  0.00     0.012 C 
ENDROOT
BRANCH   1   3
ATOM      3  C   UNL     1     136.729 134.050 140.234  1.00  0.00    -0.028 C 
ATOM      4  C   UNL     1     138.063 134.138 140.107  1.00  0.00    -0.027 C 
BRANCH   4   5
ATOM      5  C   UNL     1     139.001 133.607 141.176  1.00  0.00     0.014 C 
BRANCH   5   6
ATOM      6  C   UNL     1     139.605 132.238 140.738  1.00  0.00     0.004 C 
ATOM      7  C   UNL     1     138.559 131.123 140.674  1.00  0.00     0.004 C 
ENDBRANCH   5   6
BRANCH   5   8
ATOM      8  C   UNL     1     140.063 134.690 141.551  1.00  0.00    -0.011 C 
ATOM      9  C   UNL     1     141.507 134.297 141.184  1.00  0.00     0.008 C 
ATOM     10  C   UNL     1     139.985 135.108 143.026  1.00  0.00     0.008 C 
ENDBRANCH   5   8
ENDBRANCH   4   5
ENDBRANCH   1   3
BRANCH   1  11
ATOM     11  C   UNL     1     135.146 133.633 138.225  1.00  0.00     0.002 C 
ATOM     12  C   UNL     1     135.617 133.689 136.774  1.00  0.00     0.005 C 
ATOM     13  C   UNL     1     133.584 133.578 138.163  1.00  0.00    -0.023 C 
ATOM     14  C   UNL     1     134.668 132.748 136.058  1.00  0.00     0.009 C 
ATOM     15  C   UNL     1     133.313 132.926 136.752  1.00  0.00     0.021 C 
ATOM     16  C   UNL     1     133.026 132.798 139.415  1.00  0.00     0.008 C 
ATOM     17  C   UNL     1     132.953 134.997 138.166  1.00  0.00     0.012 C 
ATOM     18  C   UNL     1     132.535 131.624 136.751  1.00  0.00    -0.067 C 
ATOM     19  C   UNL     1     132.018 131.680 139.123  1.00  0.00     0.009 C 
ATOM     20  C   UNL     1     132.552 130.769 138.005  1.00  0.00     0.021 C 
ATOM     21  C   UNL     1     131.733 131.353 135.696  1.00  0.00    -0.027 C 
ATOM     22  C   UNL     1     131.844 129.366 137.816  1.00  0.00    -0.023 C 
ATOM     23  C   UNL     1     130.824 130.158 135.615  1.00  0.00     0.031 C 
ATOM     24  C   UNL     1     130.531 129.558 136.995  1.00  0.00     0.002 C 
ATOM     25  C   UNL     1     131.481 128.696 139.179  1.00  0.00     0.010 C 
ATOM     26  C   UNL     1     132.858 128.442 137.069  1.00  0.00     0.012 C 
ATOM     27  C   UNL     1     129.710 128.255 136.847  1.00  0.00     0.036 C 
ATOM     28  C   UNL     1     130.705 127.381 139.017  1.00  0.00     0.032 C 
ATOM     29  C   UNL     1     129.414 127.611 138.212  1.00  0.00     0.114 C 
BRANCH  29  30
ATOM     30  O   UNL     1     128.708 126.406 138.051  1.00  0.00    -0.393 OA
ATOM     31  H   UNL     1     127.757 126.581 138.274  1.00  0.00     0.210 HD
ENDBRANCH  29  30
ENDBRANCH   1  11
TORSDOF 6
ENDMDL
MODEL 2
REMARK VINA RESULT:    12.176      2.976      8.330
REMARK INTER + INTRA:          16.769
REMARK INTER:                  16.590
REMARK INTRA:                   0.179
REMARK UNBOUND:                 0.678
REMARK SMILES CC[C@H](C=C[C@H](C)[C@@H]1CC[C@H]2C3=CC[C@H]4C[C@@H](O)CC[C@]4(C)[C@@H]3CC[C@]21C)C(C)C
REMARK SMILES IDX 6 1 7 2 5 3 4 4 3 5 2 6 1 7 28 8 29 9 30 10 8 11 9 12 26 13
REMARK SMILES IDX 10 14 11 15 25 16 27 17 12 18 24 19 23 20 13 21 21 22 14 23
REMARK SMILES IDX 15 24 20 25 22 26 16 27 19 28 17 29 18 30
REMARK H PARENT 18 31
REMARK Flexibility Score: inf
ROOT
ATOM      1  C   UNL     1     131.096 131.709 137.624  1.00  0.00     0.012 C 
ATOM      2  C   UNL     1     131.345 131.259 136.178  1.00  0.00     0.012 C 
ENDROOT
BRANCH   1   3
ATOM      3  C   UNL     1     130.955 130.474 138.490  1.00  0.00    -0.028 C 
ATOM      4  C   UNL     1     131.460 129.292 138.102  1.00  0.00    -0.027 C 
BRANCH   4   5
ATOM      5  C   UNL     1     131.402 128.069 138.999  1.00  0.00     0.014 C 
BRANCH   5   6
ATOM      6  C   UNL     1     130.682 128.410 140.339  1.00  0.00     0.004 C 
ATOM      7  C   UNL     1     131.061 127.456 141.474  1.00  0.00     0.004 C 
ENDBRANCH   5   6
BRANCH   5   8
ATOM      8  C   UNL     1     130.785 126.859 138.226  1.00  0.00    -0.011 C 
ATOM      9  C   UNL     1     131.540 126.498 136.932  1.00  0.00     0.008 C 
ATOM     10  C   UNL     1     129.290 127.045 137.934  1.00  0.00     0.008 C 
ENDBRANCH   5   8
ENDBRANCH   4   5
ENDBRANCH   1   3
BRANCH   1  11
ATOM     11  C   UNL     1     132.193 132.717 138.097  1.00  0.00     0.002 C 
ATOM     12  C   UNL     1     131.832 134.197 138.009  1.00  0.00     0.005 C 
ATOM     13  C   UNL     1     133.620 132.588 137.470  1.00  0.00    -0.023 C 
ATOM     14  C   UNL     1     133.140 134.899 138.324  1.00  0.00     0.009 C 
ATOM     15  C   UNL     1     134.235 134.024 137.702  1.00  0.00     0.021 C 
ATOM     16  C   UNL     1     134.389 131.381 138.132  1.00  0.00     0.008 C 
ATOM     17  C   UNL     1     133.561 132.334 135.940  1.00  0.00     0.012 C 
ATOM     18  C   UNL     1     135.505 134.087 138.528  1.00  0.00    -0.067 C 
ATOM     19  C   UNL     1     135.803 131.680 138.648  1.00  0.00     0.009 C 
ATOM     20  C   UNL     1     135.792 132.958 139.503  1.00  0.00     0.021 C 
ATOM     21  C   UNL     1     136.405 135.058 138.253  1.00  0.00    -0.027 C 
ATOM     22  C   UNL     1     137.055 133.227 140.417  1.00  0.00    -0.023 C 
ATOM     23  C   UNL     1     137.750 135.170 138.915  1.00  0.00     0.031 C 
ATOM     24  C   UNL     1     138.195 133.847 139.551  1.00  0.00     0.002 C 
ATOM     25  C   UNL     1     137.594 131.921 141.082  1.00  0.00     0.010 C 
ATOM     26  C   UNL     1     136.598 134.202 141.548  1.00  0.00     0.012 C 
ATOM     27  C   UNL     1     139.514 134.050 140.336  1.00  0.00     0.036 C 
ATOM     28  C   UNL     1     138.879 132.144 141.895  1.00  0.00     0.032 C 
ATOM     29  C   UNL     1     139.982 132.747 141.007  1.00  0.00     0.114 C 
BRANCH  29  30
ATOM     30  O   UNL     1     141.154 132.965 141.751  1.00  0.00    -0.393 OA
ATOM     31  H   UNL     1     140.926 132.864 142.711  1.00  0.00     0.210 HD
ENDBRANCH  29  30
ENDBRANCH   1  11
TORSDOF 6
ENDMDL
MODEL 3
REMARK VINA RESULT:    13.380      2.988      8.384
REMARK INTER + INTRA:          18.360
REMARK INTER:                  18.937
REMARK INTRA:                  -0.577
REMARK UNBOUND:                 0.678
REMARK SMILES CC[C@H](C=C[C@H](C)[C@@H]1CC[C@H]2C3=CC[C@H]4C[C@@H](O)CC[C@]4(C)[C@@H]3CC[C@]21C)C(C)C
REMARK SMILES IDX 6 1 7 2 5 3 4 4 3 5 2 6 1 7 28 8 29 9 30 10 8 11 9 12 26 13
REMARK SMILES IDX 10 14 11 15 25 16 27 17 12 18 24 19 23 20 13 21 21 22 14 23
REMARK SMILES IDX 15 24 20 25 22 26 16 27 19 28 17 29 18 30
REMARK H PARENT 18 31
REMARK Flexibility Score: inf
ROOT
ATOM      1  C   UNL     1     132.078 131.365 136.278  1.00  0.00     0.012 C 
ATOM      2  C   UNL     1     133.153 130.988 135.251  1.00  0.00     0.012 C 
ENDROOT
BRANCH   1   3
ATOM      3  C   UNL     1     131.193 130.158 136.507  1.00  0.00    -0.028 C 
ATOM      4  C   UNL     1     131.564 129.171 137.339  1.00  0.00    -0.027 C 
BRANCH   4   5
ATOM      5  C   UNL     1     130.648 128.000 137.644  1.00  0.00     0.014 C 
BRANCH   5   6
ATOM      6  C   UNL     1     131.114 126.729 136.870  1.00  0.00     0.004 C 
ATOM      7  C   UNL     1     132.590 126.788 136.472  1.00  0.00     0.004 C 
ENDBRANCH   5   6
BRANCH   5   8
ATOM      8  C   UNL     1     130.517 127.802 139.189  1.00  0.00    -0.011 C 
ATOM      9  C   UNL     1     130.889 129.053 140.008  1.00  0.00     0.008 C 
ATOM     10  C   UNL     1     131.299 126.583 139.695  1.00  0.00     0.008 C 
ENDBRANCH   5   8
ENDBRANCH   4   5
ENDBRANCH   1   3
BRANCH   1  11
ATOM     11  C   UNL     1     132.721 131.958 137.574  1.00  0.00     0.002 C 
ATOM     12  C   UNL     1     131.751 132.449 138.645  1.00  0.00     0.005 C 
ATOM     13  C   UNL     1     133.781 133.096 137.407  1.00  0.00    -0.023 C 
ATOM     14  C   UNL     1     132.653 133.143 139.648  1.00  0.00     0.009 C 
ATOM     15  C   UNL     1     133.756 133.808 138.815  1.00  0.00     0.021 C 
ATOM     16  C   UNL     1     135.162 132.479 136.958  1.00  0.00     0.008 C 
ATOM     17  C   UNL     1     133.353 134.135 136.336  1.00  0.00     0.012 C 
ATOM     18  C   UNL     1     135.065 133.831 139.582  1.00  0.00    -0.067 C 
ATOM     19  C   UNL     1     136.392 132.908 137.770  1.00  0.00     0.009 C 
ATOM     20  C   UNL     1     136.103 132.768 139.274  1.00  0.00     0.021 C 
ATOM     21  C   UNL     1     135.318 134.885 140.391  1.00  0.00    -0.027 C 
ATOM     22  C   UNL     1     137.346 132.804 140.254  1.00  0.00    -0.023 C 
ATOM     23  C   UNL     1     136.617 135.092 141.120  1.00  0.00     0.031 C 
ATOM     24  C   UNL     1     137.765 134.287 140.499  1.00  0.00     0.002 C 
ATOM     25  C   UNL     1     138.576 132.031 139.681  1.00  0.00     0.010 C 
ATOM     26  C   UNL     1     136.900 132.107 141.578  1.00  0.00     0.012 C 
ATOM     27  C   UNL     1     139.041 134.424 141.364  1.00  0.00     0.036 C 
ATOM     28  C   UNL     1     139.823 132.138 140.571  1.00  0.00     0.032 C 
ATOM     29  C   UNL     1     140.211 133.612 140.783  1.00  0.00     0.114 C 
BRANCH  29  30
ATOM     30  O   UNL     1     141.344 133.713 141.608  1.00  0.00    -0.393 OA
ATOM     31  H   UNL     1     141.390 132.890 142.161  1.00  0.00     0.210 HD
ENDBRANCH  29  30
ENDBRANCH   1  11
TORSDOF 6
ENDMDL
