MODEL 1
REMARK VINA RESULT:    -3.386      0.000      0.000
REMARK INTER + INTRA:          -7.966
REMARK INTER:                  -5.960
REMARK INTRA:                  -2.006
REMARK UNBOUND:                -2.006
REMARK SMILES CCCCCCCCCCCCCCC(=O)[O-]
REMARK SMILES IDX 9 1 10 2 11 3 12 4 13 5 14 6 15 7 16 8 17 9 8 10 7 11 6 12
REMARK SMILES IDX 5 13 4 14 3 15 2 16 1 17
REMARK H PARENT
REMARK Flexibility Score: inf
ROOT
ATOM      1  C   UNL     1       3.562  -2.239  -4.598  1.00  0.00     0.000 C 
ENDROOT
BRANCH   1   2
ATOM      2  C   UNL     1       3.213  -2.430  -6.088  1.00  0.00     0.000 C 
BRANCH   2   3
ATOM      3  C   UNL     1       4.281  -1.920  -7.074  1.00  0.00     0.000 C 
BRANCH   3   4
ATOM      4  C   UNL     1       3.673  -1.288  -8.334  1.00  0.00     0.000 C 
BRANCH   4   5
ATOM      5  C   UNL     1       2.152  -1.148  -8.199  1.00  0.00     0.006 C 
BRANCH   5   6
ATOM      6  C   UNL     1       1.681   0.230  -8.675  1.00  0.00     0.053 C 
BRANCH   6   7
ATOM      7  C   UNL     1       0.206   0.222  -8.924  1.00  0.00     0.041 C 
ATOM      8  O   UNL     1      -0.428   1.308  -9.003  1.00  0.00    -0.550 OA
ATOM      9  O   UNL     1      -0.477  -0.983  -9.018  1.00  0.00    -0.550 OA
ENDBRANCH   6   7
ENDBRANCH   5   6
ENDBRANCH   4   5
ENDBRANCH   3   4
ENDBRANCH   2   3
ENDBRANCH   1   2
BRANCH   1  10
ATOM     10  C   UNL     1       3.938  -0.800  -4.190  1.00  0.00     0.000 C 
BRANCH  10  11
ATOM     11  C   UNL     1       2.747   0.144  -3.941  1.00  0.00    -0.000 C 
BRANCH  11  12
ATOM     12  C   UNL     1       2.460   1.070  -5.135  1.00  0.00    -0.000 C 
BRANCH  12  13
ATOM     13  C   UNL     1       3.742   1.624  -5.787  1.00  0.00    -0.000 C 
BRANCH  13  14
ATOM     14  C   UNL     1       3.640   3.065  -6.321  1.00  0.00    -0.000 C 
BRANCH  14  15
ATOM     15  C   UNL     1       2.238   3.674  -6.144  1.00  0.00    -0.000 C 
BRANCH  15  16
ATOM     16  C   UNL     1       1.504   3.858  -7.482  1.00  0.00    -0.003 C 
ATOM     17  C   UNL     1       2.449   3.843  -8.683  1.00  0.00     0.004 C 
ENDBRANCH  15  16
ENDBRANCH  14  15
ENDBRANCH  13  14
ENDBRANCH  12  13
ENDBRANCH  11  12
ENDBRANCH  10  11
ENDBRANCH   1  10
TORSDOF 13
ENDMDL
MODEL 2
REMARK VINA RESULT:    -3.376     19.820     21.681
REMARK INTER + INTRA:          -7.947
REMARK INTER:                  -6.659
REMARK INTRA:                  -1.288
REMARK UNBOUND:                -2.006
REMARK SMILES CCCCCCCCCCCCCCC(=O)[O-]
REMARK SMILES IDX 9 1 10 2 11 3 12 4 13 5 14 6 15 7 16 8 17 9 8 10 7 11 6 12
REMARK SMILES IDX 5 13 4 14 3 15 2 16 1 17
REMARK H PARENT
REMARK Flexibility Score: inf
ROOT
ATOM      1  C   UNL     1     -12.750 -12.813   0.490  1.00  0.00     0.000 C 
ENDROOT
BRANCH   1   2
ATOM      2  C   UNL     1     -13.198 -12.690   1.960  1.00  0.00     0.000 C 
BRANCH   2   3
ATOM      3  C   UNL     1     -13.625 -11.275   2.391  1.00  0.00     0.000 C 
BRANCH   3   4
ATOM      4  C   UNL     1     -13.752 -11.130   3.915  1.00  0.00     0.000 C 
BRANCH   4   5
ATOM      5  C   UNL     1     -13.079  -9.840   4.401  1.00  0.00     0.006 C 
BRANCH   5   6
ATOM      6  C   UNL     1     -11.577 -10.050   4.614  1.00  0.00     0.053 C 
BRANCH   6   7
ATOM      7  C   UNL     1     -11.335 -11.180   5.564  1.00  0.00     0.041 C 
ATOM      8  O   UNL     1     -11.642 -11.061   6.780  1.00  0.00    -0.550 OA
ATOM      9  O   UNL     1     -10.724 -12.344   5.118  1.00  0.00    -0.550 OA
ENDBRANCH   6   7
ENDBRANCH   5   6
ENDBRANCH   4   5
ENDBRANCH   3   4
ENDBRANCH   2   3
ENDBRANCH   1   2
BRANCH   1  10
ATOM     10  C   UNL     1     -13.167 -11.643  -0.424  1.00  0.00     0.000 C 
BRANCH  10  11
ATOM     11  C   UNL     1     -14.140 -12.011  -1.560  1.00  0.00    -0.000 C 
BRANCH  11  12
ATOM     12  C   UNL     1     -14.170 -10.962  -2.684  1.00  0.00    -0.000 C 
BRANCH  12  13
ATOM     13  C   UNL     1     -13.529 -11.464  -3.992  1.00  0.00    -0.000 C 
BRANCH  13  14
ATOM     14  C   UNL     1     -12.992 -12.907  -3.951  1.00  0.00    -0.000 C 
BRANCH  14  15
ATOM     15  C   UNL     1     -11.454 -12.975  -3.927  1.00  0.00    -0.000 C 
BRANCH  15  16
ATOM     16  C   UNL     1     -10.920 -13.777  -2.729  1.00  0.00    -0.003 C 
ATOM     17  C   UNL     1      -9.919 -12.987  -1.886  1.00  0.00     0.004 C 
ENDBRANCH  15  16
ENDBRANCH  14  15
ENDBRANCH  13  14
ENDBRANCH  12  13
ENDBRANCH  11  12
ENDBRANCH  10  11
ENDBRANCH   1  10
TORSDOF 13
ENDMDL
MODEL 3
REMARK VINA RESULT:    -3.373     18.254     20.218
REMARK INTER + INTRA:          -7.942
REMARK INTER:                  -7.467
REMARK INTRA:                  -0.475
REMARK UNBOUND:                -2.006
REMARK SMILES CCCCCCCCCCCCCCC(=O)[O-]
REMARK SMILES IDX 9 1 10 2 11 3 12 4 13 5 14 6 15 7 16 8 17 9 8 10 7 11 6 12
REMARK SMILES IDX 5 13 4 14 3 15 2 16 1 17
REMARK H PARENT
REMARK Flexibility Score: inf
ROOT
ATOM      1  C   UNL     1     -11.836 -12.703  -0.293  1.00  0.00     0.000 C 
ENDROOT
BRANCH   1   2
ATOM      2  C   UNL     1     -13.012 -11.758   0.029  1.00  0.00     0.000 C 
BRANCH   2   3
ATOM      3  C   UNL     1     -13.292 -11.562   1.531  1.00  0.00     0.000 C 
BRANCH   3   4
ATOM      4  C   UNL     1     -13.377 -12.889   2.299  1.00  0.00     0.000 C 
BRANCH   4   5
ATOM      5  C   UNL     1     -12.758 -12.754   3.696  1.00  0.00     0.006 C 
BRANCH   5   6
ATOM      6  C   UNL     1     -12.792 -11.300   4.175  1.00  0.00     0.053 C 
BRANCH   6   7
ATOM      7  C   UNL     1     -11.493 -10.929   4.816  1.00  0.00     0.041 C 
ATOM      8  O   UNL     1     -11.026  -9.768   4.675  1.00  0.00    -0.550 OA
ATOM      9  O   UNL     1     -10.772 -11.880   5.527  1.00  0.00    -0.550 OA
ENDBRANCH   6   7
ENDBRANCH   5   6
ENDBRANCH   4   5
ENDBRANCH   3   4
ENDBRANCH   2   3
ENDBRANCH   1   2
BRANCH   1  10
ATOM     10  C   UNL     1     -11.637 -13.017  -1.790  1.00  0.00     0.000 C 
BRANCH  10  11
ATOM     11  C   UNL     1     -10.355 -13.800  -2.131  1.00  0.00    -0.000 C 
BRANCH  11  12
ATOM     12  C   UNL     1      -9.130 -12.888  -2.314  1.00  0.00    -0.000 C 
BRANCH  12  13
ATOM     13  C   UNL     1      -8.181 -13.373  -3.426  1.00  0.00    -0.000 C 
BRANCH  13  14
ATOM     14  C   UNL     1      -6.855 -12.598  -3.546  1.00  0.00    -0.000 C 
BRANCH  14  15
ATOM     15  C   UNL     1      -5.778 -13.369  -4.330  1.00  0.00    -0.000 C 
BRANCH  15  16
ATOM     16  C   UNL     1      -5.424 -12.691  -5.663  1.00  0.00    -0.003 C 
ATOM     17  C   UNL     1      -4.207 -13.320  -6.342  1.00  0.00     0.004 C 
ENDBRANCH  15  16
ENDBRANCH  14  15
ENDBRANCH  13  14
ENDBRANCH  12  13
ENDBRANCH  11  12
ENDBRANCH  10  11
ENDBRANCH   1  10
TORSDOF 13
ENDMDL
MODEL 4
REMARK VINA RESULT:    -3.351      1.139      4.487
REMARK INTER + INTRA:          -7.904
REMARK INTER:                  -6.265
REMARK INTRA:                  -1.639
REMARK UNBOUND:                -2.006
REMARK SMILES CCCCCCCCCCCCCCC(=O)[O-]
REMARK SMILES IDX 9 1 10 2 11 3 12 4 13 5 14 6 15 7 16 8 17 9 8 10 7 11 6 12
REMARK SMILES IDX 5 13 4 14 3 15 2 16 1 17
REMARK H PARENT
REMARK Flexibility Score: inf
ROOT
ATOM      1  C   UNL     1       3.636   1.481  -5.979  1.00  0.00     0.000 C 
ENDROOT
BRANCH   1   2
ATOM      2  C   UNL     1       4.077   2.938  -5.738  1.00  0.00     0.000 C 
BRANCH   2   3
ATOM      3  C   UNL     1       3.516   3.960  -6.744  1.00  0.00     0.000 C 
BRANCH   3   4
ATOM      4  C   UNL     1       2.080   4.394  -6.415  1.00  0.00     0.000 C 
BRANCH   4   5
ATOM      5  C   UNL     1       1.183   4.306  -7.656  1.00  0.00     0.006 C 
BRANCH   5   6
ATOM      6  C   UNL     1       1.379   2.973  -8.384  1.00  0.00     0.053 C 
BRANCH   6   7
ATOM      7  C   UNL     1       0.121   2.164  -8.346  1.00  0.00     0.041 C 
ATOM      8  O   UNL     1      -0.996   2.736  -8.233  1.00  0.00    -0.550 OA
ATOM      9  O   UNL     1       0.184   0.778  -8.384  1.00  0.00    -0.550 OA
ENDBRANCH   6   7
ENDBRANCH   5   6
ENDBRANCH   4   5
ENDBRANCH   3   4
ENDBRANCH   2   3
ENDBRANCH   1   2
BRANCH   1  10
ATOM     10  C   UNL     1       2.456   0.998  -5.111  1.00  0.00     0.000 C 
BRANCH  10  11
ATOM     11  C   UNL     1       2.838   0.080  -3.935  1.00  0.00    -0.000 C 
BRANCH  11  12
ATOM     12  C   UNL     1       4.359  -0.077  -3.771  1.00  0.00    -0.000 C 
BRANCH  12  13
ATOM     13  C   UNL     1       4.815  -1.549  -3.775  1.00  0.00    -0.000 C 
BRANCH  13  14
ATOM     14  C   UNL     1       3.907  -2.518  -4.556  1.00  0.00    -0.000 C 
BRANCH  14  15
ATOM     15  C   UNL     1       4.112  -2.437  -6.079  1.00  0.00    -0.000 C 
BRANCH  15  16
ATOM     16  C   UNL     1       2.783  -2.344  -6.847  1.00  0.00    -0.003 C 
ATOM     17  C   UNL     1       2.897  -1.522  -8.130  1.00  0.00     0.004 C 
ENDBRANCH  15  16
ENDBRANCH  14  15
ENDBRANCH  13  14
ENDBRANCH  12  13
ENDBRANCH  11  12
ENDBRANCH  10  11
ENDBRANCH   1  10
TORSDOF 13
ENDMDL
MODEL 5
REMARK VINA RESULT:    -3.347     17.855     19.621
REMARK INTER + INTRA:          -7.896
REMARK INTER:                  -7.325
REMARK INTRA:                  -0.571
REMARK UNBOUND:                -2.006
REMARK SMILES CCCCCCCCCCCCCCC(=O)[O-]
REMARK SMILES IDX 9 1 10 2 11 3 12 4 13 5 14 6 15 7 16 8 17 9 8 10 7 11 6 12
REMARK SMILES IDX 5 13 4 14 3 15 2 16 1 17
REMARK H PARENT
REMARK Flexibility Score: inf
ROOT
ATOM      1  C   UNL     1     -11.350 -13.482  -0.881  1.00  0.00     0.000 C 
ENDROOT
BRANCH   1   2
ATOM      2  C   UNL     1     -10.195 -13.979  -1.774  1.00  0.00     0.000 C 
BRANCH   2   3
ATOM      3  C   UNL     1      -9.184 -12.894  -2.188  1.00  0.00     0.000 C 
BRANCH   3   4
ATOM      4  C   UNL     1      -8.339 -13.301  -3.403  1.00  0.00     0.000 C 
BRANCH   4   5
ATOM      5  C   UNL     1      -6.990 -12.572  -3.403  1.00  0.00     0.006 C 
BRANCH   5   6
ATOM      6  C   UNL     1      -5.955 -13.328  -4.242  1.00  0.00     0.053 C 
BRANCH   6   7
ATOM      7  C   UNL     1      -5.536 -12.508  -5.420  1.00  0.00     0.041 C 
ATOM      8  O   UNL     1      -4.557 -12.868  -6.127  1.00  0.00    -0.550 OA
ATOM      9  O   UNL     1      -6.193 -11.319  -5.710  1.00  0.00    -0.550 OA
ENDBRANCH   6   7
ENDBRANCH   5   6
ENDBRANCH   4   5
ENDBRANCH   3   4
ENDBRANCH   2   3
ENDBRANCH   1   2
BRANCH   1  10
ATOM     10  C   UNL     1     -12.429 -12.649  -1.604  1.00  0.00     0.000 C 
BRANCH  10  11
ATOM     11  C   UNL     1     -13.254 -11.717  -0.698  1.00  0.00    -0.000 C 
BRANCH  11  12
ATOM     12  C   UNL     1     -12.985 -11.947   0.799  1.00  0.00    -0.000 C 
BRANCH  12  13
ATOM     13  C   UNL     1     -14.275 -12.153   1.616  1.00  0.00    -0.000 C 
BRANCH  13  14
ATOM     14  C   UNL     1     -14.170 -11.802   3.112  1.00  0.00    -0.000 C 
BRANCH  14  15
ATOM     15  C   UNL     1     -13.077 -10.761   3.410  1.00  0.00    -0.000 C 
BRANCH  15  16
ATOM     16  C   UNL     1     -12.033 -11.276   4.414  1.00  0.00    -0.003 C 
ATOM     17  C   UNL     1     -11.353 -10.150   5.192  1.00  0.00     0.004 C 
ENDBRANCH  15  16
ENDBRANCH  14  15
ENDBRANCH  13  14
ENDBRANCH  12  13
ENDBRANCH  11  12
ENDBRANCH  10  11
ENDBRANCH   1  10
TORSDOF 13
ENDMDL
MODEL 6
REMARK VINA RESULT:    -3.312     21.472     23.157
REMARK INTER + INTRA:          -7.836
REMARK INTER:                  -6.004
REMARK INTRA:                  -1.831
REMARK UNBOUND:                -2.006
REMARK SMILES CCCCCCCCCCCCCCC(=O)[O-]
REMARK SMILES IDX 9 1 10 2 11 3 12 4 13 5 14 6 15 7 16 8 17 9 8 10 7 11 6 12
REMARK SMILES IDX 5 13 4 14 3 15 2 16 1 17
REMARK H PARENT
REMARK Flexibility Score: inf
ROOT
ATOM      1  C   UNL     1     -11.617 -10.228   5.066  1.00  0.00     0.000 C 
ENDROOT
BRANCH   1   2
ATOM      2  C   UNL     1     -12.860 -10.029   4.176  1.00  0.00     0.000 C 
BRANCH   2   3
ATOM      3  C   UNL     1     -14.106  -9.500   4.911  1.00  0.00     0.000 C 
BRANCH   3   4
ATOM      4  C   UNL     1     -14.776 -10.567   5.789  1.00  0.00     0.000 C 
BRANCH   4   5
ATOM      5  C   UNL     1     -14.463 -10.332   7.272  1.00  0.00     0.006 C 
BRANCH   5   6
ATOM      6  C   UNL     1     -14.298  -8.839   7.570  1.00  0.00     0.053 C 
BRANCH   6   7
ATOM      7  C   UNL     1     -13.065  -8.600   8.382  1.00  0.00     0.041 C 
ATOM      8  O   UNL     1     -12.257  -9.541   8.599  1.00  0.00    -0.550 OA
ATOM      9  O   UNL     1     -12.833  -7.350   8.942  1.00  0.00    -0.550 OA
ENDBRANCH   6   7
ENDBRANCH   5   6
ENDBRANCH   4   5
ENDBRANCH   3   4
ENDBRANCH   2   3
ENDBRANCH   1   2
BRANCH   1  10
ATOM     10  C   UNL     1     -11.082 -11.673   5.134  1.00  0.00     0.000 C 
BRANCH  10  11
ATOM     11  C   UNL     1     -12.119 -12.772   4.836  1.00  0.00    -0.000 C 
BRANCH  11  12
ATOM     12  C   UNL     1     -11.643 -13.768   3.765  1.00  0.00    -0.000 C 
BRANCH  12  13
ATOM     13  C   UNL     1     -12.582 -13.833   2.546  1.00  0.00    -0.000 C 
BRANCH  13  14
ATOM     14  C   UNL     1     -13.991 -13.254   2.768  1.00  0.00    -0.000 C 
BRANCH  14  15
ATOM     15  C   UNL     1     -14.407 -12.250   1.678  1.00  0.00    -0.000 C 
BRANCH  15  16
ATOM     16  C   UNL     1     -13.198 -11.633   0.956  1.00  0.00    -0.003 C 
ATOM     17  C   UNL     1     -13.307 -11.725  -0.565  1.00  0.00     0.004 C 
ENDBRANCH  15  16
ENDBRANCH  14  15
ENDBRANCH  13  14
ENDBRANCH  12  13
ENDBRANCH  11  12
ENDBRANCH  10  11
ENDBRANCH   1  10
TORSDOF 13
ENDMDL
MODEL 7
REMARK VINA RESULT:    -3.281      2.240      4.804
REMARK INTER + INTRA:          -7.781
REMARK INTER:                  -6.360
REMARK INTRA:                  -1.421
REMARK UNBOUND:                -2.006
REMARK SMILES CCCCCCCCCCCCCCC(=O)[O-]
REMARK SMILES IDX 9 1 10 2 11 3 12 4 13 5 14 6 15 7 16 8 17 9 8 10 7 11 6 12
REMARK SMILES IDX 5 13 4 14 3 15 2 16 1 17
REMARK H PARENT
REMARK Flexibility Score: inf
ROOT
ATOM      1  C   UNL     1       2.127   1.616  -5.811  1.00  0.00     0.000 C 
ENDROOT
BRANCH   1   2
ATOM      2  C   UNL     1       2.197   2.986  -6.515  1.00  0.00     0.000 C 
BRANCH   2   3
ATOM      3  C   UNL     1       1.630   3.008  -7.947  1.00  0.00     0.000 C 
BRANCH   3   4
ATOM      4  C   UNL     1       0.355   2.166  -8.096  1.00  0.00     0.000 C 
BRANCH   4   5
ATOM      5  C   UNL     1      -0.843   3.047  -8.470  1.00  0.00     0.006 C 
BRANCH   5   6
ATOM      6  C   UNL     1      -0.864   4.332  -7.636  1.00  0.00     0.053 C 
BRANCH   6   7
ATOM      7  C   UNL     1      -2.226   4.563  -7.064  1.00  0.00     0.041 C 
ATOM      8  O   UNL     1      -2.394   4.578  -5.815  1.00  0.00    -0.550 OA
ATOM      9  O   UNL     1      -3.319   4.713  -7.908  1.00  0.00    -0.550 OA
ENDBRANCH   6   7
ENDBRANCH   5   6
ENDBRANCH   4   5
ENDBRANCH   3   4
ENDBRANCH   2   3
ENDBRANCH   1   2
BRANCH   1  10
ATOM     10  C   UNL     1       3.401   1.205  -5.045  1.00  0.00     0.000 C 
BRANCH  10  11
ATOM     11  C   UNL     1       3.193   0.146  -3.946  1.00  0.00    -0.000 C 
BRANCH  11  12
ATOM     12  C   UNL     1       4.021  -1.129  -4.181  1.00  0.00    -0.000 C 
BRANCH  12  13
ATOM     13  C   UNL     1       3.255  -2.207  -4.970  1.00  0.00    -0.000 C 
BRANCH  13  14
ATOM     14  C   UNL     1       3.585  -2.285  -6.472  1.00  0.00    -0.000 C 
BRANCH  14  15
ATOM     15  C   UNL     1       2.334  -2.428  -7.356  1.00  0.00    -0.000 C 
BRANCH  15  16
ATOM     16  C   UNL     1       2.162  -1.248  -8.327  1.00  0.00    -0.003 C 
ATOM     17  C   UNL     1       3.430  -0.405  -8.465  1.00  0.00     0.004 C 
ENDBRANCH  15  16
ENDBRANCH  14  15
ENDBRANCH  13  14
ENDBRANCH  12  13
ENDBRANCH  11  12
ENDBRANCH  10  11
ENDBRANCH   1  10
TORSDOF 13
ENDMDL
MODEL 8
REMARK VINA RESULT:    -3.260     21.649     23.477
REMARK INTER + INTRA:          -7.743
REMARK INTER:                  -5.828
REMARK INTRA:                  -1.915
REMARK UNBOUND:                -2.006
REMARK SMILES CCCCCCCCCCCCCCC(=O)[O-]
REMARK SMILES IDX 9 1 10 2 11 3 12 4 13 5 14 6 15 7 16 8 17 9 8 10 7 11 6 12
REMARK SMILES IDX 5 13 4 14 3 15 2 16 1 17
REMARK H PARENT
REMARK Flexibility Score: inf
ROOT
ATOM      1  C   UNL     1     -12.282  -9.988   4.453  1.00  0.00     0.000 C 
ENDROOT
BRANCH   1   2
ATOM      2  C   UNL     1     -13.672  -9.654   5.028  1.00  0.00     0.000 C 
BRANCH   2   3
ATOM      3  C   UNL     1     -13.927 -10.176   6.454  1.00  0.00     0.000 C 
BRANCH   3   4
ATOM      4  C   UNL     1     -13.892  -9.063   7.511  1.00  0.00     0.000 C 
BRANCH   4   5
ATOM      5  C   UNL     1     -12.713  -9.257   8.473  1.00  0.00     0.006 C 
BRANCH   5   6
ATOM      6  C   UNL     1     -12.761 -10.639   9.131  1.00  0.00     0.053 C 
BRANCH   6   7
ATOM      7  C   UNL     1     -11.427 -11.308   9.041  1.00  0.00     0.041 C 
ATOM      8  O   UNL     1     -11.312 -12.415   8.451  1.00  0.00    -0.550 OA
ATOM      9  O   UNL     1     -10.319 -10.736   9.653  1.00  0.00    -0.550 OA
ENDBRANCH   6   7
ENDBRANCH   5   6
ENDBRANCH   4   5
ENDBRANCH   3   4
ENDBRANCH   2   3
ENDBRANCH   1   2
BRANCH   1  10
ATOM     10  C   UNL     1     -11.399 -10.883   5.347  1.00  0.00     0.000 C 
BRANCH  10  11
ATOM     11  C   UNL     1     -11.158 -12.309   4.815  1.00  0.00    -0.000 C 
BRANCH  11  12
ATOM     12  C   UNL     1     -12.394 -13.214   4.954  1.00  0.00    -0.000 C 
BRANCH  12  13
ATOM     13  C   UNL     1     -13.072 -13.517   3.604  1.00  0.00    -0.000 C 
BRANCH  13  14
ATOM     14  C   UNL     1     -14.477 -12.915   3.422  1.00  0.00    -0.000 C 
BRANCH  14  15
ATOM     15  C   UNL     1     -14.608 -12.070   2.142  1.00  0.00    -0.000 C 
BRANCH  15  16
ATOM     16  C   UNL     1     -13.244 -11.632   1.585  1.00  0.00    -0.003 C 
ATOM     17  C   UNL     1     -13.158 -11.755   0.064  1.00  0.00     0.004 C 
ENDBRANCH  15  16
ENDBRANCH  14  15
ENDBRANCH  13  14
ENDBRANCH  12  13
ENDBRANCH  11  12
ENDBRANCH  10  11
ENDBRANCH   1  10
TORSDOF 13
ENDMDL
MODEL 9
REMARK VINA RESULT:    -3.228      1.992      3.669
REMARK INTER + INTRA:          -7.686
REMARK INTER:                  -5.717
REMARK INTRA:                  -1.969
REMARK UNBOUND:                -2.006
REMARK SMILES CCCCCCCCCCCCCCC(=O)[O-]
REMARK SMILES IDX 9 1 10 2 11 3 12 4 13 5 14 6 15 7 16 8 17 9 8 10 7 11 6 12
REMARK SMILES IDX 5 13 4 14 3 15 2 16 1 17
REMARK H PARENT
REMARK Flexibility Score: inf
ROOT
ATOM      1  C   UNL     1       2.505   1.271  -5.328  1.00  0.00     0.000 C 
ENDROOT
BRANCH   1   2
ATOM      2  C   UNL     1       2.715   0.232  -4.209  1.00  0.00     0.000 C 
BRANCH   2   3
ATOM      3  C   UNL     1       3.997  -0.612  -4.339  1.00  0.00     0.000 C 
BRANCH   3   4
ATOM      4  C   UNL     1       3.707  -2.096  -4.605  1.00  0.00     0.000 C 
BRANCH   4   5
ATOM      5  C   UNL     1       3.940  -2.445  -6.080  1.00  0.00     0.006 C 
BRANCH   5   6
ATOM      6  C   UNL     1       2.617  -2.496  -6.850  1.00  0.00     0.053 C 
BRANCH   6   7
ATOM      7  C   UNL     1       2.865  -2.751  -8.302  1.00  0.00     0.041 C 
ATOM      8  O   UNL     1       2.163  -3.590  -8.927  1.00  0.00    -0.550 OA
ATOM      9  O   UNL     1       3.904  -2.101  -8.955  1.00  0.00    -0.550 OA
ENDBRANCH   6   7
ENDBRANCH   5   6
ENDBRANCH   4   5
ENDBRANCH   3   4
ENDBRANCH   2   3
ENDBRANCH   1   2
BRANCH   1  10
ATOM     10  C   UNL     1       3.484   1.165  -6.516  1.00  0.00     0.000 C 
BRANCH  10  11
ATOM     11  C   UNL     1       2.830   1.199  -7.910  1.00  0.00    -0.000 C 
BRANCH  11  12
ATOM     12  C   UNL     1       1.327   0.872  -7.873  1.00  0.00    -0.000 C 
BRANCH  12  13
ATOM     13  C   UNL     1       0.512   1.679  -8.901  1.00  0.00    -0.000 C 
BRANCH  13  14
ATOM     14  C   UNL     1      -0.361   2.803  -8.313  1.00  0.00    -0.000 C 
BRANCH  14  15
ATOM     15  C   UNL     1       0.437   4.080  -7.996  1.00  0.00    -0.000 C 
BRANCH  15  16
ATOM     16  C   UNL     1       0.630   4.293  -6.486  1.00  0.00    -0.003 C 
ATOM     17  C   UNL     1       2.028   4.800  -6.133  1.00  0.00     0.004 C 
ENDBRANCH  15  16
ENDBRANCH  14  15
ENDBRANCH  13  14
ENDBRANCH  12  13
ENDBRANCH  11  12
ENDBRANCH  10  11
ENDBRANCH   1  10
TORSDOF 13
ENDMDL
