MODEL 1
REMARK VINA RESULT:    -3.812      0.000      0.000
REMARK INTER + INTRA:          -4.963
REMARK INTER:                  -4.703
REMARK INTRA:                  -0.259
REMARK UNBOUND:                -0.259
REMARK SMILES CCCCCC(=O)[O-]
REMARK SMILES IDX 4 1 5 2 6 3 7 4 8 5 3 6 2 7 1 8
REMARK H PARENT
REMARK Flexibility Score: inf
ROOT
ATOM      1  C   UNL     1     -54.185 120.162 -10.384  1.00  0.00     0.006 C 
ENDROOT
BRANCH   1   2
ATOM      2  C   UNL     1     -55.705 120.182 -10.184  1.00  0.00     0.053 C 
BRANCH   2   3
ATOM      3  C   UNL     1     -56.239 121.581 -10.119  1.00  0.00     0.041 C 
ATOM      4  O   UNL     1     -56.139 122.345 -11.116  1.00  0.00    -0.550 OA
ATOM      5  O   UNL     1     -56.816 122.051  -8.946  1.00  0.00    -0.550 OA
ENDBRANCH   2   3
ENDBRANCH   1   2
BRANCH   1   6
ATOM      6  C   UNL     1     -53.428 120.651  -9.141  1.00  0.00     0.000 C 
BRANCH   6   7
ATOM      7  C   UNL     1     -52.670 121.950  -9.434  1.00  0.00    -0.003 C 
ATOM      8  C   UNL     1     -53.154 123.086  -8.536  1.00  0.00     0.004 C 
ENDBRANCH   6   7
ENDBRANCH   1   6
TORSDOF 4
ENDMDL
MODEL 2
REMARK VINA RESULT:    -3.799      0.133      1.150
REMARK INTER + INTRA:          -4.947
REMARK INTER:                  -4.688
REMARK INTRA:                  -0.259
REMARK UNBOUND:                -0.259
REMARK SMILES CCCCCC(=O)[O-]
REMARK SMILES IDX 4 1 5 2 6 3 7 4 8 5 3 6 2 7 1 8
REMARK H PARENT
REMARK Flexibility Score: inf
ROOT
ATOM      1  C   UNL     1     -54.241 120.213 -10.468  1.00  0.00     0.006 C 
ENDROOT
BRANCH   1   2
ATOM      2  C   UNL     1     -55.756 120.278 -10.242  1.00  0.00     0.053 C 
BRANCH   2   3
ATOM      3  C   UNL     1     -56.238 121.690 -10.110  1.00  0.00     0.041 C 
ATOM      4  O   UNL     1     -56.836 122.061  -9.065  1.00  0.00    -0.550 OA
ATOM      5  O   UNL     1     -56.056 122.588 -11.155  1.00  0.00    -0.550 OA
ENDBRANCH   2   3
ENDBRANCH   1   2
BRANCH   1   6
ATOM      6  C   UNL     1     -53.449 120.609  -9.213  1.00  0.00     0.000 C 
BRANCH   6   7
ATOM      7  C   UNL     1     -52.634 121.884  -9.457  1.00  0.00    -0.003 C 
ATOM      8  C   UNL     1     -53.134 123.033  -8.585  1.00  0.00     0.004 C 
ENDBRANCH   6   7
ENDBRANCH   1   6
TORSDOF 4
ENDMDL
MODEL 3
REMARK VINA RESULT:    -3.730      1.891      2.544
REMARK INTER + INTRA:          -4.861
REMARK INTER:                  -4.616
REMARK INTRA:                  -0.245
REMARK UNBOUND:                -0.259
REMARK SMILES CCCCCC(=O)[O-]
REMARK SMILES IDX 4 1 5 2 6 3 7 4 8 5 3 6 2 7 1 8
REMARK H PARENT
REMARK Flexibility Score: inf
ROOT
ATOM      1  C   UNL     1     -55.223 121.623  -9.897  1.00  0.00     0.006 C 
ENDROOT
BRANCH   1   2
ATOM      2  C   UNL     1     -56.515 120.898  -9.501  1.00  0.00     0.053 C 
BRANCH   2   3
ATOM      3  C   UNL     1     -57.037 120.045 -10.617  1.00  0.00     0.041 C 
ATOM      4  O   UNL     1     -56.593 118.878 -10.784  1.00  0.00    -0.550 OA
ATOM      5  O   UNL     1     -57.990 120.551 -11.492  1.00  0.00    -0.550 OA
ENDBRANCH   2   3
ENDBRANCH   1   2
BRANCH   1   6
ATOM      6  C   UNL     1     -54.031 121.208  -9.023  1.00  0.00     0.000 C 
BRANCH   6   7
ATOM      7  C   UNL     1     -53.334 119.969  -9.596  1.00  0.00    -0.003 C 
ATOM      8  C   UNL     1     -53.245 120.040 -11.118  1.00  0.00     0.004 C 
ENDBRANCH   6   7
ENDBRANCH   1   6
TORSDOF 4
ENDMDL
MODEL 4
REMARK VINA RESULT:    -3.655      0.537      0.980
REMARK INTER + INTRA:          -4.769
REMARK INTER:                  -4.535
REMARK INTRA:                  -0.234
REMARK UNBOUND:                -0.259
REMARK SMILES CCCCCC(=O)[O-]
REMARK SMILES IDX 4 1 5 2 6 3 7 4 8 5 3 6 2 7 1 8
REMARK H PARENT
REMARK Flexibility Score: inf
ROOT
ATOM      1  C   UNL     1     -54.163 120.208 -10.090  1.00  0.00     0.006 C 
ENDROOT
BRANCH   1   2
ATOM      2  C   UNL     1     -55.696 120.205 -10.078  1.00  0.00     0.053 C 
BRANCH   2   3
ATOM      3  C   UNL     1     -56.254 121.596 -10.060  1.00  0.00     0.041 C 
ATOM      4  O   UNL     1     -56.097 122.355 -11.053  1.00  0.00    -0.550 OA
ATOM      5  O   UNL     1     -56.919 122.064  -8.933  1.00  0.00    -0.550 OA
ENDBRANCH   2   3
ENDBRANCH   1   2
BRANCH   1   6
ATOM      6  C   UNL     1     -53.573 120.945  -8.879  1.00  0.00     0.000 C 
BRANCH   6   7
ATOM      7  C   UNL     1     -52.680 122.108  -9.325  1.00  0.00    -0.003 C 
ATOM      8  C   UNL     1     -52.116 121.866 -10.723  1.00  0.00     0.004 C 
ENDBRANCH   6   7
ENDBRANCH   1   6
TORSDOF 4
ENDMDL
MODEL 5
REMARK VINA RESULT:    -3.645      2.005      2.364
REMARK INTER + INTRA:          -4.756
REMARK INTER:                  -4.578
REMARK INTRA:                  -0.178
REMARK UNBOUND:                -0.259
REMARK SMILES CCCCCC(=O)[O-]
REMARK SMILES IDX 4 1 5 2 6 3 7 4 8 5 3 6 2 7 1 8
REMARK H PARENT
REMARK Flexibility Score: inf
ROOT
ATOM      1  C   UNL     1     -55.565 121.347  -9.198  1.00  0.00     0.006 C 
ENDROOT
BRANCH   1   2
ATOM      2  C   UNL     1     -55.946 121.275 -10.682  1.00  0.00     0.053 C 
BRANCH   2   3
ATOM      3  C   UNL     1     -55.854 119.877 -11.212  1.00  0.00     0.041 C 
ATOM      4  O   UNL     1     -55.021 119.594 -12.112  1.00  0.00    -0.550 OA
ATOM      5  O   UNL     1     -56.713 118.894 -10.734  1.00  0.00    -0.550 OA
ENDBRANCH   2   3
ENDBRANCH   1   2
BRANCH   1   6
ATOM      6  C   UNL     1     -54.152 121.912  -8.987  1.00  0.00     0.000 C 
BRANCH   6   7
ATOM      7  C   UNL     1     -53.096 120.807  -9.098  1.00  0.00    -0.003 C 
ATOM      8  C   UNL     1     -52.037 121.158 -10.139  1.00  0.00     0.004 C 
ENDBRANCH   6   7
ENDBRANCH   1   6
TORSDOF 4
ENDMDL
MODEL 6
REMARK VINA RESULT:    -3.595      1.926      2.595
REMARK INTER + INTRA:          -4.696
REMARK INTER:                  -4.493
REMARK INTRA:                  -0.203
REMARK UNBOUND:                -0.259
REMARK SMILES CCCCCC(=O)[O-]
REMARK SMILES IDX 4 1 5 2 6 3 7 4 8 5 3 6 2 7 1 8
REMARK H PARENT
REMARK Flexibility Score: inf
ROOT
ATOM      1  C   UNL     1     -55.482 121.366  -9.163  1.00  0.00     0.006 C 
ENDROOT
BRANCH   1   2
ATOM      2  C   UNL     1     -56.098 121.290 -10.565  1.00  0.00     0.053 C 
BRANCH   2   3
ATOM      3  C   UNL     1     -56.029 119.903 -11.128  1.00  0.00     0.041 C 
ATOM      4  O   UNL     1     -56.784 119.000 -10.681  1.00  0.00    -0.550 OA
ATOM      5  O   UNL     1     -55.109 119.601 -12.123  1.00  0.00    -0.550 OA
ENDBRANCH   2   3
ENDBRANCH   1   2
BRANCH   1   6
ATOM      6  C   UNL     1     -54.216 122.235  -9.129  1.00  0.00     0.000 C 
BRANCH   6   7
ATOM      7  C   UNL     1     -53.024 121.493  -9.742  1.00  0.00    -0.003 C 
ATOM      8  C   UNL     1     -52.897 120.083  -9.170  1.00  0.00     0.004 C 
ENDBRANCH   6   7
ENDBRANCH   1   6
TORSDOF 4
ENDMDL
MODEL 7
REMARK VINA RESULT:    -3.582      1.847      2.325
REMARK INTER + INTRA:          -4.679
REMARK INTER:                  -4.512
REMARK INTRA:                  -0.167
REMARK UNBOUND:                -0.259
REMARK SMILES CCCCCC(=O)[O-]
REMARK SMILES IDX 4 1 5 2 6 3 7 4 8 5 3 6 2 7 1 8
REMARK H PARENT
REMARK Flexibility Score: inf
ROOT
ATOM      1  C   UNL     1     -55.690 121.397  -9.132  1.00  0.00     0.006 C 
ENDROOT
BRANCH   1   2
ATOM      2  C   UNL     1     -55.953 121.249 -10.635  1.00  0.00     0.053 C 
BRANCH   2   3
ATOM      3  C   UNL     1     -56.959 120.176 -10.920  1.00  0.00     0.041 C 
ATOM      4  O   UNL     1     -58.137 120.482 -11.244  1.00  0.00    -0.550 OA
ATOM      5  O   UNL     1     -56.604 118.839 -10.796  1.00  0.00    -0.550 OA
ENDBRANCH   2   3
ENDBRANCH   1   2
BRANCH   1   6
ATOM      6  C   UNL     1     -54.192 121.501  -8.810  1.00  0.00     0.000 C 
BRANCH   6   7
ATOM      7  C   UNL     1     -53.388 120.457  -9.593  1.00  0.00    -0.003 C 
ATOM      8  C   UNL     1     -52.155 121.082 -10.241  1.00  0.00     0.004 C 
ENDBRANCH   6   7
ENDBRANCH   1   6
TORSDOF 4
ENDMDL
MODEL 8
REMARK VINA RESULT:    -3.482      1.615      3.212
REMARK INTER + INTRA:          -4.556
REMARK INTER:                  -4.309
REMARK INTRA:                  -0.247
REMARK UNBOUND:                -0.259
REMARK SMILES CCCCCC(=O)[O-]
REMARK SMILES IDX 4 1 5 2 6 3 7 4 8 5 3 6 2 7 1 8
REMARK H PARENT
REMARK Flexibility Score: inf
ROOT
ATOM      1  C   UNL     1     -54.329 119.942  -9.925  1.00  0.00     0.006 C 
ENDROOT
BRANCH   1   2
ATOM      2  C   UNL     1     -53.533 121.022  -9.182  1.00  0.00     0.053 C 
BRANCH   2   3
ATOM      3  C   UNL     1     -54.371 122.230  -8.895  1.00  0.00     0.041 C 
ATOM      4  O   UNL     1     -53.836 123.368  -8.818  1.00  0.00    -0.550 OA
ATOM      5  O   UNL     1     -55.737 122.095  -8.680  1.00  0.00    -0.550 OA
ENDBRANCH   2   3
ENDBRANCH   1   2
BRANCH   1   6
ATOM      6  C   UNL     1     -54.443 120.234 -11.428  1.00  0.00     0.000 C 
BRANCH   6   7
ATOM      7  C   UNL     1     -55.906 120.221 -11.881  1.00  0.00    -0.003 C 
ATOM      8  C   UNL     1     -56.789 119.486 -10.876  1.00  0.00     0.004 C 
ENDBRANCH   6   7
ENDBRANCH   1   6
TORSDOF 4
ENDMDL
MODEL 9
REMARK VINA RESULT:    -3.238      1.892      3.641
REMARK INTER + INTRA:          -4.254
REMARK INTER:                  -4.048
REMARK INTRA:                  -0.206
REMARK UNBOUND:                -0.259
REMARK SMILES CCCCCC(=O)[O-]
REMARK SMILES IDX 4 1 5 2 6 3 7 4 8 5 3 6 2 7 1 8
REMARK H PARENT
REMARK Flexibility Score: inf
ROOT
ATOM      1  C   UNL     1     -55.515 121.190  -9.440  1.00  0.00     0.006 C 
ENDROOT
BRANCH   1   2
ATOM      2  C   UNL     1     -54.243 122.032  -9.595  1.00  0.00     0.053 C 
BRANCH   2   3
ATOM      3  C   UNL     1     -54.094 122.560 -10.989  1.00  0.00     0.041 C 
ATOM      4  O   UNL     1     -53.020 122.384 -11.623  1.00  0.00    -0.550 OA
ATOM      5  O   UNL     1     -55.130 123.276 -11.576  1.00  0.00    -0.550 OA
ENDBRANCH   2   3
ENDBRANCH   1   2
BRANCH   1   6
ATOM      6  C   UNL     1     -55.481 119.919 -10.302  1.00  0.00     0.000 C 
BRANCH   6   7
ATOM      7  C   UNL     1     -56.898 119.465 -10.666  1.00  0.00    -0.003 C 
ATOM      8  C   UNL     1     -57.461 120.285 -11.824  1.00  0.00     0.004 C 
ENDBRANCH   6   7
ENDBRANCH   1   6
TORSDOF 4
ENDMDL
