MODEL 1
REMARK VINA RESULT:    -4.650      0.000      0.000
REMARK INTER + INTRA:          -5.447
REMARK INTER:                  -5.194
REMARK INTRA:                  -0.253
REMARK UNBOUND:                -0.253
REMARK SMILES O=C([O-])C=Cc1ccccc1
REMARK SMILES IDX 4 1 5 2 2 3 1 4 3 5 6 6 7 7 11 8 8 9 10 10 9 11
REMARK H PARENT
REMARK Flexibility Score: inf
ROOT
ATOM      1  C   UNL     1      41.315   9.689   0.605  1.00  0.00     0.025 C 
ATOM      2  C   UNL     1      41.525   8.670  -0.245  1.00  0.00     0.010 C 
ENDROOT
BRANCH   1   3
ATOM      3  C   UNL     1      41.364  11.123   0.260  1.00  0.00     0.064 C 
ATOM      4  O   UNL     1      42.457  11.717   0.065  1.00  0.00    -0.545 OA
ATOM      5  O   UNL     1      40.182  11.849   0.216  1.00  0.00    -0.545 OA
ENDBRANCH   1   3
BRANCH   2   6
ATOM      6  C   UNL     1      41.665   8.792  -1.711  1.00  0.00    -0.026 A 
ATOM      7  C   UNL     1      42.944   8.739  -2.286  1.00  0.00     0.008 A 
ATOM      8  C   UNL     1      40.536   8.857  -2.548  1.00  0.00     0.008 A 
ATOM      9  C   UNL     1      43.096   8.802  -3.675  1.00  0.00     0.001 A 
ATOM     10  C   UNL     1      40.693   8.920  -3.937  1.00  0.00     0.001 A 
ATOM     11  C   UNL     1      41.971   8.898  -4.499  1.00  0.00     0.000 A 
ENDBRANCH   2   6
TORSDOF 2
ENDMDL
MODEL 2
REMARK VINA RESULT:    -4.639      8.939      9.717
REMARK INTER + INTRA:          -5.434
REMARK INTER:                  -5.262
REMARK INTRA:                  -0.172
REMARK UNBOUND:                -0.253
REMARK SMILES O=C([O-])C=Cc1ccccc1
REMARK SMILES IDX 4 1 5 2 2 3 1 4 3 5 6 6 7 7 11 8 8 9 10 10 9 11
REMARK H PARENT
REMARK Flexibility Score: inf
ROOT
ATOM      1  C   UNL     1      35.119   7.025   4.373  1.00  0.00     0.025 C 
ATOM      2  C   UNL     1      35.515   7.967   3.502  1.00  0.00     0.010 C 
ENDROOT
BRANCH   1   3
ATOM      3  C   UNL     1      34.015   7.157   5.343  1.00  0.00     0.064 C 
ATOM      4  O   UNL     1      34.150   7.810   6.411  1.00  0.00    -0.545 OA
ATOM      5  O   UNL     1      32.822   6.489   5.105  1.00  0.00    -0.545 OA
ENDBRANCH   1   3
BRANCH   2   6
ATOM      6  C   UNL     1      34.806   9.235   3.231  1.00  0.00    -0.026 A 
ATOM      7  C   UNL     1      34.964  10.313   4.116  1.00  0.00     0.008 A 
ATOM      8  C   UNL     1      34.062   9.417   2.051  1.00  0.00     0.008 A 
ATOM      9  C   UNL     1      34.342  11.538   3.853  1.00  0.00     0.001 A 
ATOM     10  C   UNL     1      33.443  10.644   1.792  1.00  0.00     0.001 A 
ATOM     11  C   UNL     1      33.579  11.702   2.694  1.00  0.00     0.000 A 
ENDBRANCH   2   6
TORSDOF 2
ENDMDL
MODEL 3
REMARK VINA RESULT:    -4.586      9.579     10.333
REMARK INTER + INTRA:          -5.376
REMARK INTER:                  -5.174
REMARK INTRA:                  -0.202
REMARK UNBOUND:                -0.253
REMARK SMILES O=C([O-])C=Cc1ccccc1
REMARK SMILES IDX 4 1 5 2 2 3 1 4 3 5 6 6 7 7 11 8 8 9 10 10 9 11
REMARK H PARENT
REMARK Flexibility Score: inf
ROOT
ATOM      1  C   UNL     1      39.188   3.016  -8.089  1.00  0.00     0.025 C 
ATOM      2  C   UNL     1      40.140   3.403  -7.224  1.00  0.00     0.010 C 
ENDROOT
BRANCH   1   3
ATOM      3  C   UNL     1      39.275   1.866  -9.010  1.00  0.00     0.064 C 
ATOM      4  O   UNL     1      38.797   0.741  -8.706  1.00  0.00    -0.545 OA
ATOM      5  O   UNL     1      39.957   2.010 -10.209  1.00  0.00    -0.545 OA
ENDBRANCH   1   3
BRANCH   2   6
ATOM      6  C   UNL     1      41.369   2.646  -6.909  1.00  0.00    -0.026 A 
ATOM      7  C   UNL     1      42.463   2.715  -7.786  1.00  0.00     0.008 A 
ATOM      8  C   UNL     1      41.501   1.942  -5.698  1.00  0.00     0.008 A 
ATOM      9  C   UNL     1      43.654   2.046  -7.482  1.00  0.00     0.001 A 
ATOM     10  C   UNL     1      42.694   1.275  -5.398  1.00  0.00     0.001 A 
ATOM     11  C   UNL     1      43.767   1.323  -6.291  1.00  0.00     0.000 A 
ENDBRANCH   2   6
TORSDOF 2
ENDMDL
MODEL 4
REMARK VINA RESULT:    -4.511      8.938      9.813
REMARK INTER + INTRA:          -5.291
REMARK INTER:                  -5.174
REMARK INTRA:                  -0.118
REMARK UNBOUND:                -0.253
REMARK SMILES O=C([O-])C=Cc1ccccc1
REMARK SMILES IDX 4 1 5 2 2 3 1 4 3 5 6 6 7 7 11 8 8 9 10 10 9 11
REMARK H PARENT
REMARK Flexibility Score: inf
ROOT
ATOM      1  C   UNL     1      35.070   7.069   4.389  1.00  0.00     0.025 C 
ATOM      2  C   UNL     1      35.483   7.982   3.493  1.00  0.00     0.010 C 
ENDROOT
BRANCH   1   3
ATOM      3  C   UNL     1      34.041   7.283   5.424  1.00  0.00     0.064 C 
ATOM      4  O   UNL     1      32.843   6.938   5.243  1.00  0.00    -0.545 OA
ATOM      5  O   UNL     1      34.387   7.938   6.597  1.00  0.00    -0.545 OA
ENDBRANCH   1   3
BRANCH   2   6
ATOM      6  C   UNL     1      34.859   9.301   3.264  1.00  0.00    -0.026 A 
ATOM      7  C   UNL     1      34.061   9.495   2.126  1.00  0.00     0.008 A 
ATOM      8  C   UNL     1      34.963  10.331   4.216  1.00  0.00     0.008 A 
ATOM      9  C   UNL     1      33.420  10.721   1.915  1.00  0.00     0.001 A 
ATOM     10  C   UNL     1      34.320  11.555   4.002  1.00  0.00     0.001 A 
ATOM     11  C   UNL     1      33.553  11.751   2.850  1.00  0.00     0.000 A 
ENDBRANCH   2   6
TORSDOF 2
ENDMDL
MODEL 5
REMARK VINA RESULT:    -4.265      8.434      9.584
REMARK INTER + INTRA:          -5.017
REMARK INTER:                  -4.776
REMARK INTRA:                  -0.240
REMARK UNBOUND:                -0.253
REMARK SMILES O=C([O-])C=Cc1ccccc1
REMARK SMILES IDX 4 1 5 2 2 3 1 4 3 5 6 6 7 7 11 8 8 9 10 10 9 11
REMARK H PARENT
REMARK Flexibility Score: inf
ROOT
ATOM      1  C   UNL     1      34.719  10.885   3.138  1.00  0.00     0.025 C 
ATOM      2  C   UNL     1      35.463  10.228   4.043  1.00  0.00     0.010 C 
ENDROOT
BRANCH   1   3
ATOM      3  C   UNL     1      33.667  10.290   2.291  1.00  0.00     0.064 C 
ATOM      4  O   UNL     1      33.947   9.496   1.354  1.00  0.00    -0.545 OA
ATOM      5  O   UNL     1      32.346  10.666   2.488  1.00  0.00    -0.545 OA
ENDBRANCH   1   3
BRANCH   2   6
ATOM      6  C   UNL     1      35.243   8.835   4.484  1.00  0.00    -0.026 A 
ATOM      7  C   UNL     1      35.963   7.799   3.871  1.00  0.00     0.008 A 
ATOM      8  C   UNL     1      34.404   8.539   5.574  1.00  0.00     0.008 A 
ATOM      9  C   UNL     1      35.808   6.478   4.306  1.00  0.00     0.001 A 
ATOM     10  C   UNL     1      34.251   7.218   6.006  1.00  0.00     0.001 A 
ATOM     11  C   UNL     1      34.949   6.188   5.370  1.00  0.00     0.000 A 
ENDBRANCH   2   6
TORSDOF 2
ENDMDL
MODEL 6
REMARK VINA RESULT:    -4.257      8.756      9.879
REMARK INTER + INTRA:          -5.008
REMARK INTER:                  -4.761
REMARK INTRA:                  -0.247
REMARK UNBOUND:                -0.253
REMARK SMILES O=C([O-])C=Cc1ccccc1
REMARK SMILES IDX 4 1 5 2 2 3 1 4 3 5 6 6 7 7 11 8 8 9 10 10 9 11
REMARK H PARENT
REMARK Flexibility Score: inf
ROOT
ATOM      1  C   UNL     1      43.063   2.435  -6.818  1.00  0.00     0.025 C 
ATOM      2  C   UNL     1      42.424   3.219  -7.701  1.00  0.00     0.010 C 
ENDROOT
BRANCH   1   3
ATOM      3  C   UNL     1      42.435   1.411  -5.960  1.00  0.00     0.064 C 
ATOM      4  O   UNL     1      41.703   1.728  -4.985  1.00  0.00    -0.545 OA
ATOM      5  O   UNL     1      42.711   0.071  -6.193  1.00  0.00    -0.545 OA
ENDBRANCH   1   3
BRANCH   2   6
ATOM      6  C   UNL     1      41.009   3.078  -8.104  1.00  0.00    -0.026 A 
ATOM      7  C   UNL     1      40.031   3.855  -7.465  1.00  0.00     0.008 A 
ATOM      8  C   UNL     1      40.638   2.259  -9.186  1.00  0.00     0.008 A 
ATOM      9  C   UNL     1      38.693   3.775  -7.865  1.00  0.00     0.001 A 
ATOM     10  C   UNL     1      39.299   2.181  -9.583  1.00  0.00     0.001 A 
ATOM     11  C   UNL     1      38.327   2.934  -8.920  1.00  0.00     0.000 A 
ENDBRANCH   2   6
TORSDOF 2
ENDMDL
MODEL 7
REMARK VINA RESULT:    -4.238      8.549      9.974
REMARK INTER + INTRA:          -4.986
REMARK INTER:                  -4.821
REMARK INTRA:                  -0.165
REMARK UNBOUND:                -0.253
REMARK SMILES O=C([O-])C=Cc1ccccc1
REMARK SMILES IDX 4 1 5 2 2 3 1 4 3 5 6 6 7 7 11 8 8 9 10 10 9 11
REMARK H PARENT
REMARK Flexibility Score: inf
ROOT
ATOM      1  C   UNL     1      33.940   9.862   1.747  1.00  0.00     0.025 C 
ATOM      2  C   UNL     1      34.572   8.917   2.463  1.00  0.00     0.010 C 
ENDROOT
BRANCH   1   3
ATOM      3  C   UNL     1      33.147  10.977   2.299  1.00  0.00     0.064 C 
ATOM      4  O   UNL     1      33.642  12.125   2.453  1.00  0.00    -0.545 OA
ATOM      5  O   UNL     1      31.847  10.738   2.721  1.00  0.00    -0.545 OA
ENDBRANCH   1   3
BRANCH   2   6
ATOM      6  C   UNL     1      34.739   8.925   3.931  1.00  0.00    -0.026 A 
ATOM      7  C   UNL     1      34.201   7.874   4.690  1.00  0.00     0.008 A 
ATOM      8  C   UNL     1      35.514   9.909   4.572  1.00  0.00     0.008 A 
ATOM      9  C   UNL     1      34.389   7.835   6.075  1.00  0.00     0.001 A 
ATOM     10  C   UNL     1      35.701   9.866   5.958  1.00  0.00     0.001 A 
ATOM     11  C   UNL     1      35.135   8.833   6.709  1.00  0.00     0.000 A 
ENDBRANCH   2   6
TORSDOF 2
ENDMDL
MODEL 8
REMARK VINA RESULT:    -4.154      9.044      9.939
REMARK INTER + INTRA:          -4.893
REMARK INTER:                  -4.734
REMARK INTRA:                  -0.160
REMARK UNBOUND:                -0.253
REMARK SMILES O=C([O-])C=Cc1ccccc1
REMARK SMILES IDX 4 1 5 2 2 3 1 4 3 5 6 6 7 7 11 8 8 9 10 10 9 11
REMARK H PARENT
REMARK Flexibility Score: inf
ROOT
ATOM      1  C   UNL     1      41.789   1.742  -5.317  1.00  0.00     0.025 C 
ATOM      2  C   UNL     1      40.953   2.410  -6.129  1.00  0.00     0.010 C 
ENDROOT
BRANCH   1   3
ATOM      3  C   UNL     1      42.980   0.981  -5.742  1.00  0.00     0.064 C 
ATOM      4  O   UNL     1      44.122   1.510  -5.777  1.00  0.00    -0.545 OA
ATOM      5  O   UNL     1      42.826  -0.327  -6.179  1.00  0.00    -0.545 OA
ENDBRANCH   1   3
BRANCH   2   6
ATOM      6  C   UNL     1      41.172   2.656  -7.569  1.00  0.00    -0.026 A 
ATOM      7  C   UNL     1      40.254   2.147  -8.500  1.00  0.00     0.008 A 
ATOM      8  C   UNL     1      42.224   3.476  -8.017  1.00  0.00     0.008 A 
ATOM      9  C   UNL     1      40.414   2.410  -9.865  1.00  0.00     0.001 A 
ATOM     10  C   UNL     1      42.381   3.736  -9.382  1.00  0.00     0.001 A 
ATOM     11  C   UNL     1      41.480   3.200 -10.306  1.00  0.00     0.000 A 
ENDBRANCH   2   6
TORSDOF 2
ENDMDL
MODEL 9
REMARK VINA RESULT:    -4.090      7.923      8.827
REMARK INTER + INTRA:          -4.821
REMARK INTER:                  -4.584
REMARK INTRA:                  -0.237
REMARK UNBOUND:                -0.253
REMARK SMILES O=C([O-])C=Cc1ccccc1
REMARK SMILES IDX 4 1 5 2 2 3 1 4 3 5 6 6 7 7 11 8 8 9 10 10 9 11
REMARK H PARENT
REMARK Flexibility Score: inf
ROOT
ATOM      1  C   UNL     1      36.043   7.803   5.426  1.00  0.00     0.025 C 
ATOM      2  C   UNL     1      34.873   8.403   5.149  1.00  0.00     0.010 C 
ENDROOT
BRANCH   1   3
ATOM      3  C   UNL     1      37.268   7.886   4.608  1.00  0.00     0.064 C 
ATOM      4  O   UNL     1      38.104   8.814   4.766  1.00  0.00    -0.545 OA
ATOM      5  O   UNL     1      37.471   6.956   3.598  1.00  0.00    -0.545 OA
ENDBRANCH   1   3
BRANCH   2   6
ATOM      6  C   UNL     1      34.652   9.395   4.077  1.00  0.00    -0.026 A 
ATOM      7  C   UNL     1      34.383   8.951   2.773  1.00  0.00     0.008 A 
ATOM      8  C   UNL     1      34.603  10.773   4.358  1.00  0.00     0.008 A 
ATOM      9  C   UNL     1      34.121   9.872   1.753  1.00  0.00     0.001 A 
ATOM     10  C   UNL     1      34.341  11.691   3.335  1.00  0.00     0.001 A 
ATOM     11  C   UNL     1      34.105  11.241   2.034  1.00  0.00     0.000 A 
ENDBRANCH   2   6
TORSDOF 2
ENDMDL
