MODEL 1
REMARK VINA RESULT:    -5.398      0.000      0.000
REMARK INTER + INTRA:          -5.979
REMARK INTER:                  -5.714
REMARK INTRA:                  -0.265
REMARK UNBOUND:                -0.265
REMARK SMILES CC1=C[C@@H]2C(=C(C)CC[C@H]2C(C)C)CC1
REMARK SMILES IDX 1 1 2 2 3 3 4 4 10 5 9 6 8 7 6 8 5 9 14 10 15 11 7 12 11 13
REMARK SMILES IDX 12 14 13 15
REMARK H PARENT
REMARK Flexibility Score: inf
ROOT
ATOM      1  C   UNL     1       1.920   5.624  14.884  1.00  0.00     0.039 C 
ATOM      2  C   UNL     1       0.712   4.910  14.342  1.00  0.00    -0.076 C 
ATOM      3  C   UNL     1       0.378   5.037  13.046  1.00  0.00    -0.020 C 
ATOM      4  C   UNL     1      -0.816   4.276  12.496  1.00  0.00     0.041 C 
ATOM      5  C   UNL     1      -0.888   4.362  10.946  1.00  0.00     0.003 C 
ATOM      6  C   UNL     1      -1.884   3.309  10.427  1.00  0.00     0.009 C 
ATOM      7  C   UNL     1      -1.405   1.910  10.794  1.00  0.00     0.031 C 
ATOM      8  C   UNL     1      -1.095   1.766  12.269  1.00  0.00    -0.073 C 
ATOM      9  C   UNL     1      -0.766   2.843  13.039  1.00  0.00    -0.064 C 
ATOM     10  C   UNL     1      -0.378   2.660  14.506  1.00  0.00     0.036 C 
ATOM     11  C   UNL     1      -0.114   3.997  15.219  1.00  0.00     0.035 C 
ATOM     12  C   UNL     1      -1.042   0.362  12.826  1.00  0.00     0.039 C 
ENDROOT
BRANCH   5  13
ATOM     13  C   UNL     1      -1.216   5.806  10.433  1.00  0.00    -0.013 C 
ATOM     14  C   UNL     1      -2.667   5.989   9.953  1.00  0.00     0.007 C 
ATOM     15  C   UNL     1      -0.242   6.243   9.328  1.00  0.00     0.007 C 
ENDBRANCH   5  13
TORSDOF 1
ENDMDL
MODEL 2
REMARK VINA RESULT:    -5.065      1.390      4.121
REMARK INTER + INTRA:          -5.626
REMARK INTER:                  -5.771
REMARK INTRA:                   0.145
REMARK UNBOUND:                -0.265
REMARK SMILES CC1=C[C@@H]2C(=C(C)CC[C@H]2C(C)C)CC1
REMARK SMILES IDX 1 1 2 2 3 3 4 4 10 5 9 6 8 7 6 8 5 9 14 10 15 11 7 12 11 13
REMARK SMILES IDX 12 14 13 15
REMARK H PARENT
REMARK Flexibility Score: inf
ROOT
ATOM      1  C   UNL     1      -3.034   4.826  10.164  1.00  0.00     0.039 C 
ATOM      2  C   UNL     1      -2.091   4.013  11.008  1.00  0.00    -0.076 C 
ATOM      3  C   UNL     1      -1.943   4.293  12.314  1.00  0.00    -0.020 C 
ATOM      4  C   UNL     1      -1.023   3.439  13.170  1.00  0.00     0.041 C 
ATOM      5  C   UNL     1      -1.176   3.765  14.681  1.00  0.00     0.003 C 
ATOM      6  C   UNL     1      -0.501   2.657  15.509  1.00  0.00     0.009 C 
ATOM      7  C   UNL     1      -1.187   1.321  15.251  1.00  0.00     0.031 C 
ATOM      8  C   UNL     1      -1.288   0.991  13.777  1.00  0.00    -0.073 C 
ATOM      9  C   UNL     1      -1.273   1.966  12.823  1.00  0.00    -0.064 C 
ATOM     10  C   UNL     1      -1.459   1.612  11.348  1.00  0.00     0.036 C 
ATOM     11  C   UNL     1      -1.338   2.838  10.426  1.00  0.00     0.035 C 
ATOM     12  C   UNL     1      -1.533  -0.456  13.412  1.00  0.00     0.039 C 
ENDROOT
BRANCH   5  13
ATOM     13  C   UNL     1      -0.650   5.196  15.048  1.00  0.00    -0.013 C 
ATOM     14  C   UNL     1      -1.523   6.344  14.511  1.00  0.00     0.007 C 
ATOM     15  C   UNL     1       0.806   5.391  14.594  1.00  0.00     0.007 C 
ENDBRANCH   5  13
TORSDOF 1
ENDMDL
MODEL 3
REMARK VINA RESULT:    -5.049      1.199      3.990
REMARK INTER + INTRA:          -5.609
REMARK INTER:                  -5.390
REMARK INTRA:                  -0.219
REMARK UNBOUND:                -0.265
REMARK SMILES CC1=C[C@@H]2C(=C(C)CC[C@H]2C(C)C)CC1
REMARK SMILES IDX 1 1 2 2 3 3 4 4 10 5 9 6 8 7 6 8 5 9 14 10 15 11 7 12 11 13
REMARK SMILES IDX 12 14 13 15
REMARK H PARENT
REMARK Flexibility Score: inf
ROOT
ATOM      1  C   UNL     1       1.194   6.233  15.082  1.00  0.00     0.039 C 
ATOM      2  C   UNL     1       0.810   5.821  13.687  1.00  0.00    -0.076 C 
ATOM      3  C   UNL     1       0.077   4.711  13.489  1.00  0.00    -0.020 C 
ATOM      4  C   UNL     1      -0.345   4.327  12.082  1.00  0.00     0.041 C 
ATOM      5  C   UNL     1      -1.379   3.166  12.088  1.00  0.00     0.003 C 
ATOM      6  C   UNL     1      -2.024   3.056  10.695  1.00  0.00     0.009 C 
ATOM      7  C   UNL     1      -2.771   4.341  10.361  1.00  0.00     0.031 C 
ATOM      8  C   UNL     1      -1.912   5.576  10.528  1.00  0.00    -0.073 C 
ATOM      9  C   UNL     1      -0.833   5.590  11.362  1.00  0.00    -0.064 C 
ATOM     10  C   UNL     1      -0.031   6.874  11.574  1.00  0.00     0.036 C 
ATOM     11  C   UNL     1       1.187   6.666  12.492  1.00  0.00     0.035 C 
ATOM     12  C   UNL     1      -2.373   6.834   9.826  1.00  0.00     0.039 C 
ENDROOT
BRANCH   5  13
ATOM     13  C   UNL     1      -0.763   1.810  12.576  1.00  0.00    -0.013 C 
ATOM     14  C   UNL     1      -0.981   0.635  11.605  1.00  0.00     0.007 C 
ATOM     15  C   UNL     1      -1.276   1.433  13.975  1.00  0.00     0.007 C 
ENDBRANCH   5  13
TORSDOF 1
ENDMDL
MODEL 4
REMARK VINA RESULT:    -4.988      1.553      4.934
REMARK INTER + INTRA:          -5.545
REMARK INTER:                  -5.278
REMARK INTRA:                  -0.266
REMARK UNBOUND:                -0.265
REMARK SMILES CC1=C[C@@H]2C(=C(C)CC[C@H]2C(C)C)CC1
REMARK SMILES IDX 1 1 2 2 3 3 4 4 10 5 9 6 8 7 6 8 5 9 14 10 15 11 7 12 11 13
REMARK SMILES IDX 12 14 13 15
REMARK H PARENT
REMARK Flexibility Score: inf
ROOT
ATOM      1  C   UNL     1      -3.353   5.322  10.168  1.00  0.00     0.039 C 
ATOM      2  C   UNL     1      -2.859   5.084  11.569  1.00  0.00    -0.076 C 
ATOM      3  C   UNL     1      -2.251   3.927  11.884  1.00  0.00    -0.020 C 
ATOM      4  C   UNL     1      -1.714   3.713  13.288  1.00  0.00     0.041 C 
ATOM      5  C   UNL     1      -0.841   2.431  13.381  1.00  0.00     0.003 C 
ATOM      6  C   UNL     1      -0.052   2.451  14.702  1.00  0.00     0.009 C 
ATOM      7  C   UNL     1       0.884   3.653  14.735  1.00  0.00     0.031 C 
ATOM      8  C   UNL     1       0.170   4.956  14.442  1.00  0.00    -0.073 C 
ATOM      9  C   UNL     1      -0.991   4.992  13.727  1.00  0.00    -0.064 C 
ATOM     10  C   UNL     1      -1.647   6.327  13.376  1.00  0.00     0.036 C 
ATOM     11  C   UNL     1      -2.982   6.152  12.632  1.00  0.00     0.035 C 
ATOM     12  C   UNL     1       0.865   6.230  14.869  1.00  0.00     0.039 C 
ENDROOT
BRANCH   5  13
ATOM     13  C   UNL     1      -1.674   1.116  13.197  1.00  0.00    -0.013 C 
ATOM     14  C   UNL     1      -1.764   0.246  14.463  1.00  0.00     0.007 C 
ATOM     15  C   UNL     1      -1.145   0.277  12.023  1.00  0.00     0.007 C 
ENDBRANCH   5  13
TORSDOF 1
ENDMDL
MODEL 5
REMARK VINA RESULT:    -4.907      1.973      4.288
REMARK INTER + INTRA:          -5.459
REMARK INTER:                  -5.192
REMARK INTRA:                  -0.267
REMARK UNBOUND:                -0.265
REMARK SMILES CC1=C[C@@H]2C(=C(C)CC[C@H]2C(C)C)CC1
REMARK SMILES IDX 1 1 2 2 3 3 4 4 10 5 9 6 8 7 6 8 5 9 14 10 15 11 7 12 11 13
REMARK SMILES IDX 12 14 13 15
REMARK H PARENT
REMARK Flexibility Score: inf
ROOT
ATOM      1  C   UNL     1      -1.232   2.881  14.502  1.00  0.00     0.039 C 
ATOM      2  C   UNL     1      -1.537   3.301  13.090  1.00  0.00    -0.076 C 
ATOM      3  C   UNL     1      -2.504   4.204  12.848  1.00  0.00    -0.020 C 
ATOM      4  C   UNL     1      -2.775   4.657  11.425  1.00  0.00     0.041 C 
ATOM      5  C   UNL     1      -3.748   5.868  11.382  1.00  0.00     0.003 C 
ATOM      6  C   UNL     1      -3.712   6.496   9.977  1.00  0.00     0.009 C 
ATOM      7  C   UNL     1      -2.312   7.014   9.671  1.00  0.00     0.031 C 
ATOM      8  C   UNL     1      -1.242   5.965   9.886  1.00  0.00    -0.073 C 
ATOM      9  C   UNL     1      -1.430   4.915  10.736  1.00  0.00    -0.064 C 
ATOM     10  C   UNL     1      -0.303   3.915  10.998  1.00  0.00     0.036 C 
ATOM     11  C   UNL     1      -0.735   2.767  11.926  1.00  0.00     0.035 C 
ATOM     12  C   UNL     1       0.093   6.198   9.215  1.00  0.00     0.039 C 
ENDROOT
BRANCH   5  13
ATOM     13  C   UNL     1      -5.200   5.495  11.838  1.00  0.00    -0.013 C 
ATOM     14  C   UNL     1      -6.155   5.151  10.680  1.00  0.00     0.007 C 
ATOM     15  C   UNL     1      -5.815   6.601  12.710  1.00  0.00     0.007 C 
ENDBRANCH   5  13
TORSDOF 1
ENDMDL
MODEL 6
REMARK VINA RESULT:    -4.894     12.068     15.080
REMARK INTER + INTRA:          -5.445
REMARK INTER:                  -5.164
REMARK INTRA:                  -0.281
REMARK UNBOUND:                -0.265
REMARK SMILES CC1=C[C@@H]2C(=C(C)CC[C@H]2C(C)C)CC1
REMARK SMILES IDX 1 1 2 2 3 3 4 4 10 5 9 6 8 7 6 8 5 9 14 10 15 11 7 12 11 13
REMARK SMILES IDX 12 14 13 15
REMARK H PARENT
REMARK Flexibility Score: inf
ROOT
ATOM      1  C   UNL     1       0.376 -11.640  19.037  1.00  0.00     0.039 C 
ATOM      2  C   UNL     1      -0.860 -10.845  18.716  1.00  0.00    -0.076 C 
ATOM      3  C   UNL     1      -1.171 -10.567  17.438  1.00  0.00    -0.020 C 
ATOM      4  C   UNL     1      -2.444  -9.803  17.119  1.00  0.00     0.041 C 
ATOM      5  C   UNL     1      -2.745  -9.797  15.594  1.00  0.00     0.003 C 
ATOM      6  C   UNL     1      -4.193  -9.328  15.366  1.00  0.00     0.009 C 
ATOM      7  C   UNL     1      -5.167 -10.295  16.028  1.00  0.00     0.031 C 
ATOM      8  C   UNL     1      -4.841 -10.547  17.485  1.00  0.00    -0.073 C 
ATOM      9  C   UNL     1      -3.578 -10.379  17.975  1.00  0.00    -0.064 C 
ATOM     10  C   UNL     1      -3.259 -10.718  19.431  1.00  0.00     0.036 C 
ATOM     11  C   UNL     1      -1.803 -10.392  19.808  1.00  0.00     0.035 C 
ATOM     12  C   UNL     1      -5.945 -11.113  18.348  1.00  0.00     0.039 C 
ENDROOT
BRANCH   5  13
ATOM     13  C   UNL     1      -1.704  -8.960  14.775  1.00  0.00    -0.013 C 
ATOM     14  C   UNL     1      -1.790  -7.442  15.013  1.00  0.00     0.007 C 
ATOM     15  C   UNL     1      -1.805  -9.258  13.270  1.00  0.00     0.007 C 
ENDBRANCH   5  13
TORSDOF 1
ENDMDL
MODEL 7
REMARK VINA RESULT:    -4.892     11.875     14.282
REMARK INTER + INTRA:          -5.443
REMARK INTER:                  -5.163
REMARK INTRA:                  -0.280
REMARK UNBOUND:                -0.265
REMARK SMILES CC1=C[C@@H]2C(=C(C)CC[C@H]2C(C)C)CC1
REMARK SMILES IDX 1 1 2 2 3 3 4 4 10 5 9 6 8 7 6 8 5 9 14 10 15 11 7 12 11 13
REMARK SMILES IDX 12 14 13 15
REMARK H PARENT
REMARK Flexibility Score: inf
ROOT
ATOM      1  C   UNL     1      -1.272  -9.865   9.331  1.00  0.00     0.039 C 
ATOM      2  C   UNL     1      -0.473  -9.507  10.554  1.00  0.00    -0.076 C 
ATOM      3  C   UNL     1      -1.039  -9.568  11.772  1.00  0.00    -0.020 C 
ATOM      4  C   UNL     1      -0.213  -9.250  13.005  1.00  0.00     0.041 C 
ATOM      5  C   UNL     1      -0.969  -9.611  14.314  1.00  0.00     0.003 C 
ATOM      6  C   UNL     1       0.023  -9.600  15.491  1.00  0.00     0.009 C 
ATOM      7  C   UNL     1       1.104 -10.653  15.274  1.00  0.00     0.031 C 
ATOM      8  C   UNL     1       1.775 -10.529  13.923  1.00  0.00    -0.073 C 
ATOM      9  C   UNL     1       1.150  -9.939  12.864  1.00  0.00    -0.064 C 
ATOM     10  C   UNL     1       1.818  -9.900  11.489  1.00  0.00     0.036 C 
ATOM     11  C   UNL     1       0.987  -9.129  10.449  1.00  0.00     0.035 C 
ATOM     12  C   UNL     1       3.121 -11.200  13.761  1.00  0.00     0.039 C 
ENDROOT
BRANCH   5  13
ATOM     13  C   UNL     1      -2.214  -8.693  14.567  1.00  0.00    -0.013 C 
ATOM     14  C   UNL     1      -1.861  -7.245  14.950  1.00  0.00     0.007 C 
ATOM     15  C   UNL     1      -3.151  -9.298  15.624  1.00  0.00     0.007 C 
ENDBRANCH   5  13
TORSDOF 1
ENDMDL
MODEL 8
REMARK VINA RESULT:    -4.877      2.077      4.089
REMARK INTER + INTRA:          -5.427
REMARK INTER:                  -5.148
REMARK INTRA:                  -0.279
REMARK UNBOUND:                -0.265
REMARK SMILES CC1=C[C@@H]2C(=C(C)CC[C@H]2C(C)C)CC1
REMARK SMILES IDX 1 1 2 2 3 3 4 4 10 5 9 6 8 7 6 8 5 9 14 10 15 11 7 12 11 13
REMARK SMILES IDX 12 14 13 15
REMARK H PARENT
REMARK Flexibility Score: inf
ROOT
ATOM      1  C   UNL     1      -1.695   1.417  14.881  1.00  0.00     0.039 C 
ATOM      2  C   UNL     1      -1.439   2.447  13.815  1.00  0.00    -0.076 C 
ATOM      3  C   UNL     1      -2.335   3.423  13.590  1.00  0.00    -0.020 C 
ATOM      4  C   UNL     1      -2.048   4.486  12.544  1.00  0.00     0.041 C 
ATOM      5  C   UNL     1      -3.078   5.648  12.607  1.00  0.00     0.003 C 
ATOM      6  C   UNL     1      -2.549   6.838  11.786  1.00  0.00     0.009 C 
ATOM      7  C   UNL     1      -1.241   7.344  12.382  1.00  0.00     0.031 C 
ATOM      8  C   UNL     1      -0.219   6.242  12.568  1.00  0.00    -0.073 C 
ATOM      9  C   UNL     1      -0.591   4.937  12.703  1.00  0.00    -0.064 C 
ATOM     10  C   UNL     1       0.455   3.855  12.972  1.00  0.00     0.036 C 
ATOM     11  C   UNL     1      -0.154   2.442  13.018  1.00  0.00     0.035 C 
ATOM     12  C   UNL     1       1.224   6.664  12.725  1.00  0.00     0.039 C 
ENDROOT
BRANCH   5  13
ATOM     13  C   UNL     1      -4.517   5.206  12.169  1.00  0.00    -0.013 C 
ATOM     14  C   UNL     1      -4.662   4.942  10.659  1.00  0.00     0.007 C 
ATOM     15  C   UNL     1      -5.578   6.220  12.625  1.00  0.00     0.007 C 
ENDBRANCH   5  13
TORSDOF 1
ENDMDL
MODEL 9
REMARK VINA RESULT:    -4.819      1.781      4.284
REMARK INTER + INTRA:          -5.366
REMARK INTER:                  -5.145
REMARK INTRA:                  -0.220
REMARK UNBOUND:                -0.265
REMARK SMILES CC1=C[C@@H]2C(=C(C)CC[C@H]2C(C)C)CC1
REMARK SMILES IDX 1 1 2 2 3 3 4 4 10 5 9 6 8 7 6 8 5 9 14 10 15 11 7 12 11 13
REMARK SMILES IDX 12 14 13 15
REMARK H PARENT
REMARK Flexibility Score: inf
ROOT
ATOM      1  C   UNL     1      -5.407   6.296  12.192  1.00  0.00     0.039 C 
ATOM      2  C   UNL     1      -4.052   5.804  11.766  1.00  0.00    -0.076 C 
ATOM      3  C   UNL     1      -3.038   5.767  12.649  1.00  0.00    -0.020 C 
ATOM      4  C   UNL     1      -1.685   5.226  12.223  1.00  0.00     0.041 C 
ATOM      5  C   UNL     1      -0.732   5.041  13.437  1.00  0.00     0.003 C 
ATOM      6  C   UNL     1       0.470   4.180  13.009  1.00  0.00     0.009 C 
ATOM      7  C   UNL     1      -0.004   2.798  12.576  1.00  0.00     0.031 C 
ATOM      8  C   UNL     1      -1.100   2.857  11.533  1.00  0.00    -0.073 C 
ATOM      9  C   UNL     1      -1.912   3.947  11.409  1.00  0.00    -0.064 C 
ATOM     10  C   UNL     1      -3.063   3.947  10.403  1.00  0.00     0.036 C 
ATOM     11  C   UNL     1      -3.812   5.291  10.364  1.00  0.00     0.035 C 
ATOM     12  C   UNL     1      -1.340   1.607  10.718  1.00  0.00     0.039 C 
ENDROOT
BRANCH   5  13
ATOM     13  C   UNL     1      -0.299   6.403  14.080  1.00  0.00    -0.013 C 
ATOM     14  C   UNL     1      -0.071   7.536  13.062  1.00  0.00     0.007 C 
ATOM     15  C   UNL     1       0.949   6.235  14.961  1.00  0.00     0.007 C 
ENDBRANCH   5  13
TORSDOF 1
ENDMDL
