MODEL 1
REMARK VINA RESULT:    -6.288      0.000      0.000
REMARK INTER + INTRA:         -10.357
REMARK INTER:                  -9.780
REMARK INTRA:                  -0.578
REMARK UNBOUND:                -0.578
REMARK SMILES COc1cc(CNC(=O)CCCCC=CC(C)C)ccc1O
REMARK SMILES IDX 11 1 12 2 13 3 14 4 15 5 16 6 17 7 18 8 10 9 8 10 9 11 7 12
REMARK SMILES IDX 6 14 5 15 4 16 19 17 3 18 20 19 21 20 2 21 1 22 22 23
REMARK H PARENT 7 13 22 24
REMARK Flexibility Score: inf
ROOT
ATOM      1  C   UNL     1      -1.023 -43.096 -35.558  1.00  0.00     0.010 C 
ENDROOT
BRANCH   1   2
ATOM      2  C   UNL     1      -0.115 -44.231 -36.048  1.00  0.00     0.005 C 
BRANCH   2   3
ATOM      3  C   UNL     1      -0.077 -44.332 -37.582  1.00  0.00     0.027 C 
BRANCH   3   4
ATOM      4  C   UNL     1       0.539 -43.117 -38.233  1.00  0.00    -0.031 C 
ATOM      5  C   UNL     1       1.488 -43.140 -39.189  1.00  0.00    -0.028 C 
BRANCH   5   6
ATOM      6  C   UNL     1       2.090 -44.387 -39.800  1.00  0.00     0.005 C 
ATOM      7  C   UNL     1       3.600 -44.411 -39.547  1.00  0.00     0.012 C 
ATOM      8  C   UNL     1       1.800 -44.409 -41.303  1.00  0.00     0.012 C 
ENDBRANCH   5   6
ENDBRANCH   3   4
ENDBRANCH   2   3
ENDBRANCH   1   2
BRANCH   1   9
ATOM      9  C   UNL     1      -1.976 -43.593 -34.468  1.00  0.00     0.100 C 
BRANCH   9  10
ATOM     10  C   UNL     1      -3.030 -42.565 -34.184  1.00  0.00     0.220 C 
ATOM     11  O   UNL     1      -2.684 -41.421 -33.776  1.00  0.00    -0.275 OA
ATOM     12  N   UNL     1      -4.420 -42.895 -34.338  1.00  0.00    -0.352 N 
ATOM     13  H   UNL     1      -4.683 -43.840 -34.696  1.00  0.00     0.163 HD
BRANCH  12  14
ATOM     14  C   UNL     1      -5.488 -41.997 -33.910  1.00  0.00     0.151 C 
BRANCH  14  15
ATOM     15  C   UNL     1      -6.467 -42.742 -33.043  1.00  0.00    -0.025 A 
ATOM     16  C   UNL     1      -6.374 -42.656 -31.644  1.00  0.00     0.056 A 
ATOM     17  C   UNL     1      -7.505 -43.491 -33.619  1.00  0.00     0.009 A 
ATOM     18  C   UNL     1      -7.294 -43.334 -30.819  1.00  0.00     0.160 A 
ATOM     19  C   UNL     1      -8.424 -44.160 -32.807  1.00  0.00     0.050 A 
ATOM     20  C   UNL     1      -8.322 -44.090 -31.412  1.00  0.00     0.157 A 
BRANCH  18  21
ATOM     21  O   UNL     1      -7.218 -43.278 -29.416  1.00  0.00    -0.493 OA
ATOM     22  C   UNL     1      -6.397 -42.368 -28.688  1.00  0.00     0.278 C 
ENDBRANCH  18  21
BRANCH  20  23
ATOM     23  O   UNL     1      -9.253 -44.778 -30.632  1.00  0.00    -0.504 OA
ATOM     24  H   UNL     1      -9.685 -44.360 -29.817  1.00  0.00     0.293 HD
ENDBRANCH  20  23
ENDBRANCH  14  15
ENDBRANCH  12  14
ENDBRANCH   9  10
ENDBRANCH   1   9
TORSDOF 10
ENDMDL
MODEL 2
REMARK VINA RESULT:    -6.160      2.463      4.215
REMARK INTER + INTRA:         -10.159
REMARK INTER:                  -9.145
REMARK INTRA:                  -1.014
REMARK UNBOUND:                -0.578
REMARK SMILES COc1cc(CNC(=O)CCCCC=CC(C)C)ccc1O
REMARK SMILES IDX 11 1 12 2 13 3 14 4 15 5 16 6 17 7 18 8 10 9 8 10 9 11 7 12
REMARK SMILES IDX 6 14 5 15 4 16 19 17 3 18 20 19 21 20 2 21 1 22 22 23
REMARK H PARENT 7 13 22 24
REMARK Flexibility Score: inf
ROOT
ATOM      1  C   UNL     1       0.968 -44.138 -37.977  1.00  0.00     0.010 C 
ENDROOT
BRANCH   1   2
ATOM      2  C   UNL     1       2.362 -43.734 -37.481  1.00  0.00     0.005 C 
BRANCH   2   3
ATOM      3  C   UNL     1       3.144 -42.919 -38.526  1.00  0.00     0.027 C 
BRANCH   3   4
ATOM      4  C   UNL     1       3.821 -43.788 -39.558  1.00  0.00    -0.031 C 
ATOM      5  C   UNL     1       3.330 -44.075 -40.779  1.00  0.00    -0.028 C 
BRANCH   5   6
ATOM      6  C   UNL     1       2.024 -43.561 -41.345  1.00  0.00     0.005 C 
ATOM      7  C   UNL     1       1.576 -44.452 -42.507  1.00  0.00     0.012 C 
ATOM      8  C   UNL     1       2.208 -42.116 -41.820  1.00  0.00     0.012 C 
ENDBRANCH   5   6
ENDBRANCH   3   4
ENDBRANCH   2   3
ENDBRANCH   1   2
BRANCH   1   9
ATOM      9  C   UNL     1       0.046 -42.918 -38.063  1.00  0.00     0.100 C 
BRANCH   9  10
ATOM     10  C   UNL     1      -0.284 -42.412 -36.692  1.00  0.00     0.220 C 
ATOM     11  O   UNL     1       0.056 -41.240 -36.366  1.00  0.00    -0.275 OA
ATOM     12  N   UNL     1      -0.946 -43.268 -35.747  1.00  0.00    -0.352 N 
ATOM     13  H   UNL     1      -1.237 -44.227 -36.043  1.00  0.00     0.163 HD
BRANCH  12  14
ATOM     14  C   UNL     1      -1.134 -42.891 -34.349  1.00  0.00     0.151 C 
BRANCH  14  15
ATOM     15  C   UNL     1      -2.442 -42.164 -34.187  1.00  0.00    -0.025 A 
ATOM     16  C   UNL     1      -3.654 -42.868 -34.286  1.00  0.00     0.056 A 
ATOM     17  C   UNL     1      -2.465 -40.792 -33.891  1.00  0.00     0.009 A 
ATOM     18  C   UNL     1      -4.887 -42.205 -34.118  1.00  0.00     0.160 A 
ATOM     19  C   UNL     1      -3.683 -40.130 -33.718  1.00  0.00     0.050 A 
ATOM     20  C   UNL     1      -4.892 -40.826 -33.834  1.00  0.00     0.157 A 
BRANCH  18  21
ATOM     21  O   UNL     1      -6.115 -42.880 -34.226  1.00  0.00    -0.493 OA
ATOM     22  C   UNL     1      -6.835 -43.427 -33.124  1.00  0.00     0.278 C 
ENDBRANCH  18  21
BRANCH  20  23
ATOM     23  O   UNL     1      -6.090 -40.131 -33.663  1.00  0.00    -0.504 OA
ATOM     24  H   UNL     1      -6.318 -39.657 -32.797  1.00  0.00     0.293 HD
ENDBRANCH  20  23
ENDBRANCH  14  15
ENDBRANCH  12  14
ENDBRANCH   9  10
ENDBRANCH   1   9
TORSDOF 10
ENDMDL
MODEL 3
REMARK VINA RESULT:    -6.033      3.963      6.645
REMARK INTER + INTRA:          -9.961
REMARK INTER:                  -8.126
REMARK INTRA:                  -1.835
REMARK UNBOUND:                -0.578
REMARK SMILES COc1cc(CNC(=O)CCCCC=CC(C)C)ccc1O
REMARK SMILES IDX 11 1 12 2 13 3 14 4 15 5 16 6 17 7 18 8 10 9 8 10 9 11 7 12
REMARK SMILES IDX 6 14 5 15 4 16 19 17 3 18 20 19 21 20 2 21 1 22 22 23
REMARK H PARENT 7 13 22 24
REMARK Flexibility Score: inf
ROOT
ATOM      1  C   UNL     1       2.987 -40.574 -39.880  1.00  0.00     0.010 C 
ENDROOT
BRANCH   1   2
ATOM      2  C   UNL     1       3.406 -41.723 -40.808  1.00  0.00     0.005 C 
BRANCH   2   3
ATOM      3  C   UNL     1       2.202 -42.391 -41.494  1.00  0.00     0.027 C 
BRANCH   3   4
ATOM      4  C   UNL     1       2.160 -43.884 -41.276  1.00  0.00    -0.031 C 
ATOM      5  C   UNL     1       1.908 -44.494 -40.101  1.00  0.00    -0.028 C 
BRANCH   5   6
ATOM      6  C   UNL     1       1.602 -43.794 -38.795  1.00  0.00     0.005 C 
ATOM      7  C   UNL     1       2.799 -43.917 -37.848  1.00  0.00     0.012 C 
ATOM      8  C   UNL     1       0.355 -44.418 -38.162  1.00  0.00     0.012 C 
ENDBRANCH   5   6
ENDBRANCH   3   4
ENDBRANCH   2   3
ENDBRANCH   1   2
BRANCH   1   9
ATOM      9  C   UNL     1       3.817 -40.583 -38.594  1.00  0.00     0.100 C 
BRANCH   9  10
ATOM     10  C   UNL     1       2.991 -40.118 -37.434  1.00  0.00     0.220 C 
ATOM     11  O   UNL     1       3.522 -39.391 -36.548  1.00  0.00    -0.275 OA
ATOM     12  N   UNL     1       1.620 -40.530 -37.313  1.00  0.00    -0.352 N 
ATOM     13  H   UNL     1       1.195 -41.114 -38.066  1.00  0.00     0.163 HD
BRANCH  12  14
ATOM     14  C   UNL     1       0.823 -40.254 -36.121  1.00  0.00     0.151 C 
BRANCH  14  15
ATOM     15  C   UNL     1       0.439 -41.546 -35.452  1.00  0.00    -0.025 A 
ATOM     16  C   UNL     1      -0.913 -41.920 -35.371  1.00  0.00     0.056 A 
ATOM     17  C   UNL     1       1.424 -42.409 -34.946  1.00  0.00     0.009 A 
ATOM     18  C   UNL     1      -1.287 -43.136 -34.763  1.00  0.00     0.160 A 
ATOM     19  C   UNL     1       1.060 -43.618 -34.348  1.00  0.00     0.050 A 
ATOM     20  C   UNL     1      -0.288 -43.984 -34.249  1.00  0.00     0.157 A 
BRANCH  18  21
ATOM     21  O   UNL     1      -2.632 -43.530 -34.654  1.00  0.00    -0.493 OA
ATOM     22  C   UNL     1      -3.711 -42.647 -34.357  1.00  0.00     0.278 C 
ENDBRANCH  18  21
BRANCH  20  23
ATOM     23  O   UNL     1      -0.615 -45.196 -33.639  1.00  0.00    -0.504 OA
ATOM     24  H   UNL     1      -1.223 -45.875 -34.083  1.00  0.00     0.293 HD
ENDBRANCH  20  23
ENDBRANCH  14  15
ENDBRANCH  12  14
ENDBRANCH   9  10
ENDBRANCH   1   9
TORSDOF 10
ENDMDL
MODEL 4
REMARK VINA RESULT:    -6.017      3.198      5.389
REMARK INTER + INTRA:          -9.936
REMARK INTER:                  -8.781
REMARK INTRA:                  -1.155
REMARK UNBOUND:                -0.578
REMARK SMILES COc1cc(CNC(=O)CCCCC=CC(C)C)ccc1O
REMARK SMILES IDX 11 1 12 2 13 3 14 4 15 5 16 6 17 7 18 8 10 9 8 10 9 11 7 12
REMARK SMILES IDX 6 14 5 15 4 16 19 17 3 18 20 19 21 20 2 21 1 22 22 23
REMARK H PARENT 7 13 22 24
REMARK Flexibility Score: inf
ROOT
ATOM      1  C   UNL     1       3.692 -42.862 -35.587  1.00  0.00     0.010 C 
ENDROOT
BRANCH   1   2
ATOM      2  C   UNL     1       3.516 -43.539 -36.952  1.00  0.00     0.005 C 
BRANCH   2   3
ATOM      3  C   UNL     1       2.331 -42.960 -37.745  1.00  0.00     0.027 C 
BRANCH   3   4
ATOM      4  C   UNL     1       1.461 -44.031 -38.360  1.00  0.00    -0.031 C 
ATOM      5  C   UNL     1       1.510 -44.431 -39.646  1.00  0.00    -0.028 C 
BRANCH   5   6
ATOM      6  C   UNL     1       2.457 -43.898 -40.698  1.00  0.00     0.005 C 
ATOM      7  C   UNL     1       1.869 -44.135 -42.093  1.00  0.00     0.012 C 
ATOM      8  C   UNL     1       3.813 -44.598 -40.565  1.00  0.00     0.012 C 
ENDBRANCH   5   6
ENDBRANCH   3   4
ENDBRANCH   2   3
ENDBRANCH   1   2
BRANCH   1   9
ATOM      9  C   UNL     1       3.413 -43.849 -34.450  1.00  0.00     0.100 C 
BRANCH   9  10
ATOM     10  C   UNL     1       2.014 -43.680 -33.940  1.00  0.00     0.220 C 
ATOM     11  O   UNL     1       1.830 -43.246 -32.769  1.00  0.00    -0.275 OA
ATOM     12  N   UNL     1       0.896 -44.046 -34.766  1.00  0.00    -0.352 N 
ATOM     13  H   UNL     1       1.069 -44.383 -35.739  1.00  0.00     0.163 HD
BRANCH  12  14
ATOM     14  C   UNL     1      -0.474 -44.068 -34.261  1.00  0.00     0.151 C 
BRANCH  14  15
ATOM     15  C   UNL     1      -1.225 -42.865 -34.766  1.00  0.00    -0.025 A 
ATOM     16  C   UNL     1      -2.498 -42.566 -34.254  1.00  0.00     0.056 A 
ATOM     17  C   UNL     1      -0.646 -42.008 -35.715  1.00  0.00     0.009 A 
ATOM     18  C   UNL     1      -3.206 -41.433 -34.704  1.00  0.00     0.160 A 
ATOM     19  C   UNL     1      -1.340 -40.880 -36.161  1.00  0.00     0.050 A 
ATOM     20  C   UNL     1      -2.617 -40.591 -35.665  1.00  0.00     0.157 A 
BRANCH  18  21
ATOM     21  O   UNL     1      -4.488 -41.116 -34.220  1.00  0.00    -0.493 OA
ATOM     22  C   UNL     1      -5.549 -42.056 -34.069  1.00  0.00     0.278 C 
ENDBRANCH  18  21
BRANCH  20  23
ATOM     23  O   UNL     1      -3.284 -39.460 -36.139  1.00  0.00    -0.504 OA
ATOM     24  H   UNL     1      -4.034 -39.021 -35.618  1.00  0.00     0.293 HD
ENDBRANCH  20  23
ENDBRANCH  14  15
ENDBRANCH  12  14
ENDBRANCH   9  10
ENDBRANCH   1   9
TORSDOF 10
ENDMDL
MODEL 5
REMARK VINA RESULT:    -6.015      1.763      2.311
REMARK INTER + INTRA:          -9.933
REMARK INTER:                  -9.112
REMARK INTRA:                  -0.821
REMARK UNBOUND:                -0.578
REMARK SMILES COc1cc(CNC(=O)CCCCC=CC(C)C)ccc1O
REMARK SMILES IDX 11 1 12 2 13 3 14 4 15 5 16 6 17 7 18 8 10 9 8 10 9 11 7 12
REMARK SMILES IDX 6 14 5 15 4 16 19 17 3 18 20 19 21 20 2 21 1 22 22 23
REMARK H PARENT 7 13 22 24
REMARK Flexibility Score: inf
ROOT
ATOM      1  C   UNL     1      -1.004 -43.748 -35.302  1.00  0.00     0.010 C 
ENDROOT
BRANCH   1   2
ATOM      2  C   UNL     1      -0.394 -44.680 -36.357  1.00  0.00     0.005 C 
BRANCH   2   3
ATOM      3  C   UNL     1       0.341 -43.909 -37.466  1.00  0.00     0.027 C 
BRANCH   3   4
ATOM      4  C   UNL     1       0.400 -44.671 -38.768  1.00  0.00    -0.031 C 
ATOM      5  C   UNL     1       1.359 -44.541 -39.706  1.00  0.00    -0.028 C 
BRANCH   5   6
ATOM      6  C   UNL     1       2.559 -43.624 -39.615  1.00  0.00     0.005 C 
ATOM      7  C   UNL     1       2.263 -42.308 -40.340  1.00  0.00     0.012 C 
ATOM      8  C   UNL     1       3.776 -44.315 -40.238  1.00  0.00     0.012 C 
ENDBRANCH   5   6
ENDBRANCH   3   4
ENDBRANCH   2   3
ENDBRANCH   1   2
BRANCH   1   9
ATOM      9  C   UNL     1      -0.422 -42.337 -35.420  1.00  0.00     0.100 C 
BRANCH   9  10
ATOM     10  C   UNL     1      -1.353 -41.333 -34.811  1.00  0.00     0.220 C 
ATOM     11  O   UNL     1      -1.051 -40.799 -33.707  1.00  0.00    -0.275 OA
ATOM     12  N   UNL     1      -2.594 -41.012 -35.461  1.00  0.00    -0.352 N 
ATOM     13  H   UNL     1      -2.815 -41.449 -36.383  1.00  0.00     0.163 HD
BRANCH  12  14
ATOM     14  C   UNL     1      -3.614 -40.179 -34.831  1.00  0.00     0.151 C 
BRANCH  14  15
ATOM     15  C   UNL     1      -4.484 -41.023 -33.938  1.00  0.00    -0.025 A 
ATOM     16  C   UNL     1      -4.678 -40.656 -32.596  1.00  0.00     0.056 A 
ATOM     17  C   UNL     1      -5.144 -42.153 -34.446  1.00  0.00     0.009 A 
ATOM     18  C   UNL     1      -5.505 -41.426 -31.753  1.00  0.00     0.160 A 
ATOM     19  C   UNL     1      -5.969 -42.917 -33.616  1.00  0.00     0.050 A 
ATOM     20  C   UNL     1      -6.149 -42.564 -32.274  1.00  0.00     0.157 A 
BRANCH  18  21
ATOM     21  O   UNL     1      -5.707 -41.092 -30.402  1.00  0.00    -0.493 OA
ATOM     22  C   UNL     1      -4.697 -40.574 -29.539  1.00  0.00     0.278 C 
ENDBRANCH  18  21
BRANCH  20  23
ATOM     23  O   UNL     1      -6.975 -43.354 -31.473  1.00  0.00    -0.504 OA
ATOM     24  H   UNL     1      -6.621 -43.859 -30.669  1.00  0.00     0.293 HD
ENDBRANCH  20  23
ENDBRANCH  14  15
ENDBRANCH  12  14
ENDBRANCH   9  10
ENDBRANCH   1   9
TORSDOF 10
ENDMDL
MODEL 6
REMARK VINA RESULT:    -5.990      2.663      3.673
REMARK INTER + INTRA:          -9.895
REMARK INTER:                  -9.012
REMARK INTRA:                  -0.882
REMARK UNBOUND:                -0.578
REMARK SMILES COc1cc(CNC(=O)CCCCC=CC(C)C)ccc1O
REMARK SMILES IDX 11 1 12 2 13 3 14 4 15 5 16 6 17 7 18 8 10 9 8 10 9 11 7 12
REMARK SMILES IDX 6 14 5 15 4 16 19 17 3 18 20 19 21 20 2 21 1 22 22 23
REMARK H PARENT 7 13 22 24
REMARK Flexibility Score: inf
ROOT
ATOM      1  C   UNL     1      -0.447 -44.415 -36.530  1.00  0.00     0.010 C 
ENDROOT
BRANCH   1   2
ATOM      2  C   UNL     1      -0.120 -44.724 -37.997  1.00  0.00     0.005 C 
BRANCH   2   3
ATOM      3  C   UNL     1       1.067 -43.896 -38.520  1.00  0.00     0.027 C 
BRANCH   3   4
ATOM      4  C   UNL     1       1.688 -44.486 -39.763  1.00  0.00    -0.031 C 
ATOM      5  C   UNL     1       2.306 -43.785 -40.734  1.00  0.00    -0.028 C 
BRANCH   5   6
ATOM      6  C   UNL     1       2.508 -42.286 -40.743  1.00  0.00     0.005 C 
ATOM      7  C   UNL     1       1.982 -41.700 -42.057  1.00  0.00     0.012 C 
ATOM      8  C   UNL     1       3.998 -41.971 -40.577  1.00  0.00     0.012 C 
ENDBRANCH   5   6
ENDBRANCH   3   4
ENDBRANCH   2   3
ENDBRANCH   1   2
BRANCH   1   9
ATOM      9  C   UNL     1       0.661 -43.575 -35.890  1.00  0.00     0.100 C 
BRANCH   9  10
ATOM     10  C   UNL     1       0.091 -42.328 -35.285  1.00  0.00     0.220 C 
ATOM     11  O   UNL     1       0.567 -41.893 -34.199  1.00  0.00    -0.275 OA
ATOM     12  N   UNL     1      -1.011 -41.658 -35.918  1.00  0.00    -0.352 N 
ATOM     13  H   UNL     1      -1.377 -42.023 -36.826  1.00  0.00     0.163 HD
BRANCH  12  14
ATOM     14  C   UNL     1      -1.717 -40.547 -35.286  1.00  0.00     0.151 C 
BRANCH  14  15
ATOM     15  C   UNL     1      -3.012 -41.034 -34.693  1.00  0.00    -0.025 A 
ATOM     16  C   UNL     1      -3.894 -40.123 -34.089  1.00  0.00     0.056 A 
ATOM     17  C   UNL     1      -3.371 -42.389 -34.776  1.00  0.00     0.009 A 
ATOM     18  C   UNL     1      -5.119 -40.561 -33.545  1.00  0.00     0.160 A 
ATOM     19  C   UNL     1      -4.586 -42.828 -34.244  1.00  0.00     0.050 A 
ATOM     20  C   UNL     1      -5.458 -41.925 -33.625  1.00  0.00     0.157 A 
BRANCH  18  21
ATOM     21  O   UNL     1      -6.016 -39.676 -32.922  1.00  0.00    -0.493 OA
ATOM     22  C   UNL     1      -5.670 -38.793 -31.857  1.00  0.00     0.278 C 
ENDBRANCH  18  21
BRANCH  20  23
ATOM     23  O   UNL     1      -6.660 -42.401 -33.098  1.00  0.00    -0.504 OA
ATOM     24  H   UNL     1      -6.980 -42.143 -32.172  1.00  0.00     0.293 HD
ENDBRANCH  20  23
ENDBRANCH  14  15
ENDBRANCH  12  14
ENDBRANCH   9  10
ENDBRANCH   1   9
TORSDOF 10
ENDMDL
MODEL 7
REMARK VINA RESULT:    -5.897      1.264      2.405
REMARK INTER + INTRA:          -9.750
REMARK INTER:                  -8.977
REMARK INTRA:                  -0.773
REMARK UNBOUND:                -0.578
REMARK SMILES COc1cc(CNC(=O)CCCCC=CC(C)C)ccc1O
REMARK SMILES IDX 11 1 12 2 13 3 14 4 15 5 16 6 17 7 18 8 10 9 8 10 9 11 7 12
REMARK SMILES IDX 6 14 5 15 4 16 19 17 3 18 20 19 21 20 2 21 1 22 22 23
REMARK H PARENT 7 13 22 24
REMARK Flexibility Score: inf
ROOT
ATOM      1  C   UNL     1      -0.760 -44.772 -36.031  1.00  0.00     0.010 C 
ENDROOT
BRANCH   1   2
ATOM      2  C   UNL     1       0.362 -43.929 -36.650  1.00  0.00     0.005 C 
BRANCH   2   3
ATOM      3  C   UNL     1       0.203 -43.767 -38.171  1.00  0.00     0.027 C 
BRANCH   3   4
ATOM      4  C   UNL     1       1.117 -42.712 -38.746  1.00  0.00    -0.031 C 
ATOM      5  C   UNL     1       2.051 -42.921 -39.694  1.00  0.00    -0.028 C 
BRANCH   5   6
ATOM      6  C   UNL     1       2.336 -44.245 -40.371  1.00  0.00     0.005 C 
ATOM      7  C   UNL     1       3.826 -44.578 -40.251  1.00  0.00     0.012 C 
ATOM      8  C   UNL     1       1.924 -44.163 -41.843  1.00  0.00     0.012 C 
ENDBRANCH   5   6
ENDBRANCH   3   4
ENDBRANCH   2   3
ENDBRANCH   1   2
BRANCH   1   9
ATOM      9  C   UNL     1      -0.944 -44.432 -34.549  1.00  0.00     0.100 C 
BRANCH   9  10
ATOM     10  C   UNL     1      -1.613 -43.100 -34.396  1.00  0.00     0.220 C 
ATOM     11  O   UNL     1      -1.002 -42.164 -33.810  1.00  0.00    -0.275 OA
ATOM     12  N   UNL     1      -2.953 -42.906 -34.879  1.00  0.00    -0.352 N 
ATOM     13  H   UNL     1      -3.433 -43.687 -35.379  1.00  0.00     0.163 HD
BRANCH  12  14
ATOM     14  C   UNL     1      -3.715 -41.692 -34.602  1.00  0.00     0.151 C 
BRANCH  14  15
ATOM     15  C   UNL     1      -4.521 -41.870 -33.343  1.00  0.00    -0.025 A 
ATOM     16  C   UNL     1      -5.551 -42.823 -33.298  1.00  0.00     0.056 A 
ATOM     17  C   UNL     1      -4.224 -41.122 -32.193  1.00  0.00     0.009 A 
ATOM     18  C   UNL     1      -6.303 -43.015 -32.120  1.00  0.00     0.160 A 
ATOM     19  C   UNL     1      -4.961 -41.310 -31.021  1.00  0.00     0.050 A 
ATOM     20  C   UNL     1      -6.000 -42.247 -30.979  1.00  0.00     0.157 A 
BRANCH  18  21
ATOM     21  O   UNL     1      -7.349 -43.951 -32.049  1.00  0.00    -0.493 OA
ATOM     22  C   UNL     1      -8.494 -43.948 -32.898  1.00  0.00     0.278 C 
ENDBRANCH  18  21
BRANCH  20  23
ATOM     23  O   UNL     1      -6.721 -42.404 -29.794  1.00  0.00    -0.504 OA
ATOM     24  H   UNL     1      -6.971 -41.615 -29.209  1.00  0.00     0.293 HD
ENDBRANCH  20  23
ENDBRANCH  14  15
ENDBRANCH  12  14
ENDBRANCH   9  10
ENDBRANCH   1   9
TORSDOF 10
ENDMDL
MODEL 8
REMARK VINA RESULT:    -5.869      2.823      3.750
REMARK INTER + INTRA:          -9.706
REMARK INTER:                  -8.652
REMARK INTRA:                  -1.054
REMARK UNBOUND:                -0.578
REMARK SMILES COc1cc(CNC(=O)CCCCC=CC(C)C)ccc1O
REMARK SMILES IDX 11 1 12 2 13 3 14 4 15 5 16 6 17 7 18 8 10 9 8 10 9 11 7 12
REMARK SMILES IDX 6 14 5 15 4 16 19 17 3 18 20 19 21 20 2 21 1 22 22 23
REMARK H PARENT 7 13 22 24
REMARK Flexibility Score: inf
ROOT
ATOM      1  C   UNL     1       1.069 -42.437 -35.645  1.00  0.00     0.010 C 
ENDROOT
BRANCH   1   2
ATOM      2  C   UNL     1       0.450 -43.577 -36.464  1.00  0.00     0.005 C 
BRANCH   2   3
ATOM      3  C   UNL     1       0.430 -43.272 -37.972  1.00  0.00     0.027 C 
BRANCH   3   4
ATOM      4  C   UNL     1       0.543 -44.515 -38.821  1.00  0.00    -0.031 C 
ATOM      5  C   UNL     1       1.451 -44.712 -39.797  1.00  0.00    -0.028 C 
BRANCH   5   6
ATOM      6  C   UNL     1       2.533 -43.735 -40.203  1.00  0.00     0.005 C 
ATOM      7  C   UNL     1       2.155 -43.063 -41.526  1.00  0.00     0.012 C 
ATOM      8  C   UNL     1       3.864 -44.479 -40.343  1.00  0.00     0.012 C 
ENDBRANCH   5   6
ENDBRANCH   3   4
ENDBRANCH   2   3
ENDBRANCH   1   2
BRANCH   1   9
ATOM      9  C   UNL     1       1.099 -41.138 -36.454  1.00  0.00     0.100 C 
BRANCH   9  10
ATOM     10  C   UNL     1      -0.023 -40.235 -36.039  1.00  0.00     0.220 C 
ATOM     11  O   UNL     1       0.185 -39.358 -35.154  1.00  0.00    -0.275 OA
ATOM     12  N   UNL     1      -1.329 -40.395 -36.615  1.00  0.00    -0.352 N 
ATOM     13  H   UNL     1      -1.474 -41.112 -37.360  1.00  0.00     0.163 HD
BRANCH  12  14
ATOM     14  C   UNL     1      -2.494 -39.665 -36.124  1.00  0.00     0.151 C 
BRANCH  14  15
ATOM     15  C   UNL     1      -3.239 -40.506 -35.121  1.00  0.00    -0.025 A 
ATOM     16  C   UNL     1      -4.223 -39.920 -34.307  1.00  0.00     0.056 A 
ATOM     17  C   UNL     1      -2.992 -41.884 -35.021  1.00  0.00     0.009 A 
ATOM     18  C   UNL     1      -4.942 -40.698 -33.376  1.00  0.00     0.160 A 
ATOM     19  C   UNL     1      -3.705 -42.661 -34.104  1.00  0.00     0.050 A 
ATOM     20  C   UNL     1      -4.673 -42.076 -33.279  1.00  0.00     0.157 A 
BRANCH  18  21
ATOM     21  O   UNL     1      -5.922 -40.138 -32.538  1.00  0.00    -0.493 OA
ATOM     22  C   UNL     1      -5.652 -39.223 -31.479  1.00  0.00     0.278 C 
ENDBRANCH  18  21
BRANCH  20  23
ATOM     23  O   UNL     1      -5.361 -42.882 -32.370  1.00  0.00    -0.504 OA
ATOM     24  H   UNL     1      -5.281 -43.892 -32.378  1.00  0.00     0.293 HD
ENDBRANCH  20  23
ENDBRANCH  14  15
ENDBRANCH  12  14
ENDBRANCH   9  10
ENDBRANCH   1   9
TORSDOF 10
ENDMDL
MODEL 9
REMARK VINA RESULT:    -5.824      5.458      7.199
REMARK INTER + INTRA:          -9.636
REMARK INTER:                  -7.637
REMARK INTRA:                  -1.999
REMARK UNBOUND:                -0.578
REMARK SMILES COc1cc(CNC(=O)CCCCC=CC(C)C)ccc1O
REMARK SMILES IDX 11 1 12 2 13 3 14 4 15 5 16 6 17 7 18 8 10 9 8 10 9 11 7 12
REMARK SMILES IDX 6 14 5 15 4 16 19 17 3 18 20 19 21 20 2 21 1 22 22 23
REMARK H PARENT 7 13 22 24
REMARK Flexibility Score: inf
ROOT
ATOM      1  C   UNL     1       2.989 -40.694 -39.883  1.00  0.00     0.010 C 
ENDROOT
BRANCH   1   2
ATOM      2  C   UNL     1       3.443 -41.765 -40.883  1.00  0.00     0.005 C 
BRANCH   2   3
ATOM      3  C   UNL     1       2.259 -42.497 -41.536  1.00  0.00     0.027 C 
BRANCH   3   4
ATOM      4  C   UNL     1       2.266 -43.982 -41.261  1.00  0.00    -0.031 C 
ATOM      5  C   UNL     1       1.910 -44.561 -40.098  1.00  0.00    -0.028 C 
BRANCH   5   6
ATOM      6  C   UNL     1       1.419 -43.832 -38.866  1.00  0.00     0.005 C 
ATOM      7  C   UNL     1       2.497 -43.865 -37.779  1.00  0.00     0.012 C 
ATOM      8  C   UNL     1       0.132 -44.492 -38.362  1.00  0.00     0.012 C 
ENDBRANCH   5   6
ENDBRANCH   3   4
ENDBRANCH   2   3
ENDBRANCH   1   2
BRANCH   1   9
ATOM      9  C   UNL     1       3.953 -40.613 -38.696  1.00  0.00     0.100 C 
BRANCH   9  10
ATOM     10  C   UNL     1       3.225 -40.191 -37.456  1.00  0.00     0.220 C 
ATOM     11  O   UNL     1       3.885 -39.797 -36.454  1.00  0.00    -0.275 OA
ATOM     12  N   UNL     1       1.792 -40.272 -37.398  1.00  0.00    -0.352 N 
ATOM     13  H   UNL     1       1.263 -40.581 -38.244  1.00  0.00     0.163 HD
BRANCH  12  14
ATOM     14  C   UNL     1       1.045 -40.042 -36.165  1.00  0.00     0.151 C 
BRANCH  14  15
ATOM     15  C   UNL     1       0.670 -41.360 -35.541  1.00  0.00    -0.025 A 
ATOM     16  C   UNL     1       1.572 -42.015 -34.687  1.00  0.00     0.056 A 
ATOM     17  C   UNL     1      -0.596 -41.923 -35.768  1.00  0.00     0.009 A 
ATOM     18  C   UNL     1       1.228 -43.241 -34.081  1.00  0.00     0.160 A 
ATOM     19  C   UNL     1      -0.945 -43.134 -35.166  1.00  0.00     0.050 A 
ATOM     20  C   UNL     1      -0.041 -43.798 -34.329  1.00  0.00     0.157 A 
BRANCH  18  21
ATOM     21  O   UNL     1       2.116 -43.927 -33.233  1.00  0.00    -0.493 OA
ATOM     22  C   UNL     1       3.534 -43.923 -33.376  1.00  0.00     0.278 C 
ENDBRANCH  18  21
BRANCH  20  23
ATOM     23  O   UNL     1      -0.420 -45.010 -33.751  1.00  0.00    -0.504 OA
ATOM     24  H   UNL     1      -0.336 -45.181 -32.756  1.00  0.00     0.293 HD
ENDBRANCH  20  23
ENDBRANCH  14  15
ENDBRANCH  12  14
ENDBRANCH   9  10
ENDBRANCH   1   9
TORSDOF 10
ENDMDL
