MODEL 1
REMARK VINA RESULT:    -4.933      0.000      0.000
REMARK INTER + INTRA:          -7.598
REMARK INTER:                  -6.664
REMARK INTRA:                  -0.934
REMARK UNBOUND:                -0.934
REMARK SMILES CC(=O)CCC=C(C)CCC=C(C)C
REMARK SMILES IDX 7 1 6 2 8 3 9 4 10 5 11 6 13 7 12 8 14 9 5 10 4 11 2 12 3 13
REMARK SMILES IDX 1 14
REMARK H PARENT
REMARK Flexibility Score: inf
ROOT
ATOM      1  C   UNL     1      15.257 -30.686  22.183  1.00  0.00    -0.077 C 
ATOM      2  C   UNL     1      14.588 -31.179  21.116  1.00  0.00    -0.028 C 
ATOM      3  C   UNL     1      16.040 -29.411  22.007  1.00  0.00     0.039 C 
ENDROOT
BRANCH   1   4
ATOM      4  C   UNL     1      15.196 -31.317  23.559  1.00  0.00     0.034 C 
BRANCH   4   5
ATOM      5  C   UNL     1      13.758 -31.321  24.089  1.00  0.00     0.032 C 
BRANCH   5   6
ATOM      6  C   UNL     1      13.354 -29.955  24.588  1.00  0.00    -0.028 C 
ATOM      7  C   UNL     1      11.558 -29.758  22.865  1.00  0.00     0.039 C 
ATOM      8  C   UNL     1      12.353 -29.236  24.037  1.00  0.00    -0.080 C 
ATOM      9  C   UNL     1      12.032 -27.881  24.615  1.00  0.00     0.039 C 
ENDBRANCH   5   6
ENDBRANCH   4   5
ENDBRANCH   1   4
BRANCH   2  10
ATOM     10  C   UNL     1      13.771 -32.450  21.121  1.00  0.00     0.035 C 
BRANCH  10  11
ATOM     11  C   UNL     1      14.159 -33.388  19.969  1.00  0.00     0.079 C 
BRANCH  11  12
ATOM     12  C   UNL     1      15.270 -34.329  20.365  1.00  0.00     0.130 C 
ATOM     13  O   UNL     1      16.036 -34.749  19.512  1.00  0.00    -0.300 OA
ATOM     14  C   UNL     1      15.464 -34.751  21.791  1.00  0.00     0.087 C 
ENDBRANCH  11  12
ENDBRANCH  10  11
ENDBRANCH   2  10
TORSDOF 6
ENDMDL
MODEL 2
REMARK VINA RESULT:    -4.881      1.978      4.046
REMARK INTER + INTRA:          -7.527
REMARK INTER:                  -5.778
REMARK INTRA:                  -1.749
REMARK UNBOUND:                -0.934
REMARK SMILES CC(=O)CCC=C(C)CCC=C(C)C
REMARK SMILES IDX 7 1 6 2 8 3 9 4 10 5 11 6 13 7 12 8 14 9 5 10 4 11 2 12 3 13
REMARK SMILES IDX 1 14
REMARK H PARENT
REMARK Flexibility Score: inf
ROOT
ATOM      1  C   UNL     1      15.500 -30.511  23.401  1.00  0.00    -0.077 C 
ATOM      2  C   UNL     1      16.408 -29.938  22.578  1.00  0.00    -0.028 C 
ATOM      3  C   UNL     1      14.214 -29.773  23.668  1.00  0.00     0.039 C 
ENDROOT
BRANCH   1   4
ATOM      4  C   UNL     1      15.687 -31.888  24.006  1.00  0.00     0.034 C 
BRANCH   4   5
ATOM      5  C   UNL     1      14.547 -32.823  23.586  1.00  0.00     0.032 C 
BRANCH   5   6
ATOM      6  C   UNL     1      14.951 -33.693  22.422  1.00  0.00    -0.028 C 
ATOM      7  C   UNL     1      13.665 -32.287  20.809  1.00  0.00     0.039 C 
ATOM      8  C   UNL     1      14.555 -33.456  21.153  1.00  0.00    -0.080 C 
ATOM      9  C   UNL     1      15.019 -34.389  20.064  1.00  0.00     0.039 C 
ENDBRANCH   5   6
ENDBRANCH   4   5
ENDBRANCH   1   4
BRANCH   2  10
ATOM     10  C   UNL     1      17.747 -30.537  22.220  1.00  0.00     0.035 C 
BRANCH  10  11
ATOM     11  C   UNL     1      17.704 -31.285  20.880  1.00  0.00     0.079 C 
BRANCH  11  12
ATOM     12  C   UNL     1      18.260 -32.682  21.002  1.00  0.00     0.130 C 
ATOM     13  O   UNL     1      18.343 -33.387  20.008  1.00  0.00    -0.300 OA
ATOM     14  C   UNL     1      18.729 -33.223  22.320  1.00  0.00     0.087 C 
ENDBRANCH  11  12
ENDBRANCH  10  11
ENDBRANCH   2  10
TORSDOF 6
ENDMDL
MODEL 3
REMARK VINA RESULT:    -4.825      2.646      5.746
REMARK INTER + INTRA:          -7.452
REMARK INTER:                  -6.006
REMARK INTRA:                  -1.445
REMARK UNBOUND:                -0.934
REMARK SMILES CC(=O)CCC=C(C)CCC=C(C)C
REMARK SMILES IDX 7 1 6 2 8 3 9 4 10 5 11 6 13 7 12 8 14 9 5 10 4 11 2 12 3 13
REMARK SMILES IDX 1 14
REMARK H PARENT
REMARK Flexibility Score: inf
ROOT
ATOM      1  C   UNL     1      16.542 -35.460  19.906  1.00  0.00    -0.077 C 
ATOM      2  C   UNL     1      15.355 -35.168  20.486  1.00  0.00    -0.028 C 
ATOM      3  C   UNL     1      17.095 -36.852  20.073  1.00  0.00     0.039 C 
ENDROOT
BRANCH   1   4
ATOM      4  C   UNL     1      17.301 -34.476  19.040  1.00  0.00     0.034 C 
BRANCH   4   5
ATOM      5  C   UNL     1      18.564 -33.985  19.758  1.00  0.00     0.032 C 
BRANCH   5   6
ATOM      6  C   UNL     1      18.282 -32.751  20.580  1.00  0.00    -0.028 C 
ATOM      7  C   UNL     1      18.433 -34.033  22.718  1.00  0.00     0.039 C 
ATOM      8  C   UNL     1      18.221 -32.763  21.929  1.00  0.00    -0.080 C 
ATOM      9  C   UNL     1      17.934 -31.473  22.652  1.00  0.00     0.039 C 
ENDBRANCH   5   6
ENDBRANCH   4   5
ENDBRANCH   1   4
BRANCH   2  10
ATOM     10  C   UNL     1      14.674 -33.822  20.427  1.00  0.00     0.035 C 
BRANCH  10  11
ATOM     11  C   UNL     1      14.584 -33.160  21.810  1.00  0.00     0.079 C 
BRANCH  11  12
ATOM     12  C   UNL     1      14.120 -31.728  21.715  1.00  0.00     0.130 C 
ATOM     13  O   UNL     1      14.849 -30.891  21.206  1.00  0.00    -0.300 OA
ATOM     14  C   UNL     1      12.773 -31.309  22.223  1.00  0.00     0.087 C 
ENDBRANCH  11  12
ENDBRANCH  10  11
ENDBRANCH   2  10
TORSDOF 6
ENDMDL
MODEL 4
REMARK VINA RESULT:    -4.804      2.520      5.113
REMARK INTER + INTRA:          -7.423
REMARK INTER:                  -5.704
REMARK INTRA:                  -1.720
REMARK UNBOUND:                -0.934
REMARK SMILES CC(=O)CCC=C(C)CCC=C(C)C
REMARK SMILES IDX 7 1 6 2 8 3 9 4 10 5 11 6 13 7 12 8 14 9 5 10 4 11 2 12 3 13
REMARK SMILES IDX 1 14
REMARK H PARENT
REMARK Flexibility Score: inf
ROOT
ATOM      1  C   UNL     1      14.978 -34.133  21.196  1.00  0.00    -0.077 C 
ATOM      2  C   UNL     1      14.215 -33.129  20.706  1.00  0.00    -0.028 C 
ATOM      3  C   UNL     1      15.512 -35.160  20.231  1.00  0.00     0.039 C 
ENDROOT
BRANCH   1   4
ATOM      4  C   UNL     1      15.375 -34.231  22.655  1.00  0.00     0.034 C 
BRANCH   4   5
ATOM      5  C   UNL     1      16.900 -34.167  22.806  1.00  0.00     0.032 C 
BRANCH   5   6
ATOM      6  C   UNL     1      17.377 -32.743  22.955  1.00  0.00    -0.028 C 
ATOM      7  C   UNL     1      18.257 -32.699  20.619  1.00  0.00     0.039 C 
ATOM      8  C   UNL     1      17.995 -32.066  21.964  1.00  0.00    -0.080 C 
ATOM      9  C   UNL     1      18.430 -30.646  22.220  1.00  0.00     0.039 C 
ENDBRANCH   5   6
ENDBRANCH   4   5
ENDBRANCH   1   4
BRANCH   2  10
ATOM     10  C   UNL     1      13.593 -32.033  21.538  1.00  0.00     0.035 C 
BRANCH  10  11
ATOM     11  C   UNL     1      14.494 -30.792  21.623  1.00  0.00     0.079 C 
BRANCH  11  12
ATOM     12  C   UNL     1      14.640 -30.306  23.043  1.00  0.00     0.130 C 
ATOM     13  O   UNL     1      15.282 -29.291  23.269  1.00  0.00    -0.300 OA
ATOM     14  C   UNL     1      14.003 -31.035  24.188  1.00  0.00     0.087 C 
ENDBRANCH  11  12
ENDBRANCH  10  11
ENDBRANCH   2  10
TORSDOF 6
ENDMDL
MODEL 5
REMARK VINA RESULT:    -4.803      3.405      5.896
REMARK INTER + INTRA:          -7.422
REMARK INTER:                  -5.772
REMARK INTRA:                  -1.650
REMARK UNBOUND:                -0.934
REMARK SMILES CC(=O)CCC=C(C)CCC=C(C)C
REMARK SMILES IDX 7 1 6 2 8 3 9 4 10 5 11 6 13 7 12 8 14 9 5 10 4 11 2 12 3 13
REMARK SMILES IDX 1 14
REMARK H PARENT
REMARK Flexibility Score: inf
ROOT
ATOM      1  C   UNL     1      17.609 -35.683  19.500  1.00  0.00    -0.077 C 
ATOM      2  C   UNL     1      18.894 -35.313  19.704  1.00  0.00    -0.028 C 
ATOM      3  C   UNL     1      17.298 -37.153  19.388  1.00  0.00     0.039 C 
ENDROOT
BRANCH   1   4
ATOM      4  C   UNL     1      16.463 -34.692  19.452  1.00  0.00     0.034 C 
BRANCH   4   5
ATOM      5  C   UNL     1      15.360 -35.092  20.439  1.00  0.00     0.032 C 
BRANCH   5   6
ATOM      6  C   UNL     1      15.096 -33.994  21.439  1.00  0.00    -0.028 C 
ATOM      7  C   UNL     1      16.570 -35.070  23.143  1.00  0.00     0.039 C 
ATOM      8  C   UNL     1      15.643 -33.975  22.674  1.00  0.00    -0.080 C 
ATOM      9  C   UNL     1      15.313 -32.829  23.595  1.00  0.00     0.039 C 
ENDBRANCH   5   6
ENDBRANCH   4   5
ENDBRANCH   1   4
BRANCH   2  10
ATOM     10  C   UNL     1      19.374 -33.886  19.823  1.00  0.00     0.035 C 
BRANCH  10  11
ATOM     11  C   UNL     1      19.660 -33.494  21.279  1.00  0.00     0.079 C 
BRANCH  11  12
ATOM     12  C   UNL     1      18.779 -32.357  21.735  1.00  0.00     0.130 C 
ATOM     13  O   UNL     1      18.719 -32.081  22.923  1.00  0.00    -0.300 OA
ATOM     14  C   UNL     1      17.981 -31.548  20.757  1.00  0.00     0.087 C 
ENDBRANCH  11  12
ENDBRANCH  10  11
ENDBRANCH   2  10
TORSDOF 6
ENDMDL
MODEL 6
REMARK VINA RESULT:    -4.799      1.901      3.142
REMARK INTER + INTRA:          -7.416
REMARK INTER:                  -5.933
REMARK INTRA:                  -1.484
REMARK UNBOUND:                -0.934
REMARK SMILES CC(=O)CCC=C(C)CCC=C(C)C
REMARK SMILES IDX 7 1 6 2 8 3 9 4 10 5 11 6 13 7 12 8 14 9 5 10 4 11 2 12 3 13
REMARK SMILES IDX 1 14
REMARK H PARENT
REMARK Flexibility Score: inf
ROOT
ATOM      1  C   UNL     1      18.021 -30.486  21.719  1.00  0.00    -0.077 C 
ATOM      2  C   UNL     1      18.354 -31.612  21.046  1.00  0.00    -0.028 C 
ATOM      3  C   UNL     1      18.531 -29.167  21.199  1.00  0.00     0.039 C 
ENDROOT
BRANCH   1   4
ATOM      4  C   UNL     1      17.104 -30.487  22.925  1.00  0.00     0.034 C 
BRANCH   4   5
ATOM      5  C   UNL     1      15.787 -29.769  22.603  1.00  0.00     0.032 C 
BRANCH   5   6
ATOM      6  C   UNL     1      15.007 -30.506  21.542  1.00  0.00    -0.028 C 
ATOM      7  C   UNL     1      13.528 -31.576  23.246  1.00  0.00     0.039 C 
ATOM      8  C   UNL     1      13.976 -31.330  21.825  1.00  0.00    -0.080 C 
ATOM      9  C   UNL     1      13.264 -32.016  20.688  1.00  0.00     0.039 C 
ENDBRANCH   5   6
ENDBRANCH   4   5
ENDBRANCH   1   4
BRANCH   2  10
ATOM     10  C   UNL     1      17.939 -33.009  21.442  1.00  0.00     0.035 C 
BRANCH  10  11
ATOM     11  C   UNL     1      16.816 -33.552  20.547  1.00  0.00     0.079 C 
BRANCH  11  12
ATOM     12  C   UNL     1      15.929 -34.519  21.289  1.00  0.00     0.130 C 
ATOM     13  O   UNL     1      15.310 -35.369  20.667  1.00  0.00    -0.300 OA
ATOM     14  C   UNL     1      15.797 -34.470  22.782  1.00  0.00     0.087 C 
ENDBRANCH  11  12
ENDBRANCH  10  11
ENDBRANCH   2  10
TORSDOF 6
ENDMDL
MODEL 7
REMARK VINA RESULT:    -4.789      2.817      4.908
REMARK INTER + INTRA:          -7.403
REMARK INTER:                  -5.805
REMARK INTRA:                  -1.599
REMARK UNBOUND:                -0.934
REMARK SMILES CC(=O)CCC=C(C)CCC=C(C)C
REMARK SMILES IDX 7 1 6 2 8 3 9 4 10 5 11 6 13 7 12 8 14 9 5 10 4 11 2 12 3 13
REMARK SMILES IDX 1 14
REMARK H PARENT
REMARK Flexibility Score: inf
ROOT
ATOM      1  C   UNL     1      14.773 -33.059  21.510  1.00  0.00    -0.077 C 
ATOM      2  C   UNL     1      14.738 -33.919  20.465  1.00  0.00    -0.028 C 
ATOM      3  C   UNL     1      14.090 -31.725  21.359  1.00  0.00     0.039 C 
ENDROOT
BRANCH   1   4
ATOM      4  C   UNL     1      15.403 -33.407  22.844  1.00  0.00     0.034 C 
BRANCH   4   5
ATOM      5  C   UNL     1      16.690 -32.602  23.060  1.00  0.00     0.032 C 
BRANCH   5   6
ATOM      6  C   UNL     1      17.855 -33.225  22.332  1.00  0.00    -0.028 C 
ATOM      7  C   UNL     1      17.975 -31.326  20.715  1.00  0.00     0.039 C 
ATOM      8  C   UNL     1      18.448 -32.651  21.263  1.00  0.00    -0.080 C 
ATOM      9  C   UNL     1      19.607 -33.360  20.611  1.00  0.00     0.039 C 
ENDBRANCH   5   6
ENDBRANCH   4   5
ENDBRANCH   1   4
BRANCH   2  10
ATOM     10  C   UNL     1      15.384 -35.284  20.449  1.00  0.00     0.035 C 
BRANCH  10  11
ATOM     11  C   UNL     1      16.589 -35.339  19.498  1.00  0.00     0.079 C 
BRANCH  11  12
ATOM     12  C   UNL     1      17.404 -36.592  19.703  1.00  0.00     0.130 C 
ATOM     13  O   UNL     1      17.510 -37.397  18.790  1.00  0.00    -0.300 OA
ATOM     14  C   UNL     1      18.100 -36.867  21.002  1.00  0.00     0.087 C 
ENDBRANCH  11  12
ENDBRANCH  10  11
ENDBRANCH   2  10
TORSDOF 6
ENDMDL
MODEL 8
REMARK VINA RESULT:    -4.776      3.039      5.682
REMARK INTER + INTRA:          -7.385
REMARK INTER:                  -5.663
REMARK INTRA:                  -1.723
REMARK UNBOUND:                -0.934
REMARK SMILES CC(=O)CCC=C(C)CCC=C(C)C
REMARK SMILES IDX 7 1 6 2 8 3 9 4 10 5 11 6 13 7 12 8 14 9 5 10 4 11 2 12 3 13
REMARK SMILES IDX 1 14
REMARK H PARENT
REMARK Flexibility Score: inf
ROOT
ATOM      1  C   UNL     1      18.266 -33.961  20.005  1.00  0.00    -0.077 C 
ATOM      2  C   UNL     1      18.556 -32.798  20.634  1.00  0.00    -0.028 C 
ATOM      3  C   UNL     1      19.353 -34.998  19.886  1.00  0.00     0.039 C 
ENDROOT
BRANCH   1   4
ATOM      4  C   UNL     1      16.883 -34.293  19.483  1.00  0.00     0.034 C 
BRANCH   4   5
ATOM      5  C   UNL     1      16.209 -35.347  20.370  1.00  0.00     0.032 C 
BRANCH   5   6
ATOM      6  C   UNL     1      15.438 -34.702  21.496  1.00  0.00    -0.028 C 
ATOM      7  C   UNL     1      17.137 -35.410  23.182  1.00  0.00     0.039 C 
ATOM      8  C   UNL     1      15.853 -34.725  22.780  1.00  0.00    -0.080 C 
ATOM      9  C   UNL     1      15.007 -34.049  23.827  1.00  0.00     0.039 C 
ENDBRANCH   5   6
ENDBRANCH   4   5
ENDBRANCH   1   4
BRANCH   2  10
ATOM     10  C   UNL     1      17.588 -31.655  20.824  1.00  0.00     0.035 C 
BRANCH  10  11
ATOM     11  C   UNL     1      17.322 -31.367  22.309  1.00  0.00     0.079 C 
BRANCH  11  12
ATOM     12  C   UNL     1      15.983 -30.704  22.517  1.00  0.00     0.130 C 
ATOM     13  O   UNL     1      15.828 -29.943  23.460  1.00  0.00    -0.300 OA
ATOM     14  C   UNL     1      14.837 -30.949  21.582  1.00  0.00     0.087 C 
ENDBRANCH  11  12
ENDBRANCH  10  11
ENDBRANCH   2  10
TORSDOF 6
ENDMDL
MODEL 9
REMARK VINA RESULT:    -4.748      6.282      8.963
REMARK INTER + INTRA:          -7.348
REMARK INTER:                  -6.534
REMARK INTRA:                  -0.814
REMARK UNBOUND:                -0.934
REMARK SMILES CC(=O)CCC=C(C)CCC=C(C)C
REMARK SMILES IDX 7 1 6 2 8 3 9 4 10 5 11 6 13 7 12 8 14 9 5 10 4 11 2 12 3 13
REMARK SMILES IDX 1 14
REMARK H PARENT
REMARK Flexibility Score: inf
ROOT
ATOM      1  C   UNL     1      19.784 -28.524  21.065  1.00  0.00    -0.077 C 
ATOM      2  C   UNL     1      19.908 -27.190  21.253  1.00  0.00    -0.028 C 
ATOM      3  C   UNL     1      18.397 -29.109  21.000  1.00  0.00     0.039 C 
ENDROOT
BRANCH   1   4
ATOM      4  C   UNL     1      20.971 -29.440  20.846  1.00  0.00     0.034 C 
BRANCH   4   5
ATOM      5  C   UNL     1      20.839 -30.709  21.697  1.00  0.00     0.032 C 
BRANCH   5   6
ATOM      6  C   UNL     1      20.766 -31.944  20.832  1.00  0.00    -0.028 C 
ATOM      7  C   UNL     1      18.548 -32.586  21.781  1.00  0.00     0.039 C 
ATOM      8  C   UNL     1      19.727 -32.804  20.863  1.00  0.00    -0.080 C 
ATOM      9  C   UNL     1      19.755 -34.007  19.956  1.00  0.00     0.039 C 
ENDBRANCH   5   6
ENDBRANCH   4   5
ENDBRANCH   1   4
BRANCH   2  10
ATOM     10  C   UNL     1      21.221 -26.451  21.355  1.00  0.00     0.035 C 
BRANCH  10  11
ATOM     11  C   UNL     1      21.526 -25.639  20.088  1.00  0.00     0.079 C 
BRANCH  11  12
ATOM     12  C   UNL     1      22.949 -25.836  19.627  1.00  0.00     0.130 C 
ATOM     13  O   UNL     1      23.574 -24.887  19.179  1.00  0.00    -0.300 OA
ATOM     14  C   UNL     1      23.621 -27.174  19.720  1.00  0.00     0.087 C 
ENDBRANCH  11  12
ENDBRANCH  10  11
ENDBRANCH   2  10
TORSDOF 6
ENDMDL
