MODEL 1
REMARK VINA RESULT:    -3.120      0.000      0.000
REMARK INTER + INTRA:          -3.510
REMARK INTER:                  -3.484
REMARK INTRA:                  -0.025
REMARK UNBOUND:                -0.025
REMARK SMILES CCCC(=O)[O-]
REMARK SMILES IDX 3 1 4 2 5 3 6 4 2 5 1 6
REMARK H PARENT
REMARK Flexibility Score: inf
ROOT
ATOM      1  C   UNL     1      58.943  11.213  89.091  1.00  0.00     0.052 C 
ENDROOT
BRANCH   1   2
ATOM      2  C   UNL     1      59.094  10.197  90.179  1.00  0.00     0.041 C 
ATOM      3  O   UNL     1      58.137   9.431  90.467  1.00  0.00    -0.550 OA
ATOM      4  O   UNL     1      60.275  10.128  90.908  1.00  0.00    -0.550 OA
ENDBRANCH   1   2
BRANCH   1   5
ATOM      5  C   UNL     1      57.542  11.829  89.125  1.00  0.00     0.003 C 
ATOM      6  C   UNL     1      56.702  11.354  87.942  1.00  0.00     0.004 C 
ENDBRANCH   1   5
TORSDOF 2
ENDMDL
MODEL 2
REMARK VINA RESULT:    -3.079     12.820     13.347
REMARK INTER + INTRA:          -3.464
REMARK INTER:                  -3.459
REMARK INTRA:                  -0.005
REMARK UNBOUND:                -0.025
REMARK SMILES CCCC(=O)[O-]
REMARK SMILES IDX 3 1 4 2 5 3 6 4 2 5 1 6
REMARK H PARENT
REMARK Flexibility Score: inf
ROOT
ATOM      1  C   UNL     1      46.622  13.524  95.918  1.00  0.00     0.052 C 
ENDROOT
BRANCH   1   2
ATOM      2  C   UNL     1      47.475  14.694  95.541  1.00  0.00     0.041 C 
ATOM      3  O   UNL     1      46.957  15.709  95.007  1.00  0.00    -0.550 OA
ATOM      4  O   UNL     1      48.850  14.643  95.736  1.00  0.00    -0.550 OA
ENDBRANCH   1   2
BRANCH   1   5
ATOM      5  C   UNL     1      46.549  12.521  94.763  1.00  0.00     0.003 C 
ATOM      6  C   UNL     1      45.944  11.197  95.220  1.00  0.00     0.004 C 
ENDBRANCH   1   5
TORSDOF 2
ENDMDL
MODEL 3
REMARK VINA RESULT:    -2.987     12.767     13.402
REMARK INTER + INTRA:          -3.361
REMARK INTER:                  -3.332
REMARK INTRA:                  -0.029
REMARK UNBOUND:                -0.025
REMARK SMILES CCCC(=O)[O-]
REMARK SMILES IDX 3 1 4 2 5 3 6 4 2 5 1 6
REMARK H PARENT
REMARK Flexibility Score: inf
ROOT
ATOM      1  C   UNL     1      46.607  13.382  95.943  1.00  0.00     0.052 C 
ENDROOT
BRANCH   1   2
ATOM      2  C   UNL     1      46.253  12.418  94.855  1.00  0.00     0.041 C 
ATOM      3  O   UNL     1      46.240  12.796  93.654  1.00  0.00    -0.550 OA
ATOM      4  O   UNL     1      45.891  11.115  95.172  1.00  0.00    -0.550 OA
ENDBRANCH   1   2
BRANCH   1   5
ATOM      5  C   UNL     1      47.247  14.642  95.354  1.00  0.00     0.003 C 
ATOM      6  C   UNL     1      48.655  14.853  95.904  1.00  0.00     0.004 C 
ENDBRANCH   1   5
TORSDOF 2
ENDMDL
MODEL 4
REMARK VINA RESULT:    -2.915      2.318      3.439
REMARK INTER + INTRA:          -3.282
REMARK INTER:                  -3.270
REMARK INTRA:                  -0.012
REMARK UNBOUND:                -0.025
REMARK SMILES CCCC(=O)[O-]
REMARK SMILES IDX 3 1 4 2 5 3 6 4 2 5 1 6
REMARK H PARENT
REMARK Flexibility Score: inf
ROOT
ATOM      1  C   UNL     1      58.547  11.224  88.937  1.00  0.00     0.052 C 
ENDROOT
BRANCH   1   2
ATOM      2  C   UNL     1      57.110  11.605  88.772  1.00  0.00     0.041 C 
ATOM      3  O   UNL     1      56.491  12.161  89.717  1.00  0.00    -0.550 OA
ATOM      4  O   UNL     1      56.441  11.303  87.593  1.00  0.00    -0.550 OA
ENDBRANCH   1   2
BRANCH   1   5
ATOM      5  C   UNL     1      58.702  10.187  90.052  1.00  0.00     0.003 C 
ATOM      6  C   UNL     1      60.111  10.215  90.639  1.00  0.00     0.004 C 
ENDBRANCH   1   5
TORSDOF 2
ENDMDL
MODEL 5
REMARK VINA RESULT:    -2.904      1.895      2.171
REMARK INTER + INTRA:          -3.269
REMARK INTER:                  -3.202
REMARK INTRA:                  -0.067
REMARK UNBOUND:                -0.025
REMARK SMILES CCCC(=O)[O-]
REMARK SMILES IDX 3 1 4 2 5 3 6 4 2 5 1 6
REMARK H PARENT
REMARK Flexibility Score: inf
ROOT
ATOM      1  C   UNL     1      58.093  10.169  90.148  1.00  0.00     0.052 C 
ENDROOT
BRANCH   1   2
ATOM      2  C   UNL     1      57.016  10.548  91.115  1.00  0.00     0.041 C 
ATOM      3  O   UNL     1      56.057   9.763  91.334  1.00  0.00    -0.550 OA
ATOM      4  O   UNL     1      57.047  11.789  91.739  1.00  0.00    -0.550 OA
ENDBRANCH   1   2
BRANCH   1   5
ATOM      5  C   UNL     1      58.236  11.237  89.061  1.00  0.00     0.003 C 
ATOM      6  C   UNL     1      56.955  11.363  88.240  1.00  0.00     0.004 C 
ENDBRANCH   1   5
TORSDOF 2
ENDMDL
MODEL 6
REMARK VINA RESULT:    -2.855      7.099      7.558
REMARK INTER + INTRA:          -3.214
REMARK INTER:                  -3.154
REMARK INTRA:                  -0.060
REMARK UNBOUND:                -0.025
REMARK SMILES CCCC(=O)[O-]
REMARK SMILES IDX 3 1 4 2 5 3 6 4 2 5 1 6
REMARK H PARENT
REMARK Flexibility Score: inf
ROOT
ATOM      1  C   UNL     1      54.680   7.285  95.358  1.00  0.00     0.052 C 
ENDROOT
BRANCH   1   2
ATOM      2  C   UNL     1      54.826   8.461  96.272  1.00  0.00     0.041 C 
ATOM      3  O   UNL     1      53.904   8.754  97.078  1.00  0.00    -0.550 OA
ATOM      4  O   UNL     1      55.959   9.261  96.200  1.00  0.00    -0.550 OA
ENDBRANCH   1   2
BRANCH   1   5
ATOM      5  C   UNL     1      53.635   7.575  94.277  1.00  0.00     0.003 C 
ATOM      6  C   UNL     1      54.190   8.518  93.213  1.00  0.00     0.004 C 
ENDBRANCH   1   5
TORSDOF 2
ENDMDL
MODEL 7
REMARK VINA RESULT:    -2.851      2.572      3.583
REMARK INTER + INTRA:          -3.210
REMARK INTER:                  -3.171
REMARK INTRA:                  -0.039
REMARK UNBOUND:                -0.025
REMARK SMILES CCCC(=O)[O-]
REMARK SMILES IDX 3 1 4 2 5 3 6 4 2 5 1 6
REMARK H PARENT
REMARK Flexibility Score: inf
ROOT
ATOM      1  C   UNL     1      57.553  11.351  88.662  1.00  0.00     0.052 C 
ENDROOT
BRANCH   1   2
ATOM      2  C   UNL     1      57.009  12.627  89.222  1.00  0.00     0.041 C 
ATOM      3  O   UNL     1      57.789  13.566  89.531  1.00  0.00    -0.550 OA
ATOM      4  O   UNL     1      55.645  12.762  89.447  1.00  0.00    -0.550 OA
ENDBRANCH   1   2
BRANCH   1   5
ATOM      5  C   UNL     1      58.992  11.130  89.134  1.00  0.00     0.003 C 
ATOM      6  C   UNL     1      59.042  10.159  90.311  1.00  0.00     0.004 C 
ENDBRANCH   1   5
TORSDOF 2
ENDMDL
MODEL 8
REMARK VINA RESULT:    -2.846      2.210      2.942
REMARK INTER + INTRA:          -3.204
REMARK INTER:                  -3.166
REMARK INTRA:                  -0.038
REMARK UNBOUND:                -0.025
REMARK SMILES CCCC(=O)[O-]
REMARK SMILES IDX 3 1 4 2 5 3 6 4 2 5 1 6
REMARK H PARENT
REMARK Flexibility Score: inf
ROOT
ATOM      1  C   UNL     1      57.640   9.940  90.186  1.00  0.00     0.052 C 
ENDROOT
BRANCH   1   2
ATOM      2  C   UNL     1      56.651  10.424  91.199  1.00  0.00     0.041 C 
ATOM      3  O   UNL     1      56.755  11.582  91.681  1.00  0.00    -0.550 OA
ATOM      4  O   UNL     1      55.643   9.579  91.646  1.00  0.00    -0.550 OA
ENDBRANCH   1   2
BRANCH   1   5
ATOM      5  C   UNL     1      57.976  11.055  89.192  1.00  0.00     0.003 C 
ATOM      6  C   UNL     1      59.469  11.373  89.205  1.00  0.00     0.004 C 
ENDBRANCH   1   5
TORSDOF 2
ENDMDL
MODEL 9
REMARK VINA RESULT:    -2.767     16.450     17.120
REMARK INTER + INTRA:          -3.116
REMARK INTER:                  -3.101
REMARK INTRA:                  -0.015
REMARK UNBOUND:                -0.025
REMARK SMILES CCCC(=O)[O-]
REMARK SMILES IDX 3 1 4 2 5 3 6 4 2 5 1 6
REMARK H PARENT
REMARK Flexibility Score: inf
ROOT
ATOM      1  C   UNL     1      50.740   5.549 104.102  1.00  0.00     0.052 C 
ENDROOT
BRANCH   1   2
ATOM      2  C   UNL     1      50.950   4.116 104.476  1.00  0.00     0.041 C 
ATOM      3  O   UNL     1      52.107   3.621 104.461  1.00  0.00    -0.550 OA
ATOM      4  O   UNL     1      49.861   3.314 104.795  1.00  0.00    -0.550 OA
ENDBRANCH   1   2
BRANCH   1   5
ATOM      5  C   UNL     1      50.928   5.742 102.595  1.00  0.00     0.003 C 
ATOM      6  C   UNL     1      51.575   7.090 102.288  1.00  0.00     0.004 C 
ENDBRANCH   1   5
TORSDOF 2
ENDMDL
