MODEL 1
REMARK VINA RESULT:    -3.716      0.000      0.000
REMARK INTER + INTRA:         -12.196
REMARK INTER:                  -8.062
REMARK INTRA:                  -4.135
REMARK UNBOUND:                -4.135
REMARK SMILES CCCCCCCCCCCCCCCCCCCCCC(=O)[O-]
REMARK SMILES IDX 12 1 11 2 10 3 9 4 8 5 7 6 6 7 5 8 4 9 3 10 2 11 1 12 13 13
REMARK SMILES IDX 14 14 15 15 16 16 17 17 18 18 19 19 20 20 21 21 22 22 23 23
REMARK SMILES IDX 24 24
REMARK H PARENT
REMARK Flexibility Score: inf
ROOT
ATOM      1  C   UNL     1       7.562 -14.747  31.829  1.00  0.00     0.000 C 
ENDROOT
BRANCH   1   2
ATOM      2  C   UNL     1       6.879 -16.005  32.384  1.00  0.00     0.000 C 
BRANCH   2   3
ATOM      3  C   UNL     1       6.968 -17.165  31.381  1.00  0.00     0.000 C 
BRANCH   3   4
ATOM      4  C   UNL     1       7.554 -18.443  32.002  1.00  0.00    -0.000 C 
BRANCH   4   5
ATOM      5  C   UNL     1       7.858 -19.526  30.957  1.00  0.00    -0.000 C 
BRANCH   5   6
ATOM      6  C   UNL     1       9.355 -19.855  30.927  1.00  0.00    -0.000 C 
BRANCH   6   7
ATOM      7  C   UNL     1      10.137 -18.934  31.876  1.00  0.00    -0.000 C 
BRANCH   7   8
ATOM      8  C   UNL     1      11.083 -17.977  31.132  1.00  0.00    -0.000 C 
BRANCH   8   9
ATOM      9  C   UNL     1      10.659 -16.496  31.158  1.00  0.00    -0.000 C 
BRANCH   9  10
ATOM     10  C   UNL     1      10.180 -15.962  29.792  1.00  0.00    -0.000 C 
BRANCH  10  11
ATOM     11  C   UNL     1      10.209 -17.041  28.700  1.00  0.00    -0.003 C 
ATOM     12  C   UNL     1       8.815 -17.284  28.128  1.00  0.00     0.004 C 
ENDBRANCH  10  11
ENDBRANCH   9  10
ENDBRANCH   8   9
ENDBRANCH   7   8
ENDBRANCH   6   7
ENDBRANCH   5   6
ENDBRANCH   4   5
ENDBRANCH   3   4
ENDBRANCH   2   3
ENDBRANCH   1   2
BRANCH   1  13
ATOM     13  C   UNL     1       7.946 -13.740  32.927  1.00  0.00     0.000 C 
BRANCH  13  14
ATOM     14  C   UNL     1       9.461 -13.524  33.115  1.00  0.00     0.000 C 
BRANCH  14  15
ATOM     15  C   UNL     1       9.995 -13.838  34.524  1.00  0.00     0.000 C 
BRANCH  15  16
ATOM     16  C   UNL     1      10.648 -15.224  34.620  1.00  0.00     0.000 C 
BRANCH  16  17
ATOM     17  C   UNL     1       9.981 -16.071  35.714  1.00  0.00     0.000 C 
BRANCH  17  18
ATOM     18  C   UNL     1       9.016 -17.128  35.148  1.00  0.00     0.000 C 
BRANCH  18  19
ATOM     19  C   UNL     1       7.603 -17.120  35.766  1.00  0.00     0.000 C 
BRANCH  19  20
ATOM     20  C   UNL     1       6.971 -15.725  35.935  1.00  0.00     0.006 C 
BRANCH  20  21
ATOM     21  C   UNL     1       6.489 -15.415  37.361  1.00  0.00     0.053 C 
BRANCH  21  22
ATOM     22  C   UNL     1       7.165 -14.206  37.931  1.00  0.00     0.041 C 
ATOM     23  O   UNL     1       7.562 -13.285  37.169  1.00  0.00    -0.550 OA
ATOM     24  O   UNL     1       7.327 -14.081  39.304  1.00  0.00    -0.550 OA
ENDBRANCH  21  22
ENDBRANCH  20  21
ENDBRANCH  19  20
ENDBRANCH  18  19
ENDBRANCH  17  18
ENDBRANCH  16  17
ENDBRANCH  15  16
ENDBRANCH  14  15
ENDBRANCH  13  14
ENDBRANCH   1  13
TORSDOF 20
ENDMDL
MODEL 2
REMARK VINA RESULT:    -3.642      1.426      3.073
REMARK INTER + INTRA:         -12.035
REMARK INTER:                  -8.002
REMARK INTRA:                  -4.033
REMARK UNBOUND:                -4.135
REMARK SMILES CCCCCCCCCCCCCCCCCCCCCC(=O)[O-]
REMARK SMILES IDX 12 1 11 2 10 3 9 4 8 5 7 6 6 7 5 8 4 9 3 10 2 11 1 12 13 13
REMARK SMILES IDX 14 14 15 15 16 16 17 17 18 18 19 19 20 20 21 21 22 22 23 23
REMARK SMILES IDX 24 24
REMARK H PARENT
REMARK Flexibility Score: inf
ROOT
ATOM      1  C   UNL     1       7.359 -14.960  32.689  1.00  0.00     0.000 C 
ENDROOT
BRANCH   1   2
ATOM      2  C   UNL     1       8.251 -14.845  31.445  1.00  0.00     0.000 C 
BRANCH   2   3
ATOM      3  C   UNL     1       9.681 -14.437  31.831  1.00  0.00     0.000 C 
BRANCH   3   4
ATOM      4  C   UNL     1      10.739 -15.427  31.318  1.00  0.00    -0.000 C 
BRANCH   4   5
ATOM      5  C   UNL     1      10.140 -16.785  30.924  1.00  0.00    -0.000 C 
BRANCH   5   6
ATOM      6  C   UNL     1      11.155 -17.914  31.135  1.00  0.00    -0.000 C 
BRANCH   6   7
ATOM      7  C   UNL     1      10.459 -19.191  31.632  1.00  0.00    -0.000 C 
BRANCH   7   8
ATOM      8  C   UNL     1      10.300 -20.250  30.528  1.00  0.00    -0.000 C 
BRANCH   8   9
ATOM      9  C   UNL     1       8.845 -20.530  30.105  1.00  0.00    -0.000 C 
BRANCH   9  10
ATOM     10  C   UNL     1       7.797 -19.736  30.912  1.00  0.00    -0.000 C 
BRANCH  10  11
ATOM     11  C   UNL     1       7.012 -18.748  30.038  1.00  0.00    -0.003 C 
ATOM     12  C   UNL     1       7.731 -18.490  28.716  1.00  0.00     0.004 C 
ENDBRANCH  10  11
ENDBRANCH   9  10
ENDBRANCH   8   9
ENDBRANCH   7   8
ENDBRANCH   6   7
ENDBRANCH   5   6
ENDBRANCH   4   5
ENDBRANCH   3   4
ENDBRANCH   2   3
ENDBRANCH   1   2
BRANCH   1  13
ATOM     13  C   UNL     1       6.536 -16.260  32.718  1.00  0.00     0.000 C 
BRANCH  13  14
ATOM     14  C   UNL     1       6.975 -17.288  33.779  1.00  0.00     0.000 C 
BRANCH  14  15
ATOM     15  C   UNL     1       8.495 -17.389  34.000  1.00  0.00     0.000 C 
BRANCH  15  16
ATOM     16  C   UNL     1       8.909 -17.096  35.449  1.00  0.00     0.000 C 
BRANCH  16  17
ATOM     17  C   UNL     1      10.051 -16.070  35.496  1.00  0.00     0.000 C 
BRANCH  17  18
ATOM     18  C   UNL     1       9.549 -14.622  35.633  1.00  0.00     0.000 C 
BRANCH  18  19
ATOM     19  C   UNL     1       8.531 -14.389  36.768  1.00  0.00     0.000 C 
BRANCH  19  20
ATOM     20  C   UNL     1       7.221 -13.698  36.340  1.00  0.00     0.006 C 
BRANCH  20  21
ATOM     21  C   UNL     1       6.023 -14.648  36.184  1.00  0.00     0.053 C 
BRANCH  21  22
ATOM     22  C   UNL     1       5.867 -15.551  37.368  1.00  0.00     0.041 C 
ATOM     23  O   UNL     1       5.554 -15.075  38.491  1.00  0.00    -0.550 OA
ATOM     24  O   UNL     1       6.034 -16.922  37.225  1.00  0.00    -0.550 OA
ENDBRANCH  21  22
ENDBRANCH  20  21
ENDBRANCH  19  20
ENDBRANCH  18  19
ENDBRANCH  17  18
ENDBRANCH  16  17
ENDBRANCH  15  16
ENDBRANCH  14  15
ENDBRANCH  13  14
ENDBRANCH   1  13
TORSDOF 20
ENDMDL
MODEL 3
REMARK VINA RESULT:    -3.637      1.491      2.586
REMARK INTER + INTRA:         -12.025
REMARK INTER:                  -8.761
REMARK INTRA:                  -3.264
REMARK UNBOUND:                -4.135
REMARK SMILES CCCCCCCCCCCCCCCCCCCCCC(=O)[O-]
REMARK SMILES IDX 12 1 11 2 10 3 9 4 8 5 7 6 6 7 5 8 4 9 3 10 2 11 1 12 13 13
REMARK SMILES IDX 14 14 15 15 16 16 17 17 18 18 19 19 20 20 21 21 22 22 23 23
REMARK SMILES IDX 24 24
REMARK H PARENT
REMARK Flexibility Score: inf
ROOT
ATOM      1  C   UNL     1       6.732 -17.298  31.816  1.00  0.00     0.000 C 
ENDROOT
BRANCH   1   2
ATOM      2  C   UNL     1       6.389 -18.296  30.701  1.00  0.00     0.000 C 
BRANCH   2   3
ATOM      3  C   UNL     1       6.703 -19.735  31.138  1.00  0.00     0.000 C 
BRANCH   3   4
ATOM      4  C   UNL     1       7.500 -20.514  30.079  1.00  0.00    -0.000 C 
BRANCH   4   5
ATOM      5  C   UNL     1       8.402 -19.608  29.229  1.00  0.00    -0.000 C 
BRANCH   5   6
ATOM      6  C   UNL     1       9.822 -20.178  29.135  1.00  0.00    -0.000 C 
BRANCH   6   7
ATOM      7  C   UNL     1      10.357 -20.546  30.528  1.00  0.00    -0.000 C 
BRANCH   7   8
ATOM      8  C   UNL     1      10.432 -19.338  31.475  1.00  0.00    -0.000 C 
BRANCH   8   9
ATOM      9  C   UNL     1      11.210 -18.128  30.922  1.00  0.00    -0.000 C 
BRANCH   9  10
ATOM     10  C   UNL     1      10.593 -16.765  31.302  1.00  0.00    -0.000 C 
BRANCH  10  11
ATOM     11  C   UNL     1       9.695 -16.199  30.192  1.00  0.00    -0.003 C 
ATOM     12  C   UNL     1      10.272 -16.499  28.811  1.00  0.00     0.004 C 
ENDBRANCH  10  11
ENDBRANCH   9  10
ENDBRANCH   8   9
ENDBRANCH   7   8
ENDBRANCH   6   7
ENDBRANCH   5   6
ENDBRANCH   4   5
ENDBRANCH   3   4
ENDBRANCH   2   3
ENDBRANCH   1   2
BRANCH   1  13
ATOM     13  C   UNL     1       7.530 -17.935  32.967  1.00  0.00     0.000 C 
BRANCH  13  14
ATOM     14  C   UNL     1       7.561 -17.116  34.273  1.00  0.00     0.000 C 
BRANCH  14  15
ATOM     15  C   UNL     1       8.841 -17.276  35.113  1.00  0.00     0.000 C 
BRANCH  15  16
ATOM     16  C   UNL     1       9.798 -16.084  34.974  1.00  0.00     0.000 C 
BRANCH  16  17
ATOM     17  C   UNL     1       9.022 -14.760  34.926  1.00  0.00     0.000 C 
BRANCH  17  18
ATOM     18  C   UNL     1       9.203 -13.914  36.199  1.00  0.00     0.000 C 
BRANCH  18  19
ATOM     19  C   UNL     1       7.949 -13.797  37.089  1.00  0.00     0.000 C 
BRANCH  19  20
ATOM     20  C   UNL     1       6.664 -14.400  36.491  1.00  0.00     0.006 C 
BRANCH  20  21
ATOM     21  C   UNL     1       5.907 -15.346  37.436  1.00  0.00     0.053 C 
BRANCH  21  22
ATOM     22  C   UNL     1       5.568 -14.686  38.737  1.00  0.00     0.041 C 
ATOM     23  O   UNL     1       6.111 -15.076  39.804  1.00  0.00    -0.550 OA
ATOM     24  O   UNL     1       4.679 -13.620  38.766  1.00  0.00    -0.550 OA
ENDBRANCH  21  22
ENDBRANCH  20  21
ENDBRANCH  19  20
ENDBRANCH  18  19
ENDBRANCH  17  18
ENDBRANCH  16  17
ENDBRANCH  15  16
ENDBRANCH  14  15
ENDBRANCH  13  14
ENDBRANCH   1  13
TORSDOF 20
ENDMDL
MODEL 4
REMARK VINA RESULT:    -3.614      4.020      7.335
REMARK INTER + INTRA:         -11.975
REMARK INTER:                  -8.311
REMARK INTRA:                  -3.664
REMARK UNBOUND:                -4.135
REMARK SMILES CCCCCCCCCCCCCCCCCCCCCC(=O)[O-]
REMARK SMILES IDX 12 1 11 2 10 3 9 4 8 5 7 6 6 7 5 8 4 9 3 10 2 11 1 12 13 13
REMARK SMILES IDX 14 14 15 15 16 16 17 17 18 18 19 19 20 20 21 21 22 22 23 23
REMARK SMILES IDX 24 24
REMARK H PARENT
REMARK Flexibility Score: inf
ROOT
ATOM      1  C   UNL     1       7.375 -16.453  32.378  1.00  0.00     0.000 C 
ENDROOT
BRANCH   1   2
ATOM      2  C   UNL     1       8.122 -17.395  33.333  1.00  0.00     0.000 C 
BRANCH   2   3
ATOM      3  C   UNL     1       9.375 -16.715  33.906  1.00  0.00     0.000 C 
BRANCH   3   4
ATOM      4  C   UNL     1       9.544 -16.959  35.414  1.00  0.00    -0.000 C 
BRANCH   4   5
ATOM      5  C   UNL     1      10.080 -15.727  36.157  1.00  0.00    -0.000 C 
BRANCH   5   6
ATOM      6  C   UNL     1       9.281 -14.472  35.787  1.00  0.00    -0.000 C 
BRANCH   6   7
ATOM      7  C   UNL     1       7.967 -14.404  36.581  1.00  0.00    -0.000 C 
BRANCH   7   8
ATOM      8  C   UNL     1       6.725 -14.383  35.675  1.00  0.00    -0.000 C 
BRANCH   8   9
ATOM      9  C   UNL     1       5.833 -15.636  35.768  1.00  0.00    -0.000 C 
BRANCH   9  10
ATOM     10  C   UNL     1       6.235 -16.604  36.901  1.00  0.00    -0.000 C 
BRANCH  10  11
ATOM     11  C   UNL     1       6.107 -18.076  36.485  1.00  0.00    -0.003 C 
ATOM     12  C   UNL     1       5.243 -18.222  35.235  1.00  0.00     0.004 C 
ENDBRANCH  10  11
ENDBRANCH   9  10
ENDBRANCH   8   9
ENDBRANCH   7   8
ENDBRANCH   6   7
ENDBRANCH   5   6
ENDBRANCH   4   5
ENDBRANCH   3   4
ENDBRANCH   2   3
ENDBRANCH   1   2
BRANCH   1  13
ATOM     13  C   UNL     1       7.970 -15.034  32.347  1.00  0.00     0.000 C 
BRANCH  13  14
ATOM     14  C   UNL     1       8.493 -14.575  30.972  1.00  0.00     0.000 C 
BRANCH  14  15
ATOM     15  C   UNL     1       8.706 -15.702  29.945  1.00  0.00     0.000 C 
BRANCH  15  16
ATOM     16  C   UNL     1      10.189 -16.024  29.712  1.00  0.00     0.000 C 
BRANCH  16  17
ATOM     17  C   UNL     1      10.424 -17.542  29.693  1.00  0.00     0.000 C 
BRANCH  17  18
ATOM     18  C   UNL     1      11.059 -18.065  30.994  1.00  0.00     0.000 C 
BRANCH  18  19
ATOM     19  C   UNL     1      10.513 -19.420  31.488  1.00  0.00     0.000 C 
BRANCH  19  20
ATOM     20  C   UNL     1      10.407 -20.516  30.410  1.00  0.00     0.006 C 
BRANCH  20  21
ATOM     21  C   UNL     1       8.984 -20.750  29.880  1.00  0.00     0.053 C 
BRANCH  21  22
ATOM     22  C   UNL     1       8.986 -21.238  28.464  1.00  0.00     0.041 C 
ATOM     23  O   UNL     1       8.034 -21.941  28.035  1.00  0.00    -0.550 OA
ATOM     24  O   UNL     1      10.023 -20.887  27.608  1.00  0.00    -0.550 OA
ENDBRANCH  21  22
ENDBRANCH  20  21
ENDBRANCH  19  20
ENDBRANCH  18  19
ENDBRANCH  17  18
ENDBRANCH  16  17
ENDBRANCH  15  16
ENDBRANCH  14  15
ENDBRANCH  13  14
ENDBRANCH   1  13
TORSDOF 20
ENDMDL
MODEL 5
REMARK VINA RESULT:    -3.608      2.481      3.747
REMARK INTER + INTRA:         -11.962
REMARK INTER:                  -9.066
REMARK INTRA:                  -2.896
REMARK UNBOUND:                -4.135
REMARK SMILES CCCCCCCCCCCCCCCCCCCCCC(=O)[O-]
REMARK SMILES IDX 12 1 11 2 10 3 9 4 8 5 7 6 6 7 5 8 4 9 3 10 2 11 1 12 13 13
REMARK SMILES IDX 14 14 15 15 16 16 17 17 18 18 19 19 20 20 21 21 22 22 23 23
REMARK SMILES IDX 24 24
REMARK H PARENT
REMARK Flexibility Score: inf
ROOT
ATOM      1  C   UNL     1       8.817 -16.471  30.954  1.00  0.00     0.000 C 
ENDROOT
BRANCH   1   2
ATOM      2  C   UNL     1       7.845 -17.613  31.285  1.00  0.00     0.000 C 
BRANCH   2   3
ATOM      3  C   UNL     1       8.595 -18.820  31.869  1.00  0.00     0.000 C 
BRANCH   3   4
ATOM      4  C   UNL     1      10.121 -18.634  31.851  1.00  0.00    -0.000 C 
BRANCH   4   5
ATOM      5  C   UNL     1      10.851 -19.792  31.154  1.00  0.00    -0.000 C 
BRANCH   5   6
ATOM      6  C   UNL     1       9.880 -20.622  30.307  1.00  0.00    -0.000 C 
BRANCH   6   7
ATOM      7  C   UNL     1       9.979 -20.235  28.823  1.00  0.00    -0.000 C 
BRANCH   7   8
ATOM      8  C   UNL     1       9.141 -21.147  27.912  1.00  0.00    -0.000 C 
BRANCH   8   9
ATOM      9  C   UNL     1       8.064 -21.975  28.639  1.00  0.00    -0.000 C 
BRANCH   9  10
ATOM     10  C   UNL     1       6.736 -21.218  28.856  1.00  0.00    -0.000 C 
BRANCH  10  11
ATOM     11  C   UNL     1       5.990 -21.694  30.110  1.00  0.00    -0.003 C 
ATOM     12  C   UNL     1       5.413 -20.515  30.889  1.00  0.00     0.004 C 
ENDBRANCH  10  11
ENDBRANCH   9  10
ENDBRANCH   8   9
ENDBRANCH   7   8
ENDBRANCH   6   7
ENDBRANCH   5   6
ENDBRANCH   4   5
ENDBRANCH   3   4
ENDBRANCH   2   3
ENDBRANCH   1   2
BRANCH   1  13
ATOM     13  C   UNL     1       8.733 -15.303  31.952  1.00  0.00     0.000 C 
BRANCH  13  14
ATOM     14  C   UNL     1      10.087 -14.680  32.345  1.00  0.00     0.000 C 
BRANCH  14  15
ATOM     15  C   UNL     1      10.803 -15.366  33.523  1.00  0.00     0.000 C 
BRANCH  15  16
ATOM     16  C   UNL     1      10.374 -14.810  34.888  1.00  0.00     0.000 C 
BRANCH  16  17
ATOM     17  C   UNL     1      10.012 -15.948  35.854  1.00  0.00     0.000 C 
BRANCH  17  18
ATOM     18  C   UNL     1       9.362 -17.150  35.146  1.00  0.00     0.000 C 
BRANCH  18  19
ATOM     19  C   UNL     1       7.823 -17.100  35.053  1.00  0.00     0.000 C 
BRANCH  19  20
ATOM     20  C   UNL     1       7.124 -16.340  36.197  1.00  0.00     0.006 C 
BRANCH  20  21
ATOM     21  C   UNL     1       5.730 -16.877  36.557  1.00  0.00     0.053 C 
BRANCH  21  22
ATOM     22  C   UNL     1       5.695 -18.374  36.584  1.00  0.00     0.041 C 
ATOM     23  O   UNL     1       6.385 -19.008  37.426  1.00  0.00    -0.550 OA
ATOM     24  O   UNL     1       4.877 -19.068  35.702  1.00  0.00    -0.550 OA
ENDBRANCH  21  22
ENDBRANCH  20  21
ENDBRANCH  19  20
ENDBRANCH  18  19
ENDBRANCH  17  18
ENDBRANCH  16  17
ENDBRANCH  15  16
ENDBRANCH  14  15
ENDBRANCH  13  14
ENDBRANCH   1  13
TORSDOF 20
ENDMDL
MODEL 6
REMARK VINA RESULT:    -3.607      2.573      5.313
REMARK INTER + INTRA:         -11.958
REMARK INTER:                  -7.889
REMARK INTRA:                  -4.070
REMARK UNBOUND:                -4.135
REMARK SMILES CCCCCCCCCCCCCCCCCCCCCC(=O)[O-]
REMARK SMILES IDX 12 1 11 2 10 3 9 4 8 5 7 6 6 7 5 8 4 9 3 10 2 11 1 12 13 13
REMARK SMILES IDX 14 14 15 15 16 16 17 17 18 18 19 19 20 20 21 21 22 22 23 23
REMARK SMILES IDX 24 24
REMARK H PARENT
REMARK Flexibility Score: inf
ROOT
ATOM      1  C   UNL     1      10.164 -16.812  30.535  1.00  0.00     0.000 C 
ENDROOT
BRANCH   1   2
ATOM      2  C   UNL     1      11.094 -17.886  31.115  1.00  0.00     0.000 C 
BRANCH   2   3
ATOM      3  C   UNL     1      10.291 -19.096  31.614  1.00  0.00     0.000 C 
BRANCH   3   4
ATOM      4  C   UNL     1      10.669 -20.398  30.889  1.00  0.00    -0.000 C 
BRANCH   4   5
ATOM      5  C   UNL     1       9.580 -20.874  29.917  1.00  0.00    -0.000 C 
BRANCH   5   6
ATOM      6  C   UNL     1      10.012 -20.660  28.462  1.00  0.00    -0.000 C 
BRANCH   6   7
ATOM      7  C   UNL     1       8.890 -21.062  27.492  1.00  0.00    -0.000 C 
BRANCH   7   8
ATOM      8  C   UNL     1       7.781 -21.882  28.172  1.00  0.00    -0.000 C 
BRANCH   8   9
ATOM      9  C   UNL     1       6.393 -21.766  27.513  1.00  0.00    -0.000 C 
BRANCH   9  10
ATOM     10  C   UNL     1       5.220 -22.014  28.485  1.00  0.00    -0.000 C 
BRANCH  10  11
ATOM     11  C   UNL     1       5.699 -22.394  29.894  1.00  0.00    -0.003 C 
ATOM     12  C   UNL     1       4.681 -21.980  30.953  1.00  0.00     0.004 C 
ENDBRANCH  10  11
ENDBRANCH   9  10
ENDBRANCH   8   9
ENDBRANCH   7   8
ENDBRANCH   6   7
ENDBRANCH   5   6
ENDBRANCH   4   5
ENDBRANCH   3   4
ENDBRANCH   2   3
ENDBRANCH   1   2
BRANCH   1  13
ATOM     13  C   UNL     1      10.121 -16.823  28.996  1.00  0.00     0.000 C 
BRANCH  13  14
ATOM     14  C   UNL     1       8.826 -17.390  28.382  1.00  0.00     0.000 C 
BRANCH  14  15
ATOM     15  C   UNL     1       7.560 -17.195  29.236  1.00  0.00     0.000 C 
BRANCH  15  16
ATOM     16  C   UNL     1       6.764 -18.494  29.428  1.00  0.00     0.000 C 
BRANCH  16  17
ATOM     17  C   UNL     1       6.787 -18.939  30.899  1.00  0.00     0.000 C 
BRANCH  17  18
ATOM     18  C   UNL     1       6.335 -17.830  31.866  1.00  0.00     0.000 C 
BRANCH  18  19
ATOM     19  C   UNL     1       7.005 -17.862  33.254  1.00  0.00     0.000 C 
BRANCH  19  20
ATOM     20  C   UNL     1       8.076 -16.778  33.489  1.00  0.00     0.006 C 
BRANCH  20  21
ATOM     21  C   UNL     1       9.071 -17.102  34.613  1.00  0.00     0.053 C 
BRANCH  21  22
ATOM     22  C   UNL     1       9.943 -15.930  34.946  1.00  0.00     0.041 C 
ATOM     23  O   UNL     1      10.374 -15.182  34.029  1.00  0.00    -0.550 OA
ATOM     24  O   UNL     1      10.251 -15.644  36.269  1.00  0.00    -0.550 OA
ENDBRANCH  21  22
ENDBRANCH  20  21
ENDBRANCH  19  20
ENDBRANCH  18  19
ENDBRANCH  17  18
ENDBRANCH  16  17
ENDBRANCH  15  16
ENDBRANCH  14  15
ENDBRANCH  13  14
ENDBRANCH   1  13
TORSDOF 20
ENDMDL
MODEL 7
REMARK VINA RESULT:    -3.595      1.350      2.789
REMARK INTER + INTRA:         -11.933
REMARK INTER:                  -7.892
REMARK INTRA:                  -4.041
REMARK UNBOUND:                -4.135
REMARK SMILES CCCCCCCCCCCCCCCCCCCCCC(=O)[O-]
REMARK SMILES IDX 12 1 11 2 10 3 9 4 8 5 7 6 6 7 5 8 4 9 3 10 2 11 1 12 13 13
REMARK SMILES IDX 14 14 15 15 16 16 17 17 18 18 19 19 20 20 21 21 22 22 23 23
REMARK SMILES IDX 24 24
REMARK H PARENT
REMARK Flexibility Score: inf
ROOT
ATOM      1  C   UNL     1       6.857 -17.153  31.514  1.00  0.00     0.000 C 
ENDROOT
BRANCH   1   2
ATOM      2  C   UNL     1       7.497 -18.252  32.373  1.00  0.00     0.000 C 
BRANCH   2   3
ATOM      3  C   UNL     1       8.560 -19.022  31.575  1.00  0.00     0.000 C 
BRANCH   3   4
ATOM      4  C   UNL     1       9.987 -18.761  32.082  1.00  0.00    -0.000 C 
BRANCH   4   5
ATOM      5  C   UNL     1      10.951 -18.354  30.958  1.00  0.00    -0.000 C 
BRANCH   5   6
ATOM      6  C   UNL     1      10.479 -17.068  30.269  1.00  0.00    -0.000 C 
BRANCH   6   7
ATOM      7  C   UNL     1      10.328 -17.281  28.755  1.00  0.00    -0.000 C 
BRANCH   7   8
ATOM      8  C   UNL     1       8.859 -17.351  28.307  1.00  0.00    -0.000 C 
BRANCH   8   9
ATOM      9  C   UNL     1       8.409 -18.723  27.770  1.00  0.00    -0.000 C 
BRANCH   9  10
ATOM     10  C   UNL     1       9.461 -19.418  26.879  1.00  0.00    -0.000 C 
BRANCH  10  11
ATOM     11  C   UNL     1       9.860 -20.800  27.417  1.00  0.00    -0.003 C 
ATOM     12  C   UNL     1       9.324 -21.018  28.829  1.00  0.00     0.004 C 
ENDBRANCH  10  11
ENDBRANCH   9  10
ENDBRANCH   8   9
ENDBRANCH   7   8
ENDBRANCH   6   7
ENDBRANCH   5   6
ENDBRANCH   4   5
ENDBRANCH   3   4
ENDBRANCH   2   3
ENDBRANCH   1   2
BRANCH   1  13
ATOM     13  C   UNL     1       7.026 -15.747  32.117  1.00  0.00     0.000 C 
BRANCH  13  14
ATOM     14  C   UNL     1       8.326 -15.018  31.722  1.00  0.00     0.000 C 
BRANCH  14  15
ATOM     15  C   UNL     1       8.917 -14.102  32.809  1.00  0.00     0.000 C 
BRANCH  15  16
ATOM     16  C   UNL     1      10.431 -14.283  32.985  1.00  0.00     0.000 C 
BRANCH  16  17
ATOM     17  C   UNL     1      10.745 -15.592  33.725  1.00  0.00     0.000 C 
BRANCH  17  18
ATOM     18  C   UNL     1      10.031 -15.695  35.085  1.00  0.00     0.000 C 
BRANCH  18  19
ATOM     19  C   UNL     1       9.306 -17.032  35.342  1.00  0.00     0.000 C 
BRANCH  19  20
ATOM     20  C   UNL     1       7.815 -16.908  35.709  1.00  0.00     0.006 C 
BRANCH  20  21
ATOM     21  C   UNL     1       7.294 -15.463  35.768  1.00  0.00     0.053 C 
BRANCH  21  22
ATOM     22  C   UNL     1       7.012 -15.026  37.172  1.00  0.00     0.041 C 
ATOM     23  O   UNL     1       7.727 -14.144  37.716  1.00  0.00    -0.550 OA
ATOM     24  O   UNL     1       5.939 -15.566  37.868  1.00  0.00    -0.550 OA
ENDBRANCH  21  22
ENDBRANCH  20  21
ENDBRANCH  19  20
ENDBRANCH  18  19
ENDBRANCH  17  18
ENDBRANCH  16  17
ENDBRANCH  15  16
ENDBRANCH  14  15
ENDBRANCH  13  14
ENDBRANCH   1  13
TORSDOF 20
ENDMDL
MODEL 8
REMARK VINA RESULT:    -3.562      1.664      3.075
REMARK INTER + INTRA:         -11.862
REMARK INTER:                  -9.070
REMARK INTRA:                  -2.792
REMARK UNBOUND:                -4.135
REMARK SMILES CCCCCCCCCCCCCCCCCCCCCC(=O)[O-]
REMARK SMILES IDX 12 1 11 2 10 3 9 4 8 5 7 6 6 7 5 8 4 9 3 10 2 11 1 12 13 13
REMARK SMILES IDX 14 14 15 15 16 16 17 17 18 18 19 19 20 20 21 21 22 22 23 23
REMARK SMILES IDX 24 24
REMARK H PARENT
REMARK Flexibility Score: inf
ROOT
ATOM      1  C   UNL     1       7.960 -16.953  34.570  1.00  0.00     0.000 C 
ENDROOT
BRANCH   1   2
ATOM      2  C   UNL     1       8.101 -17.235  33.068  1.00  0.00     0.000 C 
BRANCH   2   3
ATOM      3  C   UNL     1       9.405 -17.990  32.772  1.00  0.00     0.000 C 
BRANCH   3   4
ATOM      4  C   UNL     1      10.217 -17.348  31.635  1.00  0.00    -0.000 C 
BRANCH   4   5
ATOM      5  C   UNL     1      10.789 -18.384  30.656  1.00  0.00    -0.000 C 
BRANCH   5   6
ATOM      6  C   UNL     1      10.827 -19.778  31.292  1.00  0.00    -0.000 C 
BRANCH   6   7
ATOM      7  C   UNL     1      10.336 -20.846  30.303  1.00  0.00    -0.000 C 
BRANCH   7   8
ATOM      8  C   UNL     1       9.345 -20.287  29.268  1.00  0.00    -0.000 C 
BRANCH   8   9
ATOM      9  C   UNL     1       9.679 -20.626  27.802  1.00  0.00    -0.000 C 
BRANCH   9  10
ATOM     10  C   UNL     1       9.628 -19.409  26.854  1.00  0.00    -0.000 C 
BRANCH  10  11
ATOM     11  C   UNL     1       9.023 -18.169  27.528  1.00  0.00    -0.003 C 
ATOM     12  C   UNL     1       9.707 -16.892  27.049  1.00  0.00     0.004 C 
ENDBRANCH  10  11
ENDBRANCH   9  10
ENDBRANCH   8   9
ENDBRANCH   7   8
ENDBRANCH   6   7
ENDBRANCH   5   6
ENDBRANCH   4   5
ENDBRANCH   3   4
ENDBRANCH   2   3
ENDBRANCH   1   2
BRANCH   1  13
ATOM     13  C   UNL     1       9.273 -17.160  35.346  1.00  0.00     0.000 C 
BRANCH  13  14
ATOM     14  C   UNL     1       9.972 -15.865  35.805  1.00  0.00     0.000 C 
BRANCH  14  15
ATOM     15  C   UNL     1      10.536 -14.991  34.670  1.00  0.00     0.000 C 
BRANCH  15  16
ATOM     16  C   UNL     1       9.889 -13.600  34.611  1.00  0.00     0.000 C 
BRANCH  16  17
ATOM     17  C   UNL     1       9.592 -13.073  36.023  1.00  0.00     0.000 C 
BRANCH  17  18
ATOM     18  C   UNL     1       8.132 -12.619  36.197  1.00  0.00     0.000 C 
BRANCH  18  19
ATOM     19  C   UNL     1       7.103 -13.386  35.342  1.00  0.00     0.000 C 
BRANCH  19  20
ATOM     20  C   UNL     1       6.030 -14.151  36.141  1.00  0.00     0.006 C 
BRANCH  20  21
ATOM     21  C   UNL     1       6.563 -14.877  37.386  1.00  0.00     0.053 C 
BRANCH  21  22
ATOM     22  C   UNL     1       5.845 -14.456  38.631  1.00  0.00     0.041 C 
ATOM     23  O   UNL     1       6.192 -14.920  39.749  1.00  0.00    -0.550 OA
ATOM     24  O   UNL     1       4.815 -13.527  38.561  1.00  0.00    -0.550 OA
ENDBRANCH  21  22
ENDBRANCH  20  21
ENDBRANCH  19  20
ENDBRANCH  18  19
ENDBRANCH  17  18
ENDBRANCH  16  17
ENDBRANCH  15  16
ENDBRANCH  14  15
ENDBRANCH  13  14
ENDBRANCH   1  13
TORSDOF 20
ENDMDL
MODEL 9
REMARK VINA RESULT:    -3.538      1.452      2.284
REMARK INTER + INTRA:         -11.810
REMARK INTER:                  -8.141
REMARK INTRA:                  -3.669
REMARK UNBOUND:                -4.135
REMARK SMILES CCCCCCCCCCCCCCCCCCCCCC(=O)[O-]
REMARK SMILES IDX 12 1 11 2 10 3 9 4 8 5 7 6 6 7 5 8 4 9 3 10 2 11 1 12 13 13
REMARK SMILES IDX 14 14 15 15 16 16 17 17 18 18 19 19 20 20 21 21 22 22 23 23
REMARK SMILES IDX 24 24
REMARK H PARENT
REMARK Flexibility Score: inf
ROOT
ATOM      1  C   UNL     1       7.524 -15.398  31.662  1.00  0.00     0.000 C 
ENDROOT
BRANCH   1   2
ATOM      2  C   UNL     1       8.224 -16.682  31.197  1.00  0.00     0.000 C 
BRANCH   2   3
ATOM      3  C   UNL     1       7.501 -17.927  31.734  1.00  0.00     0.000 C 
BRANCH   3   4
ATOM      4  C   UNL     1       8.404 -19.171  31.761  1.00  0.00    -0.000 C 
BRANCH   4   5
ATOM      5  C   UNL     1       9.887 -18.825  31.957  1.00  0.00    -0.000 C 
BRANCH   5   6
ATOM      6  C   UNL     1      10.755 -19.511  30.896  1.00  0.00    -0.000 C 
BRANCH   6   7
ATOM      7  C   UNL     1      10.013 -20.700  30.266  1.00  0.00    -0.000 C 
BRANCH   7   8
ATOM      8  C   UNL     1       9.852 -20.561  28.743  1.00  0.00    -0.000 C 
BRANCH   8   9
ATOM      9  C   UNL     1       9.487 -19.146  28.256  1.00  0.00    -0.000 C 
BRANCH   9  10
ATOM     10  C   UNL     1       8.131 -19.070  27.523  1.00  0.00    -0.000 C 
BRANCH  10  11
ATOM     11  C   UNL     1       7.018 -19.815  28.275  1.00  0.00    -0.003 C 
ATOM     12  C   UNL     1       5.875 -18.873  28.641  1.00  0.00     0.004 C 
ENDBRANCH  10  11
ENDBRANCH   9  10
ENDBRANCH   8   9
ENDBRANCH   7   8
ENDBRANCH   6   7
ENDBRANCH   5   6
ENDBRANCH   4   5
ENDBRANCH   3   4
ENDBRANCH   2   3
ENDBRANCH   1   2
BRANCH   1  13
ATOM     13  C   UNL     1       8.377 -14.568  32.636  1.00  0.00     0.000 C 
BRANCH  13  14
ATOM     14  C   UNL     1       9.654 -15.266  33.144  1.00  0.00     0.000 C 
BRANCH  14  15
ATOM     15  C   UNL     1      10.146 -14.800  34.527  1.00  0.00     0.000 C 
BRANCH  15  16
ATOM     16  C   UNL     1       9.945 -15.861  35.620  1.00  0.00     0.000 C 
BRANCH  16  17
ATOM     17  C   UNL     1       9.305 -17.131  35.040  1.00  0.00     0.000 C 
BRANCH  17  18
ATOM     18  C   UNL     1       7.954 -17.471  35.694  1.00  0.00     0.000 C 
BRANCH  18  19
ATOM     19  C   UNL     1       6.729 -16.782  35.059  1.00  0.00     0.000 C 
BRANCH  19  20
ATOM     20  C   UNL     1       6.245 -15.511  35.783  1.00  0.00     0.006 C 
BRANCH  20  21
ATOM     21  C   UNL     1       5.718 -15.752  37.206  1.00  0.00     0.053 C 
BRANCH  21  22
ATOM     22  C   UNL     1       6.409 -14.887  38.215  1.00  0.00     0.041 C 
ATOM     23  O   UNL     1       5.948 -14.785  39.382  1.00  0.00    -0.550 OA
ATOM     24  O   UNL     1       7.579 -14.220  37.876  1.00  0.00    -0.550 OA
ENDBRANCH  21  22
ENDBRANCH  20  21
ENDBRANCH  19  20
ENDBRANCH  18  19
ENDBRANCH  17  18
ENDBRANCH  16  17
ENDBRANCH  15  16
ENDBRANCH  14  15
ENDBRANCH  13  14
ENDBRANCH   1  13
TORSDOF 20
ENDMDL
