MODEL 1
REMARK VINA RESULT:    -2.946      0.000      0.000
REMARK INTER + INTRA:         -12.751
REMARK INTER:                  -7.682
REMARK INTRA:                  -5.069
REMARK UNBOUND:                -5.069
REMARK SMILES CCCCCCCCCCCCCCCCCCCCCCCCCCCCCO
REMARK SMILES IDX 16 1 15 2 14 3 13 4 12 5 11 6 10 7 9 8 8 9 7 10 6 11 5 12
REMARK SMILES IDX 4 13 3 14 2 15 1 16 17 17 18 18 19 19 20 20 21 21 22 22
REMARK SMILES IDX 23 23 24 24 25 25 26 26 27 27 28 28 29 29 30 30
REMARK H PARENT 30 31
REMARK Flexibility Score: inf
ROOT
ATOM      1  C   UNL     1     234.643 236.544 234.217  1.00  0.00     0.000 C 
ENDROOT
BRANCH   1   2
ATOM      2  C   UNL     1     234.649 236.678 232.680  1.00  0.00     0.000 C 
BRANCH   2   3
ATOM      3  C   UNL     1     233.639 237.692 232.104  1.00  0.00     0.000 C 
BRANCH   3   4
ATOM      4  C   UNL     1     232.162 237.417 232.450  1.00  0.00     0.000 C 
BRANCH   4   5
ATOM      5  C   UNL     1     231.487 238.510 233.304  1.00  0.00     0.000 C 
BRANCH   5   6
ATOM      6  C   UNL     1     232.460 239.474 234.010  1.00  0.00     0.000 C 
BRANCH   6   7
ATOM      7  C   UNL     1     232.112 240.973 233.881  1.00  0.00     0.000 C 
BRANCH   7   8
ATOM      8  C   UNL     1     230.616 241.310 234.023  1.00  0.00    -0.000 C 
BRANCH   8   9
ATOM      9  C   UNL     1     230.177 241.460 235.490  1.00  0.00    -0.000 C 
BRANCH   9  10
ATOM     10  C   UNL     1     228.783 240.870 235.754  1.00  0.00    -0.000 C 
BRANCH  10  11
ATOM     11  C   UNL     1     228.713 239.353 235.492  1.00  0.00    -0.000 C 
BRANCH  11  12
ATOM     12  C   UNL     1     228.998 238.527 236.765  1.00  0.00    -0.000 C 
BRANCH  12  13
ATOM     13  C   UNL     1     230.449 238.024 236.869  1.00  0.00    -0.000 C 
BRANCH  13  14
ATOM     14  C   UNL     1     231.224 238.659 238.033  1.00  0.00    -0.000 C 
BRANCH  14  15
ATOM     15  C   UNL     1     232.574 239.250 237.594  1.00  0.00    -0.003 C 
ATOM     16  C   UNL     1     233.658 238.185 237.427  1.00  0.00     0.004 C 
ENDBRANCH  14  15
ENDBRANCH  13  14
ENDBRANCH  12  13
ENDBRANCH  11  12
ENDBRANCH  10  11
ENDBRANCH   9  10
ENDBRANCH   8   9
ENDBRANCH   7   8
ENDBRANCH   6   7
ENDBRANCH   5   6
ENDBRANCH   4   5
ENDBRANCH   3   4
ENDBRANCH   2   3
ENDBRANCH   1   2
BRANCH   1  17
ATOM     17  C   UNL     1     234.323 235.129 234.739  1.00  0.00     0.000 C 
BRANCH  17  18
ATOM     18  C   UNL     1     233.039 235.094 235.587  1.00  0.00     0.000 C 
BRANCH  18  19
ATOM     19  C   UNL     1     231.801 234.648 234.781  1.00  0.00     0.000 C 
BRANCH  19  20
ATOM     20  C   UNL     1     232.114 233.689 233.613  1.00  0.00     0.000 C 
BRANCH  20  21
ATOM     21  C   UNL     1     231.324 233.940 232.318  1.00  0.00     0.000 C 
BRANCH  21  22
ATOM     22  C   UNL     1     230.233 232.882 232.067  1.00  0.00     0.000 C 
BRANCH  22  23
ATOM     23  C   UNL     1     230.326 231.689 233.033  1.00  0.00     0.000 C 
BRANCH  23  24
ATOM     24  C   UNL     1     229.026 231.473 233.826  1.00  0.00     0.000 C 
BRANCH  24  25
ATOM     25  C   UNL     1     228.652 232.684 234.699  1.00  0.00     0.000 C 
BRANCH  25  26
ATOM     26  C   UNL     1     229.183 232.635 236.147  1.00  0.00     0.000 C 
BRANCH  26  27
ATOM     27  C   UNL     1     228.232 233.264 237.186  1.00  0.00     0.002 C 
BRANCH  27  28
ATOM     28  C   UNL     1     228.477 234.773 237.362  1.00  0.00     0.028 C 
BRANCH  28  29
ATOM     29  C   UNL     1     227.726 235.335 238.570  1.00  0.00     0.156 C 
BRANCH  29  30
ATOM     30  O   UNL     1     226.827 236.328 238.161  1.00  0.00    -0.396 OA
ATOM     31  H   UNL     1     227.240 237.196 238.415  1.00  0.00     0.210 HD
ENDBRANCH  29  30
ENDBRANCH  28  29
ENDBRANCH  27  28
ENDBRANCH  26  27
ENDBRANCH  25  26
ENDBRANCH  24  25
ENDBRANCH  23  24
ENDBRANCH  22  23
ENDBRANCH  21  22
ENDBRANCH  20  21
ENDBRANCH  19  20
ENDBRANCH  18  19
ENDBRANCH  17  18
ENDBRANCH   1  17
TORSDOF 28
ENDMDL
MODEL 2
REMARK VINA RESULT:    -2.923      6.796     10.438
REMARK INTER + INTRA:         -12.692
REMARK INTER:                  -7.887
REMARK INTRA:                  -4.805
REMARK UNBOUND:                -5.069
REMARK SMILES CCCCCCCCCCCCCCCCCCCCCCCCCCCCCO
REMARK SMILES IDX 16 1 15 2 14 3 13 4 12 5 11 6 10 7 9 8 8 9 7 10 6 11 5 12
REMARK SMILES IDX 4 13 3 14 2 15 1 16 17 17 18 18 19 19 20 20 21 21 22 22
REMARK SMILES IDX 23 23 24 24 25 25 26 26 27 27 28 28 29 29 30 30
REMARK H PARENT 30 31
REMARK Flexibility Score: inf
ROOT
ATOM      1  C   UNL     1     235.869 227.959 235.585  1.00  0.00     0.000 C 
ENDROOT
BRANCH   1   2
ATOM      2  C   UNL     1     236.439 226.801 234.740  1.00  0.00     0.000 C 
BRANCH   2   3
ATOM      3  C   UNL     1     237.796 226.243 235.218  1.00  0.00     0.000 C 
BRANCH   3   4
ATOM      4  C   UNL     1     239.023 226.729 234.420  1.00  0.00     0.000 C 
BRANCH   4   5
ATOM      5  C   UNL     1     239.985 227.639 235.211  1.00  0.00     0.000 C 
BRANCH   5   6
ATOM      6  C   UNL     1     239.543 229.112 235.318  1.00  0.00     0.000 C 
BRANCH   6   7
ATOM      7  C   UNL     1     239.758 229.767 236.700  1.00  0.00     0.000 C 
BRANCH   7   8
ATOM      8  C   UNL     1     238.563 229.657 237.666  1.00  0.00    -0.000 C 
BRANCH   8   9
ATOM      9  C   UNL     1     238.079 231.029 238.169  1.00  0.00    -0.000 C 
BRANCH   9  10
ATOM     10  C   UNL     1     236.552 231.096 238.326  1.00  0.00    -0.000 C 
BRANCH  10  11
ATOM     11  C   UNL     1     235.863 231.863 237.181  1.00  0.00    -0.000 C 
BRANCH  11  12
ATOM     12  C   UNL     1     236.875 232.610 236.286  1.00  0.00    -0.000 C 
BRANCH  12  13
ATOM     13  C   UNL     1     236.488 234.070 235.991  1.00  0.00    -0.000 C 
BRANCH  13  14
ATOM     14  C   UNL     1     237.545 235.080 236.464  1.00  0.00    -0.000 C 
BRANCH  14  15
ATOM     15  C   UNL     1     238.525 234.478 237.484  1.00  0.00    -0.003 C 
ATOM     16  C   UNL     1     239.946 234.357 236.937  1.00  0.00     0.004 C 
ENDBRANCH  14  15
ENDBRANCH  13  14
ENDBRANCH  12  13
ENDBRANCH  11  12
ENDBRANCH  10  11
ENDBRANCH   9  10
ENDBRANCH   8   9
ENDBRANCH   7   8
ENDBRANCH   6   7
ENDBRANCH   5   6
ENDBRANCH   4   5
ENDBRANCH   3   4
ENDBRANCH   2   3
ENDBRANCH   1   2
BRANCH   1  17
ATOM     17  C   UNL     1     235.790 229.313 234.854  1.00  0.00     0.000 C 
BRANCH  17  18
ATOM     18  C   UNL     1     236.477 229.275 233.477  1.00  0.00     0.000 C 
BRANCH  18  19
ATOM     19  C   UNL     1     236.859 230.678 232.958  1.00  0.00     0.000 C 
BRANCH  19  20
ATOM     20  C   UNL     1     235.714 231.423 232.240  1.00  0.00     0.000 C 
BRANCH  20  21
ATOM     21  C   UNL     1     235.427 232.846 232.750  1.00  0.00     0.000 C 
BRANCH  21  22
ATOM     22  C   UNL     1     236.517 233.857 232.349  1.00  0.00     0.000 C 
BRANCH  22  23
ATOM     23  C   UNL     1     236.026 235.314 232.398  1.00  0.00     0.000 C 
BRANCH  23  24
ATOM     24  C   UNL     1     237.172 236.312 232.635  1.00  0.00     0.000 C 
BRANCH  24  25
ATOM     25  C   UNL     1     238.562 235.676 232.461  1.00  0.00     0.000 C 
BRANCH  25  26
ATOM     26  C   UNL     1     239.556 235.950 233.609  1.00  0.00     0.000 C 
BRANCH  26  27
ATOM     27  C   UNL     1     239.772 237.448 233.909  1.00  0.00     0.002 C 
BRANCH  27  28
ATOM     28  C   UNL     1     239.453 237.799 235.373  1.00  0.00     0.028 C 
BRANCH  28  29
ATOM     29  C   UNL     1     239.899 239.218 235.727  1.00  0.00     0.156 C 
BRANCH  29  30
ATOM     30  O   UNL     1     239.492 240.117 234.732  1.00  0.00    -0.396 OA
ATOM     31  H   UNL     1     238.936 239.592 234.098  1.00  0.00     0.210 HD
ENDBRANCH  29  30
ENDBRANCH  28  29
ENDBRANCH  27  28
ENDBRANCH  26  27
ENDBRANCH  25  26
ENDBRANCH  24  25
ENDBRANCH  23  24
ENDBRANCH  22  23
ENDBRANCH  21  22
ENDBRANCH  20  21
ENDBRANCH  19  20
ENDBRANCH  18  19
ENDBRANCH  17  18
ENDBRANCH   1  17
TORSDOF 28
ENDMDL
MODEL 3
REMARK VINA RESULT:    -2.840      6.997     11.415
REMARK INTER + INTRA:         -12.474
REMARK INTER:                  -7.026
REMARK INTRA:                  -5.447
REMARK UNBOUND:                -5.069
REMARK SMILES CCCCCCCCCCCCCCCCCCCCCCCCCCCCCO
REMARK SMILES IDX 16 1 15 2 14 3 13 4 12 5 11 6 10 7 9 8 8 9 7 10 6 11 5 12
REMARK SMILES IDX 4 13 3 14 2 15 1 16 17 17 18 18 19 19 20 20 21 21 22 22
REMARK SMILES IDX 23 23 24 24 25 25 26 26 27 27 28 28 29 29 30 30
REMARK H PARENT 30 31
REMARK Flexibility Score: inf
ROOT
ATOM      1  C   UNL     1     235.382 230.904 235.007  1.00  0.00     0.000 C 
ENDROOT
BRANCH   1   2
ATOM      2  C   UNL     1     236.230 230.867 233.718  1.00  0.00     0.000 C 
BRANCH   2   3
ATOM      3  C   UNL     1     236.664 229.461 233.255  1.00  0.00     0.000 C 
BRANCH   3   4
ATOM      4  C   UNL     1     236.232 228.304 234.179  1.00  0.00     0.000 C 
BRANCH   4   5
ATOM      5  C   UNL     1     236.977 226.975 233.937  1.00  0.00     0.000 C 
BRANCH   5   6
ATOM      6  C   UNL     1     238.505 227.045 234.125  1.00  0.00     0.000 C 
BRANCH   6   7
ATOM      7  C   UNL     1     239.031 226.484 235.464  1.00  0.00     0.000 C 
BRANCH   7   8
ATOM      8  C   UNL     1     239.700 227.519 236.388  1.00  0.00    -0.000 C 
BRANCH   8   9
ATOM      9  C   UNL     1     239.745 228.927 235.767  1.00  0.00    -0.000 C 
BRANCH   9  10
ATOM     10  C   UNL     1     238.685 229.869 236.359  1.00  0.00    -0.000 C 
BRANCH  10  11
ATOM     11  C   UNL     1     238.337 229.537 237.823  1.00  0.00    -0.000 C 
BRANCH  11  12
ATOM     12  C   UNL     1     236.842 229.201 238.006  1.00  0.00    -0.000 C 
BRANCH  12  13
ATOM     13  C   UNL     1     236.573 227.730 238.374  1.00  0.00    -0.000 C 
BRANCH  13  14
ATOM     14  C   UNL     1     235.557 227.053 237.442  1.00  0.00    -0.000 C 
BRANCH  14  15
ATOM     15  C   UNL     1     235.873 225.568 237.200  1.00  0.00    -0.003 C 
ATOM     16  C   UNL     1     236.928 225.025 238.162  1.00  0.00     0.004 C 
ENDBRANCH  14  15
ENDBRANCH  13  14
ENDBRANCH  12  13
ENDBRANCH  11  12
ENDBRANCH  10  11
ENDBRANCH   9  10
ENDBRANCH   8   9
ENDBRANCH   7   8
ENDBRANCH   6   7
ENDBRANCH   5   6
ENDBRANCH   4   5
ENDBRANCH   3   4
ENDBRANCH   2   3
ENDBRANCH   1   2
BRANCH   1  17
ATOM     17  C   UNL     1     235.020 232.318 235.499  1.00  0.00     0.000 C 
BRANCH  17  18
ATOM     18  C   UNL     1     235.517 232.584 236.931  1.00  0.00     0.000 C 
BRANCH  18  19
ATOM     19  C   UNL     1     236.990 233.041 236.979  1.00  0.00     0.000 C 
BRANCH  19  20
ATOM     20  C   UNL     1     237.370 234.080 235.903  1.00  0.00     0.000 C 
BRANCH  20  21
ATOM     21  C   UNL     1     236.669 235.444 236.022  1.00  0.00     0.000 C 
BRANCH  21  22
ATOM     22  C   UNL     1     236.162 235.976 234.668  1.00  0.00     0.000 C 
BRANCH  22  23
ATOM     23  C   UNL     1     236.670 235.151 233.474  1.00  0.00     0.000 C 
BRANCH  23  24
ATOM     24  C   UNL     1     237.640 235.945 232.582  1.00  0.00     0.000 C 
BRANCH  24  25
ATOM     25  C   UNL     1     239.096 235.874 233.075  1.00  0.00     0.000 C 
BRANCH  25  26
ATOM     26  C   UNL     1     239.621 237.159 233.750  1.00  0.00     0.000 C 
BRANCH  26  27
ATOM     27  C   UNL     1     239.853 237.020 235.269  1.00  0.00     0.002 C 
BRANCH  27  28
ATOM     28  C   UNL     1     240.819 235.873 235.609  1.00  0.00     0.028 C 
BRANCH  28  29
ATOM     29  C   UNL     1     240.666 235.409 237.058  1.00  0.00     0.156 C 
BRANCH  29  30
ATOM     30  O   UNL     1     240.709 234.010 237.125  1.00  0.00    -0.396 OA
ATOM     31  H   UNL     1     240.324 233.765 238.008  1.00  0.00     0.210 HD
ENDBRANCH  29  30
ENDBRANCH  28  29
ENDBRANCH  27  28
ENDBRANCH  26  27
ENDBRANCH  25  26
ENDBRANCH  24  25
ENDBRANCH  23  24
ENDBRANCH  22  23
ENDBRANCH  21  22
ENDBRANCH  20  21
ENDBRANCH  19  20
ENDBRANCH  18  19
ENDBRANCH  17  18
ENDBRANCH   1  17
TORSDOF 28
ENDMDL
MODEL 4
REMARK VINA RESULT:    -2.832      3.716      6.749
REMARK INTER + INTRA:         -12.454
REMARK INTER:                  -6.945
REMARK INTRA:                  -5.509
REMARK UNBOUND:                -5.069
REMARK SMILES CCCCCCCCCCCCCCCCCCCCCCCCCCCCCO
REMARK SMILES IDX 16 1 15 2 14 3 13 4 12 5 11 6 10 7 9 8 8 9 7 10 6 11 5 12
REMARK SMILES IDX 4 13 3 14 2 15 1 16 17 17 18 18 19 19 20 20 21 21 22 22
REMARK SMILES IDX 23 23 24 24 25 25 26 26 27 27 28 28 29 29 30 30
REMARK H PARENT 30 31
REMARK Flexibility Score: inf
ROOT
ATOM      1  C   UNL     1     235.081 235.054 231.879  1.00  0.00     0.000 C 
ENDROOT
BRANCH   1   2
ATOM      2  C   UNL     1     235.073 236.452 232.532  1.00  0.00     0.000 C 
BRANCH   2   3
ATOM      3  C   UNL     1     233.930 237.383 232.081  1.00  0.00     0.000 C 
BRANCH   3   4
ATOM      4  C   UNL     1     232.554 237.087 232.713  1.00  0.00     0.000 C 
BRANCH   4   5
ATOM      5  C   UNL     1     231.761 238.339 233.141  1.00  0.00     0.000 C 
BRANCH   5   6
ATOM      6  C   UNL     1     231.610 238.520 234.665  1.00  0.00     0.000 C 
BRANCH   6   7
ATOM      7  C   UNL     1     232.884 238.989 235.402  1.00  0.00     0.000 C 
BRANCH   7   8
ATOM      8  C   UNL     1     233.259 238.164 236.647  1.00  0.00    -0.000 C 
BRANCH   8   9
ATOM      9  C   UNL     1     234.376 237.143 236.367  1.00  0.00    -0.000 C 
BRANCH   9  10
ATOM     10  C   UNL     1     233.830 235.777 235.920  1.00  0.00    -0.000 C 
BRANCH  10  11
ATOM     11  C   UNL     1     232.693 235.260 236.822  1.00  0.00    -0.000 C 
BRANCH  11  12
ATOM     12  C   UNL     1     231.372 235.072 236.046  1.00  0.00    -0.000 C 
BRANCH  12  13
ATOM     13  C   UNL     1     231.510 234.211 234.777  1.00  0.00    -0.000 C 
BRANCH  13  14
ATOM     14  C   UNL     1     231.735 232.722 235.082  1.00  0.00    -0.000 C 
BRANCH  14  15
ATOM     15  C   UNL     1     230.815 231.804 234.261  1.00  0.00    -0.003 C 
ATOM     16  C   UNL     1     229.766 232.579 233.465  1.00  0.00     0.004 C 
ENDBRANCH  14  15
ENDBRANCH  13  14
ENDBRANCH  12  13
ENDBRANCH  11  12
ENDBRANCH  10  11
ENDBRANCH   9  10
ENDBRANCH   8   9
ENDBRANCH   7   8
ENDBRANCH   6   7
ENDBRANCH   5   6
ENDBRANCH   4   5
ENDBRANCH   3   4
ENDBRANCH   2   3
ENDBRANCH   1   2
BRANCH   1  17
ATOM     17  C   UNL     1     234.565 233.918 232.782  1.00  0.00     0.000 C 
BRANCH  17  18
ATOM     18  C   UNL     1     233.759 232.867 231.998  1.00  0.00     0.000 C 
BRANCH  18  19
ATOM     19  C   UNL     1     234.392 231.460 232.057  1.00  0.00     0.000 C 
BRANCH  19  20
ATOM     20  C   UNL     1     235.901 231.455 232.380  1.00  0.00     0.000 C 
BRANCH  20  21
ATOM     21  C   UNL     1     236.285 230.848 233.740  1.00  0.00     0.000 C 
BRANCH  21  22
ATOM     22  C   UNL     1     235.130 230.881 234.759  1.00  0.00     0.000 C 
BRANCH  22  23
ATOM     23  C   UNL     1     235.371 231.882 235.902  1.00  0.00     0.000 C 
BRANCH  23  24
ATOM     24  C   UNL     1     236.819 232.397 235.935  1.00  0.00     0.000 C 
BRANCH  24  25
ATOM     25  C   UNL     1     236.911 233.899 236.252  1.00  0.00     0.000 C 
BRANCH  25  26
ATOM     26  C   UNL     1     237.204 234.808 235.039  1.00  0.00     0.000 C 
BRANCH  26  27
ATOM     27  C   UNL     1     238.217 235.935 235.329  1.00  0.00     0.002 C 
BRANCH  27  28
ATOM     28  C   UNL     1     239.436 235.876 234.393  1.00  0.00     0.028 C 
BRANCH  28  29
ATOM     29  C   UNL     1     240.308 237.127 234.514  1.00  0.00     0.156 C 
BRANCH  29  30
ATOM     30  O   UNL     1     239.681 238.216 233.894  1.00  0.00    -0.396 OA
ATOM     31  H   UNL     1     239.018 237.829 233.263  1.00  0.00     0.210 HD
ENDBRANCH  29  30
ENDBRANCH  28  29
ENDBRANCH  27  28
ENDBRANCH  26  27
ENDBRANCH  25  26
ENDBRANCH  24  25
ENDBRANCH  23  24
ENDBRANCH  22  23
ENDBRANCH  21  22
ENDBRANCH  20  21
ENDBRANCH  19  20
ENDBRANCH  18  19
ENDBRANCH  17  18
ENDBRANCH   1  17
TORSDOF 28
ENDMDL
MODEL 5
REMARK VINA RESULT:    -2.820      5.092      8.312
REMARK INTER + INTRA:         -12.421
REMARK INTER:                  -7.258
REMARK INTRA:                  -5.164
REMARK UNBOUND:                -5.069
REMARK SMILES CCCCCCCCCCCCCCCCCCCCCCCCCCCCCO
REMARK SMILES IDX 16 1 15 2 14 3 13 4 12 5 11 6 10 7 9 8 8 9 7 10 6 11 5 12
REMARK SMILES IDX 4 13 3 14 2 15 1 16 17 17 18 18 19 19 20 20 21 21 22 22
REMARK SMILES IDX 23 23 24 24 25 25 26 26 27 27 28 28 29 29 30 30
REMARK H PARENT 30 31
REMARK Flexibility Score: inf
ROOT
ATOM      1  C   UNL     1     234.638 230.711 236.820  1.00  0.00     0.000 C 
ENDROOT
BRANCH   1   2
ATOM      2  C   UNL     1     233.260 231.111 236.252  1.00  0.00     0.000 C 
BRANCH   2   3
ATOM      3  C   UNL     1     233.300 231.951 234.959  1.00  0.00     0.000 C 
BRANCH   3   4
ATOM      4  C   UNL     1     232.789 233.399 235.100  1.00  0.00     0.000 C 
BRANCH   4   5
ATOM      5  C   UNL     1     232.071 233.953 233.852  1.00  0.00     0.000 C 
BRANCH   5   6
ATOM      6  C   UNL     1     232.018 232.986 232.653  1.00  0.00     0.000 C 
BRANCH   6   7
ATOM      7  C   UNL     1     230.605 232.508 232.254  1.00  0.00     0.000 C 
BRANCH   7   8
ATOM      8  C   UNL     1     229.923 231.569 233.268  1.00  0.00    -0.000 C 
BRANCH   8   9
ATOM      9  C   UNL     1     228.608 232.147 233.819  1.00  0.00    -0.000 C 
BRANCH   9  10
ATOM     10  C   UNL     1     228.706 232.527 235.305  1.00  0.00    -0.000 C 
BRANCH  10  11
ATOM     11  C   UNL     1     229.614 231.578 236.110  1.00  0.00    -0.000 C 
BRANCH  11  12
ATOM     12  C   UNL     1     228.892 230.273 236.505  1.00  0.00    -0.000 C 
BRANCH  12  13
ATOM     13  C   UNL     1     229.670 228.995 236.143  1.00  0.00    -0.000 C 
BRANCH  13  14
ATOM     14  C   UNL     1     229.704 227.968 237.285  1.00  0.00    -0.000 C 
BRANCH  14  15
ATOM     15  C   UNL     1     231.132 227.677 237.777  1.00  0.00    -0.003 C 
ATOM     16  C   UNL     1     231.710 228.814 238.618  1.00  0.00     0.004 C 
ENDBRANCH  14  15
ENDBRANCH  13  14
ENDBRANCH  12  13
ENDBRANCH  11  12
ENDBRANCH  10  11
ENDBRANCH   9  10
ENDBRANCH   8   9
ENDBRANCH   7   8
ENDBRANCH   6   7
ENDBRANCH   5   6
ENDBRANCH   4   5
ENDBRANCH   3   4
ENDBRANCH   2   3
ENDBRANCH   1   2
BRANCH   1  17
ATOM     17  C   UNL     1     234.977 229.213 236.692  1.00  0.00     0.000 C 
BRANCH  17  18
ATOM     18  C   UNL     1     235.624 228.874 235.337  1.00  0.00     0.000 C 
BRANCH  18  19
ATOM     19  C   UNL     1     236.806 229.803 234.988  1.00  0.00     0.000 C 
BRANCH  19  20
ATOM     20  C   UNL     1     236.972 230.080 233.478  1.00  0.00     0.000 C 
BRANCH  20  21
ATOM     21  C   UNL     1     235.684 229.993 232.643  1.00  0.00     0.000 C 
BRANCH  21  22
ATOM     22  C   UNL     1     235.296 231.338 231.998  1.00  0.00     0.000 C 
BRANCH  22  23
ATOM     23  C   UNL     1     236.292 232.464 232.322  1.00  0.00     0.000 C 
BRANCH  23  24
ATOM     24  C   UNL     1     235.590 233.801 232.614  1.00  0.00     0.000 C 
BRANCH  24  25
ATOM     25  C   UNL     1     236.184 234.533 233.830  1.00  0.00     0.000 C 
BRANCH  25  26
ATOM     26  C   UNL     1     236.571 233.625 235.017  1.00  0.00     0.000 C 
BRANCH  26  27
ATOM     27  C   UNL     1     237.596 234.255 235.982  1.00  0.00     0.002 C 
BRANCH  27  28
ATOM     28  C   UNL     1     238.228 235.534 235.406  1.00  0.00     0.028 C 
BRANCH  28  29
ATOM     29  C   UNL     1     239.746 235.552 235.591  1.00  0.00     0.156 C 
BRANCH  29  30
ATOM     30  O   UNL     1     240.167 236.819 236.015  1.00  0.00    -0.396 OA
ATOM     31  H   UNL     1     241.131 236.729 236.240  1.00  0.00     0.210 HD
ENDBRANCH  29  30
ENDBRANCH  28  29
ENDBRANCH  27  28
ENDBRANCH  26  27
ENDBRANCH  25  26
ENDBRANCH  24  25
ENDBRANCH  23  24
ENDBRANCH  22  23
ENDBRANCH  21  22
ENDBRANCH  20  21
ENDBRANCH  19  20
ENDBRANCH  18  19
ENDBRANCH  17  18
ENDBRANCH   1  17
TORSDOF 28
ENDMDL
MODEL 6
REMARK VINA RESULT:    -2.802      2.932      5.251
REMARK INTER + INTRA:         -12.376
REMARK INTER:                  -7.851
REMARK INTRA:                  -4.525
REMARK UNBOUND:                -5.069
REMARK SMILES CCCCCCCCCCCCCCCCCCCCCCCCCCCCCO
REMARK SMILES IDX 16 1 15 2 14 3 13 4 12 5 11 6 10 7 9 8 8 9 7 10 6 11 5 12
REMARK SMILES IDX 4 13 3 14 2 15 1 16 17 17 18 18 19 19 20 20 21 21 22 22
REMARK SMILES IDX 23 23 24 24 25 25 26 26 27 27 28 28 29 29 30 30
REMARK H PARENT 30 31
REMARK Flexibility Score: inf
ROOT
ATOM      1  C   UNL     1     235.710 232.480 233.325  1.00  0.00     0.000 C 
ENDROOT
BRANCH   1   2
ATOM      2  C   UNL     1     236.273 233.357 232.186  1.00  0.00     0.000 C 
BRANCH   2   3
ATOM      3  C   UNL     1     235.534 234.691 231.957  1.00  0.00     0.000 C 
BRANCH   3   4
ATOM      4  C   UNL     1     236.004 235.862 232.843  1.00  0.00     0.000 C 
BRANCH   4   5
ATOM      5  C   UNL     1     237.438 236.353 232.555  1.00  0.00     0.000 C 
BRANCH   5   6
ATOM      6  C   UNL     1     238.538 235.661 233.384  1.00  0.00     0.000 C 
BRANCH   6   7
ATOM      7  C   UNL     1     238.422 235.841 234.913  1.00  0.00     0.000 C 
BRANCH   7   8
ATOM      8  C   UNL     1     238.293 237.300 235.391  1.00  0.00    -0.000 C 
BRANCH   8   9
ATOM      9  C   UNL     1     237.219 237.475 236.479  1.00  0.00    -0.000 C 
BRANCH   9  10
ATOM     10  C   UNL     1     236.438 236.180 236.753  1.00  0.00    -0.000 C 
BRANCH  10  11
ATOM     11  C   UNL     1     234.911 236.379 236.712  1.00  0.00    -0.000 C 
BRANCH  11  12
ATOM     12  C   UNL     1     234.438 237.001 235.381  1.00  0.00    -0.000 C 
BRANCH  12  13
ATOM     13  C   UNL     1     233.347 238.075 235.547  1.00  0.00    -0.000 C 
BRANCH  13  14
ATOM     14  C   UNL     1     232.131 237.843 234.638  1.00  0.00    -0.000 C 
BRANCH  14  15
ATOM     15  C   UNL     1     232.153 238.729 233.382  1.00  0.00    -0.003 C 
ATOM     16  C   UNL     1     232.891 238.079 232.213  1.00  0.00     0.004 C 
ENDBRANCH  14  15
ENDBRANCH  13  14
ENDBRANCH  12  13
ENDBRANCH  11  12
ENDBRANCH  10  11
ENDBRANCH   9  10
ENDBRANCH   8   9
ENDBRANCH   7   8
ENDBRANCH   6   7
ENDBRANCH   5   6
ENDBRANCH   4   5
ENDBRANCH   3   4
ENDBRANCH   2   3
ENDBRANCH   1   2
BRANCH   1  17
ATOM     17  C   UNL     1     236.164 232.892 234.739  1.00  0.00     0.000 C 
BRANCH  17  18
ATOM     18  C   UNL     1     235.022 232.806 235.768  1.00  0.00     0.000 C 
BRANCH  18  19
ATOM     19  C   UNL     1     233.793 232.040 235.237  1.00  0.00     0.000 C 
BRANCH  19  20
ATOM     20  C   UNL     1     232.483 232.857 235.243  1.00  0.00     0.000 C 
BRANCH  20  21
ATOM     21  C   UNL     1     232.561 234.239 234.574  1.00  0.00     0.000 C 
BRANCH  21  22
ATOM     22  C   UNL     1     232.049 234.230 233.120  1.00  0.00     0.000 C 
BRANCH  22  23
ATOM     23  C   UNL     1     231.755 232.813 232.600  1.00  0.00     0.000 C 
BRANCH  23  24
ATOM     24  C   UNL     1     230.254 232.572 232.370  1.00  0.00     0.000 C 
BRANCH  24  25
ATOM     25  C   UNL     1     229.652 231.565 233.365  1.00  0.00     0.000 C 
BRANCH  25  26
ATOM     26  C   UNL     1     228.713 232.175 234.427  1.00  0.00     0.000 C 
BRANCH  26  27
ATOM     27  C   UNL     1     227.221 232.151 234.035  1.00  0.00     0.002 C 
BRANCH  27  28
ATOM     28  C   UNL     1     226.466 230.981 234.688  1.00  0.00     0.028 C 
BRANCH  28  29
ATOM     29  C   UNL     1     226.300 229.803 233.727  1.00  0.00     0.156 C 
BRANCH  29  30
ATOM     30  O   UNL     1     227.208 228.786 234.046  1.00  0.00    -0.396 OA
ATOM     31  H   UNL     1     226.857 227.959 233.621  1.00  0.00     0.210 HD
ENDBRANCH  29  30
ENDBRANCH  28  29
ENDBRANCH  27  28
ENDBRANCH  26  27
ENDBRANCH  25  26
ENDBRANCH  24  25
ENDBRANCH  23  24
ENDBRANCH  22  23
ENDBRANCH  21  22
ENDBRANCH  20  21
ENDBRANCH  19  20
ENDBRANCH  18  19
ENDBRANCH  17  18
ENDBRANCH   1  17
TORSDOF 28
ENDMDL
MODEL 7
REMARK VINA RESULT:    -2.792      3.737      7.530
REMARK INTER + INTRA:         -12.350
REMARK INTER:                  -6.919
REMARK INTRA:                  -5.431
REMARK UNBOUND:                -5.069
REMARK SMILES CCCCCCCCCCCCCCCCCCCCCCCCCCCCCO
REMARK SMILES IDX 16 1 15 2 14 3 13 4 12 5 11 6 10 7 9 8 8 9 7 10 6 11 5 12
REMARK SMILES IDX 4 13 3 14 2 15 1 16 17 17 18 18 19 19 20 20 21 21 22 22
REMARK SMILES IDX 23 23 24 24 25 25 26 26 27 27 28 28 29 29 30 30
REMARK H PARENT 30 31
REMARK Flexibility Score: inf
ROOT
ATOM      1  C   UNL     1     236.738 230.302 235.420  1.00  0.00     0.000 C 
ENDROOT
BRANCH   1   2
ATOM      2  C   UNL     1     237.076 229.727 234.028  1.00  0.00     0.000 C 
BRANCH   2   3
ATOM      3  C   UNL     1     235.886 229.109 233.265  1.00  0.00     0.000 C 
BRANCH   3   4
ATOM      4  C   UNL     1     235.287 229.997 232.155  1.00  0.00     0.000 C 
BRANCH   4   5
ATOM      5  C   UNL     1     236.042 231.319 231.911  1.00  0.00     0.000 C 
BRANCH   5   6
ATOM      6  C   UNL     1     235.153 232.578 231.885  1.00  0.00     0.000 C 
BRANCH   6   7
ATOM      7  C   UNL     1     233.704 232.373 232.377  1.00  0.00     0.000 C 
BRANCH   7   8
ATOM      8  C   UNL     1     232.969 233.659 232.799  1.00  0.00    -0.000 C 
BRANCH   8   9
ATOM      9  C   UNL     1     231.440 233.535 232.680  1.00  0.00    -0.000 C 
BRANCH   9  10
ATOM     10  C   UNL     1     230.985 232.096 232.391  1.00  0.00    -0.000 C 
BRANCH  10  11
ATOM     11  C   UNL     1     230.153 231.487 233.536  1.00  0.00    -0.000 C 
BRANCH  11  12
ATOM     12  C   UNL     1     228.899 232.327 233.858  1.00  0.00    -0.000 C 
BRANCH  12  13
ATOM     13  C   UNL     1     228.343 232.100 235.276  1.00  0.00    -0.000 C 
BRANCH  13  14
ATOM     14  C   UNL     1     228.331 233.377 236.129  1.00  0.00    -0.000 C 
BRANCH  14  15
ATOM     15  C   UNL     1     227.894 233.116 237.580  1.00  0.00    -0.003 C 
ATOM     16  C   UNL     1     229.052 233.215 238.572  1.00  0.00     0.004 C 
ENDBRANCH  14  15
ENDBRANCH  13  14
ENDBRANCH  12  13
ENDBRANCH  11  12
ENDBRANCH  10  11
ENDBRANCH   9  10
ENDBRANCH   8   9
ENDBRANCH   7   8
ENDBRANCH   6   7
ENDBRANCH   5   6
ENDBRANCH   4   5
ENDBRANCH   3   4
ENDBRANCH   2   3
ENDBRANCH   1   2
BRANCH   1  17
ATOM     17  C   UNL     1     236.632 231.839 235.472  1.00  0.00     0.000 C 
BRANCH  17  18
ATOM     18  C   UNL     1     235.214 232.316 235.835  1.00  0.00     0.000 C 
BRANCH  18  19
ATOM     19  C   UNL     1     234.179 231.171 235.839  1.00  0.00     0.000 C 
BRANCH  19  20
ATOM     20  C   UNL     1     232.712 231.640 235.927  1.00  0.00     0.000 C 
BRANCH  20  21
ATOM     21  C   UNL     1     232.434 232.764 236.939  1.00  0.00     0.000 C 
BRANCH  21  22
ATOM     22  C   UNL     1     231.853 234.031 236.283  1.00  0.00     0.000 C 
BRANCH  22  23
ATOM     23  C   UNL     1     232.852 235.200 236.253  1.00  0.00     0.000 C 
BRANCH  23  24
ATOM     24  C   UNL     1     232.353 236.378 235.399  1.00  0.00     0.000 C 
BRANCH  24  25
ATOM     25  C   UNL     1     233.390 236.844 234.363  1.00  0.00     0.000 C 
BRANCH  25  26
ATOM     26  C   UNL     1     234.863 236.706 234.801  1.00  0.00     0.000 C 
BRANCH  26  27
ATOM     27  C   UNL     1     235.647 235.621 234.034  1.00  0.00     0.002 C 
BRANCH  27  28
ATOM     28  C   UNL     1     236.283 236.166 232.744  1.00  0.00     0.028 C 
BRANCH  28  29
ATOM     29  C   UNL     1     237.809 236.069 232.776  1.00  0.00     0.156 C 
BRANCH  29  30
ATOM     30  O   UNL     1     238.355 237.230 233.338  1.00  0.00    -0.396 OA
ATOM     31  H   UNL     1     239.270 236.986 233.640  1.00  0.00     0.210 HD
ENDBRANCH  29  30
ENDBRANCH  28  29
ENDBRANCH  27  28
ENDBRANCH  26  27
ENDBRANCH  25  26
ENDBRANCH  24  25
ENDBRANCH  23  24
ENDBRANCH  22  23
ENDBRANCH  21  22
ENDBRANCH  20  21
ENDBRANCH  19  20
ENDBRANCH  18  19
ENDBRANCH  17  18
ENDBRANCH   1  17
TORSDOF 28
ENDMDL
MODEL 8
REMARK VINA RESULT:    -2.754      3.992      7.809
REMARK INTER + INTRA:         -12.250
REMARK INTER:                  -7.415
REMARK INTRA:                  -4.835
REMARK UNBOUND:                -5.069
REMARK SMILES CCCCCCCCCCCCCCCCCCCCCCCCCCCCCO
REMARK SMILES IDX 16 1 15 2 14 3 13 4 12 5 11 6 10 7 9 8 8 9 7 10 6 11 5 12
REMARK SMILES IDX 4 13 3 14 2 15 1 16 17 17 18 18 19 19 20 20 21 21 22 22
REMARK SMILES IDX 23 23 24 24 25 25 26 26 27 27 28 28 29 29 30 30
REMARK H PARENT 30 31
REMARK Flexibility Score: inf
ROOT
ATOM      1  C   UNL     1     235.372 238.719 238.294  1.00  0.00     0.000 C 
ENDROOT
BRANCH   1   2
ATOM      2  C   UNL     1     236.247 239.964 238.041  1.00  0.00     0.000 C 
BRANCH   2   3
ATOM      3  C   UNL     1     237.412 239.760 237.051  1.00  0.00     0.000 C 
BRANCH   3   4
ATOM      4  C   UNL     1     238.819 239.993 237.637  1.00  0.00     0.000 C 
BRANCH   4   5
ATOM      5  C   UNL     1     239.957 240.002 236.595  1.00  0.00     0.000 C 
BRANCH   5   6
ATOM      6  C   UNL     1     239.609 239.334 235.250  1.00  0.00     0.000 C 
BRANCH   6   7
ATOM      7  C   UNL     1     240.670 238.352 234.708  1.00  0.00     0.000 C 
BRANCH   7   8
ATOM      8  C   UNL     1     241.180 237.314 235.727  1.00  0.00    -0.000 C 
BRANCH   8   9
ATOM      9  C   UNL     1     240.701 235.887 235.411  1.00  0.00    -0.000 C 
BRANCH   9  10
ATOM     10  C   UNL     1     239.873 235.274 236.552  1.00  0.00    -0.000 C 
BRANCH  10  11
ATOM     11  C   UNL     1     238.818 236.244 237.116  1.00  0.00    -0.000 C 
BRANCH  11  12
ATOM     12  C   UNL     1     237.392 235.898 236.638  1.00  0.00    -0.000 C 
BRANCH  12  13
ATOM     13  C   UNL     1     236.974 236.625 235.346  1.00  0.00    -0.000 C 
BRANCH  13  14
ATOM     14  C   UNL     1     237.130 235.757 234.089  1.00  0.00    -0.000 C 
BRANCH  14  15
ATOM     15  C   UNL     1     237.929 236.459 232.979  1.00  0.00    -0.003 C 
ATOM     16  C   UNL     1     238.861 235.508 232.230  1.00  0.00     0.004 C 
ENDBRANCH  14  15
ENDBRANCH  13  14
ENDBRANCH  12  13
ENDBRANCH  11  12
ENDBRANCH  10  11
ENDBRANCH   9  10
ENDBRANCH   8   9
ENDBRANCH   7   8
ENDBRANCH   6   7
ENDBRANCH   5   6
ENDBRANCH   4   5
ENDBRANCH   3   4
ENDBRANCH   2   3
ENDBRANCH   1   2
BRANCH   1  17
ATOM     17  C   UNL     1     234.299 238.456 237.220  1.00  0.00     0.000 C 
BRANCH  17  18
ATOM     18  C   UNL     1     233.615 239.751 236.746  1.00  0.00     0.000 C 
BRANCH  18  19
ATOM     19  C   UNL     1     232.173 239.895 237.275  1.00  0.00     0.000 C 
BRANCH  19  20
ATOM     20  C   UNL     1     231.087 239.860 236.179  1.00  0.00     0.000 C 
BRANCH  20  21
ATOM     21  C   UNL     1     231.171 238.676 235.201  1.00  0.00     0.000 C 
BRANCH  21  22
ATOM     22  C   UNL     1     231.363 239.120 233.738  1.00  0.00     0.000 C 
BRANCH  22  23
ATOM     23  C   UNL     1     232.163 238.104 232.906  1.00  0.00     0.000 C 
BRANCH  23  24
ATOM     24  C   UNL     1     233.357 237.522 233.681  1.00  0.00     0.000 C 
BRANCH  24  25
ATOM     25  C   UNL     1     233.332 235.985 233.749  1.00  0.00     0.000 C 
BRANCH  25  26
ATOM     26  C   UNL     1     233.858 235.265 232.490  1.00  0.00     0.000 C 
BRANCH  26  27
ATOM     27  C   UNL     1     232.860 234.260 231.877  1.00  0.00     0.002 C 
BRANCH  27  28
ATOM     28  C   UNL     1     231.451 234.400 232.479  1.00  0.00     0.028 C 
BRANCH  28  29
ATOM     29  C   UNL     1     230.588 233.169 232.201  1.00  0.00     0.156 C 
BRANCH  29  30
ATOM     30  O   UNL     1     231.391 232.025 232.114  1.00  0.00    -0.396 OA
ATOM     31  H   UNL     1     231.080 231.414 232.834  1.00  0.00     0.210 HD
ENDBRANCH  29  30
ENDBRANCH  28  29
ENDBRANCH  27  28
ENDBRANCH  26  27
ENDBRANCH  25  26
ENDBRANCH  24  25
ENDBRANCH  23  24
ENDBRANCH  22  23
ENDBRANCH  21  22
ENDBRANCH  20  21
ENDBRANCH  19  20
ENDBRANCH  18  19
ENDBRANCH  17  18
ENDBRANCH   1  17
TORSDOF 28
ENDMDL
MODEL 9
REMARK VINA RESULT:    -2.751      3.344      7.425
REMARK INTER + INTRA:         -12.242
REMARK INTER:                  -7.083
REMARK INTRA:                  -5.159
REMARK UNBOUND:                -5.069
REMARK SMILES CCCCCCCCCCCCCCCCCCCCCCCCCCCCCO
REMARK SMILES IDX 16 1 15 2 14 3 13 4 12 5 11 6 10 7 9 8 8 9 7 10 6 11 5 12
REMARK SMILES IDX 4 13 3 14 2 15 1 16 17 17 18 18 19 19 20 20 21 21 22 22
REMARK SMILES IDX 23 23 24 24 25 25 26 26 27 27 28 28 29 29 30 30
REMARK H PARENT 30 31
REMARK Flexibility Score: inf
ROOT
ATOM      1  C   UNL     1     238.838 240.239 236.916  1.00  0.00     0.000 C 
ENDROOT
BRANCH   1   2
ATOM      2  C   UNL     1     237.739 240.041 237.980  1.00  0.00     0.000 C 
BRANCH   2   3
ATOM      3  C   UNL     1     236.310 239.864 237.426  1.00  0.00     0.000 C 
BRANCH   3   4
ATOM      4  C   UNL     1     235.571 238.600 237.909  1.00  0.00     0.000 C 
BRANCH   4   5
ATOM      5  C   UNL     1     235.095 237.662 236.781  1.00  0.00     0.000 C 
BRANCH   5   6
ATOM      6  C   UNL     1     236.192 236.759 236.183  1.00  0.00     0.000 C 
BRANCH   6   7
ATOM      7  C   UNL     1     235.890 235.245 236.217  1.00  0.00     0.000 C 
BRANCH   7   8
ATOM      8  C   UNL     1     236.849 234.369 235.388  1.00  0.00    -0.000 C 
BRANCH   8   9
ATOM      9  C   UNL     1     236.125 233.225 234.657  1.00  0.00    -0.000 C 
BRANCH   9  10
ATOM     10  C   UNL     1     235.671 232.108 235.610  1.00  0.00    -0.000 C 
BRANCH  10  11
ATOM     11  C   UNL     1     234.408 231.375 235.118  1.00  0.00    -0.000 C 
BRANCH  11  12
ATOM     12  C   UNL     1     233.120 232.177 235.400  1.00  0.00    -0.000 C 
BRANCH  12  13
ATOM     13  C   UNL     1     232.352 232.589 234.131  1.00  0.00    -0.000 C 
BRANCH  13  14
ATOM     14  C   UNL     1     231.965 234.076 234.117  1.00  0.00    -0.000 C 
BRANCH  14  15
ATOM     15  C   UNL     1     232.434 234.822 235.377  1.00  0.00    -0.003 C 
ATOM     16  C   UNL     1     231.272 235.364 236.208  1.00  0.00     0.004 C 
ENDBRANCH  14  15
ENDBRANCH  13  14
ENDBRANCH  12  13
ENDBRANCH  11  12
ENDBRANCH  10  11
ENDBRANCH   9  10
ENDBRANCH   8   9
ENDBRANCH   7   8
ENDBRANCH   6   7
ENDBRANCH   5   6
ENDBRANCH   4   5
ENDBRANCH   3   4
ENDBRANCH   2   3
ENDBRANCH   1   2
BRANCH   1  17
ATOM     17  C   UNL     1     238.946 239.101 235.882  1.00  0.00     0.000 C 
BRANCH  17  18
ATOM     18  C   UNL     1     239.785 237.919 236.398  1.00  0.00     0.000 C 
BRANCH  18  19
ATOM     19  C   UNL     1     239.778 236.713 235.436  1.00  0.00     0.000 C 
BRANCH  19  20
ATOM     20  C   UNL     1     239.280 237.039 234.012  1.00  0.00     0.000 C 
BRANCH  20  21
ATOM     21  C   UNL     1     239.440 235.911 232.979  1.00  0.00     0.000 C 
BRANCH  21  22
ATOM     22  C   UNL     1     238.154 235.650 232.172  1.00  0.00     0.000 C 
BRANCH  22  23
ATOM     23  C   UNL     1     237.002 236.590 232.566  1.00  0.00     0.000 C 
BRANCH  23  24
ATOM     24  C   UNL     1     235.628 236.045 232.140  1.00  0.00     0.000 C 
BRANCH  24  25
ATOM     25  C   UNL     1     234.472 236.628 232.971  1.00  0.00     0.000 C 
BRANCH  25  26
ATOM     26  C   UNL     1     233.195 236.963 232.172  1.00  0.00     0.000 C 
BRANCH  26  27
ATOM     27  C   UNL     1     232.473 238.241 232.647  1.00  0.00     0.002 C 
BRANCH  27  28
ATOM     28  C   UNL     1     232.421 238.344 234.181  1.00  0.00     0.028 C 
BRANCH  28  29
ATOM     29  C   UNL     1     231.065 238.852 234.672  1.00  0.00     0.156 C 
BRANCH  29  30
ATOM     30  O   UNL     1     230.580 239.846 233.812  1.00  0.00    -0.396 OA
ATOM     31  H   UNL     1     229.594 239.726 233.781  1.00  0.00     0.210 HD
ENDBRANCH  29  30
ENDBRANCH  28  29
ENDBRANCH  27  28
ENDBRANCH  26  27
ENDBRANCH  25  26
ENDBRANCH  24  25
ENDBRANCH  23  24
ENDBRANCH  22  23
ENDBRANCH  21  22
ENDBRANCH  20  21
ENDBRANCH  19  20
ENDBRANCH  18  19
ENDBRANCH  17  18
ENDBRANCH   1  17
TORSDOF 28
ENDMDL
