MODEL 1
REMARK VINA RESULT:    -3.004      0.000      0.000
REMARK INTER + INTRA:          -3.384
REMARK INTER:                  -3.267
REMARK INTRA:                  -0.117
REMARK UNBOUND:                -0.117
REMARK SMILES CC1=CC[C@@](O)(C(C)C)CC1
REMARK SMILES IDX 1 1 2 2 3 3 4 4 5 5 10 6 11 7 7 8 8 9 9 10 6 11
REMARK H PARENT 6 12
REMARK Flexibility Score: inf
ROOT
ATOM      1  C   UNL     1     -32.766  35.107 -11.975  1.00  0.00     0.039 C 
ATOM      2  C   UNL     1     -34.263  34.975 -11.999  1.00  0.00    -0.077 C 
ATOM      3  C   UNL     1     -35.035  36.068 -11.930  1.00  0.00    -0.025 C 
ATOM      4  C   UNL     1     -36.530  35.919 -11.852  1.00  0.00     0.062 C 
ATOM      5  C   UNL     1     -36.895  34.818 -10.820  1.00  0.00     0.071 C 
ATOM      6  C   UNL     1     -36.174  33.475 -11.224  1.00  0.00     0.040 C 
ATOM      7  C   UNL     1     -34.923  33.623 -12.125  1.00  0.00     0.033 C 
ENDROOT
BRANCH   5   8
ATOM      8  C   UNL     1     -38.457  34.614 -10.770  1.00  0.00     0.015 C 
ATOM      9  C   UNL     1     -39.125  35.370  -9.604  1.00  0.00     0.010 C 
ATOM     10  C   UNL     1     -38.869  33.128 -10.695  1.00  0.00     0.010 C 
ENDBRANCH   5   8
BRANCH   5  11
ATOM     11  O   UNL     1     -36.427  35.262  -9.563  1.00  0.00    -0.389 OA
ATOM     12  H   UNL     1     -36.107  36.195  -9.652  1.00  0.00     0.211 HD
ENDBRANCH   5  11
TORSDOF 2
ENDMDL
