MODEL 1
REMARK VINA RESULT:    -5.736      0.000      0.000
REMARK INTER + INTRA:          -8.639
REMARK INTER:                  -7.748
REMARK INTRA:                  -0.891
REMARK UNBOUND:                -0.891
REMARK SMILES CC(=O)CCC=C(C)CCC=C(C)C
REMARK SMILES IDX 7 1 6 2 8 3 9 4 10 5 11 6 13 7 12 8 14 9 5 10 4 11 2 12 3 13
REMARK SMILES IDX 1 14
REMARK H PARENT
REMARK Flexibility Score: inf
ROOT
ATOM      1  C   UNL     1     -12.887 -19.698  29.481  1.00  0.00    -0.077 C 
ATOM      2  C   UNL     1     -12.044 -18.733  29.049  1.00  0.00    -0.028 C 
ATOM      3  C   UNL     1     -13.986 -20.251  28.606  1.00  0.00     0.039 C 
ENDROOT
BRANCH   1   4
ATOM      4  C   UNL     1     -12.725 -20.251  30.883  1.00  0.00     0.034 C 
BRANCH   4   5
ATOM      5  C   UNL     1     -12.299 -19.164  31.879  1.00  0.00     0.032 C 
BRANCH   5   6
ATOM      6  C   UNL     1     -13.323 -18.061  31.991  1.00  0.00    -0.028 C 
ATOM      7  C   UNL     1     -11.624 -16.298  32.522  1.00  0.00     0.039 C 
ATOM      8  C   UNL     1     -13.041 -16.779  32.312  1.00  0.00    -0.080 C 
ATOM      9  C   UNL     1     -14.183 -15.804  32.441  1.00  0.00     0.039 C 
ENDBRANCH   5   6
ENDBRANCH   4   5
ENDBRANCH   1   4
BRANCH   2  10
ATOM     10  C   UNL     1     -12.088 -18.108  27.675  1.00  0.00     0.035 C 
BRANCH  10  11
ATOM     11  C   UNL     1     -11.175 -16.880  27.569  1.00  0.00     0.079 C 
BRANCH  11  12
ATOM     12  C   UNL     1     -11.494 -15.841  28.613  1.00  0.00     0.130 C 
ATOM     13  O   UNL     1     -10.602 -15.402  29.322  1.00  0.00    -0.300 OA
ATOM     14  C   UNL     1     -12.893 -15.333  28.801  1.00  0.00     0.087 C 
ENDBRANCH  11  12
ENDBRANCH  10  11
ENDBRANCH   2  10
TORSDOF 6
ENDMDL
MODEL 2
REMARK VINA RESULT:    -5.696      1.622      3.423
REMARK INTER + INTRA:          -8.584
REMARK INTER:                  -7.635
REMARK INTRA:                  -0.949
REMARK UNBOUND:                -0.891
REMARK SMILES CC(=O)CCC=C(C)CCC=C(C)C
REMARK SMILES IDX 7 1 6 2 8 3 9 4 10 5 11 6 13 7 12 8 14 9 5 10 4 11 2 12 3 13
REMARK SMILES IDX 1 14
REMARK H PARENT
REMARK Flexibility Score: inf
ROOT
ATOM      1  C   UNL     1     -12.789 -15.539  30.071  1.00  0.00    -0.077 C 
ATOM      2  C   UNL     1     -11.473 -15.843  30.158  1.00  0.00    -0.028 C 
ATOM      3  C   UNL     1     -13.429 -15.118  28.771  1.00  0.00     0.039 C 
ENDROOT
BRANCH   1   4
ATOM      4  C   UNL     1     -13.653 -15.628  31.314  1.00  0.00     0.034 C 
BRANCH   4   5
ATOM      5  C   UNL     1     -13.089 -16.629  32.331  1.00  0.00     0.032 C 
BRANCH   5   6
ATOM      6  C   UNL     1     -13.275 -18.059  31.884  1.00  0.00    -0.028 C 
ATOM      7  C   UNL     1     -10.838 -18.614  32.058  1.00  0.00     0.039 C 
ATOM      8  C   UNL     1     -12.272 -18.951  31.724  1.00  0.00    -0.080 C 
ATOM      9  C   UNL     1     -12.612 -20.328  31.215  1.00  0.00     0.039 C 
ENDBRANCH   5   6
ENDBRANCH   4   5
ENDBRANCH   1   4
BRANCH   2  10
ATOM     10  C   UNL     1     -10.508 -15.808  28.997  1.00  0.00     0.035 C 
BRANCH  10  11
ATOM     11  C   UNL     1     -10.208 -17.211  28.453  1.00  0.00     0.079 C 
BRANCH  11  12
ATOM     12  C   UNL     1     -11.268 -17.689  27.496  1.00  0.00     0.130 C 
ATOM     13  O   UNL     1     -12.177 -18.396  27.904  1.00  0.00    -0.300 OA
ATOM     14  C   UNL     1     -11.229 -17.316  26.043  1.00  0.00     0.087 C 
ENDBRANCH  11  12
ENDBRANCH  10  11
ENDBRANCH   2  10
TORSDOF 6
ENDMDL
MODEL 3
REMARK VINA RESULT:    -5.663      1.953      3.938
REMARK INTER + INTRA:          -8.540
REMARK INTER:                  -7.943
REMARK INTRA:                  -0.597
REMARK UNBOUND:                -0.891
REMARK SMILES CC(=O)CCC=C(C)CCC=C(C)C
REMARK SMILES IDX 7 1 6 2 8 3 9 4 10 5 11 6 13 7 12 8 14 9 5 10 4 11 2 12 3 13
REMARK SMILES IDX 1 14
REMARK H PARENT
REMARK Flexibility Score: inf
ROOT
ATOM      1  C   UNL     1     -12.732 -17.242  27.702  1.00  0.00    -0.077 C 
ATOM      2  C   UNL     1     -13.433 -18.202  28.349  1.00  0.00    -0.028 C 
ATOM      3  C   UNL     1     -11.349 -17.494  27.153  1.00  0.00     0.039 C 
ENDROOT
BRANCH   1   4
ATOM      4  C   UNL     1     -13.352 -15.872  27.515  1.00  0.00     0.034 C 
BRANCH   4   5
ATOM      5  C   UNL     1     -13.211 -15.005  28.774  1.00  0.00     0.032 C 
BRANCH   5   6
ATOM      6  C   UNL     1     -12.896 -15.828  30.000  1.00  0.00    -0.028 C 
ATOM      7  C   UNL     1     -14.567 -14.642  31.441  1.00  0.00     0.039 C 
ATOM      8  C   UNL     1     -13.469 -15.654  31.211  1.00  0.00    -0.080 C 
ATOM      9  C   UNL     1     -13.006 -16.520  32.354  1.00  0.00     0.039 C 
ENDBRANCH   5   6
ENDBRANCH   4   5
ENDBRANCH   1   4
BRANCH   2  10
ATOM     10  C   UNL     1     -12.938 -19.608  28.590  1.00  0.00     0.035 C 
BRANCH  10  11
ATOM     11  C   UNL     1     -13.271 -20.103  30.004  1.00  0.00     0.079 C 
BRANCH  11  12
ATOM     12  C   UNL     1     -12.120 -19.917  30.958  1.00  0.00     0.130 C 
ATOM     13  O   UNL     1     -12.163 -20.429  32.066  1.00  0.00    -0.300 OA
ATOM     14  C   UNL     1     -10.916 -19.108  30.575  1.00  0.00     0.087 C 
ENDBRANCH  11  12
ENDBRANCH  10  11
ENDBRANCH   2  10
TORSDOF 6
ENDMDL
MODEL 4
REMARK VINA RESULT:    -5.507      1.675      2.623
REMARK INTER + INTRA:          -8.330
REMARK INTER:                  -7.200
REMARK INTRA:                  -1.129
REMARK UNBOUND:                -0.891
REMARK SMILES CC(=O)CCC=C(C)CCC=C(C)C
REMARK SMILES IDX 7 1 6 2 8 3 9 4 10 5 11 6 13 7 12 8 14 9 5 10 4 11 2 12 3 13
REMARK SMILES IDX 1 14
REMARK H PARENT
REMARK Flexibility Score: inf
ROOT
ATOM      1  C   UNL     1     -11.738 -18.481  31.226  1.00  0.00    -0.077 C 
ATOM      2  C   UNL     1     -11.477 -18.185  29.932  1.00  0.00    -0.028 C 
ATOM      3  C   UNL     1     -12.722 -19.557  31.617  1.00  0.00     0.039 C 
ENDROOT
BRANCH   1   4
ATOM      4  C   UNL     1     -11.020 -17.717  32.320  1.00  0.00     0.034 C 
BRANCH   4   5
ATOM      5  C   UNL     1     -11.288 -16.209  32.234  1.00  0.00     0.032 C 
BRANCH   5   6
ATOM      6  C   UNL     1     -12.642 -15.839  32.792  1.00  0.00    -0.028 C 
ATOM      7  C   UNL     1     -13.623 -15.326  30.545  1.00  0.00     0.039 C 
ATOM      8  C   UNL     1     -13.687 -15.408  32.052  1.00  0.00    -0.080 C 
ATOM      9  C   UNL     1     -14.958 -15.022  32.763  1.00  0.00     0.039 C 
ENDBRANCH   5   6
ENDBRANCH   4   5
ENDBRANCH   1   4
BRANCH   2  10
ATOM     10  C   UNL     1     -12.113 -18.877  28.749  1.00  0.00     0.035 C 
BRANCH  10  11
ATOM     11  C   UNL     1     -13.264 -18.058  28.151  1.00  0.00     0.079 C 
BRANCH  11  12
ATOM     12  C   UNL     1     -12.778 -17.029  27.164  1.00  0.00     0.130 C 
ATOM     13  O   UNL     1     -13.420 -16.005  26.993  1.00  0.00    -0.300 OA
ATOM     14  C   UNL     1     -11.515 -17.238  26.382  1.00  0.00     0.087 C 
ENDBRANCH  11  12
ENDBRANCH  10  11
ENDBRANCH   2  10
TORSDOF 6
ENDMDL
MODEL 5
REMARK VINA RESULT:    -5.463      1.692      3.764
REMARK INTER + INTRA:          -8.270
REMARK INTER:                  -6.999
REMARK INTRA:                  -1.271
REMARK UNBOUND:                -0.891
REMARK SMILES CC(=O)CCC=C(C)CCC=C(C)C
REMARK SMILES IDX 7 1 6 2 8 3 9 4 10 5 11 6 13 7 12 8 14 9 5 10 4 11 2 12 3 13
REMARK SMILES IDX 1 14
REMARK H PARENT
REMARK Flexibility Score: inf
ROOT
ATOM      1  C   UNL     1     -12.166 -19.171  30.496  1.00  0.00    -0.077 C 
ATOM      2  C   UNL     1     -10.929 -18.686  30.754  1.00  0.00    -0.028 C 
ATOM      3  C   UNL     1     -13.164 -19.440  31.596  1.00  0.00     0.039 C 
ENDROOT
BRANCH   1   4
ATOM      4  C   UNL     1     -12.568 -19.450  29.062  1.00  0.00     0.034 C 
BRANCH   4   5
ATOM      5  C   UNL     1     -12.049 -18.370  28.103  1.00  0.00     0.032 C 
BRANCH   5   6
ATOM      6  C   UNL     1     -12.908 -17.129  28.125  1.00  0.00    -0.028 C 
ATOM      7  C   UNL     1     -11.056 -15.648  28.933  1.00  0.00     0.039 C 
ATOM      8  C   UNL     1     -12.488 -15.909  28.527  1.00  0.00    -0.080 C 
ATOM      9  C   UNL     1     -13.483 -14.778  28.546  1.00  0.00     0.039 C 
ENDBRANCH   5   6
ENDBRANCH   4   5
ENDBRANCH   1   4
BRANCH   2  10
ATOM     10  C   UNL     1     -10.409 -18.355  32.132  1.00  0.00     0.035 C 
BRANCH  10  11
ATOM     11  C   UNL     1      -9.979 -16.887  32.249  1.00  0.00     0.079 C 
BRANCH  11  12
ATOM     12  C   UNL     1     -11.000 -16.050  32.976  1.00  0.00     0.130 C 
ATOM     13  O   UNL     1     -10.658 -15.380  33.938  1.00  0.00    -0.300 OA
ATOM     14  C   UNL     1     -12.435 -16.026  32.542  1.00  0.00     0.087 C 
ENDBRANCH  11  12
ENDBRANCH  10  11
ENDBRANCH   2  10
TORSDOF 6
ENDMDL
MODEL 6
REMARK VINA RESULT:    -5.411      2.133      4.414
REMARK INTER + INTRA:          -8.199
REMARK INTER:                  -7.263
REMARK INTRA:                  -0.937
REMARK UNBOUND:                -0.891
REMARK SMILES CC(=O)CCC=C(C)CCC=C(C)C
REMARK SMILES IDX 7 1 6 2 8 3 9 4 10 5 11 6 13 7 12 8 14 9 5 10 4 11 2 12 3 13
REMARK SMILES IDX 1 14
REMARK H PARENT
REMARK Flexibility Score: inf
ROOT
ATOM      1  C   UNL     1     -11.975 -18.568  30.643  1.00  0.00    -0.077 C 
ATOM      2  C   UNL     1     -12.117 -17.453  31.396  1.00  0.00    -0.028 C 
ATOM      3  C   UNL     1     -12.946 -19.721  30.730  1.00  0.00     0.039 C 
ENDROOT
BRANCH   1   4
ATOM      4  C   UNL     1     -10.811 -18.666  29.677  1.00  0.00     0.034 C 
BRANCH   4   5
ATOM      5  C   UNL     1     -10.642 -17.382  28.855  1.00  0.00     0.032 C 
BRANCH   5   6
ATOM      6  C   UNL     1     -11.618 -17.309  27.705  1.00  0.00    -0.028 C 
ATOM      7  C   UNL     1     -12.819 -15.311  28.621  1.00  0.00     0.039 C 
ATOM      8  C   UNL     1     -12.620 -16.409  27.603  1.00  0.00    -0.080 C 
ATOM      9  C   UNL     1     -13.548 -16.501  26.420  1.00  0.00     0.039 C 
ENDBRANCH   5   6
ENDBRANCH   4   5
ENDBRANCH   1   4
BRANCH   2  10
ATOM     10  C   UNL     1     -13.236 -17.223  32.385  1.00  0.00     0.035 C 
BRANCH  10  11
ATOM     11  C   UNL     1     -13.329 -15.755  32.820  1.00  0.00     0.079 C 
BRANCH  11  12
ATOM     12  C   UNL     1     -14.661 -15.142  32.475  1.00  0.00     0.130 C 
ATOM     13  O   UNL     1     -15.639 -15.398  33.159  1.00  0.00    -0.300 OA
ATOM     14  C   UNL     1     -14.811 -14.220  31.301  1.00  0.00     0.087 C 
ENDBRANCH  11  12
ENDBRANCH  10  11
ENDBRANCH   2  10
TORSDOF 6
ENDMDL
MODEL 7
REMARK VINA RESULT:    -5.382      1.349      4.521
REMARK INTER + INTRA:          -8.160
REMARK INTER:                  -7.733
REMARK INTRA:                  -0.427
REMARK UNBOUND:                -0.891
REMARK SMILES CC(=O)CCC=C(C)CCC=C(C)C
REMARK SMILES IDX 7 1 6 2 8 3 9 4 10 5 11 6 13 7 12 8 14 9 5 10 4 11 2 12 3 13
REMARK SMILES IDX 1 14
REMARK H PARENT
REMARK Flexibility Score: inf
ROOT
ATOM      1  C   UNL     1     -12.654 -16.801  32.381  1.00  0.00    -0.077 C 
ATOM      2  C   UNL     1     -13.088 -18.041  32.060  1.00  0.00    -0.028 C 
ATOM      3  C   UNL     1     -11.196 -16.505  32.637  1.00  0.00     0.039 C 
ENDROOT
BRANCH   1   4
ATOM      4  C   UNL     1     -13.656 -15.669  32.484  1.00  0.00     0.034 C 
BRANCH   4   5
ATOM      5  C   UNL     1     -14.003 -15.086  31.107  1.00  0.00     0.032 C 
BRANCH   5   6
ATOM      6  C   UNL     1     -13.172 -15.698  30.005  1.00  0.00    -0.028 C 
ATOM      7  C   UNL     1     -14.106 -14.198  28.229  1.00  0.00     0.039 C 
ATOM      8  C   UNL     1     -13.232 -15.335  28.705  1.00  0.00    -0.080 C 
ATOM      9  C   UNL     1     -12.378 -16.081  27.712  1.00  0.00     0.039 C 
ENDBRANCH   5   6
ENDBRANCH   4   5
ENDBRANCH   1   4
BRANCH   2  10
ATOM     10  C   UNL     1     -12.195 -19.251  31.913  1.00  0.00     0.035 C 
BRANCH  10  11
ATOM     11  C   UNL     1     -12.733 -20.242  30.872  1.00  0.00     0.079 C 
BRANCH  11  12
ATOM     12  C   UNL     1     -12.722 -19.667  29.479  1.00  0.00     0.130 C 
ATOM     13  O   UNL     1     -11.730 -19.083  29.074  1.00  0.00    -0.300 OA
ATOM     14  C   UNL     1     -13.914 -19.797  28.577  1.00  0.00     0.087 C 
ENDBRANCH  11  12
ENDBRANCH  10  11
ENDBRANCH   2  10
TORSDOF 6
ENDMDL
MODEL 8
REMARK VINA RESULT:    -5.346      2.129      3.651
REMARK INTER + INTRA:          -8.111
REMARK INTER:                  -6.933
REMARK INTRA:                  -1.178
REMARK UNBOUND:                -0.891
REMARK SMILES CC(=O)CCC=C(C)CCC=C(C)C
REMARK SMILES IDX 7 1 6 2 8 3 9 4 10 5 11 6 13 7 12 8 14 9 5 10 4 11 2 12 3 13
REMARK SMILES IDX 1 14
REMARK H PARENT
REMARK Flexibility Score: inf
ROOT
ATOM      1  C   UNL     1     -10.502 -17.156  30.663  1.00  0.00    -0.077 C 
ATOM      2  C   UNL     1     -11.338 -16.870  29.638  1.00  0.00    -0.028 C 
ATOM      3  C   UNL     1      -9.884 -18.523  30.833  1.00  0.00     0.039 C 
ENDROOT
BRANCH   1   4
ATOM      4  C   UNL     1     -10.168 -16.075  31.671  1.00  0.00     0.034 C 
BRANCH   4   5
ATOM      5  C   UNL     1     -10.949 -16.253  32.980  1.00  0.00     0.032 C 
BRANCH   5   6
ATOM      6  C   UNL     1     -12.189 -15.392  33.024  1.00  0.00    -0.028 C 
ATOM      7  C   UNL     1     -13.729 -17.272  32.416  1.00  0.00     0.039 C 
ATOM      8  C   UNL     1     -13.436 -15.826  32.740  1.00  0.00    -0.080 C 
ATOM      9  C   UNL     1     -14.566 -14.829  32.774  1.00  0.00     0.039 C 
ENDBRANCH   5   6
ENDBRANCH   4   5
ENDBRANCH   1   4
BRANCH   2  10
ATOM     10  C   UNL     1     -11.742 -17.850  28.562  1.00  0.00     0.035 C 
BRANCH  10  11
ATOM     11  C   UNL     1     -13.220 -18.248  28.669  1.00  0.00     0.079 C 
BRANCH  11  12
ATOM     12  C   UNL     1     -13.393 -19.691  29.065  1.00  0.00     0.130 C 
ATOM     13  O   UNL     1     -13.861 -20.486  28.265  1.00  0.00    -0.300 OA
ATOM     14  C   UNL     1     -13.004 -20.173  30.431  1.00  0.00     0.087 C 
ENDBRANCH  11  12
ENDBRANCH  10  11
ENDBRANCH   2  10
TORSDOF 6
ENDMDL
MODEL 9
REMARK VINA RESULT:    -5.314      2.121      3.360
REMARK INTER + INTRA:          -8.069
REMARK INTER:                  -7.014
REMARK INTRA:                  -1.055
REMARK UNBOUND:                -0.891
REMARK SMILES CC(=O)CCC=C(C)CCC=C(C)C
REMARK SMILES IDX 7 1 6 2 8 3 9 4 10 5 11 6 13 7 12 8 14 9 5 10 4 11 2 12 3 13
REMARK SMILES IDX 1 14
REMARK H PARENT
REMARK Flexibility Score: inf
ROOT
ATOM      1  C   UNL     1     -10.266 -16.362  30.519  1.00  0.00    -0.077 C 
ATOM      2  C   UNL     1     -10.873 -17.554  30.318  1.00  0.00    -0.028 C 
ATOM      3  C   UNL     1      -9.912 -15.442  29.376  1.00  0.00     0.039 C 
ENDROOT
BRANCH   1   4
ATOM      4  C   UNL     1      -9.935 -15.928  31.933  1.00  0.00     0.034 C 
BRANCH   4   5
ATOM      5  C   UNL     1     -10.989 -16.410  32.940  1.00  0.00     0.032 C 
BRANCH   5   6
ATOM      6  C   UNL     1     -12.187 -15.494  32.992  1.00  0.00    -0.028 C 
ATOM      7  C   UNL     1     -13.815 -17.301  32.389  1.00  0.00     0.039 C 
ATOM      8  C   UNL     1     -13.455 -15.870  32.714  1.00  0.00    -0.080 C 
ATOM      9  C   UNL     1     -14.538 -14.823  32.754  1.00  0.00     0.039 C 
ENDBRANCH   5   6
ENDBRANCH   4   5
ENDBRANCH   1   4
BRANCH   2  10
ATOM     10  C   UNL     1     -11.268 -18.097  28.965  1.00  0.00     0.035 C 
BRANCH  10  11
ATOM     11  C   UNL     1     -12.632 -17.565  28.505  1.00  0.00     0.079 C 
BRANCH  11  12
ATOM     12  C   UNL     1     -12.579 -16.993  27.112  1.00  0.00     0.130 C 
ATOM     13  O   UNL     1     -13.521 -16.339  26.692  1.00  0.00    -0.300 OA
ATOM     14  C   UNL     1     -11.389 -17.213  26.227  1.00  0.00     0.087 C 
ENDBRANCH  11  12
ENDBRANCH  10  11
ENDBRANCH   2  10
TORSDOF 6
ENDMDL
