MODEL 1
REMARK VINA RESULT:    -6.762      0.000      0.000
REMARK INTER + INTRA:          -8.872
REMARK INTER:                  -8.343
REMARK INTRA:                  -0.528
REMARK UNBOUND:                -0.528
REMARK SMILES CC(C)=CCC[C@@H](C)c1ccc(C)cc1
REMARK SMILES IDX 6 1 7 2 8 3 9 4 13 5 12 6 11 7 14 8 10 9 15 10 5 11 4 12
REMARK SMILES IDX 2 13 1 14 3 15
REMARK H PARENT
REMARK Flexibility Score: inf
ROOT
ATOM      1  C   UNL     1      96.458 100.302  98.591  1.00  0.00     0.012 C 
ENDROOT
BRANCH   1   2
ATOM      2  C   UNL     1      96.447 101.656  97.843  1.00  0.00     0.016 C 
ATOM      3  C   UNL     1      95.132 101.902  97.086  1.00  0.00     0.013 C 
BRANCH   2   4
ATOM      4  C   UNL     1      96.719 102.792  98.813  1.00  0.00    -0.045 A 
ATOM      5  C   UNL     1      97.519 106.032 101.556  1.00  0.00     0.044 C 
ATOM      6  C   UNL     1      97.255 104.887 100.624  1.00  0.00    -0.051 A 
ATOM      7  C   UNL     1      96.059 104.162 100.715  1.00  0.00     0.004 A 
ATOM      8  C   UNL     1      98.172 104.576  99.609  1.00  0.00     0.004 A 
ATOM      9  C   UNL     1      95.795 103.119  99.823  1.00  0.00     0.004 A 
ATOM     10  C   UNL     1      97.910 103.532  98.716  1.00  0.00     0.004 A 
ENDBRANCH   2   4
ENDBRANCH   1   2
BRANCH   1  11
ATOM     11  C   UNL     1      96.483  99.074  97.657  1.00  0.00     0.028 C 
BRANCH  11  12
ATOM     12  C   UNL     1      97.869  98.778  97.134  1.00  0.00    -0.028 C 
ATOM     13  C   UNL     1      98.129  98.057  96.020  1.00  0.00    -0.080 C 
ATOM     14  C   UNL     1      99.566  97.860  95.612  1.00  0.00     0.039 C 
ATOM     15  C   UNL     1      97.029  97.421  95.202  1.00  0.00     0.039 C 
ENDBRANCH  11  12
ENDBRANCH   1  11
TORSDOF 4
ENDMDL
MODEL 2
REMARK VINA RESULT:    -6.704      0.585      1.369
REMARK INTER + INTRA:          -8.800
REMARK INTER:                  -8.213
REMARK INTRA:                  -0.587
REMARK UNBOUND:                -0.528
REMARK SMILES CC(C)=CCC[C@@H](C)c1ccc(C)cc1
REMARK SMILES IDX 6 1 7 2 8 3 9 4 13 5 12 6 11 7 14 8 10 9 15 10 5 11 4 12
REMARK SMILES IDX 2 13 1 14 3 15
REMARK H PARENT
REMARK Flexibility Score: inf
ROOT
ATOM      1  C   UNL     1      96.234 100.212  98.441  1.00  0.00     0.012 C 
ENDROOT
BRANCH   1   2
ATOM      2  C   UNL     1      96.270 101.531  97.633  1.00  0.00     0.016 C 
ATOM      3  C   UNL     1      94.882 101.951  97.125  1.00  0.00     0.013 C 
BRANCH   2   4
ATOM      4  C   UNL     1      96.884 102.641  98.469  1.00  0.00    -0.045 A 
ATOM      5  C   UNL     1      98.610 105.789 100.871  1.00  0.00     0.044 C 
ATOM      6  C   UNL     1      97.992 104.717 100.023  1.00  0.00    -0.051 A 
ATOM      7  C   UNL     1      98.558 104.381  98.785  1.00  0.00     0.004 A 
ATOM      8  C   UNL     1      96.884 103.996 100.491  1.00  0.00     0.004 A 
ATOM      9  C   UNL     1      98.005 103.357  98.011  1.00  0.00     0.004 A 
ATOM     10  C   UNL     1      96.330 102.972  99.718  1.00  0.00     0.004 A 
ENDBRANCH   2   4
ENDBRANCH   1   2
BRANCH   1  11
ATOM     11  C   UNL     1      96.466  98.950  97.586  1.00  0.00     0.028 C 
BRANCH  11  12
ATOM     12  C   UNL     1      97.896  98.831  97.114  1.00  0.00    -0.028 C 
ATOM     13  C   UNL     1      98.286  98.139  96.019  1.00  0.00    -0.080 C 
ATOM     14  C   UNL     1      99.750  98.125  95.664  1.00  0.00     0.039 C 
ATOM     15  C   UNL     1      97.306  97.361  95.172  1.00  0.00     0.039 C 
ENDBRANCH  11  12
ENDBRANCH   1  11
TORSDOF 4
ENDMDL
MODEL 3
REMARK VINA RESULT:    -6.630      1.853      3.634
REMARK INTER + INTRA:          -8.708
REMARK INTER:                  -7.789
REMARK INTRA:                  -0.919
REMARK UNBOUND:                -0.528
REMARK SMILES CC(C)=CCC[C@@H](C)c1ccc(C)cc1
REMARK SMILES IDX 6 1 7 2 8 3 9 4 13 5 12 6 11 7 14 8 10 9 15 10 5 11 4 12
REMARK SMILES IDX 2 13 1 14 3 15
REMARK H PARENT
REMARK Flexibility Score: inf
ROOT
ATOM      1  C   UNL     1      97.138 101.533 101.617  1.00  0.00     0.012 C 
ENDROOT
BRANCH   1   2
ATOM      2  C   UNL     1      98.395 102.414 101.804  1.00  0.00     0.016 C 
ATOM      3  C   UNL     1      99.675 101.733 101.293  1.00  0.00     0.013 C 
BRANCH   2   4
ATOM      4  C   UNL     1      98.201 103.756 101.118  1.00  0.00    -0.045 A 
ATOM      5  C   UNL     1      97.632 107.581  99.195  1.00  0.00     0.044 C 
ATOM      6  C   UNL     1      97.805 106.241  99.847  1.00  0.00    -0.051 A 
ATOM      7  C   UNL     1      98.651 105.280  99.274  1.00  0.00     0.004 A 
ATOM      8  C   UNL     1      97.177 105.963 101.069  1.00  0.00     0.004 A 
ATOM      9  C   UNL     1      98.842 104.046  99.900  1.00  0.00     0.004 A 
ATOM     10  C   UNL     1      97.367 104.728 101.696  1.00  0.00     0.004 A 
ENDBRANCH   2   4
ENDBRANCH   1   2
BRANCH   1  11
ATOM     11  C   UNL     1      96.425 101.739 100.265  1.00  0.00     0.028 C 
BRANCH  11  12
ATOM     12  C   UNL     1      96.696 100.613  99.295  1.00  0.00    -0.028 C 
ATOM     13  C   UNL     1      96.969 100.783  97.981  1.00  0.00    -0.080 C 
ATOM     14  C   UNL     1      97.235  99.561  97.141  1.00  0.00     0.039 C 
ATOM     15  C   UNL     1      96.981 102.148  97.335  1.00  0.00     0.039 C 
ENDBRANCH  11  12
ENDBRANCH   1  11
TORSDOF 4
ENDMDL
MODEL 4
REMARK VINA RESULT:    -6.337      1.758      5.776
REMARK INTER + INTRA:          -8.347
REMARK INTER:                  -7.060
REMARK INTRA:                  -1.287
REMARK UNBOUND:                -0.528
REMARK SMILES CC(C)=CCC[C@@H](C)c1ccc(C)cc1
REMARK SMILES IDX 6 1 7 2 8 3 9 4 13 5 12 6 11 7 14 8 10 9 15 10 5 11 4 12
REMARK SMILES IDX 2 13 1 14 3 15
REMARK H PARENT
REMARK Flexibility Score: inf
ROOT
ATOM      1  C   UNL     1      95.904 102.336 102.539  1.00  0.00     0.012 C 
ENDROOT
BRANCH   1   2
ATOM      2  C   UNL     1      95.023 102.526 101.282  1.00  0.00     0.016 C 
ATOM      3  C   UNL     1      94.907 103.999 100.859  1.00  0.00     0.013 C 
BRANCH   2   4
ATOM      4  C   UNL     1      95.559 101.688 100.134  1.00  0.00    -0.045 A 
ATOM      5  C   UNL     1      97.100  99.332  96.858  1.00  0.00     0.044 C 
ATOM      6  C   UNL     1      96.538 100.154  97.980  1.00  0.00    -0.051 A 
ATOM      7  C   UNL     1      95.826  99.540  99.019  1.00  0.00     0.004 A 
ATOM      8  C   UNL     1      96.779 101.535  98.033  1.00  0.00     0.004 A 
ATOM      9  C   UNL     1      95.334 100.300 100.084  1.00  0.00     0.004 A 
ATOM     10  C   UNL     1      96.288 102.297  99.097  1.00  0.00     0.004 A 
ENDBRANCH   2   4
ENDBRANCH   1   2
BRANCH   1  11
ATOM     11  C   UNL     1      96.961 103.443 102.733  1.00  0.00     0.028 C 
BRANCH  11  12
ATOM     12  C   UNL     1      98.320 103.037 102.211  1.00  0.00    -0.028 C 
ATOM     13  C   UNL     1      99.020 103.727 101.282  1.00  0.00    -0.080 C 
ATOM     14  C   UNL     1     100.373 103.206 100.872  1.00  0.00     0.039 C 
ATOM     15  C   UNL     1      98.471 104.973 100.627  1.00  0.00     0.039 C 
ENDBRANCH  11  12
ENDBRANCH   1  11
TORSDOF 4
ENDMDL
MODEL 5
REMARK VINA RESULT:    -6.337      2.607      5.559
REMARK INTER + INTRA:          -8.347
REMARK INTER:                  -6.782
REMARK INTRA:                  -1.565
REMARK UNBOUND:                -0.528
REMARK SMILES CC(C)=CCC[C@@H](C)c1ccc(C)cc1
REMARK SMILES IDX 6 1 7 2 8 3 9 4 13 5 12 6 11 7 14 8 10 9 15 10 5 11 4 12
REMARK SMILES IDX 2 13 1 14 3 15
REMARK H PARENT
REMARK Flexibility Score: inf
ROOT
ATOM      1  C   UNL     1      98.807 102.156 102.037  1.00  0.00     0.012 C 
ENDROOT
BRANCH   1   2
ATOM      2  C   UNL     1      97.266 102.102 102.153  1.00  0.00     0.016 C 
ATOM      3  C   UNL     1      96.692 103.283 102.953  1.00  0.00     0.013 C 
BRANCH   2   4
ATOM      4  C   UNL     1      96.638 102.045 100.772  1.00  0.00    -0.045 A 
ATOM      5  C   UNL     1      94.875 101.861  96.832  1.00  0.00     0.044 C 
ATOM      6  C   UNL     1      95.503 101.951  98.192  1.00  0.00    -0.051 A 
ATOM      7  C   UNL     1      94.875 102.674  99.215  1.00  0.00     0.004 A 
ATOM      8  C   UNL     1      96.689 101.256  98.469  1.00  0.00     0.004 A 
ATOM      9  C   UNL     1      95.440 102.728 100.492  1.00  0.00     0.004 A 
ATOM     10  C   UNL     1      97.256 101.308  99.746  1.00  0.00     0.004 A 
ENDBRANCH   2   4
ENDBRANCH   1   2
BRANCH   1  11
ATOM     11  C   UNL     1      99.370 103.580 101.847  1.00  0.00     0.028 C 
BRANCH  11  12
ATOM     12  C   UNL     1      99.744 103.862 100.410  1.00  0.00    -0.028 C 
ATOM     13  C   UNL     1      99.068 104.702  99.594  1.00  0.00    -0.080 C 
ATOM     14  C   UNL     1      99.572 104.895  98.188  1.00  0.00     0.039 C 
ATOM     15  C   UNL     1      97.813 105.416 100.040  1.00  0.00     0.039 C 
ENDBRANCH  11  12
ENDBRANCH   1  11
TORSDOF 4
ENDMDL
MODEL 6
REMARK VINA RESULT:    -6.153      1.604      6.485
REMARK INTER + INTRA:          -8.120
REMARK INTER:                  -7.474
REMARK INTRA:                  -0.646
REMARK UNBOUND:                -0.528
REMARK SMILES CC(C)=CCC[C@@H](C)c1ccc(C)cc1
REMARK SMILES IDX 6 1 7 2 8 3 9 4 13 5 12 6 11 7 14 8 10 9 15 10 5 11 4 12
REMARK SMILES IDX 2 13 1 14 3 15
REMARK H PARENT
REMARK Flexibility Score: inf
ROOT
ATOM      1  C   UNL     1      97.373 102.483  97.863  1.00  0.00     0.012 C 
ENDROOT
BRANCH   1   2
ATOM      2  C   UNL     1      96.310 101.431  98.256  1.00  0.00     0.016 C 
ATOM      3  C   UNL     1      94.877 101.984  98.185  1.00  0.00     0.013 C 
BRANCH   2   4
ATOM      4  C   UNL     1      96.444 100.198  97.379  1.00  0.00    -0.045 A 
ATOM      5  C   UNL     1      96.793  96.694  94.878  1.00  0.00     0.044 C 
ATOM      6  C   UNL     1      96.668  97.892  95.772  1.00  0.00    -0.051 A 
ATOM      7  C   UNL     1      97.805  98.446  96.376  1.00  0.00     0.004 A 
ATOM      8  C   UNL     1      95.422  98.509  95.956  1.00  0.00     0.004 A 
ATOM      9  C   UNL     1      97.694  99.584  97.179  1.00  0.00     0.004 A 
ATOM     10  C   UNL     1      95.309  99.647  96.758  1.00  0.00     0.004 A 
ENDBRANCH   2   4
ENDBRANCH   1   2
BRANCH   1  11
ATOM     11  C   UNL     1      97.594 103.575  98.930  1.00  0.00     0.028 C 
BRANCH  11  12
ATOM     12  C   UNL     1      97.813 102.996 100.308  1.00  0.00    -0.028 C 
ATOM     13  C   UNL     1      98.961 103.112 101.013  1.00  0.00    -0.080 C 
ATOM     14  C   UNL     1      99.024 102.493 102.386  1.00  0.00     0.039 C 
ATOM     15  C   UNL     1     100.180 103.807 100.453  1.00  0.00     0.039 C 
ENDBRANCH  11  12
ENDBRANCH   1  11
TORSDOF 4
ENDMDL
MODEL 7
REMARK VINA RESULT:    -6.146      1.482      6.429
REMARK INTER + INTRA:          -8.111
REMARK INTER:                  -7.361
REMARK INTRA:                  -0.751
REMARK UNBOUND:                -0.528
REMARK SMILES CC(C)=CCC[C@@H](C)c1ccc(C)cc1
REMARK SMILES IDX 6 1 7 2 8 3 9 4 13 5 12 6 11 7 14 8 10 9 15 10 5 11 4 12
REMARK SMILES IDX 2 13 1 14 3 15
REMARK H PARENT
REMARK Flexibility Score: inf
ROOT
ATOM      1  C   UNL     1      95.728 102.457  99.264  1.00  0.00     0.012 C 
ENDROOT
BRANCH   1   2
ATOM      2  C   UNL     1      95.890 101.775  97.884  1.00  0.00     0.016 C 
ATOM      3  C   UNL     1      97.134 102.265  97.126  1.00  0.00     0.013 C 
BRANCH   2   4
ATOM      4  C   UNL     1      95.930 100.266  98.047  1.00  0.00    -0.045 A 
ATOM      5  C   UNL     1      96.066  95.971  98.484  1.00  0.00     0.044 C 
ATOM      6  C   UNL     1      95.993  97.459  98.314  1.00  0.00    -0.051 A 
ATOM      7  C   UNL     1      95.291  98.243  99.241  1.00  0.00     0.004 A 
ATOM      8  C   UNL     1      96.682  98.086  97.266  1.00  0.00     0.004 A 
ATOM      9  C   UNL     1      95.253  99.633  99.105  1.00  0.00     0.004 A 
ATOM     10  C   UNL     1      96.645  99.477  97.129  1.00  0.00     0.004 A 
ENDBRANCH   2   4
ENDBRANCH   1   2
BRANCH   1  11
ATOM     11  C   UNL     1      97.061 102.901  99.901  1.00  0.00     0.028 C 
BRANCH  11  12
ATOM     12  C   UNL     1      97.054 104.362 100.287  1.00  0.00    -0.028 C 
ATOM     13  C   UNL     1      97.962 105.270  99.861  1.00  0.00    -0.080 C 
ATOM     14  C   UNL     1      97.815 106.698 100.319  1.00  0.00     0.039 C 
ATOM     15  C   UNL     1      99.125 104.887  98.976  1.00  0.00     0.039 C 
ENDBRANCH  11  12
ENDBRANCH   1  11
TORSDOF 4
ENDMDL
MODEL 8
REMARK VINA RESULT:    -6.053      1.281      1.887
REMARK INTER + INTRA:          -7.997
REMARK INTER:                  -7.308
REMARK INTRA:                  -0.689
REMARK UNBOUND:                -0.528
REMARK SMILES CC(C)=CCC[C@@H](C)c1ccc(C)cc1
REMARK SMILES IDX 6 1 7 2 8 3 9 4 13 5 12 6 11 7 14 8 10 9 15 10 5 11 4 12
REMARK SMILES IDX 2 13 1 14 3 15
REMARK H PARENT
REMARK Flexibility Score: inf
ROOT
ATOM      1  C   UNL     1      96.392 100.589  99.355  1.00  0.00     0.012 C 
ENDROOT
BRANCH   1   2
ATOM      2  C   UNL     1      96.972 101.711  98.462  1.00  0.00     0.016 C 
ATOM      3  C   UNL     1      96.158 101.921  97.175  1.00  0.00     0.013 C 
BRANCH   2   4
ATOM      4  C   UNL     1      97.066 103.008  99.245  1.00  0.00    -0.045 A 
ATOM      5  C   UNL     1      97.361 106.708 101.455  1.00  0.00     0.044 C 
ATOM      6  C   UNL     1      97.275 105.409 100.711  1.00  0.00    -0.051 A 
ATOM      7  C   UNL     1      96.198 104.538 100.929  1.00  0.00     0.004 A 
ATOM      8  C   UNL     1      98.235 105.086  99.740  1.00  0.00     0.004 A 
ATOM      9  C   UNL     1      96.098 103.345 100.208  1.00  0.00     0.004 A 
ATOM     10  C   UNL     1      98.136 103.892  99.019  1.00  0.00     0.004 A 
ENDBRANCH   2   4
ENDBRANCH   1   2
BRANCH   1  11
ATOM     11  C   UNL     1      95.245  99.796  98.696  1.00  0.00     0.028 C 
BRANCH  11  12
ATOM     12  C   UNL     1      95.367  98.308  98.928  1.00  0.00    -0.028 C 
ATOM     13  C   UNL     1      96.045  97.461  98.121  1.00  0.00    -0.080 C 
ATOM     14  C   UNL     1      96.093  96.002  98.493  1.00  0.00     0.039 C 
ATOM     15  C   UNL     1      96.720  97.929  96.853  1.00  0.00     0.039 C 
ENDBRANCH  11  12
ENDBRANCH   1  11
TORSDOF 4
ENDMDL
MODEL 9
REMARK VINA RESULT:    -6.025      1.929      6.097
REMARK INTER + INTRA:          -7.962
REMARK INTER:                  -6.820
REMARK INTRA:                  -1.142
REMARK UNBOUND:                -0.528
REMARK SMILES CC(C)=CCC[C@@H](C)c1ccc(C)cc1
REMARK SMILES IDX 6 1 7 2 8 3 9 4 13 5 12 6 11 7 14 8 10 9 15 10 5 11 4 12
REMARK SMILES IDX 2 13 1 14 3 15
REMARK H PARENT
REMARK Flexibility Score: inf
ROOT
ATOM      1  C   UNL     1      97.117 102.239  98.184  1.00  0.00     0.012 C 
ENDROOT
BRANCH   1   2
ATOM      2  C   UNL     1      95.666 101.703  98.215  1.00  0.00     0.016 C 
ATOM      3  C   UNL     1      94.875 102.068  96.949  1.00  0.00     0.013 C 
BRANCH   2   4
ATOM      4  C   UNL     1      95.668 100.199  98.422  1.00  0.00    -0.045 A 
ATOM      5  C   UNL     1      95.687  95.916  98.983  1.00  0.00     0.044 C 
ATOM      6  C   UNL     1      95.650  97.401  98.777  1.00  0.00    -0.051 A 
ATOM      7  C   UNL     1      95.208  98.247  99.803  1.00  0.00     0.004 A 
ATOM      8  C   UNL     1      96.123  97.960  97.581  1.00  0.00     0.004 A 
ATOM      9  C   UNL     1      95.209  99.633  99.626  1.00  0.00     0.004 A 
ATOM     10  C   UNL     1      96.125  99.347  97.402  1.00  0.00     0.004 A 
ENDBRANCH   2   4
ENDBRANCH   1   2
BRANCH   1  11
ATOM     11  C   UNL     1      97.413 103.303  99.260  1.00  0.00     0.028 C 
BRANCH  11  12
ATOM     12  C   UNL     1      96.547 103.135 100.487  1.00  0.00    -0.028 C 
ATOM     13  C   UNL     1      96.867 102.363 101.550  1.00  0.00    -0.080 C 
ATOM     14  C   UNL     1      95.908 102.308 102.711  1.00  0.00     0.039 C 
ATOM     15  C   UNL     1      98.131 101.536 101.589  1.00  0.00     0.039 C 
ENDBRANCH  11  12
ENDBRANCH   1  11
TORSDOF 4
ENDMDL
