MODEL 1
REMARK VINA RESULT:    -2.275      0.000      0.000
REMARK INTER + INTRA:          -5.593
REMARK INTER:                  -4.137
REMARK INTRA:                  -1.456
REMARK UNBOUND:                -1.456
REMARK SMILES CCCCCCCCCCCCCC[C@H](C)C(=O)[O-]
REMARK SMILES IDX 9 1 10 2 11 3 12 4 13 5 14 6 15 7 16 8 17 9 18 10 19 11 8 12
REMARK SMILES IDX 7 13 6 14 5 15 4 16 3 17 2 18 1 19
REMARK H PARENT
REMARK Flexibility Score: inf
ROOT
ATOM      1  C   UNL     1      14.952  27.635  17.908  1.00  0.00     0.000 C 
ENDROOT
BRANCH   1   2
ATOM      2  C   UNL     1      15.067  28.405  19.237  1.00  0.00     0.000 C 
BRANCH   2   3
ATOM      3  C   UNL     1      14.468  27.685  20.461  1.00  0.00     0.000 C 
BRANCH   3   4
ATOM      4  C   UNL     1      15.124  26.336  20.810  1.00  0.00     0.000 C 
BRANCH   4   5
ATOM      5  C   UNL     1      15.083  26.022  22.315  1.00  0.00     0.001 C 
BRANCH   5   6
ATOM      6  C   UNL     1      14.975  27.290  23.185  1.00  0.00     0.009 C 
BRANCH   6   7
ATOM      7  C   UNL     1      14.515  27.026  24.637  1.00  0.00     0.032 C 
ATOM      8  C   UNL     1      13.507  25.872  24.676  1.00  0.00     0.014 C 
BRANCH   7   9
ATOM      9  C   UNL     1      13.898  28.255  25.250  1.00  0.00     0.044 C 
ATOM     10  O   UNL     1      12.647  28.397  25.258  1.00  0.00    -0.550 OA
ATOM     11  O   UNL     1      14.703  29.241  25.810  1.00  0.00    -0.550 OA
ENDBRANCH   7   9
ENDBRANCH   6   7
ENDBRANCH   5   6
ENDBRANCH   4   5
ENDBRANCH   3   4
ENDBRANCH   2   3
ENDBRANCH   1   2
BRANCH   1  12
ATOM     12  C   UNL     1      14.698  28.542  16.685  1.00  0.00     0.000 C 
BRANCH  12  13
ATOM     13  C   UNL     1      14.073  29.892  17.078  1.00  0.00    -0.000 C 
BRANCH  13  14
ATOM     14  C   UNL     1      12.706  29.736  17.764  1.00  0.00    -0.000 C 
BRANCH  14  15
ATOM     15  C   UNL     1      12.218  31.037  18.418  1.00  0.00    -0.000 C 
BRANCH  15  16
ATOM     16  C   UNL     1      12.684  31.125  19.879  1.00  0.00    -0.000 C 
BRANCH  16  17
ATOM     17  C   UNL     1      11.640  30.591  20.876  1.00  0.00    -0.000 C 
BRANCH  17  18
ATOM     18  C   UNL     1      12.212  30.127  22.228  1.00  0.00    -0.003 C 
ATOM     19  C   UNL     1      13.596  30.706  22.522  1.00  0.00     0.004 C 
ENDBRANCH  17  18
ENDBRANCH  16  17
ENDBRANCH  15  16
ENDBRANCH  14  15
ENDBRANCH  13  14
ENDBRANCH  12  13
ENDBRANCH   1  12
TORSDOF 14
ENDMDL
MODEL 2
REMARK VINA RESULT:    -1.606      3.891      7.065
REMARK INTER + INTRA:          -4.376
REMARK INTER:                  -3.891
REMARK INTRA:                  -0.485
REMARK UNBOUND:                -1.456
REMARK SMILES CCCCCCCCCCCCCC[C@H](C)C(=O)[O-]
REMARK SMILES IDX 9 1 10 2 11 3 12 4 13 5 14 6 15 7 16 8 17 9 18 10 19 11 8 12
REMARK SMILES IDX 7 13 6 14 5 15 4 16 3 17 2 18 1 19
REMARK H PARENT
REMARK Flexibility Score: inf
ROOT
ATOM      1  C   UNL     1      14.203  26.972  21.883  1.00  0.00     0.000 C 
ENDROOT
BRANCH   1   2
ATOM      2  C   UNL     1      13.571  28.301  21.426  1.00  0.00     0.000 C 
BRANCH   2   3
ATOM      3  C   UNL     1      13.702  28.601  19.920  1.00  0.00     0.000 C 
BRANCH   3   4
ATOM      4  C   UNL     1      14.919  27.956  19.229  1.00  0.00     0.000 C 
BRANCH   4   5
ATOM      5  C   UNL     1      15.122  28.454  17.788  1.00  0.00     0.001 C 
BRANCH   5   6
ATOM      6  C   UNL     1      13.816  28.958  17.143  1.00  0.00     0.009 C 
BRANCH   6   7
ATOM      7  C   UNL     1      13.717  30.497  17.030  1.00  0.00     0.032 C 
ATOM      8  C   UNL     1      12.560  31.021  17.887  1.00  0.00     0.014 C 
BRANCH   7   9
ATOM      9  C   UNL     1      13.524  30.932  15.602  1.00  0.00     0.044 C 
ATOM     10  O   UNL     1      12.364  31.125  15.152  1.00  0.00    -0.550 OA
ATOM     11  O   UNL     1      14.622  31.124  14.771  1.00  0.00    -0.550 OA
ENDBRANCH   7   9
ENDBRANCH   6   7
ENDBRANCH   5   6
ENDBRANCH   4   5
ENDBRANCH   3   4
ENDBRANCH   2   3
ENDBRANCH   1   2
BRANCH   1  12
ATOM     12  C   UNL     1      14.419  26.880  23.408  1.00  0.00     0.000 C 
BRANCH  12  13
ATOM     13  C   UNL     1      13.093  26.888  24.189  1.00  0.00    -0.000 C 
BRANCH  13  14
ATOM     14  C   UNL     1      12.548  28.307  24.419  1.00  0.00    -0.000 C 
BRANCH  14  15
ATOM     15  C   UNL     1      13.567  29.230  25.103  1.00  0.00    -0.000 C 
BRANCH  15  16
ATOM     16  C   UNL     1      14.050  28.626  26.430  1.00  0.00    -0.000 C 
BRANCH  16  17
ATOM     17  C   UNL     1      13.045  28.816  27.579  1.00  0.00    -0.000 C 
BRANCH  17  18
ATOM     18  C   UNL     1      12.237  30.125  27.524  1.00  0.00    -0.003 C 
ATOM     19  C   UNL     1      10.763  29.933  27.881  1.00  0.00     0.004 C 
ENDBRANCH  17  18
ENDBRANCH  16  17
ENDBRANCH  15  16
ENDBRANCH  14  15
ENDBRANCH  13  14
ENDBRANCH  12  13
ENDBRANCH   1  12
TORSDOF 14
ENDMDL
MODEL 3
REMARK VINA RESULT:    -1.002     24.294     25.535
REMARK INTER + INTRA:          -3.278
REMARK INTER:                  -2.526
REMARK INTRA:                  -0.752
REMARK UNBOUND:                -1.456
REMARK SMILES CCCCCCCCCCCCCC[C@H](C)C(=O)[O-]
REMARK SMILES IDX 9 1 10 2 11 3 12 4 13 5 14 6 15 7 16 8 17 9 18 10 19 11 8 12
REMARK SMILES IDX 7 13 6 14 5 15 4 16 3 17 2 18 1 19
REMARK H PARENT
REMARK Flexibility Score: inf
ROOT
ATOM      1  C   UNL     1      -0.853  14.309  11.235  1.00  0.00     0.000 C 
ENDROOT
BRANCH   1   2
ATOM      2  C   UNL     1      -0.631  12.853  11.688  1.00  0.00     0.000 C 
BRANCH   2   3
ATOM      3  C   UNL     1      -0.688  11.804  10.561  1.00  0.00     0.000 C 
BRANCH   3   4
ATOM      4  C   UNL     1      -1.918  10.877  10.593  1.00  0.00     0.000 C 
BRANCH   4   5
ATOM      5  C   UNL     1      -3.185  11.582  11.106  1.00  0.00     0.001 C 
BRANCH   5   6
ATOM      6  C   UNL     1      -4.481  10.875  10.663  1.00  0.00     0.009 C 
BRANCH   6   7
ATOM      7  C   UNL     1      -5.112  11.455   9.377  1.00  0.00     0.032 C 
ATOM      8  C   UNL     1      -4.409  10.892   8.137  1.00  0.00     0.014 C 
BRANCH   7   9
ATOM      9  C   UNL     1      -5.040  12.959   9.359  1.00  0.00     0.044 C 
ATOM     10  O   UNL     1      -4.938  13.573   8.264  1.00  0.00    -0.550 OA
ATOM     11  O   UNL     1      -5.084  13.679  10.547  1.00  0.00    -0.550 OA
ENDBRANCH   7   9
ENDBRANCH   6   7
ENDBRANCH   5   6
ENDBRANCH   4   5
ENDBRANCH   3   4
ENDBRANCH   2   3
ENDBRANCH   1   2
BRANCH   1  12
ATOM     12  C   UNL     1      -1.797  14.443  10.022  1.00  0.00     0.000 C 
BRANCH  12  13
ATOM     13  C   UNL     1      -2.251  15.895   9.791  1.00  0.00    -0.000 C 
BRANCH  13  14
ATOM     14  C   UNL     1      -2.360  16.252   8.299  1.00  0.00    -0.000 C 
BRANCH  14  15
ATOM     15  C   UNL     1      -3.796  16.595   7.875  1.00  0.00    -0.000 C 
BRANCH  15  16
ATOM     16  C   UNL     1      -4.672  16.900   9.100  1.00  0.00    -0.000 C 
BRANCH  16  17
ATOM     17  C   UNL     1      -5.119  18.370   9.169  1.00  0.00    -0.000 C 
BRANCH  17  18
ATOM     18  C   UNL     1      -4.991  19.023  10.557  1.00  0.00    -0.003 C 
ATOM     19  C   UNL     1      -5.111  18.019  11.703  1.00  0.00     0.004 C 
ENDBRANCH  17  18
ENDBRANCH  16  17
ENDBRANCH  15  16
ENDBRANCH  14  15
ENDBRANCH  13  14
ENDBRANCH  12  13
ENDBRANCH   1  12
TORSDOF 14
ENDMDL
MODEL 4
REMARK VINA RESULT:    -0.789      1.384      2.330
REMARK INTER + INTRA:          -2.890
REMARK INTER:                  -2.286
REMARK INTRA:                  -0.604
REMARK UNBOUND:                -1.456
REMARK SMILES CCCCCCCCCCCCCC[C@H](C)C(=O)[O-]
REMARK SMILES IDX 9 1 10 2 11 3 12 4 13 5 14 6 15 7 16 8 17 9 18 10 19 11 8 12
REMARK SMILES IDX 7 13 6 14 5 15 4 16 3 17 2 18 1 19
REMARK H PARENT
REMARK Flexibility Score: inf
ROOT
ATOM      1  C   UNL     1      14.739  26.586  18.986  1.00  0.00     0.000 C 
ENDROOT
BRANCH   1   2
ATOM      2  C   UNL     1      15.114  27.189  20.353  1.00  0.00     0.000 C 
BRANCH   2   3
ATOM      3  C   UNL     1      14.396  26.559  21.562  1.00  0.00     0.000 C 
BRANCH   3   4
ATOM      4  C   UNL     1      14.224  27.490  22.778  1.00  0.00     0.000 C 
BRANCH   4   5
ATOM      5  C   UNL     1      15.022  27.023  24.007  1.00  0.00     0.001 C 
BRANCH   5   6
ATOM      6  C   UNL     1      15.099  28.095  25.111  1.00  0.00     0.009 C 
BRANCH   6   7
ATOM      7  C   UNL     1      14.205  29.331  24.857  1.00  0.00     0.032 C 
ATOM      8  C   UNL     1      15.068  30.567  24.582  1.00  0.00     0.014 C 
BRANCH   7   9
ATOM      9  C   UNL     1      13.295  29.601  26.026  1.00  0.00     0.044 C 
ATOM     10  O   UNL     1      12.063  29.359  25.936  1.00  0.00    -0.550 OA
ATOM     11  O   UNL     1      13.807  30.118  27.211  1.00  0.00    -0.550 OA
ENDBRANCH   7   9
ENDBRANCH   6   7
ENDBRANCH   5   6
ENDBRANCH   4   5
ENDBRANCH   3   4
ENDBRANCH   2   3
ENDBRANCH   1   2
BRANCH   1  12
ATOM     12  C   UNL     1      14.718  27.618  17.838  1.00  0.00     0.000 C 
BRANCH  12  13
ATOM     13  C   UNL     1      15.120  29.026  18.310  1.00  0.00    -0.000 C 
BRANCH  13  14
ATOM     14  C   UNL     1      14.065  29.669  19.225  1.00  0.00    -0.000 C 
BRANCH  14  15
ATOM     15  C   UNL     1      14.650  30.149  20.561  1.00  0.00    -0.000 C 
BRANCH  15  16
ATOM     16  C   UNL     1      13.627  30.992  21.338  1.00  0.00    -0.000 C 
BRANCH  16  17
ATOM     17  C   UNL     1      12.333  30.223  21.657  1.00  0.00    -0.000 C 
BRANCH  17  18
ATOM     18  C   UNL     1      11.035  30.936  21.237  1.00  0.00    -0.003 C 
ATOM     19  C   UNL     1      10.893  31.078  19.722  1.00  0.00     0.004 C 
ENDBRANCH  17  18
ENDBRANCH  16  17
ENDBRANCH  15  16
ENDBRANCH  14  15
ENDBRANCH  13  14
ENDBRANCH  12  13
ENDBRANCH   1  12
TORSDOF 14
ENDMDL
MODEL 5
REMARK VINA RESULT:     0.508      4.195      6.752
REMARK INTER + INTRA:          -0.532
REMARK INTER:                   0.514
REMARK INTRA:                  -1.047
REMARK UNBOUND:                -1.456
REMARK SMILES CCCCCCCCCCCCCC[C@H](C)C(=O)[O-]
REMARK SMILES IDX 9 1 10 2 11 3 12 4 13 5 14 6 15 7 16 8 17 9 18 10 19 11 8 12
REMARK SMILES IDX 7 13 6 14 5 15 4 16 3 17 2 18 1 19
REMARK H PARENT
REMARK Flexibility Score: inf
ROOT
ATOM      1  C   UNL     1      13.844  28.996  16.131  1.00  0.00     0.000 C 
ENDROOT
BRANCH   1   2
ATOM      2  C   UNL     1      13.689  29.062  17.662  1.00  0.00     0.000 C 
BRANCH   2   3
ATOM      3  C   UNL     1      12.405  29.756  18.157  1.00  0.00     0.000 C 
BRANCH   3   4
ATOM      4  C   UNL     1      12.588  30.671  19.383  1.00  0.00     0.000 C 
BRANCH   4   5
ATOM      5  C   UNL     1      14.057  30.798  19.820  1.00  0.00     0.001 C 
BRANCH   5   6
ATOM      6  C   UNL     1      14.307  30.245  21.237  1.00  0.00     0.009 C 
BRANCH   6   7
ATOM      7  C   UNL     1      13.271  29.196  21.700  1.00  0.00     0.032 C 
ATOM      8  C   UNL     1      12.810  29.495  23.131  1.00  0.00     0.014 C 
BRANCH   7   9
ATOM      9  C   UNL     1      13.834  27.801  21.632  1.00  0.00     0.044 C 
ATOM     10  O   UNL     1      14.151  27.302  20.521  1.00  0.00    -0.550 OA
ATOM     11  O   UNL     1      14.005  27.055  22.792  1.00  0.00    -0.550 OA
ENDBRANCH   7   9
ENDBRANCH   6   7
ENDBRANCH   5   6
ENDBRANCH   4   5
ENDBRANCH   3   4
ENDBRANCH   2   3
ENDBRANCH   1   2
BRANCH   1  12
ATOM     12  C   UNL     1      14.396  30.297  15.508  1.00  0.00     0.000 C 
BRANCH  12  13
ATOM     13  C   UNL     1      13.705  30.648  14.179  1.00  0.00    -0.000 C 
BRANCH  13  14
ATOM     14  C   UNL     1      14.430  30.056  12.959  1.00  0.00    -0.000 C 
BRANCH  14  15
ATOM     15  C   UNL     1      14.840  31.125  11.936  1.00  0.00    -0.000 C 
BRANCH  15  16
ATOM     16  C   UNL     1      13.889  31.125  10.730  1.00  0.00    -0.000 C 
BRANCH  16  17
ATOM     17  C   UNL     1      13.490  29.709  10.278  1.00  0.00    -0.000 C 
BRANCH  17  18
ATOM     18  C   UNL     1      13.337  29.532   8.757  1.00  0.00    -0.003 C 
ATOM     19  C   UNL     1      14.600  29.905   7.982  1.00  0.00     0.004 C 
ENDBRANCH  17  18
ENDBRANCH  16  17
ENDBRANCH  15  16
ENDBRANCH  14  15
ENDBRANCH  13  14
ENDBRANCH  12  13
ENDBRANCH   1  12
TORSDOF 14
ENDMDL
