MODEL 1
REMARK VINA RESULT:    -6.461      0.000      0.000
REMARK INTER + INTRA:         -17.064
REMARK INTER:                 -14.770
REMARK INTRA:                  -2.293
REMARK UNBOUND:                -2.293
REMARK SMILES CCCCCCCCCCCCCCCCCCCCCCCC(=O)[O-]
REMARK SMILES IDX 13 1 14 2 15 3 16 4 17 5 18 6 19 7 20 8 21 9 22 10 23 11
REMARK SMILES IDX 24 12 25 13 26 14 12 15 11 16 10 17 9 18 8 19 7 20 6 21 5 22
REMARK SMILES IDX 4 23 3 24 2 25 1 26
REMARK H PARENT
REMARK Flexibility Score: inf
ROOT
ATOM      1  C   UNL     1      10.311  14.005   1.510  1.00  0.00     0.000 C 
ENDROOT
BRANCH   1   2
ATOM      2  C   UNL     1      11.447  15.002   1.204  1.00  0.00     0.000 C 
BRANCH   2   3
ATOM      3  C   UNL     1      10.986  16.376   0.687  1.00  0.00     0.000 C 
BRANCH   3   4
ATOM      4  C   UNL     1      11.707  17.544   1.372  1.00  0.00     0.000 C 
BRANCH   4   5
ATOM      5  C   UNL     1      10.938  18.008   2.618  1.00  0.00     0.000 C 
BRANCH   5   6
ATOM      6  C   UNL     1      11.676  19.107   3.397  1.00  0.00     0.000 C 
BRANCH   6   7
ATOM      7  C   UNL     1      13.198  19.064   3.192  1.00  0.00     0.000 C 
BRANCH   7   8
ATOM      8  C   UNL     1      13.936  19.307   4.514  1.00  0.00     0.000 C 
BRANCH   8   9
ATOM      9  C   UNL     1      13.360  20.526   5.250  1.00  0.00     0.000 C 
BRANCH   9  10
ATOM     10  C   UNL     1      12.960  20.212   6.704  1.00  0.00     0.006 C 
BRANCH  10  11
ATOM     11  C   UNL     1      12.859  21.444   7.616  1.00  0.00     0.053 C 
BRANCH  11  12
ATOM     12  C   UNL     1      12.669  21.067   9.053  1.00  0.00     0.041 C 
ATOM     13  O   UNL     1      11.714  21.550   9.715  1.00  0.00    -0.550 OA
ATOM     14  O   UNL     1      13.569  20.208   9.674  1.00  0.00    -0.550 OA
ENDBRANCH  11  12
ENDBRANCH  10  11
ENDBRANCH   9  10
ENDBRANCH   8   9
ENDBRANCH   7   8
ENDBRANCH   6   7
ENDBRANCH   5   6
ENDBRANCH   4   5
ENDBRANCH   3   4
ENDBRANCH   2   3
ENDBRANCH   1   2
BRANCH   1  15
ATOM     15  C   UNL     1       8.922  14.639   1.732  1.00  0.00     0.000 C 
BRANCH  15  16
ATOM     16  C   UNL     1       8.393  14.552   3.174  1.00  0.00     0.000 C 
BRANCH  16  17
ATOM     17  C   UNL     1       7.737  15.860   3.647  1.00  0.00     0.000 C 
BRANCH  17  18
ATOM     18  C   UNL     1       6.222  15.904   3.371  1.00  0.00    -0.000 C 
BRANCH  18  19
ATOM     19  C   UNL     1       5.333  15.928   4.629  1.00  0.00    -0.000 C 
BRANCH  19  20
ATOM     20  C   UNL     1       3.851  15.586   4.390  1.00  0.00    -0.000 C 
BRANCH  20  21
ATOM     21  C   UNL     1       3.437  15.603   2.903  1.00  0.00    -0.000 C 
BRANCH  21  22
ATOM     22  C   UNL     1       2.538  14.413   2.529  1.00  0.00    -0.000 C 
BRANCH  22  23
ATOM     23  C   UNL     1       3.137  13.536   1.416  1.00  0.00    -0.000 C 
BRANCH  23  24
ATOM     24  C   UNL     1       4.606  13.120   1.628  1.00  0.00    -0.000 C 
BRANCH  24  25
ATOM     25  C   UNL     1       5.565  13.510   0.490  1.00  0.00    -0.003 C 
ATOM     26  C   UNL     1       5.429  14.973   0.071  1.00  0.00     0.004 C 
ENDBRANCH  24  25
ENDBRANCH  23  24
ENDBRANCH  22  23
ENDBRANCH  21  22
ENDBRANCH  20  21
ENDBRANCH  19  20
ENDBRANCH  18  19
ENDBRANCH  17  18
ENDBRANCH  16  17
ENDBRANCH  15  16
ENDBRANCH   1  15
TORSDOF 22
ENDMDL
MODEL 2
REMARK VINA RESULT:    -6.318      2.256      4.556
REMARK INTER + INTRA:         -16.737
REMARK INTER:                 -14.508
REMARK INTRA:                  -2.228
REMARK UNBOUND:                -2.293
REMARK SMILES CCCCCCCCCCCCCCCCCCCCCCCC(=O)[O-]
REMARK SMILES IDX 13 1 14 2 15 3 16 4 17 5 18 6 19 7 20 8 21 9 22 10 23 11
REMARK SMILES IDX 24 12 25 13 26 14 12 15 11 16 10 17 9 18 8 19 7 20 6 21 5 22
REMARK SMILES IDX 4 23 3 24 2 25 1 26
REMARK H PARENT
REMARK Flexibility Score: inf
ROOT
ATOM      1  C   UNL     1       7.502  15.649   3.759  1.00  0.00     0.000 C 
ENDROOT
BRANCH   1   2
ATOM      2  C   UNL     1       8.281  14.606   2.932  1.00  0.00     0.000 C 
BRANCH   2   3
ATOM      3  C   UNL     1       7.827  14.468   1.467  1.00  0.00     0.000 C 
BRANCH   3   4
ATOM      4  C   UNL     1       9.002  14.401   0.483  1.00  0.00     0.000 C 
BRANCH   4   5
ATOM      5  C   UNL     1      10.277  13.909   1.185  1.00  0.00     0.000 C 
BRANCH   5   6
ATOM      6  C   UNL     1      11.446  14.897   1.055  1.00  0.00     0.000 C 
BRANCH   6   7
ATOM      7  C   UNL     1      11.003  16.284   0.563  1.00  0.00     0.000 C 
BRANCH   7   8
ATOM      8  C   UNL     1      11.615  17.392   1.429  1.00  0.00     0.000 C 
BRANCH   8   9
ATOM      9  C   UNL     1      10.690  17.747   2.604  1.00  0.00     0.000 C 
BRANCH   9  10
ATOM     10  C   UNL     1      11.035  19.103   3.246  1.00  0.00     0.006 C 
BRANCH  10  11
ATOM     11  C   UNL     1      11.607  19.005   4.669  1.00  0.00     0.053 C 
BRANCH  11  12
ATOM     12  C   UNL     1      12.910  19.731   4.803  1.00  0.00     0.041 C 
ATOM     13  O   UNL     1      13.165  20.390   5.845  1.00  0.00    -0.550 OA
ATOM     14  O   UNL     1      13.831  19.710   3.762  1.00  0.00    -0.550 OA
ENDBRANCH  11  12
ENDBRANCH  10  11
ENDBRANCH   9  10
ENDBRANCH   8   9
ENDBRANCH   7   8
ENDBRANCH   6   7
ENDBRANCH   5   6
ENDBRANCH   4   5
ENDBRANCH   3   4
ENDBRANCH   2   3
ENDBRANCH   1   2
BRANCH   1  15
ATOM     15  C   UNL     1       6.173  16.124   3.137  1.00  0.00     0.000 C 
BRANCH  15  16
ATOM     16  C   UNL     1       4.973  16.131   4.099  1.00  0.00     0.000 C 
BRANCH  16  17
ATOM     17  C   UNL     1       3.977  14.994   3.816  1.00  0.00     0.000 C 
BRANCH  17  18
ATOM     18  C   UNL     1       4.662  13.705   3.323  1.00  0.00    -0.000 C 
BRANCH  18  19
ATOM     19  C   UNL     1       4.032  13.075   2.066  1.00  0.00    -0.000 C 
BRANCH  19  20
ATOM     20  C   UNL     1       3.534  14.078   1.009  1.00  0.00    -0.000 C 
BRANCH  20  21
ATOM     21  C   UNL     1       2.023  13.972   0.710  1.00  0.00    -0.000 C 
BRANCH  21  22
ATOM     22  C   UNL     1       1.158  14.259   1.949  1.00  0.00    -0.000 C 
BRANCH  22  23
ATOM     23  C   UNL     1       0.103  13.169   2.208  1.00  0.00    -0.000 C 
BRANCH  23  24
ATOM     24  C   UNL     1      -1.339  13.544   1.810  1.00  0.00    -0.000 C 
BRANCH  24  25
ATOM     25  C   UNL     1      -2.121  14.340   2.869  1.00  0.00    -0.003 C 
ATOM     26  C   UNL     1      -1.582  14.139   4.284  1.00  0.00     0.004 C 
ENDBRANCH  24  25
ENDBRANCH  23  24
ENDBRANCH  22  23
ENDBRANCH  21  22
ENDBRANCH  20  21
ENDBRANCH  19  20
ENDBRANCH  18  19
ENDBRANCH  17  18
ENDBRANCH  16  17
ENDBRANCH  15  16
ENDBRANCH   1  15
TORSDOF 22
ENDMDL
MODEL 3
REMARK VINA RESULT:    -6.201      1.013      2.119
REMARK INTER + INTRA:         -16.470
REMARK INTER:                 -14.442
REMARK INTRA:                  -2.028
REMARK UNBOUND:                -2.293
REMARK SMILES CCCCCCCCCCCCCCCCCCCCCCCC(=O)[O-]
REMARK SMILES IDX 13 1 14 2 15 3 16 4 17 5 18 6 19 7 20 8 21 9 22 10 23 11
REMARK SMILES IDX 24 12 25 13 26 14 12 15 11 16 10 17 9 18 8 19 7 20 6 21 5 22
REMARK SMILES IDX 4 23 3 24 2 25 1 26
REMARK H PARENT
REMARK Flexibility Score: inf
ROOT
ATOM      1  C   UNL     1      11.092  13.830   0.728  1.00  0.00     0.000 C 
ENDROOT
BRANCH   1   2
ATOM      2  C   UNL     1      11.858  15.144   0.983  1.00  0.00     0.000 C 
BRANCH   2   3
ATOM      3  C   UNL     1      11.027  16.426   0.798  1.00  0.00     0.000 C 
BRANCH   3   4
ATOM      4  C   UNL     1      11.627  17.635   1.529  1.00  0.00     0.000 C 
BRANCH   4   5
ATOM      5  C   UNL     1      10.723  18.078   2.689  1.00  0.00     0.000 C 
BRANCH   5   6
ATOM      6  C   UNL     1      11.424  19.045   3.655  1.00  0.00     0.000 C 
BRANCH   6   7
ATOM      7  C   UNL     1      12.944  19.107   3.437  1.00  0.00     0.000 C 
BRANCH   7   8
ATOM      8  C   UNL     1      13.565  20.261   4.234  1.00  0.00     0.000 C 
BRANCH   8   9
ATOM      9  C   UNL     1      13.825  19.847   5.691  1.00  0.00     0.000 C 
BRANCH   9  10
ATOM     10  C   UNL     1      12.752  20.374   6.661  1.00  0.00     0.006 C 
BRANCH  10  11
ATOM     11  C   UNL     1      13.280  21.352   7.722  1.00  0.00     0.053 C 
BRANCH  11  12
ATOM     12  C   UNL     1      12.877  20.952   9.108  1.00  0.00     0.041 C 
ATOM     13  O   UNL     1      13.615  20.193   9.789  1.00  0.00    -0.550 OA
ATOM     14  O   UNL     1      11.669  21.389   9.637  1.00  0.00    -0.550 OA
ENDBRANCH  11  12
ENDBRANCH  10  11
ENDBRANCH   9  10
ENDBRANCH   8   9
ENDBRANCH   7   8
ENDBRANCH   6   7
ENDBRANCH   5   6
ENDBRANCH   4   5
ENDBRANCH   3   4
ENDBRANCH   2   3
ENDBRANCH   1   2
BRANCH   1  15
ATOM     15  C   UNL     1       9.920  13.934  -0.269  1.00  0.00     0.000 C 
BRANCH  15  16
ATOM     16  C   UNL     1       8.584  13.366   0.239  1.00  0.00     0.000 C 
BRANCH  16  17
ATOM     17  C   UNL     1       7.616  14.460   0.719  1.00  0.00     0.000 C 
BRANCH  17  18
ATOM     18  C   UNL     1       7.173  14.269   2.182  1.00  0.00    -0.000 C 
BRANCH  18  19
ATOM     19  C   UNL     1       7.948  15.115   3.211  1.00  0.00    -0.000 C 
BRANCH  19  20
ATOM     20  C   UNL     1       7.098  16.134   3.994  1.00  0.00    -0.000 C 
BRANCH  20  21
ATOM     21  C   UNL     1       5.644  16.254   3.488  1.00  0.00    -0.000 C 
BRANCH  21  22
ATOM     22  C   UNL     1       4.618  16.204   4.632  1.00  0.00    -0.000 C 
BRANCH  22  23
ATOM     23  C   UNL     1       3.585  15.076   4.461  1.00  0.00    -0.000 C 
BRANCH  23  24
ATOM     24  C   UNL     1       3.808  14.162   3.239  1.00  0.00    -0.000 C 
BRANCH  24  25
ATOM     25  C   UNL     1       2.767  14.311   2.116  1.00  0.00    -0.003 C 
ATOM     26  C   UNL     1       3.344  14.034   0.729  1.00  0.00     0.004 C 
ENDBRANCH  24  25
ENDBRANCH  23  24
ENDBRANCH  22  23
ENDBRANCH  21  22
ENDBRANCH  20  21
ENDBRANCH  19  20
ENDBRANCH  18  19
ENDBRANCH  17  18
ENDBRANCH  16  17
ENDBRANCH  15  16
ENDBRANCH   1  15
TORSDOF 22
ENDMDL
MODEL 4
REMARK VINA RESULT:    -6.172      2.933      9.668
REMARK INTER + INTRA:         -16.404
REMARK INTER:                 -14.928
REMARK INTRA:                  -1.475
REMARK UNBOUND:                -2.293
REMARK SMILES CCCCCCCCCCCCCCCCCCCCCCCC(=O)[O-]
REMARK SMILES IDX 13 1 14 2 15 3 16 4 17 5 18 6 19 7 20 8 21 9 22 10 23 11
REMARK SMILES IDX 24 12 25 13 26 14 12 15 11 16 10 17 9 18 8 19 7 20 6 21 5 22
REMARK SMILES IDX 4 23 3 24 2 25 1 26
REMARK H PARENT
REMARK Flexibility Score: inf
ROOT
ATOM      1  C   UNL     1      10.781  13.937   1.037  1.00  0.00     0.000 C 
ENDROOT
BRANCH   1   2
ATOM      2  C   UNL     1       9.781  13.772  -0.125  1.00  0.00     0.000 C 
BRANCH   2   3
ATOM      3  C   UNL     1       8.334  13.467   0.300  1.00  0.00     0.000 C 
BRANCH   3   4
ATOM      4  C   UNL     1       7.876  14.306   1.501  1.00  0.00     0.000 C 
BRANCH   4   5
ATOM      5  C   UNL     1       6.375  14.620   1.409  1.00  0.00     0.000 C 
BRANCH   5   6
ATOM      6  C   UNL     1       5.505  13.355   1.360  1.00  0.00     0.000 C 
BRANCH   6   7
ATOM      7  C   UNL     1       4.234  13.537   0.516  1.00  0.00     0.000 C 
BRANCH   7   8
ATOM      8  C   UNL     1       3.398  14.714   1.033  1.00  0.00     0.000 C 
BRANCH   8   9
ATOM      9  C   UNL     1       2.452  14.265   2.158  1.00  0.00     0.000 C 
BRANCH   9  10
ATOM     10  C   UNL     1       2.667  15.047   3.466  1.00  0.00     0.006 C 
BRANCH  10  11
ATOM     11  C   UNL     1       3.973  14.711   4.201  1.00  0.00     0.053 C 
BRANCH  11  12
ATOM     12  C   UNL     1       4.683  15.939   4.681  1.00  0.00     0.041 C 
ATOM     13  O   UNL     1       5.900  16.115   4.411  1.00  0.00    -0.550 OA
ATOM     14  O   UNL     1       4.010  16.874   5.458  1.00  0.00    -0.550 OA
ENDBRANCH  11  12
ENDBRANCH  10  11
ENDBRANCH   9  10
ENDBRANCH   8   9
ENDBRANCH   7   8
ENDBRANCH   6   7
ENDBRANCH   5   6
ENDBRANCH   4   5
ENDBRANCH   3   4
ENDBRANCH   2   3
ENDBRANCH   1   2
BRANCH   1  15
ATOM     15  C   UNL     1      11.854  15.025   0.832  1.00  0.00     0.000 C 
BRANCH  15  16
ATOM     16  C   UNL     1      11.305  16.422   0.497  1.00  0.00     0.000 C 
BRANCH  16  17
ATOM     17  C   UNL     1      11.912  17.528   1.377  1.00  0.00     0.000 C 
BRANCH  17  18
ATOM     18  C   UNL     1      10.935  18.043   2.451  1.00  0.00    -0.000 C 
BRANCH  18  19
ATOM     19  C   UNL     1      11.536  19.056   3.444  1.00  0.00    -0.000 C 
BRANCH  19  20
ATOM     20  C   UNL     1      13.059  19.259   3.331  1.00  0.00    -0.000 C 
BRANCH  20  21
ATOM     21  C   UNL     1      13.628  20.283   4.336  1.00  0.00    -0.000 C 
BRANCH  21  22
ATOM     22  C   UNL     1      13.610  19.759   5.783  1.00  0.00    -0.000 C 
BRANCH  22  23
ATOM     23  C   UNL     1      12.954  20.743   6.768  1.00  0.00    -0.000 C 
BRANCH  23  24
ATOM     24  C   UNL     1      13.522  20.712   8.201  1.00  0.00    -0.000 C 
BRANCH  24  25
ATOM     25  C   UNL     1      12.508  21.040   9.310  1.00  0.00    -0.003 C 
ATOM     26  C   UNL     1      11.991  22.476   9.240  1.00  0.00     0.004 C 
ENDBRANCH  24  25
ENDBRANCH  23  24
ENDBRANCH  22  23
ENDBRANCH  21  22
ENDBRANCH  20  21
ENDBRANCH  19  20
ENDBRANCH  18  19
ENDBRANCH  17  18
ENDBRANCH  16  17
ENDBRANCH  15  16
ENDBRANCH   1  15
TORSDOF 22
ENDMDL
MODEL 5
REMARK VINA RESULT:    -6.159      1.000      2.431
REMARK INTER + INTRA:         -16.374
REMARK INTER:                 -14.358
REMARK INTRA:                  -2.016
REMARK UNBOUND:                -2.293
REMARK SMILES CCCCCCCCCCCCCCCCCCCCCCCC(=O)[O-]
REMARK SMILES IDX 13 1 14 2 15 3 16 4 17 5 18 6 19 7 20 8 21 9 22 10 23 11
REMARK SMILES IDX 24 12 25 13 26 14 12 15 11 16 10 17 9 18 8 19 7 20 6 21 5 22
REMARK SMILES IDX 4 23 3 24 2 25 1 26
REMARK H PARENT
REMARK Flexibility Score: inf
ROOT
ATOM      1  C   UNL     1      11.447  14.370   0.882  1.00  0.00     0.000 C 
ENDROOT
BRANCH   1   2
ATOM      2  C   UNL     1      11.077  15.387  -0.217  1.00  0.00     0.000 C 
BRANCH   2   3
ATOM      3  C   UNL     1      11.375  16.856   0.131  1.00  0.00     0.000 C 
BRANCH   3   4
ATOM      4  C   UNL     1      11.771  17.053   1.601  1.00  0.00     0.000 C 
BRANCH   4   5
ATOM      5  C   UNL     1      11.225  18.383   2.142  1.00  0.00     0.000 C 
BRANCH   5   6
ATOM      6  C   UNL     1      10.584  18.241   3.531  1.00  0.00     0.000 C 
BRANCH   6   7
ATOM      7  C   UNL     1      11.283  19.094   4.601  1.00  0.00     0.000 C 
BRANCH   7   8
ATOM      8  C   UNL     1      12.704  19.467   4.161  1.00  0.00     0.000 C 
BRANCH   8   9
ATOM      9  C   UNL     1      13.551  19.919   5.360  1.00  0.00     0.000 C 
BRANCH   9  10
ATOM     10  C   UNL     1      12.695  20.386   6.552  1.00  0.00     0.006 C 
BRANCH  10  11
ATOM     11  C   UNL     1      13.502  20.767   7.804  1.00  0.00     0.053 C 
BRANCH  11  12
ATOM     12  C   UNL     1      12.662  21.477   8.821  1.00  0.00     0.041 C 
ATOM     13  O   UNL     1      12.051  22.533   8.513  1.00  0.00    -0.550 OA
ATOM     14  O   UNL     1      12.583  20.992  10.121  1.00  0.00    -0.550 OA
ENDBRANCH  11  12
ENDBRANCH  10  11
ENDBRANCH   9  10
ENDBRANCH   8   9
ENDBRANCH   7   8
ENDBRANCH   6   7
ENDBRANCH   5   6
ENDBRANCH   4   5
ENDBRANCH   3   4
ENDBRANCH   2   3
ENDBRANCH   1   2
BRANCH   1  15
ATOM     15  C   UNL     1      10.250  13.694   1.582  1.00  0.00     0.000 C 
BRANCH  15  16
ATOM     16  C   UNL     1       8.982  13.569   0.721  1.00  0.00     0.000 C 
BRANCH  16  17
ATOM     17  C   UNL     1       7.779  14.315   1.323  1.00  0.00     0.000 C 
BRANCH  17  18
ATOM     18  C   UNL     1       6.760  14.766   0.259  1.00  0.00    -0.000 C 
BRANCH  18  19
ATOM     19  C   UNL     1       5.285  14.505   0.620  1.00  0.00    -0.000 C 
BRANCH  19  20
ATOM     20  C   UNL     1       5.005  13.145   1.286  1.00  0.00    -0.000 C 
BRANCH  20  21
ATOM     21  C   UNL     1       3.867  13.183   2.329  1.00  0.00    -0.000 C 
BRANCH  21  22
ATOM     22  C   UNL     1       2.903  14.360   2.104  1.00  0.00    -0.000 C 
BRANCH  22  23
ATOM     23  C   UNL     1       2.589  15.133   3.397  1.00  0.00    -0.000 C 
BRANCH  23  24
ATOM     24  C   UNL     1       3.619  14.960   4.531  1.00  0.00    -0.000 C 
BRANCH  24  25
ATOM     25  C   UNL     1       4.582  16.144   4.723  1.00  0.00    -0.003 C 
ATOM     26  C   UNL     1       5.913  15.953   3.998  1.00  0.00     0.004 C 
ENDBRANCH  24  25
ENDBRANCH  23  24
ENDBRANCH  22  23
ENDBRANCH  21  22
ENDBRANCH  20  21
ENDBRANCH  19  20
ENDBRANCH  18  19
ENDBRANCH  17  18
ENDBRANCH  16  17
ENDBRANCH  15  16
ENDBRANCH   1  15
TORSDOF 22
ENDMDL
MODEL 6
REMARK VINA RESULT:    -6.085      4.579     10.400
REMARK INTER + INTRA:         -16.204
REMARK INTER:                 -14.014
REMARK INTRA:                  -2.189
REMARK UNBOUND:                -2.293
REMARK SMILES CCCCCCCCCCCCCCCCCCCCCCCC(=O)[O-]
REMARK SMILES IDX 13 1 14 2 15 3 16 4 17 5 18 6 19 7 20 8 21 9 22 10 23 11
REMARK SMILES IDX 24 12 25 13 26 14 12 15 11 16 10 17 9 18 8 19 7 20 6 21 5 22
REMARK SMILES IDX 4 23 3 24 2 25 1 26
REMARK H PARENT
REMARK Flexibility Score: inf
ROOT
ATOM      1  C   UNL     1       4.902  16.236   3.015  1.00  0.00     0.000 C 
ENDROOT
BRANCH   1   2
ATOM      2  C   UNL     1       5.113  16.217   1.487  1.00  0.00     0.000 C 
BRANCH   2   3
ATOM      3  C   UNL     1       4.219  15.227   0.720  1.00  0.00     0.000 C 
BRANCH   3   4
ATOM      4  C   UNL     1       4.423  13.772   1.162  1.00  0.00     0.000 C 
BRANCH   4   5
ATOM      5  C   UNL     1       3.189  13.249   1.913  1.00  0.00     0.000 C 
BRANCH   5   6
ATOM      6  C   UNL     1       1.979  14.188   1.794  1.00  0.00     0.000 C 
BRANCH   6   7
ATOM      7  C   UNL     1       0.754  13.682   2.571  1.00  0.00     0.000 C 
BRANCH   7   8
ATOM      8  C   UNL     1      -0.512  14.439   2.149  1.00  0.00     0.000 C 
BRANCH   8   9
ATOM      9  C   UNL     1      -1.688  14.106   3.081  1.00  0.00     0.000 C 
BRANCH   9  10
ATOM     10  C   UNL     1      -1.246  13.860   4.535  1.00  0.00     0.006 C 
BRANCH  10  11
ATOM     11  C   UNL     1      -1.831  14.850   5.554  1.00  0.00     0.053 C 
BRANCH  11  12
ATOM     12  C   UNL     1      -0.970  14.981   6.772  1.00  0.00     0.041 C 
ATOM     13  O   UNL     1       0.017  14.217   6.936  1.00  0.00    -0.550 OA
ATOM     14  O   UNL     1      -1.277  15.924   7.745  1.00  0.00    -0.550 OA
ENDBRANCH  11  12
ENDBRANCH  10  11
ENDBRANCH   9  10
ENDBRANCH   8   9
ENDBRANCH   7   8
ENDBRANCH   6   7
ENDBRANCH   5   6
ENDBRANCH   4   5
ENDBRANCH   3   4
ENDBRANCH   2   3
ENDBRANCH   1   2
BRANCH   1  15
ATOM     15  C   UNL     1       6.004  15.541   3.840  1.00  0.00     0.000 C 
BRANCH  15  16
ATOM     16  C   UNL     1       7.443  15.863   3.401  1.00  0.00     0.000 C 
BRANCH  16  17
ATOM     17  C   UNL     1       8.244  14.607   3.020  1.00  0.00     0.000 C 
BRANCH  17  18
ATOM     18  C   UNL     1       7.926  14.100   1.600  1.00  0.00    -0.000 C 
BRANCH  18  19
ATOM     19  C   UNL     1       9.156  13.864   0.704  1.00  0.00    -0.000 C 
BRANCH  19  20
ATOM     20  C   UNL     1      10.506  13.811   1.444  1.00  0.00    -0.000 C 
BRANCH  20  21
ATOM     21  C   UNL     1      11.611  14.667   0.789  1.00  0.00    -0.000 C 
BRANCH  21  22
ATOM     22  C   UNL     1      11.150  16.108   0.510  1.00  0.00    -0.000 C 
BRANCH  22  23
ATOM     23  C   UNL     1      10.854  16.902   1.794  1.00  0.00    -0.000 C 
BRANCH  23  24
ATOM     24  C   UNL     1      11.744  18.141   2.019  1.00  0.00    -0.000 C 
BRANCH  24  25
ATOM     25  C   UNL     1      11.387  18.984   3.256  1.00  0.00    -0.003 C 
ATOM     26  C   UNL     1      10.261  18.373   4.088  1.00  0.00     0.004 C 
ENDBRANCH  24  25
ENDBRANCH  23  24
ENDBRANCH  22  23
ENDBRANCH  21  22
ENDBRANCH  20  21
ENDBRANCH  19  20
ENDBRANCH  18  19
ENDBRANCH  17  18
ENDBRANCH  16  17
ENDBRANCH  15  16
ENDBRANCH   1  15
TORSDOF 22
ENDMDL
MODEL 7
REMARK VINA RESULT:    -6.052      4.886     10.507
REMARK INTER + INTRA:         -16.129
REMARK INTER:                 -14.044
REMARK INTRA:                  -2.085
REMARK UNBOUND:                -2.293
REMARK SMILES CCCCCCCCCCCCCCCCCCCCCCCC(=O)[O-]
REMARK SMILES IDX 13 1 14 2 15 3 16 4 17 5 18 6 19 7 20 8 21 9 22 10 23 11
REMARK SMILES IDX 24 12 25 13 26 14 12 15 11 16 10 17 9 18 8 19 7 20 6 21 5 22
REMARK SMILES IDX 4 23 3 24 2 25 1 26
REMARK H PARENT
REMARK Flexibility Score: inf
ROOT
ATOM      1  C   UNL     1       8.151  15.141   3.591  1.00  0.00     0.000 C 
ENDROOT
BRANCH   1   2
ATOM      2  C   UNL     1       6.935  16.089   3.623  1.00  0.00     0.000 C 
BRANCH   2   3
ATOM      3  C   UNL     1       5.628  15.452   4.130  1.00  0.00     0.000 C 
BRANCH   3   4
ATOM      4  C   UNL     1       4.484  15.549   3.112  1.00  0.00     0.000 C 
BRANCH   4   5
ATOM      5  C   UNL     1       5.010  15.982   1.735  1.00  0.00     0.000 C 
BRANCH   5   6
ATOM      6  C   UNL     1       4.259  15.314   0.574  1.00  0.00     0.000 C 
BRANCH   6   7
ATOM      7  C   UNL     1       3.666  13.949   0.954  1.00  0.00     0.000 C 
BRANCH   7   8
ATOM      8  C   UNL     1       2.146  13.936   0.752  1.00  0.00     0.000 C 
BRANCH   8   9
ATOM      9  C   UNL     1       1.411  13.980   2.100  1.00  0.00     0.000 C 
BRANCH   9  10
ATOM     10  C   UNL     1      -0.046  13.490   2.001  1.00  0.00     0.006 C 
BRANCH  10  11
ATOM     11  C   UNL     1      -1.097  14.533   2.413  1.00  0.00     0.053 C 
BRANCH  11  12
ATOM     12  C   UNL     1      -1.738  14.200   3.725  1.00  0.00     0.041 C 
ATOM     13  O   UNL     1      -1.046  14.147   4.774  1.00  0.00    -0.550 OA
ATOM     14  O   UNL     1      -3.097  13.912   3.783  1.00  0.00    -0.550 OA
ENDBRANCH  11  12
ENDBRANCH  10  11
ENDBRANCH   9  10
ENDBRANCH   8   9
ENDBRANCH   7   8
ENDBRANCH   6   7
ENDBRANCH   5   6
ENDBRANCH   4   5
ENDBRANCH   3   4
ENDBRANCH   2   3
ENDBRANCH   1   2
BRANCH   1  15
ATOM     15  C   UNL     1       8.570  14.655   2.188  1.00  0.00     0.000 C 
BRANCH  15  16
ATOM     16  C   UNL     1       9.721  13.636   2.172  1.00  0.00     0.000 C 
BRANCH  16  17
ATOM     17  C   UNL     1      10.476  13.611   0.833  1.00  0.00     0.000 C 
BRANCH  17  18
ATOM     18  C   UNL     1       9.999  14.701  -0.145  1.00  0.00    -0.000 C 
BRANCH  18  19
ATOM     19  C   UNL     1      10.955  15.900  -0.299  1.00  0.00    -0.000 C 
BRANCH  19  20
ATOM     20  C   UNL     1      11.772  16.251   0.958  1.00  0.00    -0.000 C 
BRANCH  20  21
ATOM     21  C   UNL     1      11.569  17.701   1.450  1.00  0.00    -0.000 C 
BRANCH  21  22
ATOM     22  C   UNL     1      10.673  17.778   2.698  1.00  0.00    -0.000 C 
BRANCH  22  23
ATOM     23  C   UNL     1      10.850  19.090   3.482  1.00  0.00    -0.000 C 
BRANCH  23  24
ATOM     24  C   UNL     1      11.383  18.928   4.920  1.00  0.00    -0.000 C 
BRANCH  24  25
ATOM     25  C   UNL     1      12.796  19.489   5.158  1.00  0.00    -0.003 C 
ATOM     26  C   UNL     1      13.588  19.677   3.865  1.00  0.00     0.004 C 
ENDBRANCH  24  25
ENDBRANCH  23  24
ENDBRANCH  22  23
ENDBRANCH  21  22
ENDBRANCH  20  21
ENDBRANCH  19  20
ENDBRANCH  18  19
ENDBRANCH  17  18
ENDBRANCH  16  17
ENDBRANCH  15  16
ENDBRANCH   1  15
TORSDOF 22
ENDMDL
MODEL 8
REMARK VINA RESULT:    -5.979      2.859      9.766
REMARK INTER + INTRA:         -15.962
REMARK INTER:                 -14.456
REMARK INTRA:                  -1.506
REMARK UNBOUND:                -2.293
REMARK SMILES CCCCCCCCCCCCCCCCCCCCCCCC(=O)[O-]
REMARK SMILES IDX 13 1 14 2 15 3 16 4 17 5 18 6 19 7 20 8 21 9 22 10 23 11
REMARK SMILES IDX 24 12 25 13 26 14 12 15 11 16 10 17 9 18 8 19 7 20 6 21 5 22
REMARK SMILES IDX 4 23 3 24 2 25 1 26
REMARK H PARENT
REMARK Flexibility Score: inf
ROOT
ATOM      1  C   UNL     1      11.771  15.134   0.978  1.00  0.00     0.000 C 
ENDROOT
BRANCH   1   2
ATOM      2  C   UNL     1      10.909  13.922   1.386  1.00  0.00     0.000 C 
BRANCH   2   3
ATOM      3  C   UNL     1       9.425  14.237   1.647  1.00  0.00     0.000 C 
BRANCH   3   4
ATOM      4  C   UNL     1       8.507  13.764   0.512  1.00  0.00     0.000 C 
BRANCH   4   5
ATOM      5  C   UNL     1       7.126  14.430   0.611  1.00  0.00     0.000 C 
BRANCH   5   6
ATOM      6  C   UNL     1       6.012  13.437   0.972  1.00  0.00     0.000 C 
BRANCH   6   7
ATOM      7  C   UNL     1       4.691  13.732   0.244  1.00  0.00     0.000 C 
BRANCH   7   8
ATOM      8  C   UNL     1       3.488  13.379   1.127  1.00  0.00     0.000 C 
BRANCH   8   9
ATOM      9  C   UNL     1       3.761  13.737   2.597  1.00  0.00     0.000 C 
BRANCH   9  10
ATOM     10  C   UNL     1       3.452  15.210   2.919  1.00  0.00     0.006 C 
BRANCH  10  11
ATOM     11  C   UNL     1       4.672  16.142   2.864  1.00  0.00     0.053 C 
BRANCH  11  12
ATOM     12  C   UNL     1       5.516  16.041   4.097  1.00  0.00     0.041 C 
ATOM     13  O   UNL     1       4.976  16.015   5.234  1.00  0.00    -0.550 OA
ATOM     14  O   UNL     1       6.901  16.011   3.994  1.00  0.00    -0.550 OA
ENDBRANCH  11  12
ENDBRANCH  10  11
ENDBRANCH   9  10
ENDBRANCH   8   9
ENDBRANCH   7   8
ENDBRANCH   6   7
ENDBRANCH   5   6
ENDBRANCH   4   5
ENDBRANCH   3   4
ENDBRANCH   2   3
ENDBRANCH   1   2
BRANCH   1  15
ATOM     15  C   UNL     1      11.010  16.471   0.858  1.00  0.00     0.000 C 
BRANCH  15  16
ATOM     16  C   UNL     1      11.563  17.612   1.729  1.00  0.00     0.000 C 
BRANCH  16  17
ATOM     17  C   UNL     1      10.618  17.991   2.882  1.00  0.00     0.000 C 
BRANCH  17  18
ATOM     18  C   UNL     1      11.181  19.116   3.772  1.00  0.00    -0.000 C 
BRANCH  18  19
ATOM     19  C   UNL     1      12.689  19.381   3.608  1.00  0.00    -0.000 C 
BRANCH  19  20
ATOM     20  C   UNL     1      13.348  20.155   4.765  1.00  0.00    -0.000 C 
BRANCH  20  21
ATOM     21  C   UNL     1      12.695  19.897   6.140  1.00  0.00    -0.000 C 
BRANCH  21  22
ATOM     22  C   UNL     1      13.162  20.898   7.210  1.00  0.00    -0.000 C 
BRANCH  22  23
ATOM     23  C   UNL     1      12.207  20.978   8.414  1.00  0.00    -0.000 C 
BRANCH  23  24
ATOM     24  C   UNL     1      12.870  21.357   9.753  1.00  0.00    -0.000 C 
BRANCH  24  25
ATOM     25  C   UNL     1      13.858  20.316  10.309  1.00  0.00    -0.003 C 
ATOM     26  C   UNL     1      14.035  20.413  11.823  1.00  0.00     0.004 C 
ENDBRANCH  24  25
ENDBRANCH  23  24
ENDBRANCH  22  23
ENDBRANCH  21  22
ENDBRANCH  20  21
ENDBRANCH  19  20
ENDBRANCH  18  19
ENDBRANCH  17  18
ENDBRANCH  16  17
ENDBRANCH  15  16
ENDBRANCH   1  15
TORSDOF 22
ENDMDL
MODEL 9
REMARK VINA RESULT:    -5.938      4.370     10.186
REMARK INTER + INTRA:         -15.869
REMARK INTER:                 -13.981
REMARK INTRA:                  -1.887
REMARK UNBOUND:                -2.293
REMARK SMILES CCCCCCCCCCCCCCCCCCCCCCCC(=O)[O-]
REMARK SMILES IDX 13 1 14 2 15 3 16 4 17 5 18 6 19 7 20 8 21 9 22 10 23 11
REMARK SMILES IDX 24 12 25 13 26 14 12 15 11 16 10 17 9 18 8 19 7 20 6 21 5 22
REMARK SMILES IDX 4 23 3 24 2 25 1 26
REMARK H PARENT
REMARK Flexibility Score: inf
ROOT
ATOM      1  C   UNL     1      10.158  14.149   0.416  1.00  0.00     0.000 C 
ENDROOT
BRANCH   1   2
ATOM      2  C   UNL     1       8.644  14.192   0.128  1.00  0.00     0.000 C 
BRANCH   2   3
ATOM      3  C   UNL     1       7.754  14.425   1.362  1.00  0.00     0.000 C 
BRANCH   3   4
ATOM      4  C   UNL     1       8.561  14.580   2.658  1.00  0.00     0.000 C 
BRANCH   4   5
ATOM      5  C   UNL     1       7.828  15.492   3.654  1.00  0.00     0.000 C 
BRANCH   5   6
ATOM      6  C   UNL     1       6.407  15.851   3.196  1.00  0.00     0.000 C 
BRANCH   6   7
ATOM      7  C   UNL     1       5.368  15.725   4.321  1.00  0.00     0.000 C 
BRANCH   7   8
ATOM      8  C   UNL     1       4.135  14.948   3.843  1.00  0.00     0.000 C 
BRANCH   8   9
ATOM      9  C   UNL     1       4.512  13.935   2.752  1.00  0.00     0.000 C 
BRANCH   9  10
ATOM     10  C   UNL     1       3.283  13.276   2.099  1.00  0.00     0.006 C 
BRANCH  10  11
ATOM     11  C   UNL     1       2.268  14.267   1.509  1.00  0.00     0.053 C 
BRANCH  11  12
ATOM     12  C   UNL     1       0.953  14.220   2.223  1.00  0.00     0.041 C 
ATOM     13  O   UNL     1       0.810  14.804   3.328  1.00  0.00    -0.550 OA
ATOM     14  O   UNL     1      -0.107  13.499   1.684  1.00  0.00    -0.550 OA
ENDBRANCH  11  12
ENDBRANCH  10  11
ENDBRANCH   9  10
ENDBRANCH   8   9
ENDBRANCH   7   8
ENDBRANCH   6   7
ENDBRANCH   5   6
ENDBRANCH   4   5
ENDBRANCH   3   4
ENDBRANCH   2   3
ENDBRANCH   1   2
BRANCH   1  15
ATOM     15  C   UNL     1      10.943  15.410   0.002  1.00  0.00     0.000 C 
BRANCH  15  16
ATOM     16  C   UNL     1      11.737  16.080   1.137  1.00  0.00     0.000 C 
BRANCH  16  17
ATOM     17  C   UNL     1      11.361  17.558   1.334  1.00  0.00     0.000 C 
BRANCH  17  18
ATOM     18  C   UNL     1      10.598  17.813   2.648  1.00  0.00    -0.000 C 
BRANCH  18  19
ATOM     19  C   UNL     1      11.259  18.834   3.595  1.00  0.00    -0.000 C 
BRANCH  19  20
ATOM     20  C   UNL     1      12.737  19.145   3.294  1.00  0.00    -0.000 C 
BRANCH  20  21
ATOM     21  C   UNL     1      13.523  19.679   4.511  1.00  0.00    -0.000 C 
BRANCH  21  22
ATOM     22  C   UNL     1      12.678  19.691   5.796  1.00  0.00    -0.000 C 
BRANCH  22  23
ATOM     23  C   UNL     1      12.939  20.930   6.672  1.00  0.00    -0.000 C 
BRANCH  23  24
ATOM     24  C   UNL     1      13.422  20.629   8.105  1.00  0.00    -0.000 C 
BRANCH  24  25
ATOM     25  C   UNL     1      12.472  21.092   9.224  1.00  0.00    -0.003 C 
ATOM     26  C   UNL     1      11.896  22.485   8.977  1.00  0.00     0.004 C 
ENDBRANCH  24  25
ENDBRANCH  23  24
ENDBRANCH  22  23
ENDBRANCH  21  22
ENDBRANCH  20  21
ENDBRANCH  19  20
ENDBRANCH  18  19
ENDBRANCH  17  18
ENDBRANCH  16  17
ENDBRANCH  15  16
ENDBRANCH   1  15
TORSDOF 22
ENDMDL
