MODEL 1
REMARK VINA RESULT:    -4.897      0.000      0.000
REMARK INTER + INTRA:          -7.385
REMARK INTER:                  -6.615
REMARK INTRA:                  -0.769
REMARK UNBOUND:                -0.769
REMARK SMILES C=C[C@](C)(CCC=C(C)C)OC(C)=O
REMARK SMILES IDX 3 1 4 2 5 3 6 4 7 5 9 6 8 7 10 8 2 9 1 10 11 11 12 12 14 13
REMARK SMILES IDX 13 14
REMARK H PARENT
REMARK Flexibility Score: inf
ROOT
ATOM      1  C   UNL     1     135.366   1.546  95.073  1.00  0.00     0.127 C 
ATOM      2  C   UNL     1     136.841   1.311  94.681  1.00  0.00     0.061 C 
ENDROOT
BRANCH   1   3
ATOM      3  C   UNL     1     135.302   2.723  96.087  1.00  0.00     0.057 C 
BRANCH   3   4
ATOM      4  C   UNL     1     135.994   4.022  95.619  1.00  0.00     0.032 C 
BRANCH   4   5
ATOM      5  C   UNL     1     135.114   5.241  95.758  1.00  0.00    -0.028 C 
ATOM      6  C   UNL     1     134.435   5.247  93.345  1.00  0.00     0.039 C 
ATOM      7  C   UNL     1     134.434   5.819  94.743  1.00  0.00    -0.080 C 
ATOM      8  C   UNL     1     133.630   7.060  95.036  1.00  0.00     0.039 C 
ENDBRANCH   4   5
ENDBRANCH   3   4
ENDBRANCH   1   3
BRANCH   1   9
ATOM      9  C   UNL     1     134.770   0.280  95.674  1.00  0.00     0.013 C 
ATOM     10  C   UNL     1     135.363  -0.919  95.592  1.00  0.00     0.008 C 
ENDBRANCH   1   9
BRANCH   1  11
ATOM     11  O   UNL     1     134.626   1.933  93.904  1.00  0.00    -0.455 OA
BRANCH  11  12
ATOM     12  C   UNL     1     133.313   1.543  93.596  1.00  0.00     0.303 C 
ATOM     13  O   UNL     1     133.083   0.532  92.879  1.00  0.00    -0.253 OA
ATOM     14  C   UNL     1     132.173   2.361  94.098  1.00  0.00     0.139 C 
ENDBRANCH  11  12
ENDBRANCH   1  11
TORSDOF 6
ENDMDL
MODEL 2
REMARK VINA RESULT:    -4.824      1.509      2.950
REMARK INTER + INTRA:          -7.286
REMARK INTER:                  -6.750
REMARK INTRA:                  -0.536
REMARK UNBOUND:                -0.769
REMARK SMILES C=C[C@](C)(CCC=C(C)C)OC(C)=O
REMARK SMILES IDX 3 1 4 2 5 3 6 4 7 5 9 6 8 7 10 8 2 9 1 10 11 11 12 12 14 13
REMARK SMILES IDX 13 14
REMARK H PARENT
REMARK Flexibility Score: inf
ROOT
ATOM      1  C   UNL     1     133.921   1.775  94.201  1.00  0.00     0.127 C 
ATOM      2  C   UNL     1     133.840   0.931  95.491  1.00  0.00     0.061 C 
ENDROOT
BRANCH   1   3
ATOM      3  C   UNL     1     133.540   3.243  94.542  1.00  0.00     0.057 C 
BRANCH   3   4
ATOM      4  C   UNL     1     133.992   4.290  93.502  1.00  0.00     0.032 C 
BRANCH   4   5
ATOM      5  C   UNL     1     135.148   5.135  93.980  1.00  0.00    -0.028 C 
ATOM      6  C   UNL     1     133.678   6.869  95.036  1.00  0.00     0.039 C 
ATOM      7  C   UNL     1     135.024   6.307  94.641  1.00  0.00    -0.080 C 
ATOM      8  C   UNL     1     136.278   7.054  95.014  1.00  0.00     0.039 C 
ENDBRANCH   4   5
ENDBRANCH   3   4
ENDBRANCH   1   3
BRANCH   1   9
ATOM      9  C   UNL     1     132.990   1.206  93.138  1.00  0.00     0.013 C 
ATOM     10  C   UNL     1     132.666  -0.092  93.066  1.00  0.00     0.008 C 
ENDBRANCH   1   9
BRANCH   1  11
ATOM     11  O   UNL     1     135.276   1.772  93.722  1.00  0.00    -0.455 OA
BRANCH  11  12
ATOM     12  C   UNL     1     136.405   1.371  94.454  1.00  0.00     0.303 C 
ATOM     13  O   UNL     1     136.786   0.169  94.459  1.00  0.00    -0.253 OA
ATOM     14  C   UNL     1     137.142   2.378  95.267  1.00  0.00     0.139 C 
ENDBRANCH  11  12
ENDBRANCH   1  11
TORSDOF 6
ENDMDL
MODEL 3
REMARK VINA RESULT:    -4.688      2.052      4.684
REMARK INTER + INTRA:          -7.101
REMARK INTER:                  -6.447
REMARK INTRA:                  -0.654
REMARK UNBOUND:                -0.769
REMARK SMILES C=C[C@](C)(CCC=C(C)C)OC(C)=O
REMARK SMILES IDX 3 1 4 2 5 3 6 4 7 5 9 6 8 7 10 8 2 9 1 10 11 11 12 12 14 13
REMARK SMILES IDX 13 14
REMARK H PARENT
REMARK Flexibility Score: inf
ROOT
ATOM      1  C   UNL     1     134.993   2.495  95.150  1.00  0.00     0.127 C 
ATOM      2  C   UNL     1     134.256   1.282  95.756  1.00  0.00     0.061 C 
ENDROOT
BRANCH   1   3
ATOM      3  C   UNL     1     134.198   2.992  93.910  1.00  0.00     0.057 C 
BRANCH   3   4
ATOM      4  C   UNL     1     132.776   2.407  93.773  1.00  0.00     0.032 C 
BRANCH   4   5
ATOM      5  C   UNL     1     132.489   1.871  92.391  1.00  0.00    -0.028 C 
ATOM      6  C   UNL     1     132.568  -0.529  93.109  1.00  0.00     0.039 C 
ATOM      7  C   UNL     1     132.423   0.560  92.072  1.00  0.00    -0.080 C 
ATOM      8  C   UNL     1     132.169   0.185  90.634  1.00  0.00     0.039 C 
ENDBRANCH   4   5
ENDBRANCH   3   4
ENDBRANCH   1   3
BRANCH   1   9
ATOM      9  C   UNL     1     136.415   2.110  94.764  1.00  0.00     0.013 C 
ATOM     10  C   UNL     1     136.768   0.866  94.414  1.00  0.00     0.008 C 
ENDBRANCH   1   9
BRANCH   1  11
ATOM     11  O   UNL     1     135.014   3.561  96.114  1.00  0.00    -0.455 OA
BRANCH  11  12
ATOM     12  C   UNL     1     134.842   4.925  95.834  1.00  0.00     0.303 C 
ATOM     13  O   UNL     1     133.714   5.478  95.949  1.00  0.00    -0.253 OA
ATOM     14  C   UNL     1     136.005   5.724  95.357  1.00  0.00     0.139 C 
ENDBRANCH  11  12
ENDBRANCH   1  11
TORSDOF 6
ENDMDL
MODEL 4
REMARK VINA RESULT:    -4.607      2.357      5.050
REMARK INTER + INTRA:          -6.992
REMARK INTER:                  -6.349
REMARK INTRA:                  -0.643
REMARK UNBOUND:                -0.769
REMARK SMILES C=C[C@](C)(CCC=C(C)C)OC(C)=O
REMARK SMILES IDX 3 1 4 2 5 3 6 4 7 5 9 6 8 7 10 8 2 9 1 10 11 11 12 12 14 13
REMARK SMILES IDX 13 14
REMARK H PARENT
REMARK Flexibility Score: inf
ROOT
ATOM      1  C   UNL     1     134.290   5.144  94.890  1.00  0.00     0.127 C 
ATOM      2  C   UNL     1     135.260   6.280  94.500  1.00  0.00     0.061 C 
ENDROOT
BRANCH   1   3
ATOM      3  C   UNL     1     134.870   4.397  96.125  1.00  0.00     0.057 C 
BRANCH   3   4
ATOM      4  C   UNL     1     135.798   3.211  95.789  1.00  0.00     0.032 C 
BRANCH   4   5
ATOM      5  C   UNL     1     135.188   1.871  96.124  1.00  0.00    -0.028 C 
ATOM      6  C   UNL     1     136.505   0.634  94.386  1.00  0.00     0.039 C 
ATOM      7  C   UNL     1     135.472   0.714  95.486  1.00  0.00    -0.080 C 
ATOM      8  C   UNL     1     134.745  -0.535  95.913  1.00  0.00     0.039 C 
ENDBRANCH   4   5
ENDBRANCH   3   4
ENDBRANCH   1   3
BRANCH   1   9
ATOM      9  C   UNL     1     134.098   4.189  93.719  1.00  0.00     0.013 C 
ATOM     10  C   UNL     1     132.966   3.503  93.513  1.00  0.00     0.008 C 
ENDBRANCH   1   9
BRANCH   1  11
ATOM     11  O   UNL     1     133.029   5.715  95.274  1.00  0.00    -0.455 OA
BRANCH  11  12
ATOM     12  C   UNL     1     132.560   6.988  94.915  1.00  0.00     0.303 C 
ATOM     13  O   UNL     1     132.796   7.998  95.633  1.00  0.00    -0.253 OA
ATOM     14  C   UNL     1     131.739   7.141  93.681  1.00  0.00     0.139 C 
ENDBRANCH  11  12
ENDBRANCH   1  11
TORSDOF 6
ENDMDL
MODEL 5
REMARK VINA RESULT:    -4.517      2.072      4.427
REMARK INTER + INTRA:          -6.871
REMARK INTER:                  -6.434
REMARK INTRA:                  -0.437
REMARK UNBOUND:                -0.769
REMARK SMILES C=C[C@](C)(CCC=C(C)C)OC(C)=O
REMARK SMILES IDX 3 1 4 2 5 3 6 4 7 5 9 6 8 7 10 8 2 9 1 10 11 11 12 12 14 13
REMARK SMILES IDX 13 14
REMARK H PARENT
REMARK Flexibility Score: inf
ROOT
ATOM      1  C   UNL     1     134.625   5.039  94.881  1.00  0.00     0.127 C 
ATOM      2  C   UNL     1     134.542   5.121  93.342  1.00  0.00     0.061 C 
ENDROOT
BRANCH   1   3
ATOM      3  C   UNL     1     133.374   5.736  95.485  1.00  0.00     0.057 C 
BRANCH   3   4
ATOM      4  C   UNL     1     132.535   6.551  94.478  1.00  0.00     0.032 C 
BRANCH   4   5
ATOM      5  C   UNL     1     132.025   7.851  95.052  1.00  0.00    -0.028 C 
ATOM      6  C   UNL     1     130.782   8.490  92.971  1.00  0.00     0.039 C 
ATOM      7  C   UNL     1     131.264   8.744  94.380  1.00  0.00    -0.080 C 
ATOM      8  C   UNL     1     130.869  10.018  95.081  1.00  0.00     0.039 C 
ENDBRANCH   4   5
ENDBRANCH   3   4
ENDBRANCH   1   3
BRANCH   1   9
ATOM      9  C   UNL     1     135.906   5.699  95.376  1.00  0.00     0.013 C 
ATOM     10  C   UNL     1     136.276   6.936  95.021  1.00  0.00     0.008 C 
ENDBRANCH   1   9
BRANCH   1  11
ATOM     11  O   UNL     1     134.596   3.659  95.280  1.00  0.00    -0.455 OA
BRANCH  11  12
ATOM     12  C   UNL     1     135.282   2.607  94.653  1.00  0.00     0.303 C 
ATOM     13  O   UNL     1     134.712   1.871  93.802  1.00  0.00    -0.253 OA
ATOM     14  C   UNL     1     136.698   2.335  95.027  1.00  0.00     0.139 C 
ENDBRANCH  11  12
ENDBRANCH   1  11
TORSDOF 6
ENDMDL
MODEL 6
REMARK VINA RESULT:    -4.457      1.952      4.534
REMARK INTER + INTRA:          -6.789
REMARK INTER:                  -6.148
REMARK INTRA:                  -0.641
REMARK UNBOUND:                -0.769
REMARK SMILES C=C[C@](C)(CCC=C(C)C)OC(C)=O
REMARK SMILES IDX 3 1 4 2 5 3 6 4 7 5 9 6 8 7 10 8 2 9 1 10 11 11 12 12 14 13
REMARK SMILES IDX 13 14
REMARK H PARENT
REMARK Flexibility Score: inf
ROOT
ATOM      1  C   UNL     1     135.035   1.572  94.649  1.00  0.00     0.127 C 
ATOM      2  C   UNL     1     134.757   2.032  96.096  1.00  0.00     0.061 C 
ENDROOT
BRANCH   1   3
ATOM      3  C   UNL     1     134.255   0.252  94.388  1.00  0.00     0.057 C 
BRANCH   3   4
ATOM      4  C   UNL     1     132.842   0.439  93.796  1.00  0.00     0.032 C 
BRANCH   4   5
ATOM      5  C   UNL     1     132.716  -0.096  92.390  1.00  0.00    -0.028 C 
ATOM      6  C   UNL     1     131.869   2.068  91.451  1.00  0.00     0.039 C 
ATOM      7  C   UNL     1     132.254   0.612  91.336  1.00  0.00    -0.080 C 
ATOM      8  C   UNL     1     132.149  -0.080  90.001  1.00  0.00     0.039 C 
ENDBRANCH   4   5
ENDBRANCH   3   4
ENDBRANCH   1   3
BRANCH   1   9
ATOM      9  C   UNL     1     136.530   1.370  94.437  1.00  0.00     0.013 C 
ATOM     10  C   UNL     1     137.463   2.112  95.046  1.00  0.00     0.008 C 
ENDBRANCH   1   9
BRANCH   1  11
ATOM     11  O   UNL     1     134.537   2.564  93.738  1.00  0.00    -0.455 OA
BRANCH  11  12
ATOM     12  C   UNL     1     134.111   3.856  94.082  1.00  0.00     0.303 C 
ATOM     13  O   UNL     1     132.894   4.107  94.298  1.00  0.00    -0.253 OA
ATOM     14  C   UNL     1     135.111   4.958  94.158  1.00  0.00     0.139 C 
ENDBRANCH  11  12
ENDBRANCH   1  11
TORSDOF 6
ENDMDL
MODEL 7
REMARK VINA RESULT:    -4.443      2.331      5.209
REMARK INTER + INTRA:          -6.771
REMARK INTER:                  -6.263
REMARK INTRA:                  -0.509
REMARK UNBOUND:                -0.769
REMARK SMILES C=C[C@](C)(CCC=C(C)C)OC(C)=O
REMARK SMILES IDX 3 1 4 2 5 3 6 4 7 5 9 6 8 7 10 8 2 9 1 10 11 11 12 12 14 13
REMARK SMILES IDX 13 14
REMARK H PARENT
REMARK Flexibility Score: inf
ROOT
ATOM      1  C   UNL     1     134.357   5.259  94.450  1.00  0.00     0.127 C 
ATOM      2  C   UNL     1     134.247   5.031  95.972  1.00  0.00     0.061 C 
ENDROOT
BRANCH   1   3
ATOM      3  C   UNL     1     134.381   3.876  93.740  1.00  0.00     0.057 C 
BRANCH   3   4
ATOM      4  C   UNL     1     133.988   2.680  94.633  1.00  0.00     0.032 C 
BRANCH   4   5
ATOM      5  C   UNL     1     134.864   1.470  94.417  1.00  0.00    -0.028 C 
ATOM      6  C   UNL     1     136.931   2.585  95.293  1.00  0.00     0.039 C 
ATOM      7  C   UNL     1     136.189   1.421  94.679  1.00  0.00    -0.080 C 
ATOM      8  C   UNL     1     136.934   0.148  94.368  1.00  0.00     0.039 C 
ENDBRANCH   4   5
ENDBRANCH   3   4
ENDBRANCH   1   3
BRANCH   1   9
ATOM      9  C   UNL     1     135.613   6.057  94.124  1.00  0.00     0.013 C 
ATOM     10  C   UNL     1     136.246   6.823  95.022  1.00  0.00     0.008 C 
ENDBRANCH   1   9
BRANCH   1  11
ATOM     11  O   UNL     1     133.191   5.965  93.996  1.00  0.00    -0.455 OA
BRANCH  11  12
ATOM     12  C   UNL     1     132.201   6.529  94.816  1.00  0.00     0.303 C 
ATOM     13  O   UNL     1     131.201   5.856  95.188  1.00  0.00    -0.253 OA
ATOM     14  C   UNL     1     132.316   7.957  95.221  1.00  0.00     0.139 C 
ENDBRANCH  11  12
ENDBRANCH   1  11
TORSDOF 6
ENDMDL
MODEL 8
REMARK VINA RESULT:    -4.412      1.416      4.576
REMARK INTER + INTRA:          -6.729
REMARK INTER:                  -6.127
REMARK INTRA:                  -0.602
REMARK UNBOUND:                -0.769
REMARK SMILES C=C[C@](C)(CCC=C(C)C)OC(C)=O
REMARK SMILES IDX 3 1 4 2 5 3 6 4 7 5 9 6 8 7 10 8 2 9 1 10 11 11 12 12 14 13
REMARK SMILES IDX 13 14
REMARK H PARENT
REMARK Flexibility Score: inf
ROOT
ATOM      1  C   UNL     1     134.324   5.357  94.584  1.00  0.00     0.127 C 
ATOM      2  C   UNL     1     133.347   6.527  94.825  1.00  0.00     0.061 C 
ENDROOT
BRANCH   1   3
ATOM      3  C   UNL     1     134.211   4.361  95.773  1.00  0.00     0.057 C 
BRANCH   3   4
ATOM      4  C   UNL     1     135.462   3.488  96.010  1.00  0.00     0.032 C 
BRANCH   4   5
ATOM      5  C   UNL     1     135.142   2.018  96.124  1.00  0.00    -0.028 C 
ATOM      6  C   UNL     1     136.757   1.343  94.329  1.00  0.00     0.039 C 
ATOM      7  C   UNL     1     135.690   1.048  95.358  1.00  0.00    -0.080 C 
ATOM      8  C   UNL     1     135.233  -0.373  95.567  1.00  0.00     0.039 C 
ENDBRANCH   4   5
ENDBRANCH   3   4
ENDBRANCH   1   3
BRANCH   1   9
ATOM      9  C   UNL     1     135.749   5.878  94.447  1.00  0.00     0.013 C 
ATOM     10  C   UNL     1     136.168   7.021  95.005  1.00  0.00     0.008 C 
ENDBRANCH   1   9
BRANCH   1  11
ATOM     11  O   UNL     1     133.936   4.661  93.389  1.00  0.00    -0.455 OA
BRANCH  11  12
ATOM     12  C   UNL     1     132.965   3.651  93.305  1.00  0.00     0.303 C 
ATOM     13  O   UNL     1     133.292   2.437  93.200  1.00  0.00    -0.253 OA
ATOM     14  C   UNL     1     131.523   4.025  93.302  1.00  0.00     0.139 C 
ENDBRANCH  11  12
ENDBRANCH   1  11
TORSDOF 6
ENDMDL
MODEL 9
REMARK VINA RESULT:    -4.309      1.653      2.881
REMARK INTER + INTRA:          -6.590
REMARK INTER:                  -5.942
REMARK INTRA:                  -0.648
REMARK UNBOUND:                -0.769
REMARK SMILES C=C[C@](C)(CCC=C(C)C)OC(C)=O
REMARK SMILES IDX 3 1 4 2 5 3 6 4 7 5 9 6 8 7 10 8 2 9 1 10 11 11 12 12 14 13
REMARK SMILES IDX 13 14
REMARK H PARENT
REMARK Flexibility Score: inf
ROOT
ATOM      1  C   UNL     1     134.873   4.114  94.976  1.00  0.00     0.127 C 
ATOM      2  C   UNL     1     134.865   4.486  93.478  1.00  0.00     0.061 C 
ENDROOT
BRANCH   1   3
ATOM      3  C   UNL     1     134.268   5.295  95.786  1.00  0.00     0.057 C 
BRANCH   3   4
ATOM      4  C   UNL     1     134.128   6.617  95.001  1.00  0.00     0.032 C 
BRANCH   4   5
ATOM      5  C   UNL     1     132.870   7.376  95.344  1.00  0.00    -0.028 C 
ATOM      6  C   UNL     1     131.553   6.409  93.443  1.00  0.00     0.039 C 
ATOM      7  C   UNL     1     131.718   7.317  94.639  1.00  0.00    -0.080 C 
ATOM      8  C   UNL     1     130.560   8.171  95.087  1.00  0.00     0.039 C 
ENDBRANCH   4   5
ENDBRANCH   3   4
ENDBRANCH   1   3
BRANCH   1   9
ATOM      9  C   UNL     1     136.293   3.812  95.437  1.00  0.00     0.013 C 
ATOM     10  C   UNL     1     136.899   2.637  95.222  1.00  0.00     0.008 C 
ENDBRANCH   1   9
BRANCH   1  11
ATOM     11  O   UNL     1     134.034   2.966  95.179  1.00  0.00    -0.455 OA
BRANCH  11  12
ATOM     12  C   UNL     1     133.345   2.264  94.177  1.00  0.00     0.303 C 
ATOM     13  O   UNL     1     133.922   1.385  93.481  1.00  0.00    -0.253 OA
ATOM     14  C   UNL     1     131.916   2.591  93.910  1.00  0.00     0.139 C 
ENDBRANCH  11  12
ENDBRANCH   1  11
TORSDOF 6
ENDMDL
