MODEL 1
REMARK VINA RESULT:    -6.127      0.000      0.000
REMARK INTER + INTRA:          -7.597
REMARK INTER:                  -7.380
REMARK INTRA:                  -0.217
REMARK UNBOUND:                -0.217
REMARK SMILES O=c1c(O)c(-c2ccc(O)c(O)c2)oc2cc(O)cc(O)c12
REMARK SMILES IDX 5 1 3 2 2 3 1 4 22 5 20 6 19 7 17 8 16 9 15 10 14 11 6 12
REMARK SMILES IDX 7 13 8 14 9 15 13 16 11 17 10 18 12 20 4 22 21 24 18 26
REMARK H PARENT 10 19 12 21 4 23 21 25 18 27
REMARK Flexibility Score: inf
ROOT
ATOM      1  C   UNL     1      27.367 -22.881   0.350  1.00  0.00     0.180 A 
ATOM      2  C   UNL     1      26.158 -23.524   0.028  1.00  0.00     0.208 A 
ATOM      3  C   UNL     1      26.193 -24.853  -0.420  1.00  0.00     0.238 A 
ATOM      4  O   UNL     1      25.113 -25.405  -0.757  1.00  0.00    -0.285 OA
ATOM      5  C   UNL     1      27.432 -25.530  -0.526  1.00  0.00     0.111 A 
ATOM      6  C   UNL     1      27.580 -26.890  -0.930  1.00  0.00     0.134 A 
ATOM      7  C   UNL     1      28.863 -27.417  -1.125  1.00  0.00     0.093 A 
ATOM      8  C   UNL     1      30.002 -26.654  -0.869  1.00  0.00     0.123 A 
ATOM      9  C   UNL     1      29.868 -25.340  -0.415  1.00  0.00     0.094 A 
ATOM     10  C   UNL     1      28.601 -24.776  -0.246  1.00  0.00     0.146 A 
ATOM     11  O   UNL     1      28.518 -23.521   0.176  1.00  0.00    -0.452 OA
ENDROOT
BRANCH   1  12
ATOM     12  C   UNL     1      27.411 -21.489   0.851  1.00  0.00     0.025 A 
ATOM     13  C   UNL     1      28.040 -20.496   0.085  1.00  0.00     0.016 A 
ATOM     14  C   UNL     1      28.111 -19.181   0.549  1.00  0.00     0.051 A 
ATOM     15  C   UNL     1      27.567 -18.841   1.795  1.00  0.00     0.157 A 
ATOM     16  C   UNL     1      26.883 -21.148   2.110  1.00  0.00     0.062 A 
ATOM     17  C   UNL     1      26.954 -19.831   2.581  1.00  0.00     0.158 A 
BRANCH  15  18
ATOM     18  O   UNL     1      27.637 -17.526   2.255  1.00  0.00    -0.504 OA
ATOM     19  H   UNL     1      27.606 -16.740   1.618  1.00  0.00     0.293 HD
ENDBRANCH  15  18
BRANCH  17  20
ATOM     20  O   UNL     1      26.416 -19.528   3.831  1.00  0.00    -0.504 OA
ATOM     21  H   UNL     1      26.886 -19.777   4.694  1.00  0.00     0.293 HD
ENDBRANCH  17  20
ENDBRANCH   1  12
BRANCH   2  22
ATOM     22  O   UNL     1      24.948 -22.830   0.120  1.00  0.00    -0.502 OA
ATOM     23  H   UNL     1      24.627 -22.201  -0.606  1.00  0.00     0.293 HD
ENDBRANCH   2  22
BRANCH   6  24
ATOM     24  O   UNL     1      26.510 -27.769  -1.125  1.00  0.00    -0.507 OA
ATOM     25  H   UNL     1      26.069 -27.949  -2.014  1.00  0.00     0.293 HD
ENDBRANCH   6  24
BRANCH   8  26
ATOM     26  O   UNL     1      31.262 -27.215  -1.059  1.00  0.00    -0.508 OA
ATOM     27  H   UNL     1      31.675 -27.291  -1.981  1.00  0.00     0.293 HD
ENDBRANCH   8  26
TORSDOF 6
ENDMDL
MODEL 2
REMARK VINA RESULT:    -5.831      2.397      2.736
REMARK INTER + INTRA:          -7.241
REMARK INTER:                  -7.611
REMARK INTRA:                   0.370
REMARK UNBOUND:                -0.217
REMARK SMILES O=c1c(O)c(-c2ccc(O)c(O)c2)oc2cc(O)cc(O)c12
REMARK SMILES IDX 5 1 3 2 2 3 1 4 22 5 20 6 19 7 17 8 16 9 15 10 14 11 6 12
REMARK SMILES IDX 7 13 8 14 9 15 13 16 11 17 10 18 12 20 4 22 21 24 18 26
REMARK H PARENT 10 19 12 21 4 23 21 25 18 27
REMARK Flexibility Score: inf
ROOT
ATOM      1  C   UNL     1      25.608 -22.766  -0.368  1.00  0.00     0.180 A 
ATOM      2  C   UNL     1      24.785 -23.871  -0.648  1.00  0.00     0.208 A 
ATOM      3  C   UNL     1      25.371 -25.138  -0.786  1.00  0.00     0.238 A 
ATOM      4  O   UNL     1      24.637 -26.114  -1.090  1.00  0.00    -0.285 OA
ATOM      5  C   UNL     1      26.771 -25.289  -0.628  1.00  0.00     0.111 A 
ATOM      6  C   UNL     1      27.466 -26.533  -0.707  1.00  0.00     0.134 A 
ATOM      7  C   UNL     1      28.865 -26.546  -0.664  1.00  0.00     0.093 A 
ATOM      8  C   UNL     1      29.591 -25.370  -0.481  1.00  0.00     0.123 A 
ATOM      9  C   UNL     1      28.918 -24.155  -0.342  1.00  0.00     0.094 A 
ATOM     10  C   UNL     1      27.524 -24.105  -0.416  1.00  0.00     0.146 A 
ATOM     11  O   UNL     1      26.924 -22.929  -0.291  1.00  0.00    -0.452 OA
ENDROOT
BRANCH   1  12
ATOM     12  C   UNL     1      25.061 -21.402  -0.184  1.00  0.00     0.025 A 
ATOM     13  C   UNL     1      25.780 -20.465   0.574  1.00  0.00     0.016 A 
ATOM     14  C   UNL     1      25.273 -19.179   0.778  1.00  0.00     0.051 A 
ATOM     15  C   UNL     1      24.031 -18.816   0.240  1.00  0.00     0.157 A 
ATOM     16  C   UNL     1      23.806 -21.040  -0.706  1.00  0.00     0.062 A 
ATOM     17  C   UNL     1      23.293 -19.754  -0.502  1.00  0.00     0.158 A 
BRANCH  15  18
ATOM     18  O   UNL     1      23.529 -17.531   0.442  1.00  0.00    -0.504 OA
ATOM     19  H   UNL     1      22.541 -17.367   0.595  1.00  0.00     0.293 HD
ENDBRANCH  15  18
BRANCH  17  20
ATOM     20  O   UNL     1      22.048 -19.427  -1.040  1.00  0.00    -0.504 OA
ATOM     21  H   UNL     1      21.864 -19.468  -2.035  1.00  0.00     0.293 HD
ENDBRANCH  17  20
ENDBRANCH   1  12
BRANCH   2  22
ATOM     22  O   UNL     1      23.409 -23.696  -0.821  1.00  0.00    -0.502 OA
ATOM     23  H   UNL     1      23.013 -23.321  -1.674  1.00  0.00     0.293 HD
ENDBRANCH   2  22
BRANCH   6  24
ATOM     24  O   UNL     1      26.833 -27.777  -0.800  1.00  0.00    -0.507 OA
ATOM     25  H   UNL     1      27.082 -28.500  -1.456  1.00  0.00     0.293 HD
ENDBRANCH   6  24
BRANCH   8  26
ATOM     26  O   UNL     1      30.982 -25.422  -0.428  1.00  0.00    -0.508 OA
ATOM     27  H   UNL     1      31.471 -26.263  -0.143  1.00  0.00     0.293 HD
ENDBRANCH   8  26
TORSDOF 6
ENDMDL
MODEL 3
REMARK VINA RESULT:    -5.799      2.050      2.169
REMARK INTER + INTRA:          -7.202
REMARK INTER:                  -7.246
REMARK INTRA:                   0.044
REMARK UNBOUND:                -0.217
REMARK SMILES O=c1c(O)c(-c2ccc(O)c(O)c2)oc2cc(O)cc(O)c12
REMARK SMILES IDX 5 1 3 2 2 3 1 4 22 5 20 6 19 7 17 8 16 9 15 10 14 11 6 12
REMARK SMILES IDX 7 13 8 14 9 15 13 16 11 17 10 18 12 20 4 22 21 24 18 26
REMARK H PARENT 10 19 12 21 4 23 21 25 18 27
REMARK Flexibility Score: inf
ROOT
ATOM      1  C   UNL     1      25.787 -22.940  -0.372  1.00  0.00     0.180 A 
ATOM      2  C   UNL     1      24.931 -24.020  -0.649  1.00  0.00     0.208 A 
ATOM      3  C   UNL     1      25.482 -25.299  -0.823  1.00  0.00     0.238 A 
ATOM      4  O   UNL     1      24.716 -26.251  -1.125  1.00  0.00    -0.285 OA
ATOM      5  C   UNL     1      26.880 -25.487  -0.702  1.00  0.00     0.111 A 
ATOM      6  C   UNL     1      27.541 -26.746  -0.818  1.00  0.00     0.134 A 
ATOM      7  C   UNL     1      28.940 -26.794  -0.810  1.00  0.00     0.093 A 
ATOM      8  C   UNL     1      29.700 -25.640  -0.624  1.00  0.00     0.123 A 
ATOM      9  C   UNL     1      29.061 -24.411  -0.449  1.00  0.00     0.094 A 
ATOM     10  C   UNL     1      27.668 -24.326  -0.489  1.00  0.00     0.146 A 
ATOM     11  O   UNL     1      27.100 -23.137  -0.329  1.00  0.00    -0.452 OA
ENDROOT
BRANCH   1  12
ATOM     12  C   UNL     1      25.280 -21.567  -0.151  1.00  0.00     0.025 A 
ATOM     13  C   UNL     1      24.398 -20.998  -1.082  1.00  0.00     0.016 A 
ATOM     14  C   UNL     1      23.923 -19.696  -0.905  1.00  0.00     0.051 A 
ATOM     15  C   UNL     1      24.336 -18.937   0.199  1.00  0.00     0.157 A 
ATOM     16  C   UNL     1      25.707 -20.796   0.945  1.00  0.00     0.062 A 
ATOM     17  C   UNL     1      25.236 -19.490   1.126  1.00  0.00     0.158 A 
BRANCH  15  18
ATOM     18  O   UNL     1      23.859 -17.639   0.375  1.00  0.00    -0.504 OA
ATOM     19  H   UNL     1      23.095 -17.437   1.009  1.00  0.00     0.293 HD
ENDBRANCH  15  18
BRANCH  17  20
ATOM     20  O   UNL     1      25.677 -18.757   2.228  1.00  0.00    -0.504 OA
ATOM     21  H   UNL     1      26.297 -17.962   2.131  1.00  0.00     0.293 HD
ENDBRANCH  17  20
ENDBRANCH   1  12
BRANCH   2  22
ATOM     22  O   UNL     1      23.556 -23.808  -0.787  1.00  0.00    -0.502 OA
ATOM     23  H   UNL     1      23.173 -22.945  -1.154  1.00  0.00     0.293 HD
ENDBRANCH   2  22
BRANCH   6  24
ATOM     24  O   UNL     1      26.876 -27.972  -0.916  1.00  0.00    -0.507 OA
ATOM     25  H   UNL     1      26.339 -28.395  -0.174  1.00  0.00     0.293 HD
ENDBRANCH   6  24
BRANCH   8  26
ATOM     26  O   UNL     1      31.090 -25.727  -0.606  1.00  0.00    -0.508 OA
ATOM     27  H   UNL     1      31.674 -24.952  -0.897  1.00  0.00     0.293 HD
ENDBRANCH   8  26
TORSDOF 6
ENDMDL
MODEL 4
REMARK VINA RESULT:    -5.730      2.300      6.882
REMARK INTER + INTRA:          -7.119
REMARK INTER:                  -7.584
REMARK INTRA:                   0.464
REMARK UNBOUND:                -0.217
REMARK SMILES O=c1c(O)c(-c2ccc(O)c(O)c2)oc2cc(O)cc(O)c12
REMARK SMILES IDX 5 1 3 2 2 3 1 4 22 5 20 6 19 7 17 8 16 9 15 10 14 11 6 12
REMARK SMILES IDX 7 13 8 14 9 15 13 16 11 17 10 18 12 20 4 22 21 24 18 26
REMARK H PARENT 10 19 12 21 4 23 21 25 18 27
REMARK Flexibility Score: inf
ROOT
ATOM      1  C   UNL     1      25.875 -23.552  -0.603  1.00  0.00     0.180 A 
ATOM      2  C   UNL     1      24.489 -23.779  -0.544  1.00  0.00     0.208 A 
ATOM      3  C   UNL     1      23.621 -22.680  -0.458  1.00  0.00     0.238 A 
ATOM      4  O   UNL     1      22.385 -22.892  -0.351  1.00  0.00    -0.285 OA
ATOM      5  C   UNL     1      24.147 -21.365  -0.449  1.00  0.00     0.111 A 
ATOM      6  C   UNL     1      23.358 -20.177  -0.405  1.00  0.00     0.134 A 
ATOM      7  C   UNL     1      23.988 -18.935  -0.268  1.00  0.00     0.093 A 
ATOM      8  C   UNL     1      25.379 -18.831  -0.238  1.00  0.00     0.123 A 
ATOM      9  C   UNL     1      26.161 -19.983  -0.341  1.00  0.00     0.094 A 
ATOM     10  C   UNL     1      25.561 -21.240  -0.442  1.00  0.00     0.146 A 
ATOM     11  O   UNL     1      26.340 -22.310  -0.526  1.00  0.00    -0.452 OA
ENDROOT
BRANCH   1  12
ATOM     12  C   UNL     1      26.852 -24.658  -0.719  1.00  0.00     0.025 A 
ATOM     13  C   UNL     1      28.224 -24.367  -0.757  1.00  0.00     0.016 A 
ATOM     14  C   UNL     1      29.162 -25.394  -0.887  1.00  0.00     0.051 A 
ATOM     15  C   UNL     1      28.741 -26.726  -0.998  1.00  0.00     0.157 A 
ATOM     16  C   UNL     1      26.432 -25.994  -0.851  1.00  0.00     0.062 A 
ATOM     17  C   UNL     1      27.368 -27.026  -0.984  1.00  0.00     0.158 A 
BRANCH  15  18
ATOM     18  O   UNL     1      29.680 -27.750  -1.125  1.00  0.00    -0.504 OA
ATOM     19  H   UNL     1      29.403 -28.698  -1.348  1.00  0.00     0.293 HD
ENDBRANCH  15  18
BRANCH  17  20
ATOM     20  O   UNL     1      26.917 -28.340  -1.105  1.00  0.00    -0.504 OA
ATOM     21  H   UNL     1      25.960 -28.558  -1.358  1.00  0.00     0.293 HD
ENDBRANCH  17  20
ENDBRANCH   1  12
BRANCH   2  22
ATOM     22  O   UNL     1      23.992 -25.086  -0.532  1.00  0.00    -0.502 OA
ATOM     23  H   UNL     1      24.065 -25.688   0.279  1.00  0.00     0.293 HD
ENDBRANCH   2  22
BRANCH   6  24
ATOM     24  O   UNL     1      21.964 -20.160  -0.520  1.00  0.00    -0.507 OA
ATOM     25  H   UNL     1      21.356 -19.521  -0.031  1.00  0.00     0.293 HD
ENDBRANCH   6  24
BRANCH   8  26
ATOM     26  O   UNL     1      25.972 -17.577  -0.116  1.00  0.00    -0.508 OA
ATOM     27  H   UNL     1      25.840 -16.857  -0.817  1.00  0.00     0.293 HD
ENDBRANCH   8  26
TORSDOF 6
ENDMDL
MODEL 5
REMARK VINA RESULT:    -5.600      2.412      3.625
REMARK INTER + INTRA:          -6.963
REMARK INTER:                  -6.842
REMARK INTRA:                  -0.121
REMARK UNBOUND:                -0.217
REMARK SMILES O=c1c(O)c(-c2ccc(O)c(O)c2)oc2cc(O)cc(O)c12
REMARK SMILES IDX 5 1 3 2 2 3 1 4 22 5 20 6 19 7 17 8 16 9 15 10 14 11 6 12
REMARK SMILES IDX 7 13 8 14 9 15 13 16 11 17 10 18 12 20 4 22 21 24 18 26
REMARK H PARENT 10 19 12 21 4 23 21 25 18 27
REMARK Flexibility Score: inf
ROOT
ATOM      1  C   UNL     1      26.632 -23.284  -0.301  1.00  0.00     0.180 A 
ATOM      2  C   UNL     1      27.932 -22.780  -0.117  1.00  0.00     0.208 A 
ATOM      3  C   UNL     1      29.023 -23.656  -0.222  1.00  0.00     0.238 A 
ATOM      4  O   UNL     1      30.179 -23.210  -0.003  1.00  0.00    -0.285 OA
ATOM      5  C   UNL     1      28.804 -25.022  -0.526  1.00  0.00     0.111 A 
ATOM      6  C   UNL     1      29.839 -25.990  -0.697  1.00  0.00     0.134 A 
ATOM      7  C   UNL     1      29.502 -27.338  -0.866  1.00  0.00     0.093 A 
ATOM      8  C   UNL     1      28.170 -27.744  -0.937  1.00  0.00     0.123 A 
ATOM      9  C   UNL     1      27.150 -26.796  -0.832  1.00  0.00     0.094 A 
ATOM     10  C   UNL     1      27.455 -25.449  -0.626  1.00  0.00     0.146 A 
ATOM     11  O   UNL     1      26.456 -24.582  -0.519  1.00  0.00    -0.452 OA
ENDROOT
BRANCH   1  12
ATOM     12  C   UNL     1      25.433 -22.419  -0.230  1.00  0.00     0.025 A 
ATOM     13  C   UNL     1      25.300 -21.346  -1.125  1.00  0.00     0.016 A 
ATOM     14  C   UNL     1      24.186 -20.505  -1.061  1.00  0.00     0.051 A 
ATOM     15  C   UNL     1      23.197 -20.713  -0.092  1.00  0.00     0.157 A 
ATOM     16  C   UNL     1      24.448 -22.613   0.755  1.00  0.00     0.062 A 
ATOM     17  C   UNL     1      23.332 -21.771   0.824  1.00  0.00     0.158 A 
BRANCH  15  18
ATOM     18  O   UNL     1      22.085 -19.874  -0.032  1.00  0.00    -0.504 OA
ATOM     19  H   UNL     1      21.163 -20.196  -0.298  1.00  0.00     0.293 HD
ENDBRANCH  15  18
BRANCH  17  20
ATOM     20  O   UNL     1      22.371 -21.998   1.810  1.00  0.00    -0.504 OA
ATOM     21  H   UNL     1      22.386 -22.824   2.396  1.00  0.00     0.293 HD
ENDBRANCH  17  20
ENDBRANCH   1  12
BRANCH   2  22
ATOM     22  O   UNL     1      28.123 -21.433   0.204  1.00  0.00    -0.502 OA
ATOM     23  H   UNL     1      28.160 -20.706  -0.501  1.00  0.00     0.293 HD
ENDBRANCH   2  22
BRANCH   6  24
ATOM     24  O   UNL     1      31.202 -25.678  -0.735  1.00  0.00    -0.507 OA
ATOM     25  H   UNL     1      31.947 -26.358  -0.717  1.00  0.00     0.293 HD
ENDBRANCH   6  24
BRANCH   8  26
ATOM     26  O   UNL     1      27.871 -29.092  -1.122  1.00  0.00    -0.508 OA
ATOM     27  H   UNL     1      26.925 -29.405  -1.304  1.00  0.00     0.293 HD
ENDBRANCH   8  26
TORSDOF 6
ENDMDL
MODEL 6
REMARK VINA RESULT:    -5.301      3.683      6.243
REMARK INTER + INTRA:          -6.602
REMARK INTER:                  -6.631
REMARK INTRA:                   0.029
REMARK UNBOUND:                -0.217
REMARK SMILES O=c1c(O)c(-c2ccc(O)c(O)c2)oc2cc(O)cc(O)c12
REMARK SMILES IDX 5 1 3 2 2 3 1 4 22 5 20 6 19 7 17 8 16 9 15 10 14 11 6 12
REMARK SMILES IDX 7 13 8 14 9 15 13 16 11 17 10 18 12 20 4 22 21 24 18 26
REMARK H PARENT 10 19 12 21 4 23 21 25 18 27
REMARK Flexibility Score: inf
ROOT
ATOM      1  C   UNL     1      26.441 -20.432   0.589  1.00  0.00     0.180 A 
ATOM      2  C   UNL     1      26.590 -19.280   1.381  1.00  0.00     0.208 A 
ATOM      3  C   UNL     1      27.857 -18.686   1.488  1.00  0.00     0.238 A 
ATOM      4  O   UNL     1      27.995 -17.687   2.241  1.00  0.00    -0.285 OA
ATOM      5  C   UNL     1      28.957 -19.242   0.789  1.00  0.00     0.111 A 
ATOM      6  C   UNL     1      30.276 -18.699   0.794  1.00  0.00     0.134 A 
ATOM      7  C   UNL     1      31.315 -19.404   0.173  1.00  0.00     0.093 A 
ATOM      8  C   UNL     1      31.071 -20.597  -0.506  1.00  0.00     0.123 A 
ATOM      9  C   UNL     1      29.772 -21.105  -0.567  1.00  0.00     0.094 A 
ATOM     10  C   UNL     1      28.722 -20.443   0.073  1.00  0.00     0.146 A 
ATOM     11  O   UNL     1      27.505 -20.966  -0.000  1.00  0.00    -0.452 OA
ENDROOT
BRANCH   1  12
ATOM     12  C   UNL     1      25.132 -21.100   0.407  1.00  0.00     0.025 A 
ATOM     13  C   UNL     1      25.056 -22.500   0.469  1.00  0.00     0.016 A 
ATOM     14  C   UNL     1      23.835 -23.152   0.280  1.00  0.00     0.051 A 
ATOM     15  C   UNL     1      22.675 -22.415   0.010  1.00  0.00     0.157 A 
ATOM     16  C   UNL     1      23.969 -20.365   0.117  1.00  0.00     0.062 A 
ATOM     17  C   UNL     1      22.744 -21.014  -0.076  1.00  0.00     0.158 A 
BRANCH  15  18
ATOM     18  O   UNL     1      21.457 -23.069  -0.176  1.00  0.00    -0.504 OA
ATOM     19  H   UNL     1      20.685 -22.943   0.468  1.00  0.00     0.293 HD
ENDBRANCH  15  18
BRANCH  17  20
ATOM     20  O   UNL     1      21.609 -20.253  -0.356  1.00  0.00    -0.504 OA
ATOM     21  H   UNL     1      21.254 -19.559   0.291  1.00  0.00     0.293 HD
ENDBRANCH  17  20
ENDBRANCH   1  12
BRANCH   2  22
ATOM     22  O   UNL     1      25.496 -18.762   2.079  1.00  0.00    -0.502 OA
ATOM     23  H   UNL     1      25.159 -17.816   1.938  1.00  0.00     0.293 HD
ENDBRANCH   2  22
BRANCH   6  24
ATOM     24  O   UNL     1      30.613 -17.467   1.365  1.00  0.00    -0.507 OA
ATOM     25  H   UNL     1      29.948 -16.760   1.639  1.00  0.00     0.293 HD
ENDBRANCH   6  24
BRANCH   8  26
ATOM     26  O   UNL     1      32.125 -21.264  -1.125  1.00  0.00    -0.508 OA
ATOM     27  H   UNL     1      32.760 -21.854  -0.601  1.00  0.00     0.293 HD
ENDBRANCH   8  26
TORSDOF 6
ENDMDL
MODEL 7
REMARK VINA RESULT:    -5.240      3.368      5.280
REMARK INTER + INTRA:          -6.529
REMARK INTER:                  -6.376
REMARK INTRA:                  -0.153
REMARK UNBOUND:                -0.217
REMARK SMILES O=c1c(O)c(-c2ccc(O)c(O)c2)oc2cc(O)cc(O)c12
REMARK SMILES IDX 5 1 3 2 2 3 1 4 22 5 20 6 19 7 17 8 16 9 15 10 14 11 6 12
REMARK SMILES IDX 7 13 8 14 9 15 13 16 11 17 10 18 12 20 4 22 21 24 18 26
REMARK H PARENT 10 19 12 21 4 23 21 25 18 27
REMARK Flexibility Score: inf
ROOT
ATOM      1  C   UNL     1      26.976 -19.623   0.308  1.00  0.00     0.180 A 
ATOM      2  C   UNL     1      25.843 -18.834   0.046  1.00  0.00     0.208 A 
ATOM      3  C   UNL     1      24.613 -19.467  -0.192  1.00  0.00     0.238 A 
ATOM      4  O   UNL     1      23.614 -18.757  -0.480  1.00  0.00    -0.285 OA
ATOM      5  C   UNL     1      24.527 -20.880  -0.148  1.00  0.00     0.111 A 
ATOM      6  C   UNL     1      23.323 -21.624  -0.334  1.00  0.00     0.134 A 
ATOM      7  C   UNL     1      23.379 -23.021  -0.399  1.00  0.00     0.093 A 
ATOM      8  C   UNL     1      24.582 -23.703  -0.221  1.00  0.00     0.123 A 
ATOM      9  C   UNL     1      25.755 -22.987   0.021  1.00  0.00     0.094 A 
ATOM     10  C   UNL     1      25.737 -21.591   0.056  1.00  0.00     0.146 A 
ATOM     11  O   UNL     1      26.876 -20.948   0.277  1.00  0.00    -0.452 OA
ENDROOT
BRANCH   1  12
ATOM     12  C   UNL     1      28.302 -19.029   0.593  1.00  0.00     0.025 A 
ATOM     13  C   UNL     1      28.471 -18.226   1.731  1.00  0.00     0.016 A 
ATOM     14  C   UNL     1      29.709 -17.639   2.006  1.00  0.00     0.051 A 
ATOM     15  C   UNL     1      30.792 -17.834   1.139  1.00  0.00     0.157 A 
ATOM     16  C   UNL     1      29.387 -19.206  -0.286  1.00  0.00     0.062 A 
ATOM     17  C   UNL     1      30.628 -18.619  -0.015  1.00  0.00     0.158 A 
BRANCH  15  18
ATOM     18  O   UNL     1      32.027 -17.249   1.418  1.00  0.00    -0.504 OA
ATOM     19  H   UNL     1      32.218 -16.281   1.191  1.00  0.00     0.293 HD
ENDBRANCH  15  18
BRANCH  17  20
ATOM     20  O   UNL     1      31.683 -18.820  -0.905  1.00  0.00    -0.504 OA
ATOM     21  H   UNL     1      32.069 -19.740  -1.081  1.00  0.00     0.293 HD
ENDBRANCH  17  20
ENDBRANCH   1  12
BRANCH   2  22
ATOM     22  O   UNL     1      25.955 -17.442  -0.015  1.00  0.00    -0.502 OA
ATOM     23  H   UNL     1      25.447 -16.885  -0.690  1.00  0.00     0.293 HD
ENDBRANCH   2  22
BRANCH   6  24
ATOM     24  O   UNL     1      22.054 -21.045  -0.431  1.00  0.00    -0.507 OA
ATOM     25  H   UNL     1      21.615 -20.765  -1.295  1.00  0.00     0.293 HD
ENDBRANCH   6  24
BRANCH   8  26
ATOM     26  O   UNL     1      24.598 -25.095  -0.277  1.00  0.00    -0.508 OA
ATOM     27  H   UNL     1      24.253 -25.661   0.490  1.00  0.00     0.293 HD
ENDBRANCH   8  26
TORSDOF 6
ENDMDL
MODEL 8
REMARK VINA RESULT:    -5.157      1.707      3.033
REMARK INTER + INTRA:          -6.428
REMARK INTER:                  -6.134
REMARK INTRA:                  -0.295
REMARK UNBOUND:                -0.217
REMARK SMILES O=c1c(O)c(-c2ccc(O)c(O)c2)oc2cc(O)cc(O)c12
REMARK SMILES IDX 5 1 3 2 2 3 1 4 22 5 20 6 19 7 17 8 16 9 15 10 14 11 6 12
REMARK SMILES IDX 7 13 8 14 9 15 13 16 11 17 10 18 12 20 4 22 21 24 18 26
REMARK H PARENT 10 19 12 21 4 23 21 25 18 27
REMARK Flexibility Score: inf
ROOT
ATOM      1  C   UNL     1      27.847 -22.907  -0.120  1.00  0.00     0.180 A 
ATOM      2  C   UNL     1      29.246 -22.791  -0.188  1.00  0.00     0.208 A 
ATOM      3  C   UNL     1      30.016 -23.945  -0.404  1.00  0.00     0.238 A 
ATOM      4  O   UNL     1      31.270 -23.843  -0.411  1.00  0.00    -0.285 OA
ATOM      5  C   UNL     1      29.376 -25.198  -0.567  1.00  0.00     0.111 A 
ATOM      6  C   UNL     1      30.055 -26.425  -0.832  1.00  0.00     0.134 A 
ATOM      7  C   UNL     1      29.333 -27.625  -0.845  1.00  0.00     0.093 A 
ATOM      8  C   UNL     1      27.950 -27.635  -0.667  1.00  0.00     0.123 A 
ATOM      9  C   UNL     1      27.268 -26.433  -0.467  1.00  0.00     0.094 A 
ATOM     10  C   UNL     1      27.966 -25.224  -0.413  1.00  0.00     0.146 A 
ATOM     11  O   UNL     1      27.282 -24.106  -0.210  1.00  0.00    -0.452 OA
ENDROOT
BRANCH   1  12
ATOM     12  C   UNL     1      26.967 -21.734   0.082  1.00  0.00     0.025 A 
ATOM     13  C   UNL     1      26.367 -21.120  -1.028  1.00  0.00     0.016 A 
ATOM     14  C   UNL     1      25.550 -19.999  -0.862  1.00  0.00     0.051 A 
ATOM     15  C   UNL     1      25.333 -19.465   0.415  1.00  0.00     0.157 A 
ATOM     16  C   UNL     1      26.763 -21.184   1.361  1.00  0.00     0.062 A 
ATOM     17  C   UNL     1      25.947 -20.059   1.532  1.00  0.00     0.158 A 
BRANCH  15  18
ATOM     18  O   UNL     1      24.515 -18.348   0.578  1.00  0.00    -0.504 OA
ATOM     19  H   UNL     1      24.855 -17.411   0.398  1.00  0.00     0.293 HD
ENDBRANCH  15  18
BRANCH  17  20
ATOM     20  O   UNL     1      25.762 -19.544   2.814  1.00  0.00    -0.504 OA
ATOM     21  H   UNL     1      26.206 -19.954   3.628  1.00  0.00     0.293 HD
ENDBRANCH  17  20
ENDBRANCH   1  12
BRANCH   2  22
ATOM     22  O   UNL     1      29.858 -21.548  -0.003  1.00  0.00    -0.502 OA
ATOM     23  H   UNL     1      30.848 -21.452   0.187  1.00  0.00     0.293 HD
ENDBRANCH   2  22
BRANCH   6  24
ATOM     24  O   UNL     1      31.422 -26.517  -1.115  1.00  0.00    -0.507 OA
ATOM     25  H   UNL     1      31.862 -26.155  -1.947  1.00  0.00     0.293 HD
ENDBRANCH   6  24
BRANCH   8  26
ATOM     26  O   UNL     1      27.262 -28.845  -0.700  1.00  0.00    -0.508 OA
ATOM     27  H   UNL     1      27.398 -29.553   0.012  1.00  0.00     0.293 HD
ENDBRANCH   8  26
TORSDOF 6
ENDMDL
MODEL 9
REMARK VINA RESULT:    -5.082      1.432      2.073
REMARK INTER + INTRA:          -6.338
REMARK INTER:                  -6.444
REMARK INTRA:                   0.106
REMARK UNBOUND:                -0.217
REMARK SMILES O=c1c(O)c(-c2ccc(O)c(O)c2)oc2cc(O)cc(O)c12
REMARK SMILES IDX 5 1 3 2 2 3 1 4 22 5 20 6 19 7 17 8 16 9 15 10 14 11 6 12
REMARK SMILES IDX 7 13 8 14 9 15 13 16 11 17 10 18 12 20 4 22 21 24 18 26
REMARK H PARENT 10 19 12 21 4 23 21 25 18 27
REMARK Flexibility Score: inf
ROOT
ATOM      1  C   UNL     1      27.093 -21.833   0.046  1.00  0.00     0.180 A 
ATOM      2  C   UNL     1      25.710 -21.857  -0.204  1.00  0.00     0.208 A 
ATOM      3  C   UNL     1      25.102 -23.072  -0.555  1.00  0.00     0.238 A 
ATOM      4  O   UNL     1      23.874 -23.077  -0.830  1.00  0.00    -0.285 OA
ATOM      5  C   UNL     1      25.881 -24.252  -0.636  1.00  0.00     0.111 A 
ATOM      6  C   UNL     1      25.363 -25.546  -0.943  1.00  0.00     0.134 A 
ATOM      7  C   UNL     1      26.244 -26.617  -1.125  1.00  0.00     0.093 A 
ATOM      8  C   UNL     1      27.618 -26.458  -0.947  1.00  0.00     0.123 A 
ATOM      9  C   UNL     1      28.130 -25.211  -0.587  1.00  0.00     0.094 A 
ATOM     10  C   UNL     1      27.279 -24.114  -0.434  1.00  0.00     0.146 A 
ATOM     11  O   UNL     1      27.807 -22.943  -0.103  1.00  0.00    -0.452 OA
ENDROOT
BRANCH   1  12
ATOM     12  C   UNL     1      27.801 -20.595   0.445  1.00  0.00     0.025 A 
ATOM     13  C   UNL     1      29.090 -20.346  -0.050  1.00  0.00     0.016 A 
ATOM     14  C   UNL     1      29.784 -19.194   0.330  1.00  0.00     0.051 A 
ATOM     15  C   UNL     1      29.206 -18.283   1.223  1.00  0.00     0.157 A 
ATOM     16  C   UNL     1      27.232 -19.688   1.357  1.00  0.00     0.062 A 
ATOM     17  C   UNL     1      27.924 -18.534   1.742  1.00  0.00     0.158 A 
BRANCH  15  18
ATOM     18  O   UNL     1      29.900 -17.133   1.598  1.00  0.00    -0.504 OA
ATOM     19  H   UNL     1      30.871 -17.169   1.884  1.00  0.00     0.293 HD
ENDBRANCH  15  18
BRANCH  17  20
ATOM     20  O   UNL     1      27.327 -17.653   2.644  1.00  0.00    -0.504 OA
ATOM     21  H   UNL     1      26.716 -17.975   3.385  1.00  0.00     0.293 HD
ENDBRANCH  17  20
ENDBRANCH   1  12
BRANCH   2  22
ATOM     22  O   UNL     1      24.964 -20.677  -0.139  1.00  0.00    -0.502 OA
ATOM     23  H   UNL     1      23.981 -20.641  -0.380  1.00  0.00     0.293 HD
ENDBRANCH   2  22
BRANCH   6  24
ATOM     24  O   UNL     1      23.999 -25.835  -1.053  1.00  0.00    -0.507 OA
ATOM     25  H   UNL     1      23.384 -25.447  -1.752  1.00  0.00     0.293 HD
ENDBRANCH   6  24
BRANCH   8  26
ATOM     26  O   UNL     1      28.465 -27.551  -1.121  1.00  0.00    -0.508 OA
ATOM     27  H   UNL     1      28.828 -28.071  -0.331  1.00  0.00     0.293 HD
ENDBRANCH   8  26
TORSDOF 6
ENDMDL
