MODEL 1
REMARK VINA RESULT:    -4.063      0.000      0.000
REMARK INTER + INTRA:          -4.870
REMARK INTER:                  -4.776
REMARK INTRA:                  -0.094
REMARK UNBOUND:                -0.094
REMARK SMILES O=C([O-])CCC(=O)[O-]
REMARK SMILES IDX 4 1 2 2 1 3 3 4 5 5 6 6 7 7 8 8
REMARK H PARENT
REMARK Flexibility Score: inf
ROOT
ATOM      1  C   UNL     1      16.574  26.903  35.016  1.00  0.00     0.059 C 
ENDROOT
BRANCH   1   2
ATOM      2  C   UNL     1      17.926  27.379  34.581  1.00  0.00     0.042 C 
ATOM      3  O   UNL     1      18.130  28.604  34.369  1.00  0.00    -0.550 OA
ATOM      4  O   UNL     1      18.971  26.474  34.447  1.00  0.00    -0.550 OA
ENDBRANCH   1   2
BRANCH   1   5
ATOM      5  C   UNL     1      16.672  25.930  36.195  1.00  0.00     0.059 C 
BRANCH   5   6
ATOM      6  C   UNL     1      17.375  26.549  37.364  1.00  0.00     0.042 C 
ATOM      7  O   UNL     1      18.501  26.118  37.727  1.00  0.00    -0.550 OA
ATOM      8  O   UNL     1      16.805  27.628  38.027  1.00  0.00    -0.550 OA
ENDBRANCH   5   6
ENDBRANCH   1   5
TORSDOF 3
ENDMDL
MODEL 2
REMARK VINA RESULT:    -4.063      0.046      3.461
REMARK INTER + INTRA:          -4.869
REMARK INTER:                  -4.777
REMARK INTRA:                  -0.092
REMARK UNBOUND:                -0.094
REMARK SMILES O=C([O-])CCC(=O)[O-]
REMARK SMILES IDX 4 1 2 2 1 3 3 4 5 5 6 6 7 7 8 8
REMARK H PARENT
REMARK Flexibility Score: inf
ROOT
ATOM      1  C   UNL     1      16.687  25.925  36.165  1.00  0.00     0.059 C 
ENDROOT
BRANCH   1   2
ATOM      2  C   UNL     1      17.376  26.504  37.362  1.00  0.00     0.042 C 
ATOM      3  O   UNL     1      18.489  26.049  37.736  1.00  0.00    -0.550 OA
ATOM      4  O   UNL     1      16.807  27.574  38.041  1.00  0.00    -0.550 OA
ENDBRANCH   1   2
BRANCH   1   5
ATOM      5  C   UNL     1      16.590  26.941  35.023  1.00  0.00     0.059 C 
BRANCH   5   6
ATOM      6  C   UNL     1      17.945  27.393  34.571  1.00  0.00     0.042 C 
ATOM      7  O   UNL     1      18.158  28.609  34.324  1.00  0.00    -0.550 OA
ATOM      8  O   UNL     1      18.983  26.477  34.461  1.00  0.00    -0.550 OA
ENDBRANCH   5   6
ENDBRANCH   1   5
TORSDOF 3
ENDMDL
MODEL 3
REMARK VINA RESULT:    -3.850      8.097      9.042
REMARK INTER + INTRA:          -4.620
REMARK INTER:                  -4.566
REMARK INTRA:                  -0.054
REMARK UNBOUND:                -0.094
REMARK SMILES O=C([O-])CCC(=O)[O-]
REMARK SMILES IDX 4 1 2 2 1 3 3 4 5 5 6 6 7 7 8 8
REMARK H PARENT
REMARK Flexibility Score: inf
ROOT
ATOM      1  C   UNL     1      22.619  19.749  36.225  1.00  0.00     0.059 C 
ENDROOT
BRANCH   1   2
ATOM      2  C   UNL     1      23.179  18.512  36.858  1.00  0.00     0.042 C 
ATOM      3  O   UNL     1      24.108  17.875  36.294  1.00  0.00    -0.550 OA
ATOM      4  O   UNL     1      22.701  18.084  38.090  1.00  0.00    -0.550 OA
ENDBRANCH   1   2
BRANCH   1   5
ATOM      5  C   UNL     1      23.401  20.998  36.640  1.00  0.00     0.059 C 
BRANCH   5   6
ATOM      6  C   UNL     1      22.501  22.043  37.227  1.00  0.00     0.042 C 
ATOM      7  O   UNL     1      21.270  22.041  36.960  1.00  0.00    -0.550 OA
ATOM      8  O   UNL     1      23.015  22.993  38.099  1.00  0.00    -0.550 OA
ENDBRANCH   5   6
ENDBRANCH   1   5
TORSDOF 3
ENDMDL
MODEL 4
REMARK VINA RESULT:    -3.816      8.620      9.552
REMARK INTER + INTRA:          -4.579
REMARK INTER:                  -4.479
REMARK INTRA:                  -0.100
REMARK UNBOUND:                -0.094
REMARK SMILES O=C([O-])CCC(=O)[O-]
REMARK SMILES IDX 4 1 2 2 1 3 3 4 5 5 6 6 7 7 8 8
REMARK H PARENT
REMARK Flexibility Score: inf
ROOT
ATOM      1  C   UNL     1      23.282  21.009  36.276  1.00  0.00     0.059 C 
ENDROOT
BRANCH   1   2
ATOM      2  C   UNL     1      22.095  21.247  37.158  1.00  0.00     0.042 C 
ATOM      3  O   UNL     1      21.386  22.277  37.004  1.00  0.00    -0.550 OA
ATOM      4  O   UNL     1      21.749  20.311  38.125  1.00  0.00    -0.550 OA
ENDBRANCH   1   2
BRANCH   1   5
ATOM      5  C   UNL     1      24.368  20.205  36.998  1.00  0.00     0.059 C 
BRANCH   5   6
ATOM      6  C   UNL     1      24.748  18.977  36.227  1.00  0.00     0.042 C 
ATOM      7  O   UNL     1      23.878  18.112  35.944  1.00  0.00    -0.550 OA
ATOM      8  O   UNL     1      26.054  18.809  35.788  1.00  0.00    -0.550 OA
ENDBRANCH   5   6
ENDBRANCH   1   5
TORSDOF 3
ENDMDL
MODEL 5
REMARK VINA RESULT:    -3.804      8.538      9.273
REMARK INTER + INTRA:          -4.565
REMARK INTER:                  -4.481
REMARK INTRA:                  -0.084
REMARK UNBOUND:                -0.094
REMARK SMILES O=C([O-])CCC(=O)[O-]
REMARK SMILES IDX 4 1 2 2 1 3 3 4 5 5 6 6 7 7 8 8
REMARK H PARENT
REMARK Flexibility Score: inf
ROOT
ATOM      1  C   UNL     1      24.272  20.146  37.090  1.00  0.00     0.059 C 
ENDROOT
BRANCH   1   2
ATOM      2  C   UNL     1      24.677  18.967  36.259  1.00  0.00     0.042 C 
ATOM      3  O   UNL     1      23.824  18.100  35.928  1.00  0.00    -0.550 OA
ATOM      4  O   UNL     1      25.988  18.846  35.817  1.00  0.00    -0.550 OA
ENDBRANCH   1   2
BRANCH   1   5
ATOM      5  C   UNL     1      23.297  21.057  36.338  1.00  0.00     0.059 C 
BRANCH   5   6
ATOM      6  C   UNL     1      22.110  21.410  37.181  1.00  0.00     0.042 C 
ATOM      7  O   UNL     1      21.646  20.576  38.003  1.00  0.00    -0.550 OA
ATOM      8  O   UNL     1      21.542  22.673  37.087  1.00  0.00    -0.550 OA
ENDBRANCH   5   6
ENDBRANCH   1   5
TORSDOF 3
ENDMDL
MODEL 6
REMARK VINA RESULT:    -3.762      8.228      9.081
REMARK INTER + INTRA:          -4.516
REMARK INTER:                  -4.392
REMARK INTRA:                  -0.123
REMARK UNBOUND:                -0.094
REMARK SMILES O=C([O-])CCC(=O)[O-]
REMARK SMILES IDX 4 1 2 2 1 3 3 4 5 5 6 6 7 7 8 8
REMARK H PARENT
REMARK Flexibility Score: inf
ROOT
ATOM      1  C   UNL     1      23.501  21.036  36.338  1.00  0.00     0.059 C 
ENDROOT
BRANCH   1   2
ATOM      2  C   UNL     1      22.418  21.803  37.034  1.00  0.00     0.042 C 
ATOM      3  O   UNL     1      21.225  21.401  36.989  1.00  0.00    -0.550 OA
ATOM      4  O   UNL     1      22.733  22.941  37.767  1.00  0.00    -0.550 OA
ENDBRANCH   1   2
BRANCH   1   5
ATOM      5  C   UNL     1      24.156  20.014  37.271  1.00  0.00     0.059 C 
BRANCH   5   6
ATOM      6  C   UNL     1      23.524  18.662  37.139  1.00  0.00     0.042 C 
ATOM      7  O   UNL     1      23.895  17.875  36.228  1.00  0.00    -0.550 OA
ATOM      8  O   UNL     1      22.553  18.257  38.045  1.00  0.00    -0.550 OA
ENDBRANCH   5   6
ENDBRANCH   1   5
TORSDOF 3
ENDMDL
MODEL 7
REMARK VINA RESULT:    -3.663     13.014     13.545
REMARK INTER + INTRA:          -4.399
REMARK INTER:                  -4.319
REMARK INTRA:                  -0.080
REMARK UNBOUND:                -0.094
REMARK SMILES O=C([O-])CCC(=O)[O-]
REMARK SMILES IDX 4 1 2 2 1 3 3 4 5 5 6 6 7 7 8 8
REMARK H PARENT
REMARK Flexibility Score: inf
ROOT
ATOM      1  C   UNL     1      30.222  26.989  33.902  1.00  0.00     0.059 C 
ENDROOT
BRANCH   1   2
ATOM      2  C   UNL     1      30.844  27.551  32.660  1.00  0.00     0.042 C 
ATOM      3  O   UNL     1      31.936  27.092  32.232  1.00  0.00    -0.550 OA
ATOM      4  O   UNL     1      30.196  28.557  31.953  1.00  0.00    -0.550 OA
ENDBRANCH   1   2
BRANCH   1   5
ATOM      5  C   UNL     1      31.261  26.783  35.008  1.00  0.00     0.059 C 
BRANCH   5   6
ATOM      6  C   UNL     1      31.098  27.784  36.111  1.00  0.00     0.042 C 
ATOM      7  O   UNL     1      31.005  27.399  37.307  1.00  0.00    -0.550 OA
ATOM      8  O   UNL     1      31.089  29.141  35.822  1.00  0.00    -0.550 OA
ENDBRANCH   5   6
ENDBRANCH   1   5
TORSDOF 3
ENDMDL
MODEL 8
REMARK VINA RESULT:    -3.636     13.053     13.918
REMARK INTER + INTRA:          -4.368
REMARK INTER:                  -4.300
REMARK INTRA:                  -0.068
REMARK UNBOUND:                -0.094
REMARK SMILES O=C([O-])CCC(=O)[O-]
REMARK SMILES IDX 4 1 2 2 1 3 3 4 5 5 6 6 7 7 8 8
REMARK H PARENT
REMARK Flexibility Score: inf
ROOT
ATOM      1  C   UNL     1      31.160  26.689  35.104  1.00  0.00     0.059 C 
ENDROOT
BRANCH   1   2
ATOM      2  C   UNL     1      31.114  27.725  36.184  1.00  0.00     0.042 C 
ATOM      3  O   UNL     1      31.162  27.382  37.396  1.00  0.00    -0.550 OA
ATOM      4  O   UNL     1      31.058  29.073  35.853  1.00  0.00    -0.550 OA
ENDBRANCH   1   2
BRANCH   1   5
ATOM      5  C   UNL     1      30.186  27.016  33.968  1.00  0.00     0.059 C 
BRANCH   5   6
ATOM      6  C   UNL     1      30.899  27.577  32.775  1.00  0.00     0.042 C 
ATOM      7  O   UNL     1      32.022  27.120  32.435  1.00  0.00    -0.550 OA
ATOM      8  O   UNL     1      30.305  28.577  32.017  1.00  0.00    -0.550 OA
ENDBRANCH   5   6
ENDBRANCH   1   5
TORSDOF 3
ENDMDL
MODEL 9
REMARK VINA RESULT:    -2.237      1.491      3.558
REMARK INTER + INTRA:          -2.723
REMARK INTER:                  -2.628
REMARK INTRA:                  -0.096
REMARK UNBOUND:                -0.094
REMARK SMILES O=C([O-])CCC(=O)[O-]
REMARK SMILES IDX 4 1 2 2 1 3 3 4 5 5 6 6 7 7 8 8
REMARK H PARENT
REMARK Flexibility Score: inf
ROOT
ATOM      1  C   UNL     1      18.419  26.476  36.467  1.00  0.00     0.059 C 
ENDROOT
BRANCH   1   2
ATOM      2  C   UNL     1      17.112  26.219  37.153  1.00  0.00     0.042 C 
ATOM      3  O   UNL     1      16.754  26.937  38.125  1.00  0.00    -0.550 OA
ATOM      4  O   UNL     1      16.271  25.213  36.694  1.00  0.00    -0.550 OA
ENDBRANCH   1   2
BRANCH   1   5
ATOM      5  C   UNL     1      18.321  27.651  35.490  1.00  0.00     0.059 C 
BRANCH   5   6
ATOM      6  C   UNL     1      17.738  27.229  34.176  1.00  0.00     0.042 C 
ATOM      7  O   UNL     1      18.492  26.856  33.239  1.00  0.00    -0.550 OA
ATOM      8  O   UNL     1      16.361  27.211  33.999  1.00  0.00    -0.550 OA
ENDBRANCH   5   6
ENDBRANCH   1   5
TORSDOF 3
ENDMDL
