MODEL 1
REMARK VINA RESULT:    -4.744      0.000      0.000
REMARK INTER + INTRA:          -8.351
REMARK INTER:                  -7.240
REMARK INTRA:                  -1.111
REMARK UNBOUND:                -1.111
REMARK SMILES OC[C@@H]1O[C@@H](O[C@]2(CO)O[C@H](CO)[C@H](O)[C@@H]2O)[C@@H](O)[C@@H](O)[C@@H]1O
REMARK SMILES IDX 6 1 5 2 3 3 22 4 4 5 20 6 18 7 2 8 1 9 23 11 21 13 19 15
REMARK SMILES IDX 7 17 16 18 10 19 14 20 11 21 8 22 9 23 17 25 15 27 12 29
REMARK SMILES IDX 13 30
REMARK H PARENT 1 10 23 12 21 14 19 16 9 24 17 26 15 28 13 31
REMARK Flexibility Score: inf
ROOT
ATOM      1  O   UNL     1     136.347 137.000 134.711  1.00  0.00    -0.313 OA
ENDROOT
BRANCH   1   2
ATOM      2  C   UNL     1     135.913 136.672 133.397  1.00  0.00     0.285 C 
ATOM      3  C   UNL     1     136.010 134.871 131.793  1.00  0.00     0.178 C 
ATOM      4  C   UNL     1     135.442 135.930 130.806  1.00  0.00     0.177 C 
ATOM      5  O   UNL     1     136.017 135.269 133.166  1.00  0.00    -0.341 OA
ATOM      6  C   UNL     1     136.243 137.252 130.932  1.00  0.00     0.179 C 
ATOM      7  C   UNL     1     136.734 137.506 132.384  1.00  0.00     0.202 C 
BRANCH   3   8
ATOM      8  C   UNL     1     135.237 133.543 131.678  1.00  0.00     0.191 C 
BRANCH   8   9
ATOM      9  O   UNL     1     134.347 133.370 132.752  1.00  0.00    -0.394 OA
ATOM     10  H   UNL     1     134.113 134.278 133.083  1.00  0.00     0.210 HD
ENDBRANCH   8   9
ENDBRANCH   3   8
BRANCH   4  11
ATOM     11  O   UNL     1     134.082 136.176 131.070  1.00  0.00    -0.387 OA
ATOM     12  H   UNL     1     134.035 136.874 131.775  1.00  0.00     0.211 HD
ENDBRANCH   4  11
BRANCH   6  13
ATOM     13  O   UNL     1     137.304 137.303 130.012  1.00  0.00    -0.387 OA
ATOM     14  H   UNL     1     137.862 136.496 130.163  1.00  0.00     0.211 HD
ENDBRANCH   6  13
BRANCH   7  15
ATOM     15  O   UNL     1     138.125 137.300 132.523  1.00  0.00    -0.385 OA
ATOM     16  H   UNL     1     138.588 138.165 132.381  1.00  0.00     0.211 HD
ENDBRANCH   7  15
ENDBRANCH   1   2
BRANCH   1  17
ATOM     17  C   UNL     1     135.525 136.513 135.778  1.00  0.00     0.224 C 
ATOM     18  C   UNL     1     136.078 135.176 136.343  1.00  0.00     0.208 C 
ATOM     19  O   UNL     1     135.591 137.488 136.805  1.00  0.00    -0.337 OA
ATOM     20  C   UNL     1     136.178 135.444 137.830  1.00  0.00     0.180 C 
ATOM     21  C   UNL     1     136.310 136.957 137.894  1.00  0.00     0.179 C 
BRANCH  17  22
ATOM     22  C   UNL     1     134.016 136.397 135.416  1.00  0.00     0.225 C 
BRANCH  22  23
ATOM     23  O   UNL     1     133.677 135.094 135.033  1.00  0.00    -0.391 OA
ATOM     24  H   UNL     1     133.926 134.999 134.078  1.00  0.00     0.210 HD
ENDBRANCH  22  23
ENDBRANCH  17  22
BRANCH  18  25
ATOM     25  O   UNL     1     137.345 134.883 135.796  1.00  0.00    -0.385 OA
ATOM     26  H   UNL     1     137.623 135.676 135.268  1.00  0.00     0.211 HD
ENDBRANCH  18  25
BRANCH  20  27
ATOM     27  O   UNL     1     137.257 134.779 138.438  1.00  0.00    -0.387 OA
ATOM     28  H   UNL     1     137.082 134.807 139.417  1.00  0.00     0.211 HD
ENDBRANCH  20  27
BRANCH  21  29
ATOM     29  C   UNL     1     137.759 137.486 137.862  1.00  0.00     0.191 C 
BRANCH  29  30
ATOM     30  O   UNL     1     138.112 137.843 136.553  1.00  0.00    -0.394 OA
ATOM     31  H   UNL     1     139.033 137.508 136.390  1.00  0.00     0.210 HD
ENDBRANCH  29  30
ENDBRANCH  21  29
ENDBRANCH   1  17
TORSDOF 13
ENDMDL
MODEL 2
REMARK VINA RESULT:    -4.682      1.575      3.478
REMARK INTER + INTRA:          -8.256
REMARK INTER:                  -7.518
REMARK INTRA:                  -0.738
REMARK UNBOUND:                -1.111
REMARK SMILES OC[C@@H]1O[C@@H](O[C@]2(CO)O[C@H](CO)[C@H](O)[C@@H]2O)[C@@H](O)[C@@H](O)[C@@H]1O
REMARK SMILES IDX 6 1 5 2 3 3 22 4 4 5 20 6 18 7 2 8 1 9 23 11 21 13 19 15
REMARK SMILES IDX 7 17 16 18 10 19 14 20 11 21 8 22 9 23 17 25 15 27 12 29
REMARK SMILES IDX 13 30
REMARK H PARENT 1 10 23 12 21 14 19 16 9 24 17 26 15 28 13 31
REMARK Flexibility Score: inf
ROOT
ATOM      1  O   UNL     1     135.723 135.514 135.479  1.00  0.00    -0.313 OA
ENDROOT
BRANCH   1   2
ATOM      2  C   UNL     1     135.692 135.259 134.080  1.00  0.00     0.285 C 
ATOM      3  C   UNL     1     135.144 136.346 131.996  1.00  0.00     0.178 C 
ATOM      4  C   UNL     1     135.274 134.916 131.398  1.00  0.00     0.177 C 
ATOM      5  O   UNL     1     135.592 136.477 133.347  1.00  0.00    -0.341 OA
ATOM      6  C   UNL     1     134.494 133.904 132.277  1.00  0.00     0.179 C 
ATOM      7  C   UNL     1     134.525 134.287 133.783  1.00  0.00     0.202 C 
BRANCH   3   8
ATOM      8  C   UNL     1     135.902 137.373 131.132  1.00  0.00     0.191 C 
BRANCH   8   9
ATOM      9  O   UNL     1     136.025 136.937 129.802  1.00  0.00    -0.394 OA
ATOM     10  H   UNL     1     135.980 137.746 129.226  1.00  0.00     0.210 HD
ENDBRANCH   8   9
ENDBRANCH   3   8
BRANCH   4  11
ATOM     11  O   UNL     1     136.625 134.531 131.322  1.00  0.00    -0.387 OA
ATOM     12  H   UNL     1     136.728 133.691 131.841  1.00  0.00     0.211 HD
ENDBRANCH   4  11
BRANCH   6  13
ATOM     13  O   UNL     1     133.179 133.726 131.816  1.00  0.00    -0.387 OA
ATOM     14  H   UNL     1     133.190 132.961 131.184  1.00  0.00     0.211 HD
ENDBRANCH   6  13
BRANCH   7  15
ATOM     15  O   UNL     1     133.282 134.786 134.233  1.00  0.00    -0.385 OA
ATOM     16  H   UNL     1     133.378 135.064 135.180  1.00  0.00     0.211 HD
ENDBRANCH   7  15
ENDBRANCH   1   2
BRANCH   1  17
ATOM     17  C   UNL     1     136.921 136.124 135.974  1.00  0.00     0.224 C 
ATOM     18  C   UNL     1     136.621 137.509 136.607  1.00  0.00     0.208 C 
ATOM     19  O   UNL     1     137.408 135.267 136.994  1.00  0.00    -0.337 OA
ATOM     20  C   UNL     1     137.253 137.406 137.980  1.00  0.00     0.180 C 
ATOM     21  C   UNL     1     137.259 135.909 138.239  1.00  0.00     0.179 C 
BRANCH  17  22
ATOM     22  C   UNL     1     138.068 136.212 134.927  1.00  0.00     0.225 C 
BRANCH  22  23
ATOM     23  O   UNL     1     138.124 137.477 134.330  1.00  0.00    -0.391 OA
ATOM     24  H   UNL     1     138.189 138.141 135.063  1.00  0.00     0.210 HD
ENDBRANCH  22  23
ENDBRANCH  17  22
BRANCH  18  25
ATOM     25  O   UNL     1     135.231 137.728 136.707  1.00  0.00    -0.385 OA
ATOM     26  H   UNL     1     135.090 138.360 137.459  1.00  0.00     0.211 HD
ENDBRANCH  18  25
BRANCH  20  27
ATOM     27  O   UNL     1     136.553 138.125 138.964  1.00  0.00    -0.387 OA
ATOM     28  H   UNL     1     136.756 139.084 138.803  1.00  0.00     0.211 HD
ENDBRANCH  20  27
BRANCH  21  29
ATOM     29  C   UNL     1     136.003 135.366 138.952  1.00  0.00     0.191 C 
BRANCH  29  30
ATOM     30  O   UNL     1     134.887 135.478 138.110  1.00  0.00    -0.394 OA
ATOM     31  H   UNL     1     134.105 135.701 138.681  1.00  0.00     0.210 HD
ENDBRANCH  29  30
ENDBRANCH  21  29
ENDBRANCH   1  17
TORSDOF 13
ENDMDL
MODEL 3
REMARK VINA RESULT:    -4.550      1.296      5.437
REMARK INTER + INTRA:          -8.055
REMARK INTER:                  -8.426
REMARK INTRA:                   0.371
REMARK UNBOUND:                -1.111
REMARK SMILES OC[C@@H]1O[C@@H](O[C@]2(CO)O[C@H](CO)[C@H](O)[C@@H]2O)[C@@H](O)[C@@H](O)[C@@H]1O
REMARK SMILES IDX 6 1 5 2 3 3 22 4 4 5 20 6 18 7 2 8 1 9 23 11 21 13 19 15
REMARK SMILES IDX 7 17 16 18 10 19 14 20 11 21 8 22 9 23 17 25 15 27 12 29
REMARK SMILES IDX 13 30
REMARK H PARENT 1 10 23 12 21 14 19 16 9 24 17 26 15 28 13 31
REMARK Flexibility Score: inf
ROOT
ATOM      1  O   UNL     1     134.904 135.973 132.595  1.00  0.00    -0.313 OA
ENDROOT
BRANCH   1   2
ATOM      2  C   UNL     1     135.218 136.207 133.962  1.00  0.00     0.285 C 
ATOM      3  C   UNL     1     136.238 135.114 135.857  1.00  0.00     0.178 C 
ATOM      4  C   UNL     1     135.659 136.314 136.661  1.00  0.00     0.177 C 
ATOM      5  O   UNL     1     136.158 135.245 134.436  1.00  0.00    -0.341 OA
ATOM      6  C   UNL     1     134.176 136.544 136.270  1.00  0.00     0.179 C 
ATOM      7  C   UNL     1     133.902 136.207 134.777  1.00  0.00     0.202 C 
BRANCH   3   8
ATOM      8  C   UNL     1     137.709 134.857 136.238  1.00  0.00     0.191 C 
BRANCH   8   9
ATOM      9  O   UNL     1     137.822 134.345 137.542  1.00  0.00    -0.394 OA
ATOM     10  H   UNL     1     138.569 134.833 137.981  1.00  0.00     0.210 HD
ENDBRANCH   8   9
ENDBRANCH   3   8
BRANCH   4  11
ATOM     11  O   UNL     1     136.399 137.483 136.409  1.00  0.00    -0.387 OA
ATOM     12  H   UNL     1     135.915 138.001 135.714  1.00  0.00     0.211 HD
ENDBRANCH   4  11
BRANCH   6  13
ATOM     13  O   UNL     1     133.303 135.850 137.124  1.00  0.00    -0.387 OA
ATOM     14  H   UNL     1     133.120 134.969 136.705  1.00  0.00     0.211 HD
ENDBRANCH   6  13
BRANCH   7  15
ATOM     15  O   UNL     1     133.177 135.005 134.624  1.00  0.00    -0.385 OA
ATOM     16  H   UNL     1     133.495 134.546 133.805  1.00  0.00     0.211 HD
ENDBRANCH   7  15
ENDBRANCH   1   2
BRANCH   1  17
ATOM     17  C   UNL     1     135.848 135.180 131.866  1.00  0.00     0.224 C 
ATOM     18  C   UNL     1     136.087 135.763 130.447  1.00  0.00     0.208 C 
ATOM     19  O   UNL     1     137.067 135.255 132.586  1.00  0.00    -0.337 OA
ATOM     20  C   UNL     1     137.594 135.890 130.374  1.00  0.00     0.180 C 
ATOM     21  C   UNL     1     137.995 136.004 131.835  1.00  0.00     0.179 C 
BRANCH  17  22
ATOM     22  C   UNL     1     135.495 133.666 131.808  1.00  0.00     0.225 C 
BRANCH  22  23
ATOM     23  O   UNL     1     134.509 133.332 132.744  1.00  0.00    -0.391 OA
ATOM     24  H   UNL     1     133.797 134.018 132.673  1.00  0.00     0.210 HD
ENDBRANCH  22  23
ENDBRANCH  17  22
BRANCH  18  25
ATOM     25  O   UNL     1     135.466 137.022 130.307  1.00  0.00    -0.385 OA
ATOM     26  H   UNL     1     135.556 137.285 129.354  1.00  0.00     0.211 HD
ENDBRANCH  18  25
BRANCH  20  27
ATOM     27  O   UNL     1     138.018 136.990 129.608  1.00  0.00    -0.387 OA
ATOM     28  H   UNL     1     138.533 136.613 128.845  1.00  0.00     0.211 HD
ENDBRANCH  20  27
BRANCH  21  29
ATOM     29  C   UNL     1     138.059 137.444 132.383  1.00  0.00     0.191 C 
BRANCH  29  30
ATOM     30  O   UNL     1     138.125 137.423 133.784  1.00  0.00    -0.394 OA
ATOM     31  H   UNL     1     137.949 138.347 134.104  1.00  0.00     0.210 HD
ENDBRANCH  29  30
ENDBRANCH  21  29
ENDBRANCH   1  17
TORSDOF 13
ENDMDL
MODEL 4
REMARK VINA RESULT:    -4.090      1.084      2.436
REMARK INTER + INTRA:          -7.353
REMARK INTER:                  -7.188
REMARK INTRA:                  -0.165
REMARK UNBOUND:                -1.111
REMARK SMILES OC[C@@H]1O[C@@H](O[C@]2(CO)O[C@H](CO)[C@H](O)[C@@H]2O)[C@@H](O)[C@@H](O)[C@@H]1O
REMARK SMILES IDX 6 1 5 2 3 3 22 4 4 5 20 6 18 7 2 8 1 9 23 11 21 13 19 15
REMARK SMILES IDX 7 17 16 18 10 19 14 20 11 21 8 22 9 23 17 25 15 27 12 29
REMARK SMILES IDX 13 30
REMARK H PARENT 1 10 23 12 21 14 19 16 9 24 17 26 15 28 13 31
REMARK Flexibility Score: inf
ROOT
ATOM      1  O   UNL     1     137.173 136.766 134.579  1.00  0.00    -0.313 OA
ENDROOT
BRANCH   1   2
ATOM      2  C   UNL     1     136.282 136.533 133.496  1.00  0.00     0.285 C 
ATOM      3  C   UNL     1     135.609 134.784 131.975  1.00  0.00     0.178 C 
ATOM      4  C   UNL     1     134.871 135.933 131.230  1.00  0.00     0.177 C 
ATOM      5  O   UNL     1     136.131 135.135 133.258  1.00  0.00    -0.341 OA
ATOM      6  C   UNL     1     135.820 137.148 131.061  1.00  0.00     0.179 C 
ATOM      7  C   UNL     1     136.803 137.296 132.255  1.00  0.00     0.202 C 
BRANCH   3   8
ATOM      8  C   UNL     1     134.688 133.560 132.145  1.00  0.00     0.191 C 
BRANCH   8   9
ATOM      9  O   UNL     1     134.080 133.545 133.411  1.00  0.00    -0.394 OA
ATOM     10  H   UNL     1     133.345 134.215 133.388  1.00  0.00     0.210 HD
ENDBRANCH   8   9
ENDBRANCH   3   8
BRANCH   4  11
ATOM     11  O   UNL     1     133.722 136.328 131.941  1.00  0.00    -0.387 OA
ATOM     12  H   UNL     1     133.897 136.169 132.905  1.00  0.00     0.211 HD
ENDBRANCH   4  11
BRANCH   6  13
ATOM     13  O   UNL     1     136.502 137.102 129.833  1.00  0.00    -0.387 OA
ATOM     14  H   UNL     1     136.416 137.999 129.416  1.00  0.00     0.211 HD
ENDBRANCH   6  13
BRANCH   7  15
ATOM     15  O   UNL     1     138.122 136.924 131.912  1.00  0.00    -0.385 OA
ATOM     16  H   UNL     1     138.678 137.743 131.859  1.00  0.00     0.211 HD
ENDBRANCH   7  15
ENDBRANCH   1   2
BRANCH   1  17
ATOM     17  C   UNL     1     137.046 135.875 135.694  1.00  0.00     0.224 C 
ATOM     18  C   UNL     1     137.002 136.660 137.032  1.00  0.00     0.208 C 
ATOM     19  O   UNL     1     135.805 135.211 135.529  1.00  0.00    -0.337 OA
ATOM     20  C   UNL     1     135.750 136.133 137.702  1.00  0.00     0.180 C 
ATOM     21  C   UNL     1     134.914 135.654 136.527  1.00  0.00     0.179 C 
BRANCH  17  22
ATOM     22  C   UNL     1     138.117 134.747 135.730  1.00  0.00     0.225 C 
BRANCH  22  23
ATOM     23  O   UNL     1     138.108 134.067 136.954  1.00  0.00    -0.391 OA
ATOM     24  H   UNL     1     138.816 134.473 137.516  1.00  0.00     0.210 HD
ENDBRANCH  22  23
ENDBRANCH  17  22
BRANCH  18  25
ATOM     25  O   UNL     1     136.905 138.048 136.801  1.00  0.00    -0.385 OA
ATOM     26  H   UNL     1     137.451 138.246 135.997  1.00  0.00     0.211 HD
ENDBRANCH  18  25
BRANCH  20  27
ATOM     27  O   UNL     1     135.091 137.101 138.478  1.00  0.00    -0.387 OA
ATOM     28  H   UNL     1     135.749 137.831 138.627  1.00  0.00     0.211 HD
ENDBRANCH  20  27
BRANCH  21  29
ATOM     29  C   UNL     1     133.960 136.711 135.932  1.00  0.00     0.191 C 
BRANCH  29  30
ATOM     30  O   UNL     1     133.411 136.241 134.731  1.00  0.00    -0.394 OA
ATOM     31  H   UNL     1     132.431 136.397 134.770  1.00  0.00     0.210 HD
ENDBRANCH  29  30
ENDBRANCH  21  29
ENDBRANCH   1  17
TORSDOF 13
ENDMDL
MODEL 5
REMARK VINA RESULT:    -3.944     15.018     16.181
REMARK INTER + INTRA:          -7.131
REMARK INTER:                  -5.757
REMARK INTRA:                  -1.374
REMARK UNBOUND:                -1.111
REMARK SMILES OC[C@@H]1O[C@@H](O[C@]2(CO)O[C@H](CO)[C@H](O)[C@@H]2O)[C@@H](O)[C@@H](O)[C@@H]1O
REMARK SMILES IDX 6 1 5 2 3 3 22 4 4 5 20 6 18 7 2 8 1 9 23 11 21 13 19 15
REMARK SMILES IDX 7 17 16 18 10 19 14 20 11 21 8 22 9 23 17 25 15 27 12 29
REMARK SMILES IDX 13 30
REMARK H PARENT 1 10 23 12 21 14 19 16 9 24 17 26 15 28 13 31
REMARK Flexibility Score: inf
ROOT
ATOM      1  O   UNL     1     128.987 132.637 120.506  1.00  0.00    -0.313 OA
ENDROOT
BRANCH   1   2
ATOM      2  C   UNL     1     129.968 131.661 120.179  1.00  0.00     0.285 C 
ATOM      3  C   UNL     1     131.371 130.000 121.228  1.00  0.00     0.178 C 
ATOM      4  C   UNL     1     132.065 129.937 119.837  1.00  0.00     0.177 C 
ATOM      5  O   UNL     1     130.156 130.752 121.261  1.00  0.00    -0.341 OA
ATOM      6  C   UNL     1     132.359 131.372 119.328  1.00  0.00     0.179 C 
ATOM      7  C   UNL     1     131.274 132.389 119.778  1.00  0.00     0.202 C 
BRANCH   3   8
ATOM      8  C   UNL     1     131.079 128.584 121.761  1.00  0.00     0.191 C 
BRANCH   8   9
ATOM      9  O   UNL     1     129.822 128.123 121.336  1.00  0.00    -0.394 OA
ATOM     10  H   UNL     1     129.138 128.613 121.867  1.00  0.00     0.210 HD
ENDBRANCH   8   9
ENDBRANCH   3   8
BRANCH   4  11
ATOM     11  O   UNL     1     131.251 129.264 118.907  1.00  0.00    -0.387 OA
ATOM     12  H   UNL     1     131.111 129.873 118.135  1.00  0.00     0.211 HD
ENDBRANCH   4  11
BRANCH   6  13
ATOM     13  O   UNL     1     133.647 131.795 119.693  1.00  0.00    -0.387 OA
ATOM     14  H   UNL     1     133.608 132.778 119.825  1.00  0.00     0.211 HD
ENDBRANCH   6  13
BRANCH   7  15
ATOM     15  O   UNL     1     131.740 133.253 120.795  1.00  0.00    -0.385 OA
ATOM     16  H   UNL     1     131.881 134.153 120.405  1.00  0.00     0.211 HD
ENDBRANCH   7  15
ENDBRANCH   1   2
BRANCH   1  17
ATOM     17  C   UNL     1     127.644 132.155 120.624  1.00  0.00     0.224 C 
ATOM     18  C   UNL     1     127.214 132.060 122.113  1.00  0.00     0.208 C 
ATOM     19  O   UNL     1     126.821 133.118 119.986  1.00  0.00    -0.337 OA
ATOM     20  C   UNL     1     125.915 132.838 122.149  1.00  0.00     0.180 C 
ATOM     21  C   UNL     1     126.052 133.780 120.964  1.00  0.00     0.179 C 
BRANCH  17  22
ATOM     22  C   UNL     1     127.379 130.822 119.868  1.00  0.00     0.225 C 
BRANCH  22  23
ATOM     23  O   UNL     1     127.326 129.733 120.746  1.00  0.00    -0.391 OA
ATOM     24  H   UNL     1     127.372 130.101 121.666  1.00  0.00     0.210 HD
ENDBRANCH  22  23
ENDBRANCH  17  22
BRANCH  18  25
ATOM     25  O   UNL     1     128.180 132.649 122.955  1.00  0.00    -0.385 OA
ATOM     26  H   UNL     1     127.821 133.532 123.233  1.00  0.00     0.211 HD
ENDBRANCH  18  25
BRANCH  20  27
ATOM     27  O   UNL     1     125.713 133.517 123.362  1.00  0.00    -0.387 OA
ATOM     28  H   UNL     1     125.301 132.859 123.982  1.00  0.00     0.211 HD
ENDBRANCH  20  27
BRANCH  21  29
ATOM     29  C   UNL     1     126.694 135.145 121.288  1.00  0.00     0.191 C 
BRANCH  29  30
ATOM     30  O   UNL     1     127.721 135.421 120.375  1.00  0.00    -0.394 OA
ATOM     31  H   UNL     1     128.530 134.930 120.679  1.00  0.00     0.210 HD
ENDBRANCH  29  30
ENDBRANCH  21  29
ENDBRANCH   1  17
TORSDOF 13
ENDMDL
MODEL 6
REMARK VINA RESULT:    -3.941     17.733     20.993
REMARK INTER + INTRA:          -7.125
REMARK INTER:                  -5.745
REMARK INTRA:                  -1.380
REMARK UNBOUND:                -1.111
REMARK SMILES OC[C@@H]1O[C@@H](O[C@]2(CO)O[C@H](CO)[C@H](O)[C@@H]2O)[C@@H](O)[C@@H](O)[C@@H]1O
REMARK SMILES IDX 6 1 5 2 3 3 22 4 4 5 20 6 18 7 2 8 1 9 23 11 21 13 19 15
REMARK SMILES IDX 7 17 16 18 10 19 14 20 11 21 8 22 9 23 17 25 15 27 12 29
REMARK SMILES IDX 13 30
REMARK H PARENT 1 10 23 12 21 14 19 16 9 24 17 26 15 28 13 31
REMARK Flexibility Score: inf
ROOT
ATOM      1  O   UNL     1     122.992 126.399 120.523  1.00  0.00    -0.313 OA
ENDROOT
BRANCH   1   2
ATOM      2  C   UNL     1     123.351 127.733 120.186  1.00  0.00     0.285 C 
ATOM      3  C   UNL     1     124.098 129.783 121.219  1.00  0.00     0.178 C 
ATOM      4  C   UNL     1     123.806 130.407 119.824  1.00  0.00     0.177 C 
ATOM      5  O   UNL     1     124.049 128.355 121.263  1.00  0.00    -0.341 OA
ATOM      6  C   UNL     1     122.413 129.946 119.321  1.00  0.00     0.179 C 
ATOM      7  C   UNL     1     122.070 128.502 119.783  1.00  0.00     0.202 C 
BRANCH   3   8
ATOM      8  C   UNL     1     125.473 130.237 121.746  1.00  0.00     0.191 C 
BRANCH   8   9
ATOM      9  O   UNL     1     126.498 129.373 121.323  1.00  0.00    -0.394 OA
ATOM     10  H   UNL     1     126.221 128.451 121.573  1.00  0.00     0.210 HD
ENDBRANCH   8   9
ENDBRANCH   3   8
BRANCH   4  11
ATOM     11  O   UNL     1     124.792 130.028 118.895  1.00  0.00    -0.387 OA
ATOM     12  H   UNL     1     124.864 129.038 118.920  1.00  0.00     0.211 HD
ENDBRANCH   4  11
BRANCH   6  13
ATOM     13  O   UNL     1     121.407 130.856 119.682  1.00  0.00    -0.387 OA
ATOM     14  H   UNL     1     120.562 130.540 119.268  1.00  0.00     0.211 HD
ENDBRANCH   6  13
BRANCH   7  15
ATOM     15  O   UNL     1     121.091 128.485 120.801  1.00  0.00    -0.385 OA
ATOM     16  H   UNL     1     121.101 127.592 121.234  1.00  0.00     0.211 HD
ENDBRANCH   7  15
ENDBRANCH   1   2
BRANCH   1  17
ATOM     17  C   UNL     1     124.075 125.467 120.618  1.00  0.00     0.224 C 
ATOM     18  C   UNL     1     124.398 125.135 122.100  1.00  0.00     0.208 C 
ATOM     19  O   UNL     1     123.630 124.279 119.984  1.00  0.00    -0.337 OA
ATOM     20  C   UNL     1     124.362 123.621 122.131  1.00  0.00     0.180 C 
ATOM     21  C   UNL     1     123.452 123.280 120.962  1.00  0.00     0.179 C 
BRANCH  17  22
ATOM     22  C   UNL     1     125.352 125.896 119.839  1.00  0.00     0.225 C 
BRANCH  22  23
ATOM     23  O   UNL     1     126.333 126.403 120.698  1.00  0.00    -0.391 OA
ATOM     24  H   UNL     1     126.290 127.391 120.638  1.00  0.00     0.210 HD
ENDBRANCH  22  23
ENDBRANCH  17  22
BRANCH  18  25
ATOM     25  O   UNL     1     123.425 125.682 122.962  1.00  0.00    -0.385 OA
ATOM     26  H   UNL     1     123.819 125.692 123.873  1.00  0.00     0.211 HD
ENDBRANCH  18  25
BRANCH  20  27
ATOM     27  O   UNL     1     123.893 123.107 123.352  1.00  0.00    -0.387 OA
ATOM     28  H   UNL     1     124.353 123.624 124.065  1.00  0.00     0.211 HD
ENDBRANCH  20  27
BRANCH  21  29
ATOM     29  C   UNL     1     121.955 123.165 121.314  1.00  0.00     0.191 C 
BRANCH  29  30
ATOM     30  O   UNL     1     121.188 123.903 120.400  1.00  0.00    -0.394 OA
ATOM     31  H   UNL     1     121.323 123.497 119.503  1.00  0.00     0.210 HD
ENDBRANCH  29  30
ENDBRANCH  21  29
ENDBRANCH   1  17
TORSDOF 13
ENDMDL
MODEL 7
REMARK VINA RESULT:    -3.931     15.407     18.963
REMARK INTER + INTRA:          -7.110
REMARK INTER:                  -5.730
REMARK INTRA:                  -1.380
REMARK UNBOUND:                -1.111
REMARK SMILES OC[C@@H]1O[C@@H](O[C@]2(CO)O[C@H](CO)[C@H](O)[C@@H]2O)[C@@H](O)[C@@H](O)[C@@H]1O
REMARK SMILES IDX 6 1 5 2 3 3 22 4 4 5 20 6 18 7 2 8 1 9 23 11 21 13 19 15
REMARK SMILES IDX 7 17 16 18 10 19 14 20 11 21 8 22 9 23 17 25 15 27 12 29
REMARK SMILES IDX 13 30
REMARK H PARENT 1 10 23 12 21 14 19 16 9 24 17 26 15 28 13 31
REMARK Flexibility Score: inf
ROOT
ATOM      1  O   UNL     1     131.320 124.327 120.544  1.00  0.00    -0.313 OA
ENDROOT
BRANCH   1   2
ATOM      2  C   UNL     1     129.987 123.958 120.214  1.00  0.00     0.285 C 
ATOM      3  C   UNL     1     127.857 123.524 121.263  1.00  0.00     0.178 C 
ATOM      4  C   UNL     1     127.455 122.983 119.861  1.00  0.00     0.177 C 
ATOM      5  O   UNL     1     129.108 124.214 121.307  1.00  0.00    -0.341 OA
ATOM      6  C   UNL     1     128.560 122.035 119.325  1.00  0.00     0.179 C 
ATOM      7  C   UNL     1     129.981 122.472 119.780  1.00  0.00     0.202 C 
BRANCH   3   8
ATOM      8  C   UNL     1     126.768 124.460 121.822  1.00  0.00     0.191 C 
BRANCH   8   9
ATOM      9  O   UNL     1     126.980 125.792 121.427  1.00  0.00    -0.394 OA
ATOM     10  H   UNL     1     127.657 126.174 122.048  1.00  0.00     0.210 HD
ENDBRANCH   8   9
ENDBRANCH   3   8
BRANCH   4  11
ATOM     11  O   UNL     1     127.263 124.042 118.956  1.00  0.00    -0.387 OA
ATOM     12  H   UNL     1     126.310 124.316 119.012  1.00  0.00     0.211 HD
ENDBRANCH   4  11
BRANCH   6  13
ATOM     13  O   UNL     1     128.300 120.696 119.661  1.00  0.00    -0.387 OA
ATOM     14  H   UNL     1     128.480 120.150 118.853  1.00  0.00     0.211 HD
ENDBRANCH   6  13
BRANCH   7  15
ATOM     15  O   UNL     1     130.509 121.620 120.775  1.00  0.00    -0.385 OA
ATOM     16  H   UNL     1     131.487 121.774 120.836  1.00  0.00     0.211 HD
ENDBRANCH   7  15
ENDBRANCH   1   2
BRANCH   1  17
ATOM     17  C   UNL     1     131.569 125.734 120.650  1.00  0.00     0.224 C 
ATOM     18  C   UNL     1     131.716 126.163 122.135  1.00  0.00     0.208 C 
ATOM     19  O   UNL     1     132.805 125.967 119.997  1.00  0.00    -0.337 OA
ATOM     20  C   UNL     1     133.036 126.906 122.151  1.00  0.00     0.180 C 
ATOM     21  C   UNL     1     133.772 126.314 120.962  1.00  0.00     0.179 C 
BRANCH  17  22
ATOM     22  C   UNL     1     130.533 126.620 119.901  1.00  0.00     0.225 C 
BRANCH  22  23
ATOM     23  O   UNL     1     129.607 127.188 120.784  1.00  0.00    -0.391 OA
ATOM     24  H   UNL     1     128.724 126.789 120.574  1.00  0.00     0.210 HD
ENDBRANCH  22  23
ENDBRANCH  17  22
BRANCH  18  25
ATOM     25  O   UNL     1     131.760 125.037 122.984  1.00  0.00    -0.385 OA
ATOM     26  H   UNL     1     130.903 125.019 123.485  1.00  0.00     0.211 HD
ENDBRANCH  18  25
BRANCH  20  27
ATOM     27  O   UNL     1     133.740 126.752 123.358  1.00  0.00    -0.387 OA
ATOM     28  H   UNL     1     133.152 127.120 124.070  1.00  0.00     0.211 HD
ENDBRANCH  20  27
BRANCH  21  29
ATOM     29  C   UNL     1     134.644 125.081 121.283  1.00  0.00     0.191 C 
BRANCH  29  30
ATOM     30  O   UNL     1     134.381 124.055 120.365  1.00  0.00    -0.394 OA
ATOM     31  H   UNL     1     133.880 123.345 120.847  1.00  0.00     0.210 HD
ENDBRANCH  29  30
ENDBRANCH  21  29
ENDBRANCH   1  17
TORSDOF 13
ENDMDL
MODEL 8
REMARK VINA RESULT:    -3.913      1.605      5.847
REMARK INTER + INTRA:          -7.084
REMARK INTER:                  -6.611
REMARK INTRA:                  -0.472
REMARK UNBOUND:                -1.111
REMARK SMILES OC[C@@H]1O[C@@H](O[C@]2(CO)O[C@H](CO)[C@H](O)[C@@H]2O)[C@@H](O)[C@@H](O)[C@@H]1O
REMARK SMILES IDX 6 1 5 2 3 3 22 4 4 5 20 6 18 7 2 8 1 9 23 11 21 13 19 15
REMARK SMILES IDX 7 17 16 18 10 19 14 20 11 21 8 22 9 23 17 25 15 27 12 29
REMARK SMILES IDX 13 30
REMARK H PARENT 1 10 23 12 21 14 19 16 9 24 17 26 15 28 13 31
REMARK Flexibility Score: inf
ROOT
ATOM      1  O   UNL     1     136.267 135.290 134.356  1.00  0.00    -0.313 OA
ENDROOT
BRANCH   1   2
ATOM      2  C   UNL     1     135.718 135.464 135.656  1.00  0.00     0.285 C 
ATOM      3  C   UNL     1     135.067 137.210 137.190  1.00  0.00     0.178 C 
ATOM      4  C   UNL     1     134.952 136.048 138.217  1.00  0.00     0.177 C 
ATOM      5  O   UNL     1     135.253 136.800 135.833  1.00  0.00    -0.341 OA
ATOM      6  C   UNL     1     136.214 135.150 138.142  1.00  0.00     0.179 C 
ATOM      7  C   UNL     1     136.787 135.061 136.700  1.00  0.00     0.202 C 
BRANCH   3   8
ATOM      8  C   UNL     1     133.828 138.125 137.254  1.00  0.00     0.191 C 
BRANCH   8   9
ATOM      9  O   UNL     1     133.186 138.035 138.500  1.00  0.00    -0.394 OA
ATOM     10  H   UNL     1     133.791 138.453 139.170  1.00  0.00     0.210 HD
ENDBRANCH   8   9
ENDBRANCH   3   8
BRANCH   4  11
ATOM     11  O   UNL     1     133.806 135.273 137.962  1.00  0.00    -0.387 OA
ATOM     12  H   UNL     1     133.658 134.688 138.751  1.00  0.00     0.211 HD
ENDBRANCH   4  11
BRANCH   6  13
ATOM     13  O   UNL     1     137.193 135.558 139.063  1.00  0.00    -0.387 OA
ATOM     14  H   UNL     1     137.817 134.796 139.186  1.00  0.00     0.211 HD
ENDBRANCH   6  13
BRANCH   7  15
ATOM     15  O   UNL     1     137.984 135.799 136.554  1.00  0.00    -0.385 OA
ATOM     16  H   UNL     1     137.977 136.238 135.665  1.00  0.00     0.211 HD
ENDBRANCH   7  15
ENDBRANCH   1   2
BRANCH   1  17
ATOM     17  C   UNL     1     135.317 135.177 133.289  1.00  0.00     0.224 C 
ATOM     18  C   UNL     1     135.074 136.553 132.613  1.00  0.00     0.208 C 
ATOM     19  O   UNL     1     135.901 134.310 132.331  1.00  0.00    -0.337 OA
ATOM     20  C   UNL     1     135.309 136.263 131.145  1.00  0.00     0.180 C 
ATOM     21  C   UNL     1     136.230 135.055 131.182  1.00  0.00     0.179 C 
BRANCH  17  22
ATOM     22  C   UNL     1     133.979 134.499 133.699  1.00  0.00     0.225 C 
BRANCH  22  23
ATOM     23  O   UNL     1     133.849 133.228 133.126  1.00  0.00    -0.391 OA
ATOM     24  H   UNL     1     134.360 132.600 133.697  1.00  0.00     0.210 HD
ENDBRANCH  22  23
ENDBRANCH  17  22
BRANCH  18  25
ATOM     25  O   UNL     1     135.985 137.519 133.090  1.00  0.00    -0.385 OA
ATOM     26  H   UNL     1     135.811 137.625 134.061  1.00  0.00     0.211 HD
ENDBRANCH  18  25
BRANCH  20  27
ATOM     27  O   UNL     1     135.869 137.351 130.451  1.00  0.00    -0.387 OA
ATOM     28  H   UNL     1     135.386 138.159 130.770  1.00  0.00     0.211 HD
ENDBRANCH  20  27
BRANCH  21  29
ATOM     29  C   UNL     1     137.737 135.384 131.196  1.00  0.00     0.191 C 
BRANCH  29  30
ATOM     30  O   UNL     1     137.930 136.759 131.000  1.00  0.00    -0.394 OA
ATOM     31  H   UNL     1     138.842 136.981 131.327  1.00  0.00     0.210 HD
ENDBRANCH  29  30
ENDBRANCH  21  29
ENDBRANCH   1  17
TORSDOF 13
ENDMDL
