MODEL 1
REMARK VINA RESULT:    -4.807      0.000      0.000
REMARK INTER + INTRA:          -6.605
REMARK INTER:                  -6.212
REMARK INTRA:                  -0.394
REMARK UNBOUND:                -0.394
REMARK SMILES CO[C@@]1(CO)O[C@H](CO)[C@@H](O)[C@H]1O
REMARK SMILES IDX 3 1 12 2 10 3 7 4 6 5 2 6 1 7 4 8 5 9 13 11 11 13 8 15 9 16
REMARK H PARENT 5 10 13 12 11 14 9 17
REMARK Flexibility Score: inf
ROOT
ATOM      1  C   UNL     1     -16.482   5.489 -41.950  1.00  0.00     0.221 C 
ATOM      2  C   UNL     1     -17.436   5.599 -40.741  1.00  0.00     0.207 C 
ATOM      3  C   UNL     1     -17.294   7.048 -40.348  1.00  0.00     0.180 C 
ATOM      4  C   UNL     1     -17.006   7.715 -41.686  1.00  0.00     0.179 C 
ATOM      5  O   UNL     1     -16.405   6.771 -42.548  1.00  0.00    -0.337 OA
ENDROOT
BRANCH   1   6
ATOM      6  O   UNL     1     -16.986   4.593 -42.941  1.00  0.00    -0.349 OA
ATOM      7  C   UNL     1     -16.463   4.829 -44.236  1.00  0.00     0.198 C 
ENDBRANCH   1   6
BRANCH   1   8
ATOM      8  C   UNL     1     -15.044   5.117 -41.503  1.00  0.00     0.224 C 
BRANCH   8   9
ATOM      9  O   UNL     1     -15.095   4.245 -40.406  1.00  0.00    -0.391 OA
ATOM     10  H   UNL     1     -14.472   3.501 -40.617  1.00  0.00     0.210 HD
ENDBRANCH   8   9
ENDBRANCH   1   8
BRANCH   2  11
ATOM     11  O   UNL     1     -18.758   5.327 -41.139  1.00  0.00    -0.385 OA
ATOM     12  H   UNL     1     -19.075   6.118 -41.648  1.00  0.00     0.211 HD
ENDBRANCH   2  11
BRANCH   3  13
ATOM     13  O   UNL     1     -18.464   7.564 -39.767  1.00  0.00    -0.387 OA
ATOM     14  H   UNL     1     -18.846   6.834 -39.212  1.00  0.00     0.211 HD
ENDBRANCH   3  13
BRANCH   4  15
ATOM     15  C   UNL     1     -16.090   8.939 -41.545  1.00  0.00     0.191 C 
BRANCH  15  16
ATOM     16  O   UNL     1     -16.605   9.841 -40.603  1.00  0.00    -0.394 OA
ATOM     17  H   UNL     1     -15.827  10.205 -40.104  1.00  0.00     0.210 HD
ENDBRANCH  15  16
ENDBRANCH   4  15
TORSDOF 7
ENDMDL
MODEL 2
REMARK VINA RESULT:    -4.628      1.516      3.376
REMARK INTER + INTRA:          -6.374
REMARK INTER:                  -5.912
REMARK INTRA:                  -0.462
REMARK UNBOUND:                -0.394
REMARK SMILES CO[C@@]1(CO)O[C@H](CO)[C@@H](O)[C@H]1O
REMARK SMILES IDX 3 1 12 2 10 3 7 4 6 5 2 6 1 7 4 8 5 9 13 11 11 13 8 15 9 16
REMARK H PARENT 5 10 13 12 11 14 9 17
REMARK Flexibility Score: inf
ROOT
ATOM      1  C   UNL     1     -16.682   7.227 -42.345  1.00  0.00     0.221 C 
ATOM      2  C   UNL     1     -17.730   7.873 -41.414  1.00  0.00     0.207 C 
ATOM      3  C   UNL     1     -18.137   6.719 -40.534  1.00  0.00     0.180 C 
ATOM      4  C   UNL     1     -16.858   5.896 -40.475  1.00  0.00     0.179 C 
ATOM      5  O   UNL     1     -16.101   6.143 -41.641  1.00  0.00    -0.337 OA
ENDROOT
BRANCH   1   6
ATOM      6  O   UNL     1     -15.627   8.134 -42.665  1.00  0.00    -0.349 OA
ATOM      7  C   UNL     1     -14.355   7.518 -42.743  1.00  0.00     0.198 C 
ENDBRANCH   1   6
BRANCH   1   8
ATOM      8  C   UNL     1     -17.346   6.630 -43.614  1.00  0.00     0.224 C 
BRANCH   8   9
ATOM      9  O   UNL     1     -16.968   5.288 -43.765  1.00  0.00    -0.391 OA
ATOM     10  H   UNL     1     -17.137   4.854 -42.887  1.00  0.00     0.210 HD
ENDBRANCH   8   9
ENDBRANCH   1   8
BRANCH   2  11
ATOM     11  O   UNL     1     -17.134   8.890 -40.645  1.00  0.00    -0.385 OA
ATOM     12  H   UNL     1     -17.873   9.419 -40.244  1.00  0.00     0.211 HD
ENDBRANCH   2  11
BRANCH   3  13
ATOM     13  O   UNL     1     -18.530   7.135 -39.251  1.00  0.00    -0.387 OA
ATOM     14  H   UNL     1     -19.498   7.352 -39.311  1.00  0.00     0.211 HD
ENDBRANCH   3  13
BRANCH   4  15
ATOM     15  C   UNL     1     -17.136   4.391 -40.351  1.00  0.00     0.191 C 
BRANCH  15  16
ATOM     16  O   UNL     1     -18.245   4.024 -41.126  1.00  0.00    -0.394 OA
ATOM     17  H   UNL     1     -18.876   3.558 -40.517  1.00  0.00     0.210 HD
ENDBRANCH  15  16
ENDBRANCH   4  15
TORSDOF 7
ENDMDL
MODEL 3
REMARK VINA RESULT:    -4.510      8.492     10.287
REMARK INTER + INTRA:          -6.222
REMARK INTER:                  -6.072
REMARK INTRA:                  -0.149
REMARK UNBOUND:                -0.394
REMARK SMILES CO[C@@]1(CO)O[C@H](CO)[C@@H](O)[C@H]1O
REMARK SMILES IDX 3 1 12 2 10 3 7 4 6 5 2 6 1 7 4 8 5 9 13 11 11 13 8 15 9 16
REMARK H PARENT 5 10 13 12 11 14 9 17
REMARK Flexibility Score: inf
ROOT
ATOM      1  C   UNL     1     -11.376  -1.207 -40.120  1.00  0.00     0.221 C 
ATOM      2  C   UNL     1     -10.806   0.196 -39.819  1.00  0.00     0.207 C 
ATOM      3  C   UNL     1      -9.432   0.125 -40.433  1.00  0.00     0.180 C 
ATOM      4  C   UNL     1      -9.650  -0.833 -41.596  1.00  0.00     0.179 C 
ATOM      5  O   UNL     1     -10.735  -1.683 -41.290  1.00  0.00    -0.337 OA
ENDROOT
BRANCH   1   6
ATOM      6  O   UNL     1     -12.776  -1.162 -40.396  1.00  0.00    -0.349 OA
ATOM      7  C   UNL     1     -13.549  -1.983 -39.539  1.00  0.00     0.198 C 
ENDBRANCH   1   6
BRANCH   1   8
ATOM      8  C   UNL     1     -11.036  -2.210 -38.986  1.00  0.00     0.224 C 
BRANCH   8   9
ATOM      9  O   UNL     1     -10.423  -3.349 -39.524  1.00  0.00    -0.391 OA
ATOM     10  H   UNL     1      -9.688  -3.019 -40.104  1.00  0.00     0.210 HD
ENDBRANCH   8   9
ENDBRANCH   1   8
BRANCH   2  11
ATOM     11  O   UNL     1     -11.580   1.181 -40.460  1.00  0.00    -0.385 OA
ATOM     12  H   UNL     1     -12.341   1.388 -39.857  1.00  0.00     0.211 HD
ENDBRANCH   2  11
BRANCH   3  13
ATOM     13  O   UNL     1      -8.981   1.376 -40.886  1.00  0.00    -0.387 OA
ATOM     14  H   UNL     1      -8.483   1.785 -40.130  1.00  0.00     0.211 HD
ENDBRANCH   3  13
BRANCH   4  15
ATOM     15  C   UNL     1      -8.404  -1.677 -41.899  1.00  0.00     0.191 C 
BRANCH  15  16
ATOM     16  O   UNL     1      -8.694  -2.674 -42.841  1.00  0.00    -0.394 OA
ATOM     17  H   UNL     1      -7.823  -3.030 -43.156  1.00  0.00     0.210 HD
ENDBRANCH  15  16
ENDBRANCH   4  15
TORSDOF 7
ENDMDL
MODEL 4
REMARK VINA RESULT:    -4.503      8.343     10.922
REMARK INTER + INTRA:          -6.213
REMARK INTER:                  -5.844
REMARK INTRA:                  -0.369
REMARK UNBOUND:                -0.394
REMARK SMILES CO[C@@]1(CO)O[C@H](CO)[C@@H](O)[C@H]1O
REMARK SMILES IDX 3 1 12 2 10 3 7 4 6 5 2 6 1 7 4 8 5 9 13 11 11 13 8 15 9 16
REMARK H PARENT 5 10 13 12 11 14 9 17
REMARK Flexibility Score: inf
ROOT
ATOM      1  C   UNL     1     -10.705  -0.427 -39.639  1.00  0.00     0.221 C 
ATOM      2  C   UNL     1     -10.482  -1.767 -38.904  1.00  0.00     0.207 C 
ATOM      3  C   UNL     1      -9.744  -2.581 -39.935  1.00  0.00     0.180 C 
ATOM      4  C   UNL     1      -8.972  -1.511 -40.695  1.00  0.00     0.179 C 
ATOM      5  O   UNL     1      -9.664  -0.285 -40.589  1.00  0.00    -0.337 OA
ENDROOT
BRANCH   1   6
ATOM      6  O   UNL     1     -10.616   0.686 -38.748  1.00  0.00    -0.349 OA
ATOM      7  C   UNL     1      -9.690   1.673 -39.167  1.00  0.00     0.198 C 
ENDBRANCH   1   6
BRANCH   1   8
ATOM      8  C   UNL     1     -12.038  -0.434 -40.433  1.00  0.00     0.224 C 
BRANCH   8   9
ATOM      9  O   UNL     1     -11.972   0.491 -41.485  1.00  0.00    -0.391 OA
ATOM     10  H   UNL     1     -11.191   1.074 -41.291  1.00  0.00     0.210 HD
ENDBRANCH   8   9
ENDBRANCH   1   8
BRANCH   2  11
ATOM     11  O   UNL     1      -9.677  -1.568 -37.768  1.00  0.00    -0.385 OA
ATOM     12  H   UNL     1     -10.214  -1.849 -36.981  1.00  0.00     0.211 HD
ENDBRANCH   2  11
BRANCH   3  13
ATOM     13  O   UNL     1      -8.873  -3.518 -39.356  1.00  0.00    -0.387 OA
ATOM     14  H   UNL     1      -8.256  -3.810 -40.077  1.00  0.00     0.211 HD
ENDBRANCH   3  13
BRANCH   4  15
ATOM     15  C   UNL     1      -8.781  -1.868 -42.176  1.00  0.00     0.191 C 
BRANCH  15  16
ATOM     16  O   UNL     1      -9.366  -3.108 -42.469  1.00  0.00    -0.394 OA
ATOM     17  H   UNL     1      -8.949  -3.427 -43.313  1.00  0.00     0.210 HD
ENDBRANCH  15  16
ENDBRANCH   4  15
TORSDOF 7
ENDMDL
MODEL 5
REMARK VINA RESULT:    -4.487      1.527      2.210
REMARK INTER + INTRA:          -6.192
REMARK INTER:                  -5.783
REMARK INTRA:                  -0.409
REMARK UNBOUND:                -0.394
REMARK SMILES CO[C@@]1(CO)O[C@H](CO)[C@@H](O)[C@H]1O
REMARK SMILES IDX 3 1 12 2 10 3 7 4 6 5 2 6 1 7 4 8 5 9 13 11 11 13 8 15 9 16
REMARK H PARENT 5 10 13 12 11 14 9 17
REMARK Flexibility Score: inf
ROOT
ATOM      1  C   UNL     1     -17.509   5.521 -41.672  1.00  0.00     0.221 C 
ATOM      2  C   UNL     1     -17.215   6.474 -40.493  1.00  0.00     0.207 C 
ATOM      3  C   UNL     1     -17.074   7.807 -41.182  1.00  0.00     0.180 C 
ATOM      4  C   UNL     1     -18.018   7.655 -42.367  1.00  0.00     0.179 C 
ATOM      5  O   UNL     1     -18.130   6.285 -42.690  1.00  0.00    -0.337 OA
ENDROOT
BRANCH   1   6
ATOM      6  O   UNL     1     -18.425   4.489 -41.303  1.00  0.00    -0.349 OA
ATOM      7  C   UNL     1     -17.793   3.273 -40.947  1.00  0.00     0.198 C 
ENDBRANCH   1   6
BRANCH   1   8
ATOM      8  C   UNL     1     -16.199   4.951 -42.277  1.00  0.00     0.224 C 
BRANCH   8   9
ATOM      9  O   UNL     1     -16.284   4.941 -43.676  1.00  0.00    -0.391 OA
ATOM     10  H   UNL     1     -17.162   5.346 -43.902  1.00  0.00     0.210 HD
ENDBRANCH   8   9
ENDBRANCH   1   8
BRANCH   2  11
ATOM     11  O   UNL     1     -18.305   6.494 -39.603  1.00  0.00    -0.385 OA
ATOM     12  H   UNL     1     -19.129   6.497 -40.157  1.00  0.00     0.211 HD
ENDBRANCH   2  11
BRANCH   3  13
ATOM     13  O   UNL     1     -17.462   8.879 -40.361  1.00  0.00    -0.387 OA
ATOM     14  H   UNL     1     -17.400   8.551 -39.425  1.00  0.00     0.211 HD
ENDBRANCH   3  13
BRANCH   4  15
ATOM     15  C   UNL     1     -17.540   8.437 -43.599  1.00  0.00     0.191 C 
BRANCH  15  16
ATOM     16  O   UNL     1     -17.276   9.774 -43.269  1.00  0.00    -0.394 OA
ATOM     17  H   UNL     1     -18.157  10.220 -43.163  1.00  0.00     0.210 HD
ENDBRANCH  15  16
ENDBRANCH   4  15
TORSDOF 7
ENDMDL
MODEL 6
REMARK VINA RESULT:    -4.465      1.683      2.603
REMARK INTER + INTRA:          -6.164
REMARK INTER:                  -5.661
REMARK INTRA:                  -0.503
REMARK UNBOUND:                -0.394
REMARK SMILES CO[C@@]1(CO)O[C@H](CO)[C@@H](O)[C@H]1O
REMARK SMILES IDX 3 1 12 2 10 3 7 4 6 5 2 6 1 7 4 8 5 9 13 11 11 13 8 15 9 16
REMARK H PARENT 5 10 13 12 11 14 9 17
REMARK Flexibility Score: inf
ROOT
ATOM      1  C   UNL     1     -16.831   5.513 -42.343  1.00  0.00     0.221 C 
ATOM      2  C   UNL     1     -17.666   6.414 -43.279  1.00  0.00     0.207 C 
ATOM      3  C   UNL     1     -18.264   7.411 -42.320  1.00  0.00     0.180 C 
ATOM      4  C   UNL     1     -17.189   7.505 -41.245  1.00  0.00     0.179 C 
ATOM      5  O   UNL     1     -16.459   6.296 -41.222  1.00  0.00    -0.337 OA
ENDROOT
BRANCH   1   6
ATOM      6  O   UNL     1     -15.624   5.075 -42.968  1.00  0.00    -0.349 OA
ATOM      7  C   UNL     1     -14.485   5.178 -42.134  1.00  0.00     0.198 C 
ENDBRANCH   1   6
BRANCH   1   8
ATOM      8  C   UNL     1     -17.672   4.328 -41.801  1.00  0.00     0.224 C 
BRANCH   8   9
ATOM      9  O   UNL     1     -17.595   4.288 -40.402  1.00  0.00    -0.391 OA
ATOM     10  H   UNL     1     -16.639   4.429 -40.174  1.00  0.00     0.210 HD
ENDBRANCH   8   9
ENDBRANCH   1   8
BRANCH   2  11
ATOM     11  O   UNL     1     -16.826   7.064 -44.202  1.00  0.00    -0.385 OA
ATOM     12  H   UNL     1     -17.360   7.204 -45.028  1.00  0.00     0.211 HD
ENDBRANCH   2  11
BRANCH   3  13
ATOM     13  O   UNL     1     -18.491   8.661 -42.918  1.00  0.00    -0.387 OA
ATOM     14  H   UNL     1     -19.476   8.758 -42.999  1.00  0.00     0.211 HD
ENDBRANCH   3  13
BRANCH   4  15
ATOM     15  C   UNL     1     -17.777   7.777 -39.853  1.00  0.00     0.191 C 
BRANCH  15  16
ATOM     16  O   UNL     1     -18.835   6.900 -39.578  1.00  0.00    -0.394 OA
ATOM     17  H   UNL     1     -19.670   7.373 -39.832  1.00  0.00     0.210 HD
ENDBRANCH  15  16
ENDBRANCH   4  15
TORSDOF 7
ENDMDL
MODEL 7
REMARK VINA RESULT:    -4.443      1.721      3.985
REMARK INTER + INTRA:          -6.135
REMARK INTER:                  -5.724
REMARK INTRA:                  -0.411
REMARK UNBOUND:                -0.394
REMARK SMILES CO[C@@]1(CO)O[C@H](CO)[C@@H](O)[C@H]1O
REMARK SMILES IDX 3 1 12 2 10 3 7 4 6 5 2 6 1 7 4 8 5 9 13 11 11 13 8 15 9 16
REMARK H PARENT 5 10 13 12 11 14 9 17
REMARK Flexibility Score: inf
ROOT
ATOM      1  C   UNL     1     -16.607   6.742 -41.884  1.00  0.00     0.221 C 
ATOM      2  C   UNL     1     -15.594   6.038 -40.955  1.00  0.00     0.207 C 
ATOM      3  C   UNL     1     -16.304   4.753 -40.617  1.00  0.00     0.180 C 
ATOM      4  C   UNL     1     -17.123   4.499 -41.875  1.00  0.00     0.179 C 
ATOM      5  O   UNL     1     -17.380   5.734 -42.510  1.00  0.00    -0.337 OA
ENDROOT
BRANCH   1   6
ATOM      6  O   UNL     1     -15.955   7.476 -42.920  1.00  0.00    -0.349 OA
ATOM      7  C   UNL     1     -16.691   7.526 -44.128  1.00  0.00     0.198 C 
ENDBRANCH   1   6
BRANCH   1   8
ATOM      8  C   UNL     1     -17.595   7.624 -41.075  1.00  0.00     0.224 C 
BRANCH   8   9
ATOM      9  O   UNL     1     -18.898   7.450 -41.560  1.00  0.00    -0.391 OA
ATOM     10  H   UNL     1     -18.804   7.170 -42.509  1.00  0.00     0.210 HD
ENDBRANCH   8   9
ENDBRANCH   1   8
BRANCH   2  11
ATOM     11  O   UNL     1     -14.402   5.770 -41.654  1.00  0.00    -0.385 OA
ATOM     12  H   UNL     1     -13.694   5.627 -40.972  1.00  0.00     0.211 HD
ENDBRANCH   2  11
BRANCH   3  13
ATOM     13  O   UNL     1     -15.413   3.695 -40.372  1.00  0.00    -0.387 OA
ATOM     14  H   UNL     1     -15.014   3.456 -41.249  1.00  0.00     0.211 HD
ENDBRANCH   3  13
BRANCH   4  15
ATOM     15  C   UNL     1     -18.450   3.788 -41.576  1.00  0.00     0.191 C 
BRANCH  15  16
ATOM     16  O   UNL     1     -18.325   2.946 -40.462  1.00  0.00    -0.394 OA
ATOM     17  H   UNL     1     -18.131   3.531 -39.683  1.00  0.00     0.210 HD
ENDBRANCH  15  16
ENDBRANCH   4  15
TORSDOF 7
ENDMDL
MODEL 8
REMARK VINA RESULT:    -4.393      1.463      2.186
REMARK INTER + INTRA:          -6.070
REMARK INTER:                  -5.690
REMARK INTRA:                  -0.380
REMARK UNBOUND:                -0.394
REMARK SMILES CO[C@@]1(CO)O[C@H](CO)[C@@H](O)[C@H]1O
REMARK SMILES IDX 3 1 12 2 10 3 7 4 6 5 2 6 1 7 4 8 5 9 13 11 11 13 8 15 9 16
REMARK H PARENT 5 10 13 12 11 14 9 17
REMARK Flexibility Score: inf
ROOT
ATOM      1  C   UNL     1     -15.554   5.649 -41.922  1.00  0.00     0.221 C 
ATOM      2  C   UNL     1     -16.702   4.618 -41.867  1.00  0.00     0.207 C 
ATOM      3  C   UNL     1     -17.702   5.296 -40.965  1.00  0.00     0.180 C 
ATOM      4  C   UNL     1     -17.454   6.769 -41.263  1.00  0.00     0.179 C 
ATOM      5  O   UNL     1     -16.121   6.928 -41.701  1.00  0.00    -0.337 OA
ENDROOT
BRANCH   1   6
ATOM      6  O   UNL     1     -14.932   5.681 -43.207  1.00  0.00    -0.349 OA
ATOM      7  C   UNL     1     -14.365   6.938 -43.530  1.00  0.00     0.198 C 
ENDBRANCH   1   6
BRANCH   1   8
ATOM      8  C   UNL     1     -14.528   5.412 -40.782  1.00  0.00     0.224 C 
BRANCH   8   9
ATOM      9  O   UNL     1     -14.557   4.068 -40.385  1.00  0.00    -0.391 OA
ATOM     10  H   UNL     1     -14.770   4.073 -39.415  1.00  0.00     0.210 HD
ENDBRANCH   8   9
ENDBRANCH   1   8
BRANCH   2  11
ATOM     11  O   UNL     1     -17.247   4.431 -43.151  1.00  0.00    -0.385 OA
ATOM     12  H   UNL     1     -17.128   3.472 -43.378  1.00  0.00     0.211 HD
ENDBRANCH   2  11
BRANCH   3  13
ATOM     13  O   UNL     1     -19.026   4.936 -41.265  1.00  0.00    -0.387 OA
ATOM     14  H   UNL     1     -18.973   4.240 -41.972  1.00  0.00     0.211 HD
ENDBRANCH   3  13
BRANCH   4  15
ATOM     15  C   UNL     1     -17.704   7.662 -40.040  1.00  0.00     0.191 C 
BRANCH  15  16
ATOM     16  O   UNL     1     -18.758   7.161 -39.262  1.00  0.00    -0.394 OA
ATOM     17  H   UNL     1     -19.381   7.917 -39.107  1.00  0.00     0.210 HD
ENDBRANCH  15  16
ENDBRANCH   4  15
TORSDOF 7
ENDMDL
MODEL 9
REMARK VINA RESULT:    -4.366      8.007     10.210
REMARK INTER + INTRA:          -6.036
REMARK INTER:                  -5.638
REMARK INTRA:                  -0.398
REMARK UNBOUND:                -0.394
REMARK SMILES CO[C@@]1(CO)O[C@H](CO)[C@@H](O)[C@H]1O
REMARK SMILES IDX 3 1 12 2 10 3 7 4 6 5 2 6 1 7 4 8 5 9 13 11 11 13 8 15 9 16
REMARK H PARENT 5 10 13 12 11 14 9 17
REMARK Flexibility Score: inf
ROOT
ATOM      1  C   UNL     1      -9.535  -1.270 -40.790  1.00  0.00     0.221 C 
ATOM      2  C   UNL     1      -9.927   0.117 -41.342  1.00  0.00     0.207 C 
ATOM      3  C   UNL     1     -11.420   0.136 -41.139  1.00  0.00     0.180 C 
ATOM      4  C   UNL     1     -11.584  -0.726 -39.895  1.00  0.00     0.179 C 
ATOM      5  O   UNL     1     -10.500  -1.628 -39.817  1.00  0.00    -0.337 OA
ENDROOT
BRANCH   1   6
ATOM      6  O   UNL     1      -8.267  -1.239 -40.133  1.00  0.00    -0.349 OA
ATOM      7  C   UNL     1      -8.138  -2.207 -39.107  1.00  0.00     0.198 C 
ENDBRANCH   1   6
BRANCH   1   8
ATOM      8  C   UNL     1      -9.592  -2.355 -41.898  1.00  0.00     0.224 C 
BRANCH   8   9
ATOM      9  O   UNL     1      -8.441  -2.287 -42.694  1.00  0.00    -0.391 OA
ATOM     10  H   UNL     1      -8.394  -1.354 -43.032  1.00  0.00     0.210 HD
ENDBRANCH   8   9
ENDBRANCH   1   8
BRANCH   2  11
ATOM     11  O   UNL     1      -9.316   1.132 -40.582  1.00  0.00    -0.385 OA
ATOM     12  H   UNL     1      -8.362   0.879 -40.476  1.00  0.00     0.211 HD
ENDBRANCH   2  11
BRANCH   3  13
ATOM     13  O   UNL     1     -11.917   1.432 -40.925  1.00  0.00    -0.387 OA
ATOM     14  H   UNL     1     -11.464   2.018 -41.586  1.00  0.00     0.211 HD
ENDBRANCH   3  13
BRANCH   4  15
ATOM     15  C   UNL     1     -12.905  -1.509 -39.896  1.00  0.00     0.191 C 
BRANCH  15  16
ATOM     16  O   UNL     1     -13.876  -0.847 -40.661  1.00  0.00    -0.394 OA
ATOM     17  H   UNL     1     -14.756  -1.210 -40.378  1.00  0.00     0.210 HD
ENDBRANCH  15  16
ENDBRANCH   4  15
TORSDOF 7
ENDMDL
