MODEL 1
REMARK VINA RESULT:    -5.303      0.000      0.000
REMARK INTER + INTRA:          -5.613
REMARK INTER:                  -5.613
REMARK INTRA:                   0.000
REMARK UNBOUND:                 0.000
REMARK SMILES O=c1ccc2cc(O)c(O)cc2o1
REMARK SMILES IDX 4 1 3 2 2 3 1 4 13 5 12 6 11 7 9 8 7 9 6 10 5 11 8 12 10 14
REMARK H PARENT 8 13 10 15
REMARK Flexibility Score: inf
ROOT
ATOM      1  C   UNL     1      12.389  -1.467   5.562  1.00  0.00     0.019 A 
ATOM      2  C   UNL     1      12.295  -1.082   6.899  1.00  0.00     0.094 A 
ATOM      3  C   UNL     1      11.037  -1.058   7.510  1.00  0.00     0.336 A 
ATOM      4  O   UNL     1      10.930  -0.713   8.716  1.00  0.00    -0.246 OA
ATOM      5  O   UNL     1       9.949  -1.398   6.824  1.00  0.00    -0.423 OA
ATOM      6  C   UNL     1       9.994  -1.771   5.547  1.00  0.00     0.142 A 
ATOM      7  C   UNL     1       8.817  -2.118   4.878  1.00  0.00     0.098 A 
ATOM      8  C   UNL     1       8.857  -2.512   3.534  1.00  0.00     0.161 A 
ATOM      9  C   UNL     1      10.087  -2.560   2.853  1.00  0.00     0.158 A 
ATOM     10  C   UNL     1      11.271  -2.214   3.521  1.00  0.00     0.062 A 
ATOM     11  C   UNL     1      11.230  -1.819   4.865  1.00  0.00     0.022 A 
ENDROOT
BRANCH   9  12
ATOM     12  O   UNL     1      10.128  -2.953   1.516  1.00  0.00    -0.504 OA
ATOM     13  H   UNL     1       9.284  -3.062   0.968  1.00  0.00     0.293 HD
ENDBRANCH   9  12
BRANCH   8  14
ATOM     14  O   UNL     1       7.665  -2.852   2.894  1.00  0.00    -0.504 OA
ATOM     15  H   UNL     1       7.532  -3.751   2.449  1.00  0.00     0.293 HD
ENDBRANCH   8  14
TORSDOF 2
ENDMDL
MODEL 2
REMARK VINA RESULT:    -5.238      1.171      4.494
REMARK INTER + INTRA:          -5.544
REMARK INTER:                  -5.544
REMARK INTRA:                   0.000
REMARK UNBOUND:                 0.000
REMARK SMILES O=c1ccc2cc(O)c(O)cc2o1
REMARK SMILES IDX 4 1 3 2 2 3 1 4 13 5 12 6 11 7 9 8 7 9 6 10 5 11 8 12 10 14
REMARK H PARENT 8 13 10 15
REMARK Flexibility Score: inf
ROOT
ATOM      1  C   UNL     1      10.821  -2.121   3.305  1.00  0.00     0.019 A 
ATOM      2  C   UNL     1       9.597  -2.501   2.754  1.00  0.00     0.094 A 
ATOM      3  C   UNL     1       8.469  -2.553   3.579  1.00  0.00     0.336 A 
ATOM      4  O   UNL     1       7.355  -2.893   3.101  1.00  0.00    -0.246 OA
ATOM      5  O   UNL     1       8.565  -2.245   4.870  1.00  0.00    -0.423 OA
ATOM      6  C   UNL     1       9.712  -1.879   5.437  1.00  0.00     0.142 A 
ATOM      7  C   UNL     1       9.751  -1.567   6.798  1.00  0.00     0.098 A 
ATOM      8  C   UNL     1      10.955  -1.181   7.401  1.00  0.00     0.161 A 
ATOM      9  C   UNL     1      12.132  -1.105   6.634  1.00  0.00     0.158 A 
ATOM     10  C   UNL     1      12.097  -1.417   5.266  1.00  0.00     0.062 A 
ATOM     11  C   UNL     1      10.892  -1.804   4.665  1.00  0.00     0.022 A 
ENDROOT
BRANCH   9  12
ATOM     12  O   UNL     1      13.331  -0.720   7.233  1.00  0.00    -0.504 OA
ATOM     13  H   UNL     1      14.051  -0.233   6.714  1.00  0.00     0.293 HD
ENDBRANCH   9  12
BRANCH   8  14
ATOM     14  O   UNL     1      10.962  -0.876   8.762  1.00  0.00    -0.504 OA
ATOM     15  H   UNL     1      11.745  -1.107   9.361  1.00  0.00     0.293 HD
ENDBRANCH   8  14
TORSDOF 2
ENDMDL
MODEL 3
REMARK VINA RESULT:    -5.193      1.470      2.365
REMARK INTER + INTRA:          -5.497
REMARK INTER:                  -5.497
REMARK INTRA:                   0.000
REMARK UNBOUND:                 0.000
REMARK SMILES O=c1ccc2cc(O)c(O)cc2o1
REMARK SMILES IDX 4 1 3 2 2 3 1 4 13 5 12 6 11 7 9 8 7 9 6 10 5 11 8 12 10 14
REMARK H PARENT 8 13 10 15
REMARK Flexibility Score: inf
ROOT
ATOM      1  C   UNL     1       8.986  -3.168   7.656  1.00  0.00     0.019 A 
ATOM      2  C   UNL     1       9.465  -2.243   8.583  1.00  0.00     0.094 A 
ATOM      3  C   UNL     1      10.176  -1.129   8.125  1.00  0.00     0.336 A 
ATOM      4  O   UNL     1      10.617  -0.282   8.946  1.00  0.00    -0.246 OA
ATOM      5  O   UNL     1      10.391  -0.957   6.824  1.00  0.00    -0.423 OA
ATOM      6  C   UNL     1       9.953  -1.815   5.905  1.00  0.00     0.142 A 
ATOM      7  C   UNL     1      10.210  -1.582   4.551  1.00  0.00     0.098 A 
ATOM      8  C   UNL     1       9.751  -2.480   3.579  1.00  0.00     0.161 A 
ATOM      9  C   UNL     1       9.028  -3.624   3.965  1.00  0.00     0.158 A 
ATOM     10  C   UNL     1       8.768  -3.862   5.323  1.00  0.00     0.062 A 
ATOM     11  C   UNL     1       9.227  -2.962   6.294  1.00  0.00     0.022 A 
ENDROOT
BRANCH   9  12
ATOM     12  O   UNL     1       8.571  -4.518   2.999  1.00  0.00    -0.504 OA
ATOM     13  H   UNL     1       9.163  -4.824   2.236  1.00  0.00     0.293 HD
ENDBRANCH   9  12
BRANCH   8  14
ATOM     14  O   UNL     1      10.024  -2.220   2.236  1.00  0.00    -0.504 OA
ATOM     15  H   UNL     1       9.826  -2.893   1.507  1.00  0.00     0.293 HD
ENDBRANCH   8  14
TORSDOF 2
ENDMDL
MODEL 4
REMARK VINA RESULT:    -5.180      1.073      5.034
REMARK INTER + INTRA:          -5.483
REMARK INTER:                  -5.483
REMARK INTRA:                   0.000
REMARK UNBOUND:                 0.000
REMARK SMILES O=c1ccc2cc(O)c(O)cc2o1
REMARK SMILES IDX 4 1 3 2 2 3 1 4 13 5 12 6 11 7 9 8 7 9 6 10 5 11 8 12 10 14
REMARK H PARENT 8 13 10 15
REMARK Flexibility Score: inf
ROOT
ATOM      1  C   UNL     1       8.628  -2.231   4.605  1.00  0.00     0.019 A 
ATOM      2  C   UNL     1       8.708  -2.563   3.252  1.00  0.00     0.094 A 
ATOM      3  C   UNL     1       9.951  -2.509   2.613  1.00  0.00     0.336 A 
ATOM      4  O   UNL     1      10.045  -2.803   1.393  1.00  0.00    -0.246 OA
ATOM      5  O   UNL     1      11.039  -2.146   3.288  1.00  0.00    -0.423 OA
ATOM      6  C   UNL     1      11.007  -1.821   4.578  1.00  0.00     0.142 A 
ATOM      7  C   UNL     1      12.183  -1.448   5.235  1.00  0.00     0.098 A 
ATOM      8  C   UNL     1      12.157  -1.105   6.593  1.00  0.00     0.161 A 
ATOM      9  C   UNL     1      10.942  -1.137   7.303  1.00  0.00     0.158 A 
ATOM     10  C   UNL     1       9.759  -1.512   6.647  1.00  0.00     0.062 A 
ATOM     11  C   UNL     1       9.787  -1.854   5.288  1.00  0.00     0.022 A 
ENDROOT
BRANCH   9  12
ATOM     12  O   UNL     1      10.915  -0.797   8.654  1.00  0.00    -0.504 OA
ATOM     13  H   UNL     1      10.050  -0.564   9.126  1.00  0.00     0.293 HD
ENDBRANCH   9  12
BRANCH   8  14
ATOM     14  O   UNL     1      13.348  -0.737   7.219  1.00  0.00    -0.504 OA
ATOM     15  H   UNL     1      13.425   0.106   7.774  1.00  0.00     0.293 HD
ENDBRANCH   8  14
TORSDOF 2
ENDMDL
MODEL 5
REMARK VINA RESULT:    -5.179      2.996      4.341
REMARK INTER + INTRA:          -5.482
REMARK INTER:                  -5.482
REMARK INTRA:                   0.000
REMARK UNBOUND:                 0.000
REMARK SMILES O=c1ccc2cc(O)c(O)cc2o1
REMARK SMILES IDX 4 1 3 2 2 3 1 4 13 5 12 6 11 7 9 8 7 9 6 10 5 11 8 12 10 14
REMARK H PARENT 8 13 10 15
REMARK Flexibility Score: inf
ROOT
ATOM      1  C   UNL     1       6.933  -5.256   5.117  1.00  0.00     0.019 A 
ATOM      2  C   UNL     1       6.792  -5.903   6.344  1.00  0.00     0.094 A 
ATOM      3  C   UNL     1       7.489  -5.414   7.453  1.00  0.00     0.336 A 
ATOM      4  O   UNL     1       7.375  -5.983   8.570  1.00  0.00    -0.246 OA
ATOM      5  O   UNL     1       8.276  -4.347   7.336  1.00  0.00    -0.423 OA
ATOM      6  C   UNL     1       8.440  -3.700   6.184  1.00  0.00     0.142 A 
ATOM      7  C   UNL     1       9.280  -2.585   6.121  1.00  0.00     0.098 A 
ATOM      8  C   UNL     1       9.457  -1.900   4.913  1.00  0.00     0.161 A 
ATOM      9  C   UNL     1       8.787  -2.334   3.754  1.00  0.00     0.158 A 
ATOM     10  C   UNL     1       7.942  -3.453   3.813  1.00  0.00     0.062 A 
ATOM     11  C   UNL     1       7.767  -4.138   5.023  1.00  0.00     0.022 A 
ENDROOT
BRANCH   9  12
ATOM     12  O   UNL     1       8.962  -1.653   2.551  1.00  0.00    -0.504 OA
ATOM     13  H   UNL     1       9.884  -1.433   2.194  1.00  0.00     0.293 HD
ENDBRANCH   9  12
BRANCH   8  14
ATOM     14  O   UNL     1      10.302  -0.790   4.883  1.00  0.00    -0.504 OA
ATOM     15  H   UNL     1      10.745  -0.475   4.029  1.00  0.00     0.293 HD
ENDBRANCH   8  14
TORSDOF 2
ENDMDL
MODEL 6
REMARK VINA RESULT:    -5.165      3.119      4.699
REMARK INTER + INTRA:          -5.467
REMARK INTER:                  -5.467
REMARK INTRA:                   0.000
REMARK UNBOUND:                 0.000
REMARK SMILES O=c1ccc2cc(O)c(O)cc2o1
REMARK SMILES IDX 4 1 3 2 2 3 1 4 13 5 12 6 11 7 9 8 7 9 6 10 5 11 8 12 10 14
REMARK H PARENT 8 13 10 15
REMARK Flexibility Score: inf
ROOT
ATOM      1  C   UNL     1       7.925  -3.122   3.646  1.00  0.00     0.019 A 
ATOM      2  C   UNL     1       8.808  -2.053   3.496  1.00  0.00     0.094 A 
ATOM      3  C   UNL     1       9.614  -1.682   4.577  1.00  0.00     0.336 A 
ATOM      4  O   UNL     1      10.417  -0.719   4.462  1.00  0.00    -0.246 OA
ATOM      5  O   UNL     1       9.538  -2.341   5.730  1.00  0.00    -0.423 OA
ATOM      6  C   UNL     1       8.710  -3.366   5.917  1.00  0.00     0.142 A 
ATOM      7  C   UNL     1       8.674  -4.021   7.151  1.00  0.00     0.098 A 
ATOM      8  C   UNL     1       7.805  -5.100   7.355  1.00  0.00     0.161 A 
ATOM      9  C   UNL     1       6.963  -5.531   6.312  1.00  0.00     0.158 A 
ATOM     10  C   UNL     1       6.997  -4.877   5.071  1.00  0.00     0.062 A 
ATOM     11  C   UNL     1       7.866  -3.796   4.869  1.00  0.00     0.022 A 
ENDROOT
BRANCH   9  12
ATOM     12  O   UNL     1       6.099  -6.605   6.513  1.00  0.00    -0.504 OA
ATOM     13  H   UNL     1       5.675  -6.784   7.415  1.00  0.00     0.293 HD
ENDBRANCH   9  12
BRANCH   8  14
ATOM     14  O   UNL     1       7.793  -5.732   8.598  1.00  0.00    -0.504 OA
ATOM     15  H   UNL     1       8.472  -6.440   8.847  1.00  0.00     0.293 HD
ENDBRANCH   8  14
TORSDOF 2
ENDMDL
MODEL 7
REMARK VINA RESULT:    -5.062      3.340      5.325
REMARK INTER + INTRA:          -5.358
REMARK INTER:                  -5.358
REMARK INTRA:                   0.000
REMARK UNBOUND:                 0.000
REMARK SMILES O=c1ccc2cc(O)c(O)cc2o1
REMARK SMILES IDX 4 1 3 2 2 3 1 4 13 5 12 6 11 7 9 8 7 9 6 10 5 11 8 12 10 14
REMARK H PARENT 8 13 10 15
REMARK Flexibility Score: inf
ROOT
ATOM      1  C   UNL     1       8.109  -5.717   7.334  1.00  0.00     0.019 A 
ATOM      2  C   UNL     1       7.502  -6.832   6.758  1.00  0.00     0.094 A 
ATOM      3  C   UNL     1       7.079  -6.763   5.427  1.00  0.00     0.336 A 
ATOM      4  O   UNL     1       6.529  -7.759   4.889  1.00  0.00    -0.246 OA
ATOM      5  O   UNL     1       7.255  -5.648   4.723  1.00  0.00    -0.423 OA
ATOM      6  C   UNL     1       7.829  -4.561   5.233  1.00  0.00     0.142 A 
ATOM      7  C   UNL     1       7.986  -3.418   4.444  1.00  0.00     0.098 A 
ATOM      8  C   UNL     1       8.589  -2.270   4.974  1.00  0.00     0.161 A 
ATOM      9  C   UNL     1       9.041  -2.265   6.307  1.00  0.00     0.158 A 
ATOM     10  C   UNL     1       8.885  -3.411   7.102  1.00  0.00     0.062 A 
ATOM     11  C   UNL     1       8.281  -4.558   6.570  1.00  0.00     0.022 A 
ENDROOT
BRANCH   9  12
ATOM     12  O   UNL     1       9.642  -1.124   6.835  1.00  0.00    -0.504 OA
ATOM     13  H   UNL     1       9.917  -0.347   6.246  1.00  0.00     0.293 HD
ENDBRANCH   9  12
BRANCH   8  14
ATOM     14  O   UNL     1       8.732  -1.146   4.161  1.00  0.00    -0.504 OA
ATOM     15  H   UNL     1       9.480  -0.476   4.296  1.00  0.00     0.293 HD
ENDBRANCH   8  14
TORSDOF 2
ENDMDL
MODEL 8
REMARK VINA RESULT:    -4.940      3.453      4.217
REMARK INTER + INTRA:          -5.229
REMARK INTER:                  -5.229
REMARK INTRA:                   0.000
REMARK UNBOUND:                 0.000
REMARK SMILES O=c1ccc2cc(O)c(O)cc2o1
REMARK SMILES IDX 4 1 3 2 2 3 1 4 13 5 12 6 11 7 9 8 7 9 6 10 5 11 8 12 10 14
REMARK H PARENT 8 13 10 15
REMARK Flexibility Score: inf
ROOT
ATOM      1  C   UNL     1       9.196  -4.014   8.166  1.00  0.00     0.019 A 
ATOM      2  C   UNL     1       8.726  -5.210   8.709  1.00  0.00     0.094 A 
ATOM      3  C   UNL     1       7.896  -6.027   7.935  1.00  0.00     0.336 A 
ATOM      4  O   UNL     1       7.461  -7.110   8.406  1.00  0.00    -0.246 OA
ATOM      5  O   UNL     1       7.561  -5.666   6.698  1.00  0.00    -0.423 OA
ATOM      6  C   UNL     1       7.987  -4.534   6.142  1.00  0.00     0.142 A 
ATOM      7  C   UNL     1       7.602  -4.207   4.839  1.00  0.00     0.098 A 
ATOM      8  C   UNL     1       8.046  -3.018   4.247  1.00  0.00     0.161 A 
ATOM      9  C   UNL     1       8.884  -2.146   4.965  1.00  0.00     0.158 A 
ATOM     10  C   UNL     1       9.274  -2.470   6.274  1.00  0.00     0.062 A 
ATOM     11  C   UNL     1       8.828  -3.660   6.865  1.00  0.00     0.022 A 
ENDROOT
BRANCH   9  12
ATOM     12  O   UNL     1       9.327  -0.963   4.378  1.00  0.00    -0.504 OA
ATOM     13  H   UNL     1       8.728  -0.412   3.775  1.00  0.00     0.293 HD
ENDBRANCH   9  12
BRANCH   8  14
ATOM     14  O   UNL     1       7.644  -2.721   2.945  1.00  0.00    -0.504 OA
ATOM     15  H   UNL     1       6.692  -2.460   2.722  1.00  0.00     0.293 HD
ENDBRANCH   8  14
TORSDOF 2
ENDMDL
MODEL 9
REMARK VINA RESULT:    -4.811      1.591      2.085
REMARK INTER + INTRA:          -5.092
REMARK INTER:                  -5.092
REMARK INTRA:                   0.000
REMARK UNBOUND:                 0.000
REMARK SMILES O=c1ccc2cc(O)c(O)cc2o1
REMARK SMILES IDX 4 1 3 2 2 3 1 4 13 5 12 6 11 7 9 8 7 9 6 10 5 11 8 12 10 14
REMARK H PARENT 8 13 10 15
REMARK Flexibility Score: inf
ROOT
ATOM      1  C   UNL     1      11.618  -0.757   4.686  1.00  0.00     0.019 A 
ATOM      2  C   UNL     1      12.644  -0.725   5.630  1.00  0.00     0.094 A 
ATOM      3  C   UNL     1      12.567  -1.567   6.744  1.00  0.00     0.336 A 
ATOM      4  O   UNL     1      13.483  -1.553   7.608  1.00  0.00    -0.246 OA
ATOM      5  O   UNL     1      11.529  -2.385   6.899  1.00  0.00    -0.423 OA
ATOM      6  C   UNL     1      10.529  -2.448   6.023  1.00  0.00     0.142 A 
ATOM      7  C   UNL     1       9.464  -3.327   6.239  1.00  0.00     0.098 A 
ATOM      8  C   UNL     1       8.408  -3.398   5.322  1.00  0.00     0.161 A 
ATOM      9  C   UNL     1       8.416  -2.581   4.176  1.00  0.00     0.158 A 
ATOM     10  C   UNL     1       9.484  -1.697   3.955  1.00  0.00     0.062 A 
ATOM     11  C   UNL     1      10.539  -1.627   4.874  1.00  0.00     0.022 A 
ENDROOT
BRANCH   9  12
ATOM     12  O   UNL     1       7.366  -2.651   3.262  1.00  0.00    -0.504 OA
ATOM     13  H   UNL     1       7.462  -3.139   2.380  1.00  0.00     0.293 HD
ENDBRANCH   9  12
BRANCH   8  14
ATOM     14  O   UNL     1       7.361  -4.286   5.565  1.00  0.00    -0.504 OA
ATOM     15  H   UNL     1       6.569  -4.038   6.145  1.00  0.00     0.293 HD
ENDBRANCH   8  14
TORSDOF 2
ENDMDL
