MODEL 1
REMARK VINA RESULT:    -5.771      0.000      0.000
REMARK INTER + INTRA:          -5.771
REMARK INTER:                  -5.771
REMARK INTRA:                   0.000
REMARK UNBOUND:                 0.000
REMARK SMILES C=C1CCC[C@@]2(C)CC(=O)C(=C(C)C)C[C@@H]12
REMARK SMILES IDX 13 1 12 2 11 3 15 4 16 5 2 6 1 7 3 8 4 9 5 10 6 11 8 12 9 13
REMARK SMILES IDX 10 14 7 15 14 16
REMARK H PARENT
REMARK Flexibility Score: inf
ROOT
ATOM      1  C   UNL     1     -14.461  10.096 -26.769  1.00  0.00     0.039 C 
ATOM      2  C   UNL     1     -13.891  11.329 -27.432  1.00  0.00    -0.070 C 
ATOM      3  C   UNL     1     -14.258  11.703 -28.693  1.00  0.00    -0.006 C 
ATOM      4  C   UNL     1     -13.612  12.881 -29.404  1.00  0.00     0.047 C 
ATOM      5  C   UNL     1     -14.620  13.606 -30.332  1.00  0.00     0.025 C 
ATOM      6  C   UNL     1     -13.915  14.787 -30.991  1.00  0.00    -0.073 C 
ATOM      7  C   UNL     1     -13.876  15.979 -30.373  1.00  0.00     0.008 C 
ATOM      8  C   UNL     1     -13.174  14.621 -32.298  1.00  0.00     0.031 C 
ATOM      9  C   UNL     1     -13.407  13.245 -32.921  1.00  0.00     0.005 C 
ATOM     10  C   UNL     1     -14.889  12.880 -32.841  1.00  0.00     0.008 C 
ATOM     11  C   UNL     1     -15.361  12.651 -31.369  1.00  0.00    -0.018 C 
ATOM     12  C   UNL     1     -15.153  11.146 -31.019  1.00  0.00     0.088 C 
ATOM     13  C   UNL     1     -15.198  10.923 -29.539  1.00  0.00     0.159 C 
ATOM     14  O   UNL     1     -16.046  10.126 -29.055  1.00  0.00    -0.295 OA
ATOM     15  C   UNL     1     -16.881  12.943 -31.318  1.00  0.00     0.012 C 
ATOM     16  C   UNL     1     -12.864  12.118 -26.653  1.00  0.00     0.039 C 
ENDROOT
TORSDOF 0
ENDMDL
MODEL 2
REMARK VINA RESULT:    -5.225     10.247     12.604
REMARK INTER + INTRA:          -5.225
REMARK INTER:                  -5.225
REMARK INTRA:                   0.000
REMARK UNBOUND:                 0.000
REMARK SMILES C=C1CCC[C@@]2(C)CC(=O)C(=C(C)C)C[C@@H]12
REMARK SMILES IDX 13 1 12 2 11 3 15 4 16 5 2 6 1 7 3 8 4 9 5 10 6 11 8 12 9 13
REMARK SMILES IDX 10 14 7 15 14 16
REMARK H PARENT
REMARK Flexibility Score: inf
ROOT
ATOM      1  C   UNL     1     -23.069  10.947 -28.053  1.00  0.00     0.039 C 
ATOM      2  C   UNL     1     -24.572  10.805 -28.116  1.00  0.00    -0.070 C 
ATOM      3  C   UNL     1     -25.325  11.507 -29.013  1.00  0.00    -0.006 C 
ATOM      4  C   UNL     1     -26.844  11.448 -29.011  1.00  0.00     0.047 C 
ATOM      5  C   UNL     1     -27.418  11.578 -30.445  1.00  0.00     0.025 C 
ATOM      6  C   UNL     1     -28.939  11.485 -30.372  1.00  0.00    -0.073 C 
ATOM      7  C   UNL     1     -29.544  10.287 -30.415  1.00  0.00     0.008 C 
ATOM      8  C   UNL     1     -29.786  12.720 -30.160  1.00  0.00     0.031 C 
ATOM      9  C   UNL     1     -28.962  14.004 -30.244  1.00  0.00     0.005 C 
ATOM     10  C   UNL     1     -28.009  13.936 -31.437  1.00  0.00     0.008 C 
ATOM     11  C   UNL     1     -26.899  12.854 -31.245  1.00  0.00    -0.018 C 
ATOM     12  C   UNL     1     -25.682  13.524 -30.537  1.00  0.00     0.088 C 
ATOM     13  C   UNL     1     -24.756  12.497 -29.963  1.00  0.00     0.159 C 
ATOM     14  O   UNL     1     -23.550  12.472 -30.328  1.00  0.00    -0.295 OA
ATOM     15  C   UNL     1     -26.439  12.406 -32.654  1.00  0.00     0.012 C 
ATOM     16  C   UNL     1     -25.219   9.875 -27.115  1.00  0.00     0.039 C 
ENDROOT
TORSDOF 0
ENDMDL
MODEL 3
REMARK VINA RESULT:    -5.016      2.031      4.579
REMARK INTER + INTRA:          -5.016
REMARK INTER:                  -5.016
REMARK INTRA:                   0.000
REMARK UNBOUND:                 0.000
REMARK SMILES C=C1CCC[C@@]2(C)CC(=O)C(=C(C)C)C[C@@H]12
REMARK SMILES IDX 13 1 12 2 11 3 15 4 16 5 2 6 1 7 3 8 4 9 5 10 6 11 8 12 9 13
REMARK SMILES IDX 10 14 7 15 14 16
REMARK H PARENT
REMARK Flexibility Score: inf
ROOT
ATOM      1  C   UNL     1     -12.170  14.774 -31.944  1.00  0.00     0.039 C 
ATOM      2  C   UNL     1     -13.382  14.702 -31.043  1.00  0.00    -0.070 C 
ATOM      3  C   UNL     1     -13.926  13.509 -30.663  1.00  0.00    -0.006 C 
ATOM      4  C   UNL     1     -15.205  13.431 -29.846  1.00  0.00     0.047 C 
ATOM      5  C   UNL     1     -15.193  12.213 -28.888  1.00  0.00     0.025 C 
ATOM      6  C   UNL     1     -16.489  12.210 -28.083  1.00  0.00    -0.073 C 
ATOM      7  C   UNL     1     -16.572  12.904 -26.936  1.00  0.00     0.008 C 
ATOM      8  C   UNL     1     -17.725  11.509 -28.600  1.00  0.00     0.031 C 
ATOM      9  C   UNL     1     -17.436  10.680 -29.851  1.00  0.00     0.005 C 
ATOM     10  C   UNL     1     -16.141   9.891 -29.667  1.00  0.00     0.008 C 
ATOM     11  C   UNL     1     -14.887  10.821 -29.601  1.00  0.00    -0.018 C 
ATOM     12  C   UNL     1     -14.351  11.022 -31.052  1.00  0.00     0.088 C 
ATOM     13  C   UNL     1     -13.421  12.192 -31.129  1.00  0.00     0.159 C 
ATOM     14  O   UNL     1     -12.241  12.023 -31.539  1.00  0.00    -0.295 OA
ATOM     15  C   UNL     1     -13.797  10.075 -28.792  1.00  0.00     0.012 C 
ATOM     16  C   UNL     1     -13.994  16.013 -30.605  1.00  0.00     0.039 C 
ENDROOT
TORSDOF 0
ENDMDL
MODEL 4
REMARK VINA RESULT:    -4.946      2.076      3.916
REMARK INTER + INTRA:          -4.946
REMARK INTER:                  -4.946
REMARK INTRA:                   0.000
REMARK UNBOUND:                 0.000
REMARK SMILES C=C1CCC[C@@]2(C)CC(=O)C(=C(C)C)C[C@@H]12
REMARK SMILES IDX 13 1 12 2 11 3 15 4 16 5 2 6 1 7 3 8 4 9 5 10 6 11 8 12 9 13
REMARK SMILES IDX 10 14 7 15 14 16
REMARK H PARENT
REMARK Flexibility Score: inf
ROOT
ATOM      1  C   UNL     1     -19.282  11.728 -30.386  1.00  0.00     0.039 C 
ATOM      2  C   UNL     1     -18.052  11.268 -29.638  1.00  0.00    -0.070 C 
ATOM      3  C   UNL     1     -16.799  11.682 -29.989  1.00  0.00    -0.006 C 
ATOM      4  C   UNL     1     -15.551  11.141 -29.310  1.00  0.00     0.047 C 
ATOM      5  C   UNL     1     -14.439  12.217 -29.227  1.00  0.00     0.025 C 
ATOM      6  C   UNL     1     -13.231  11.618 -28.515  1.00  0.00    -0.073 C 
ATOM      7  C   UNL     1     -13.147  11.663 -27.175  1.00  0.00     0.008 C 
ATOM      8  C   UNL     1     -12.156  10.886 -29.286  1.00  0.00     0.031 C 
ATOM      9  C   UNL     1     -12.339  11.020 -30.797  1.00  0.00     0.005 C 
ATOM     10  C   UNL     1     -12.675  12.467 -31.156  1.00  0.00     0.008 C 
ATOM     11  C   UNL     1     -14.079  12.897 -30.623  1.00  0.00    -0.018 C 
ATOM     12  C   UNL     1     -15.139  12.566 -31.717  1.00  0.00     0.088 C 
ATOM     13  C   UNL     1     -16.524  12.570 -31.148  1.00  0.00     0.159 C 
ATOM     14  O   UNL     1     -17.393  13.346 -31.631  1.00  0.00    -0.295 OA
ATOM     15  C   UNL     1     -14.054  14.434 -30.437  1.00  0.00     0.012 C 
ATOM     16  C   UNL     1     -18.260  10.294 -28.501  1.00  0.00     0.039 C 
ENDROOT
TORSDOF 0
ENDMDL
MODEL 5
REMARK VINA RESULT:    -4.767     10.161     12.767
REMARK INTER + INTRA:          -4.767
REMARK INTER:                  -4.767
REMARK INTRA:                   0.000
REMARK UNBOUND:                 0.000
REMARK SMILES C=C1CCC[C@@]2(C)CC(=O)C(=C(C)C)C[C@@H]12
REMARK SMILES IDX 13 1 12 2 11 3 15 4 16 5 2 6 1 7 3 8 4 9 5 10 6 11 8 12 9 13
REMARK SMILES IDX 10 14 7 15 14 16
REMARK H PARENT
REMARK Flexibility Score: inf
ROOT
ATOM      1  C   UNL     1     -23.068  14.348 -30.777  1.00  0.00     0.039 C 
ATOM      2  C   UNL     1     -24.560  14.409 -30.541  1.00  0.00    -0.070 C 
ATOM      3  C   UNL     1     -25.279  13.302 -30.193  1.00  0.00    -0.006 C 
ATOM      4  C   UNL     1     -26.793  13.333 -30.058  1.00  0.00     0.047 C 
ATOM      5  C   UNL     1     -27.284  12.364 -28.952  1.00  0.00     0.025 C 
ATOM      6  C   UNL     1     -28.803  12.466 -28.853  1.00  0.00    -0.073 C 
ATOM      7  C   UNL     1     -29.366  13.393 -28.062  1.00  0.00     0.008 C 
ATOM      8  C   UNL     1     -29.699  11.594 -29.704  1.00  0.00     0.031 C 
ATOM      9  C   UNL     1     -28.912  10.524 -30.460  1.00  0.00     0.005 C 
ATOM     10  C   UNL     1     -27.888   9.875 -29.530  1.00  0.00     0.008 C 
ATOM     11  C   UNL     1     -26.758  10.869 -29.111  1.00  0.00    -0.018 C 
ATOM     12  C   UNL     1     -25.607  10.770 -30.158  1.00  0.00     0.088 C 
ATOM     13  C   UNL     1     -24.686  11.946 -30.064  1.00  0.00     0.159 C 
ATOM     14  O   UNL     1     -23.459  11.760 -29.838  1.00  0.00    -0.295 OA
ATOM     15  C   UNL     1     -26.200  10.390 -27.747  1.00  0.00     0.012 C 
ATOM     16  C   UNL     1     -25.236  15.745 -30.742  1.00  0.00     0.039 C 
ENDROOT
TORSDOF 0
ENDMDL
MODEL 6
REMARK VINA RESULT:    -4.658      2.139      4.403
REMARK INTER + INTRA:          -4.658
REMARK INTER:                  -4.658
REMARK INTRA:                   0.000
REMARK UNBOUND:                 0.000
REMARK SMILES C=C1CCC[C@@]2(C)CC(=O)C(=C(C)C)C[C@@H]12
REMARK SMILES IDX 13 1 12 2 11 3 15 4 16 5 2 6 1 7 3 8 4 9 5 10 6 11 8 12 9 13
REMARK SMILES IDX 10 14 7 15 14 16
REMARK H PARENT
REMARK Flexibility Score: inf
ROOT
ATOM      1  C   UNL     1     -10.517  11.509 -32.238  1.00  0.00     0.039 C 
ATOM      2  C   UNL     1     -11.886  12.138 -32.115  1.00  0.00    -0.070 C 
ATOM      3  C   UNL     1     -12.750  11.792 -31.116  1.00  0.00    -0.006 C 
ATOM      4  C   UNL     1     -14.166  12.341 -31.048  1.00  0.00     0.047 C 
ATOM      5  C   UNL     1     -14.637  12.517 -29.582  1.00  0.00     0.025 C 
ATOM      6  C   UNL     1     -16.049  13.094 -29.588  1.00  0.00    -0.073 C 
ATOM      7  C   UNL     1     -16.234  14.424 -29.635  1.00  0.00     0.008 C 
ATOM      8  C   UNL     1     -17.259  12.190 -29.633  1.00  0.00     0.031 C 
ATOM      9  C   UNL     1     -16.885  10.718 -29.463  1.00  0.00     0.005 C 
ATOM     10  C   UNL     1     -15.870  10.565 -28.331  1.00  0.00     0.008 C 
ATOM     11  C   UNL     1     -14.491  11.209 -28.686  1.00  0.00    -0.018 C 
ATOM     12  C   UNL     1     -13.611  10.126 -29.383  1.00  0.00     0.088 C 
ATOM     13  C   UNL     1     -12.455  10.748 -30.101  1.00  0.00     0.159 C 
ATOM     14  O   UNL     1     -11.279  10.407 -29.800  1.00  0.00    -0.295 OA
ATOM     15  C   UNL     1     -13.801  11.592 -27.352  1.00  0.00     0.012 C 
ATOM     16  C   UNL     1     -12.280  13.146 -33.170  1.00  0.00     0.039 C 
ENDROOT
TORSDOF 0
ENDMDL
MODEL 7
REMARK VINA RESULT:    -4.563     10.268     12.874
REMARK INTER + INTRA:          -4.563
REMARK INTER:                  -4.563
REMARK INTRA:                   0.000
REMARK UNBOUND:                 0.000
REMARK SMILES C=C1CCC[C@@]2(C)CC(=O)C(=C(C)C)C[C@@H]12
REMARK SMILES IDX 13 1 12 2 11 3 15 4 16 5 2 6 1 7 3 8 4 9 5 10 6 11 8 12 9 13
REMARK SMILES IDX 10 14 7 15 14 16
REMARK H PARENT
REMARK Flexibility Score: inf
ROOT
ATOM      1  C   UNL     1     -27.081  15.617 -31.454  1.00  0.00     0.039 C 
ATOM      2  C   UNL     1     -26.092  14.674 -30.808  1.00  0.00    -0.070 C 
ATOM      3  C   UNL     1     -26.483  13.487 -30.258  1.00  0.00    -0.006 C 
ATOM      4  C   UNL     1     -25.512  12.584 -29.515  1.00  0.00     0.047 C 
ATOM      5  C   UNL     1     -25.868  11.088 -29.706  1.00  0.00     0.025 C 
ATOM      6  C   UNL     1     -24.843  10.242 -28.958  1.00  0.00    -0.073 C 
ATOM      7  C   UNL     1     -23.700   9.878 -29.562  1.00  0.00     0.008 C 
ATOM      8  C   UNL     1     -25.046   9.875 -27.505  1.00  0.00     0.031 C 
ATOM      9  C   UNL     1     -26.435  10.266 -27.001  1.00  0.00     0.005 C 
ATOM     10  C   UNL     1     -27.492   9.878 -28.034  1.00  0.00     0.008 C 
ATOM     11  C   UNL     1     -27.376  10.722 -29.344  1.00  0.00    -0.018 C 
ATOM     12  C   UNL     1     -28.257  11.998 -29.182  1.00  0.00     0.088 C 
ATOM     13  C   UNL     1     -27.897  13.037 -30.198  1.00  0.00     0.159 C 
ATOM     14  O   UNL     1     -28.780  13.464 -30.991  1.00  0.00    -0.295 OA
ATOM     15  C   UNL     1     -27.974   9.877 -30.496  1.00  0.00     0.012 C 
ATOM     16  C   UNL     1     -24.647  15.115 -30.762  1.00  0.00     0.039 C 
ENDROOT
TORSDOF 0
ENDMDL
