MODEL 1
REMARK VINA RESULT:    -3.810      0.000      0.000
REMARK INTER + INTRA:          -5.711
REMARK INTER:                  -5.147
REMARK INTRA:                  -0.564
REMARK UNBOUND:                -0.564
REMARK SMILES CCCCCCCC(=O)[O-]
REMARK SMILES IDX 5 1 6 2 7 3 8 4 9 5 10 6 4 7 3 8 2 9 1 10
REMARK H PARENT
REMARK Flexibility Score: inf
ROOT
ATOM      1  C   UNL     1      13.247 -18.673 -16.428  1.00  0.00     0.000 C 
ENDROOT
BRANCH   1   2
ATOM      2  C   UNL     1      12.243 -19.710 -15.898  1.00  0.00     0.006 C 
BRANCH   2   3
ATOM      3  C   UNL     1      11.231 -19.106 -14.916  1.00  0.00     0.053 C 
BRANCH   3   4
ATOM      4  C   UNL     1      11.492 -19.602 -13.528  1.00  0.00     0.041 C 
ATOM      5  O   UNL     1      10.979 -19.014 -12.539  1.00  0.00    -0.550 OA
ATOM      6  O   UNL     1      12.260 -20.741 -13.330  1.00  0.00    -0.550 OA
ENDBRANCH   3   4
ENDBRANCH   2   3
ENDBRANCH   1   2
BRANCH   1   7
ATOM      7  C   UNL     1      14.373 -18.375 -15.423  1.00  0.00     0.000 C 
BRANCH   7   8
ATOM      8  C   UNL     1      14.545 -16.870 -15.159  1.00  0.00    -0.000 C 
BRANCH   8   9
ATOM      9  C   UNL     1      13.547 -16.333 -14.121  1.00  0.00    -0.003 C 
ATOM     10  C   UNL     1      13.857 -16.876 -12.729  1.00  0.00     0.004 C 
ENDBRANCH   8   9
ENDBRANCH   7   8
ENDBRANCH   1   7
TORSDOF 6
ENDMDL
MODEL 2
REMARK VINA RESULT:    -3.809      3.542      5.333
REMARK INTER + INTRA:          -5.709
REMARK INTER:                  -5.386
REMARK INTRA:                  -0.323
REMARK UNBOUND:                -0.564
REMARK SMILES CCCCCCCC(=O)[O-]
REMARK SMILES IDX 5 1 6 2 7 3 8 4 9 5 10 6 4 7 3 8 2 9 1 10
REMARK H PARENT
REMARK Flexibility Score: inf
ROOT
ATOM      1  C   UNL     1      12.970 -21.548 -14.624  1.00  0.00     0.000 C 
ENDROOT
BRANCH   1   2
ATOM      2  C   UNL     1      11.750 -20.985 -15.370  1.00  0.00     0.006 C 
BRANCH   2   3
ATOM      3  C   UNL     1      11.500 -19.502 -15.063  1.00  0.00     0.053 C 
BRANCH   3   4
ATOM      4  C   UNL     1      12.759 -18.714 -15.245  1.00  0.00     0.041 C 
ATOM      5  O   UNL     1      13.256 -18.569 -16.394  1.00  0.00    -0.550 OA
ATOM      6  O   UNL     1      13.358 -18.098 -14.154  1.00  0.00    -0.550 OA
ENDBRANCH   3   4
ENDBRANCH   2   3
ENDBRANCH   1   2
BRANCH   1   7
ATOM      7  C   UNL     1      12.624 -22.787 -13.778  1.00  0.00     0.000 C 
BRANCH   7   8
ATOM      8  C   UNL     1      11.282 -23.420 -14.181  1.00  0.00    -0.000 C 
BRANCH   8   9
ATOM      9  C   UNL     1      11.319 -24.955 -14.150  1.00  0.00    -0.003 C 
ATOM     10  C   UNL     1      12.753 -25.470 -14.067  1.00  0.00     0.004 C 
ENDBRANCH   8   9
ENDBRANCH   7   8
ENDBRANCH   1   7
TORSDOF 6
ENDMDL
MODEL 3
REMARK VINA RESULT:    -3.804      1.690      2.768
REMARK INTER + INTRA:          -5.703
REMARK INTER:                  -5.125
REMARK INTRA:                  -0.578
REMARK UNBOUND:                -0.564
REMARK SMILES CCCCCCCC(=O)[O-]
REMARK SMILES IDX 5 1 6 2 7 3 8 4 9 5 10 6 4 7 3 8 2 9 1 10
REMARK H PARENT
REMARK Flexibility Score: inf
ROOT
ATOM      1  C   UNL     1      11.605 -17.781 -12.926  1.00  0.00     0.000 C 
ENDROOT
BRANCH   1   2
ATOM      2  C   UNL     1      11.599 -19.202 -13.514  1.00  0.00     0.006 C 
BRANCH   2   3
ATOM      3  C   UNL     1      11.217 -19.226 -15.000  1.00  0.00     0.053 C 
BRANCH   3   4
ATOM      4  C   UNL     1      12.393 -19.630 -15.833  1.00  0.00     0.041 C 
ATOM      5  O   UNL     1      12.330 -19.568 -17.090  1.00  0.00    -0.550 OA
ATOM      6  O   UNL     1      13.574 -20.030 -15.222  1.00  0.00    -0.550 OA
ENDBRANCH   3   4
ENDBRANCH   2   3
ENDBRANCH   1   2
BRANCH   1   7
ATOM      7  C   UNL     1      13.016 -17.170 -12.875  1.00  0.00     0.000 C 
BRANCH   7   8
ATOM      8  C   UNL     1      13.261 -16.157 -14.006  1.00  0.00    -0.000 C 
BRANCH   8   9
ATOM      9  C   UNL     1      14.416 -16.570 -14.931  1.00  0.00    -0.003 C 
ATOM     10  C   UNL     1      15.569 -17.173 -14.134  1.00  0.00     0.004 C 
ENDBRANCH   8   9
ENDBRANCH   7   8
ENDBRANCH   1   7
TORSDOF 6
ENDMDL
MODEL 4
REMARK VINA RESULT:    -3.795      1.902      3.549
REMARK INTER + INTRA:          -5.690
REMARK INTER:                  -5.104
REMARK INTRA:                  -0.586
REMARK UNBOUND:                -0.564
REMARK SMILES CCCCCCCC(=O)[O-]
REMARK SMILES IDX 5 1 6 2 7 3 8 4 9 5 10 6 4 7 3 8 2 9 1 10
REMARK H PARENT
REMARK Flexibility Score: inf
ROOT
ATOM      1  C   UNL     1      13.009 -18.735 -16.427  1.00  0.00     0.000 C 
ENDROOT
BRANCH   1   2
ATOM      2  C   UNL     1      14.319 -18.546 -15.645  1.00  0.00     0.006 C 
BRANCH   2   3
ATOM      3  C   UNL     1      14.600 -17.076 -15.306  1.00  0.00     0.053 C 
BRANCH   3   4
ATOM      4  C   UNL     1      14.054 -16.740 -13.954  1.00  0.00     0.041 C 
ATOM      5  O   UNL     1      14.593 -17.215 -12.918  1.00  0.00    -0.550 OA
ATOM      6  O   UNL     1      12.982 -15.866 -13.833  1.00  0.00    -0.550 OA
ENDBRANCH   3   4
ENDBRANCH   2   3
ENDBRANCH   1   2
BRANCH   1   7
ATOM      7  C   UNL     1      12.039 -19.703 -15.727  1.00  0.00     0.000 C 
BRANCH   7   8
ATOM      8  C   UNL     1      11.207 -19.016 -14.633  1.00  0.00    -0.000 C 
BRANCH   8   9
ATOM      9  C   UNL     1      11.561 -19.508 -13.221  1.00  0.00    -0.003 C 
ATOM     10  C   UNL     1      11.121 -18.501 -12.162  1.00  0.00     0.004 C 
ENDBRANCH   8   9
ENDBRANCH   7   8
ENDBRANCH   1   7
TORSDOF 6
ENDMDL
MODEL 5
REMARK VINA RESULT:    -3.777      4.003      5.060
REMARK INTER + INTRA:          -5.667
REMARK INTER:                  -5.441
REMARK INTRA:                  -0.226
REMARK UNBOUND:                -0.564
REMARK SMILES CCCCCCCC(=O)[O-]
REMARK SMILES IDX 5 1 6 2 7 3 8 4 9 5 10 6 4 7 3 8 2 9 1 10
REMARK H PARENT
REMARK Flexibility Score: inf
ROOT
ATOM      1  C   UNL     1      11.401 -22.502 -14.862  1.00  0.00     0.000 C 
ENDROOT
BRANCH   1   2
ATOM      2  C   UNL     1      11.310 -23.550 -13.740  1.00  0.00     0.006 C 
BRANCH   2   3
ATOM      3  C   UNL     1      11.244 -24.986 -14.275  1.00  0.00     0.053 C 
BRANCH   3   4
ATOM      4  C   UNL     1      12.547 -25.687 -14.048  1.00  0.00     0.041 C 
ATOM      5  O   UNL     1      13.511 -25.076 -13.515  1.00  0.00    -0.550 OA
ATOM      6  O   UNL     1      12.682 -27.028 -14.381  1.00  0.00    -0.550 OA
ENDBRANCH   3   4
ENDBRANCH   2   3
ENDBRANCH   1   2
BRANCH   1   7
ATOM      7  C   UNL     1      12.002 -21.171 -14.378  1.00  0.00     0.000 C 
BRANCH   7   8
ATOM      8  C   UNL     1      11.417 -19.957 -15.118  1.00  0.00    -0.000 C 
BRANCH   8   9
ATOM      9  C   UNL     1      11.255 -18.730 -14.208  1.00  0.00    -0.003 C 
ATOM     10  C   UNL     1      11.221 -19.136 -12.738  1.00  0.00     0.004 C 
ENDBRANCH   8   9
ENDBRANCH   7   8
ENDBRANCH   1   7
TORSDOF 6
ENDMDL
MODEL 6
REMARK VINA RESULT:    -3.735      2.492      4.428
REMARK INTER + INTRA:          -5.609
REMARK INTER:                  -5.127
REMARK INTRA:                  -0.482
REMARK UNBOUND:                -0.564
REMARK SMILES CCCCCCCC(=O)[O-]
REMARK SMILES IDX 5 1 6 2 7 3 8 4 9 5 10 6 4 7 3 8 2 9 1 10
REMARK H PARENT
REMARK Flexibility Score: inf
ROOT
ATOM      1  C   UNL     1      12.697 -18.654 -13.134  1.00  0.00     0.000 C 
ENDROOT
BRANCH   1   2
ATOM      2  C   UNL     1      13.220 -17.247 -12.804  1.00  0.00     0.006 C 
BRANCH   2   3
ATOM      3  C   UNL     1      13.500 -16.410 -14.059  1.00  0.00     0.053 C 
BRANCH   3   4
ATOM      4  C   UNL     1      14.697 -16.940 -14.783  1.00  0.00     0.041 C 
ATOM      5  O   UNL     1      15.854 -16.744 -14.323  1.00  0.00    -0.550 OA
ATOM      6  O   UNL     1      14.535 -17.691 -15.940  1.00  0.00    -0.550 OA
ENDBRANCH   3   4
ENDBRANCH   2   3
ENDBRANCH   1   2
BRANCH   1   7
ATOM      7  C   UNL     1      11.322 -18.626 -13.826  1.00  0.00     0.000 C 
BRANCH   7   8
ATOM      8  C   UNL     1      11.353 -19.263 -15.224  1.00  0.00    -0.000 C 
BRANCH   8   9
ATOM      9  C   UNL     1      12.280 -20.486 -15.298  1.00  0.00    -0.003 C 
ATOM     10  C   UNL     1      11.511 -21.776 -15.029  1.00  0.00     0.004 C 
ENDBRANCH   8   9
ENDBRANCH   7   8
ENDBRANCH   1   7
TORSDOF 6
ENDMDL
MODEL 7
REMARK VINA RESULT:    -3.725      3.073      4.859
REMARK INTER + INTRA:          -5.596
REMARK INTER:                  -5.412
REMARK INTRA:                  -0.184
REMARK UNBOUND:                -0.564
REMARK SMILES CCCCCCCC(=O)[O-]
REMARK SMILES IDX 5 1 6 2 7 3 8 4 9 5 10 6 4 7 3 8 2 9 1 10
REMARK H PARENT
REMARK Flexibility Score: inf
ROOT
ATOM      1  C   UNL     1      11.335 -19.628 -14.917  1.00  0.00     0.000 C 
ENDROOT
BRANCH   1   2
ATOM      2  C   UNL     1      12.510 -18.823 -14.337  1.00  0.00     0.006 C 
BRANCH   2   3
ATOM      3  C   UNL     1      13.322 -18.098 -15.418  1.00  0.00     0.053 C 
BRANCH   3   4
ATOM      4  C   UNL     1      13.943 -16.856 -14.858  1.00  0.00     0.041 C 
ATOM      5  O   UNL     1      13.288 -16.119 -14.074  1.00  0.00    -0.550 OA
ATOM      6  O   UNL     1      15.259 -16.538 -15.163  1.00  0.00    -0.550 OA
ENDBRANCH   3   4
ENDBRANCH   2   3
ENDBRANCH   1   2
BRANCH   1   7
ATOM      7  C   UNL     1      11.679 -21.114 -15.116  1.00  0.00     0.000 C 
BRANCH   7   8
ATOM      8  C   UNL     1      12.048 -21.816 -13.799  1.00  0.00    -0.000 C 
BRANCH   8   9
ATOM      9  C   UNL     1      12.471 -23.278 -14.004  1.00  0.00    -0.003 C 
ATOM     10  C   UNL     1      11.258 -24.203 -14.030  1.00  0.00     0.004 C 
ENDBRANCH   8   9
ENDBRANCH   7   8
ENDBRANCH   1   7
TORSDOF 6
ENDMDL
MODEL 8
REMARK VINA RESULT:    -3.721      3.996      5.818
REMARK INTER + INTRA:          -5.590
REMARK INTER:                  -5.275
REMARK INTRA:                  -0.314
REMARK UNBOUND:                -0.564
REMARK SMILES CCCCCCCC(=O)[O-]
REMARK SMILES IDX 5 1 6 2 7 3 8 4 9 5 10 6 4 7 3 8 2 9 1 10
REMARK H PARENT
REMARK Flexibility Score: inf
ROOT
ATOM      1  C   UNL     1      12.902 -22.763 -13.979  1.00  0.00     0.000 C 
ENDROOT
BRANCH   1   2
ATOM      2  C   UNL     1      13.083 -21.458 -14.771  1.00  0.00     0.006 C 
BRANCH   2   3
ATOM      3  C   UNL     1      11.760 -20.712 -14.994  1.00  0.00     0.053 C 
BRANCH   3   4
ATOM      4  C   UNL     1      11.742 -19.440 -14.206  1.00  0.00     0.041 C 
ATOM      5  O   UNL     1      11.222 -19.412 -13.059  1.00  0.00    -0.550 OA
ATOM      6  O   UNL     1      12.341 -18.296 -14.718  1.00  0.00    -0.550 OA
ENDBRANCH   3   4
ENDBRANCH   2   3
ENDBRANCH   1   2
BRANCH   1   7
ATOM      7  C   UNL     1      11.453 -23.279 -14.013  1.00  0.00     0.000 C 
BRANCH   7   8
ATOM      8  C   UNL     1      11.373 -24.810 -14.111  1.00  0.00    -0.000 C 
BRANCH   8   9
ATOM      9  C   UNL     1      12.749 -25.484 -13.992  1.00  0.00    -0.003 C 
ATOM     10  C   UNL     1      12.686 -26.943 -14.434  1.00  0.00     0.004 C 
ENDBRANCH   8   9
ENDBRANCH   7   8
ENDBRANCH   1   7
TORSDOF 6
ENDMDL
MODEL 9
REMARK VINA RESULT:    -3.706      2.917      4.725
REMARK INTER + INTRA:          -5.570
REMARK INTER:                  -5.320
REMARK INTRA:                  -0.250
REMARK UNBOUND:                -0.564
REMARK SMILES CCCCCCCC(=O)[O-]
REMARK SMILES IDX 5 1 6 2 7 3 8 4 9 5 10 6 4 7 3 8 2 9 1 10
REMARK H PARENT
REMARK Flexibility Score: inf
ROOT
ATOM      1  C   UNL     1      12.248 -20.529 -15.319  1.00  0.00     0.000 C 
ENDROOT
BRANCH   1   2
ATOM      2  C   UNL     1      11.379 -19.263 -15.251  1.00  0.00     0.006 C 
BRANCH   2   3
ATOM      3  C   UNL     1      11.144 -18.782 -13.813  1.00  0.00     0.053 C 
BRANCH   3   4
ATOM      4  C   UNL     1      12.404 -18.207 -13.245  1.00  0.00     0.041 C 
ATOM      5  O   UNL     1      12.889 -17.148 -13.722  1.00  0.00    -0.550 OA
ATOM      6  O   UNL     1      13.016 -18.815 -12.156  1.00  0.00    -0.550 OA
ENDBRANCH   3   4
ENDBRANCH   2   3
ENDBRANCH   1   2
BRANCH   1   7
ATOM      7  C   UNL     1      11.423 -21.820 -15.171  1.00  0.00     0.000 C 
BRANCH   7   8
ATOM      8  C   UNL     1      11.848 -22.654 -13.952  1.00  0.00    -0.000 C 
BRANCH   8   9
ATOM      9  C   UNL     1      11.445 -24.132 -14.076  1.00  0.00    -0.003 C 
ATOM     10  C   UNL     1      12.667 -25.042 -14.006  1.00  0.00     0.004 C 
ENDBRANCH   8   9
ENDBRANCH   7   8
ENDBRANCH   1   7
TORSDOF 6
ENDMDL
