MODEL 1
REMARK VINA RESULT:    -7.528      0.000      0.000
REMARK INTER + INTRA:          -9.265
REMARK INTER:                  -9.068
REMARK INTRA:                  -0.198
REMARK UNBOUND:                -0.198
REMARK SMILES O=c1c(O)c(-c2ccc(O)c(O)c2)oc2cc(O)cc(O)c12
REMARK SMILES IDX 5 1 3 2 2 3 1 4 22 5 20 6 19 7 17 8 16 9 15 10 14 11 6 12
REMARK SMILES IDX 7 13 8 14 9 15 13 16 11 17 10 18 12 20 4 22 21 24 18 26
REMARK H PARENT 10 19 12 21 4 23 21 25 18 27
REMARK Flexibility Score: inf
ROOT
ATOM      1  C   UNL     1      63.650  43.078 -37.510  1.00  0.00     0.180 A 
ATOM      2  C   UNL     1      64.598  43.599 -38.408  1.00  0.00     0.208 A 
ATOM      3  C   UNL     1      65.962  43.519 -38.082  1.00  0.00     0.238 A 
ATOM      4  O   UNL     1      66.808  43.937 -38.914  1.00  0.00    -0.285 OA
ATOM      5  C   UNL     1      66.359  42.931 -36.857  1.00  0.00     0.111 A 
ATOM      6  C   UNL     1      67.710  42.832 -36.407  1.00  0.00     0.134 A 
ATOM      7  C   UNL     1      67.997  42.115 -35.239  1.00  0.00     0.093 A 
ATOM      8  C   UNL     1      66.976  41.549 -34.471  1.00  0.00     0.123 A 
ATOM      9  C   UNL     1      65.650  41.693 -34.871  1.00  0.00     0.094 A 
ATOM     10  C   UNL     1      65.335  42.370 -36.050  1.00  0.00     0.146 A 
ATOM     11  O   UNL     1      64.058  42.475 -36.401  1.00  0.00    -0.452 OA
ENDROOT
BRANCH   1  12
ATOM     12  C   UNL     1      62.195  43.149 -37.772  1.00  0.00     0.025 A 
ATOM     13  C   UNL     1      61.459  41.962 -37.913  1.00  0.00     0.016 A 
ATOM     14  C   UNL     1      60.081  42.006 -38.139  1.00  0.00     0.051 A 
ATOM     15  C   UNL     1      59.415  43.233 -38.214  1.00  0.00     0.157 A 
ATOM     16  C   UNL     1      61.520  44.382 -37.827  1.00  0.00     0.062 A 
ATOM     17  C   UNL     1      60.137  44.428 -38.053  1.00  0.00     0.158 A 
BRANCH  15  18
ATOM     18  O   UNL     1      58.040  43.245 -38.444  1.00  0.00    -0.504 OA
ATOM     19  H   UNL     1      57.647  43.069 -39.360  1.00  0.00     0.293 HD
ENDBRANCH  15  18
BRANCH  17  20
ATOM     20  O   UNL     1      59.476  45.654 -38.112  1.00  0.00    -0.504 OA
ATOM     21  H   UNL     1      58.464  45.713 -38.121  1.00  0.00     0.293 HD
ENDBRANCH  17  20
ENDBRANCH   1  12
BRANCH   2  22
ATOM     22  O   UNL     1      64.185  44.156 -39.622  1.00  0.00    -0.502 OA
ATOM     23  H   UNL     1      64.498  45.065 -39.938  1.00  0.00     0.293 HD
ENDBRANCH   2  22
BRANCH   6  24
ATOM     24  O   UNL     1      68.793  43.438 -37.050  1.00  0.00    -0.507 OA
ATOM     25  H   UNL     1      69.194  44.325 -36.788  1.00  0.00     0.293 HD
ENDBRANCH   6  24
BRANCH   8  26
ATOM     26  O   UNL     1      67.271  40.851 -33.302  1.00  0.00    -0.508 OA
ATOM     27  H   UNL     1      66.554  40.354 -32.786  1.00  0.00     0.293 HD
ENDBRANCH   8  26
TORSDOF 6
ENDMDL
MODEL 2
REMARK VINA RESULT:    -7.271     11.097     12.195
REMARK INTER + INTRA:          -8.956
REMARK INTER:                  -9.162
REMARK INTRA:                   0.205
REMARK UNBOUND:                -0.198
REMARK SMILES O=c1c(O)c(-c2ccc(O)c(O)c2)oc2cc(O)cc(O)c12
REMARK SMILES IDX 5 1 3 2 2 3 1 4 22 5 20 6 19 7 17 8 16 9 15 10 14 11 6 12
REMARK SMILES IDX 7 13 8 14 9 15 13 16 11 17 10 18 12 20 4 22 21 24 18 26
REMARK H PARENT 10 19 12 21 4 23 21 25 18 27
REMARK Flexibility Score: inf
ROOT
ATOM      1  C   UNL     1      68.875  35.312 -43.655  1.00  0.00     0.180 A 
ATOM      2  C   UNL     1      69.193  35.272 -42.286  1.00  0.00     0.208 A 
ATOM      3  C   UNL     1      69.789  34.115 -41.759  1.00  0.00     0.238 A 
ATOM      4  O   UNL     1      70.121  34.105 -40.545  1.00  0.00    -0.285 OA
ATOM      5  C   UNL     1      70.047  33.008 -42.603  1.00  0.00     0.111 A 
ATOM      6  C   UNL     1      70.611  31.771 -42.168  1.00  0.00     0.134 A 
ATOM      7  C   UNL     1      70.942  30.793 -43.114  1.00  0.00     0.093 A 
ATOM      8  C   UNL     1      70.669  30.982 -44.471  1.00  0.00     0.123 A 
ATOM      9  C   UNL     1      70.064  32.161 -44.897  1.00  0.00     0.094 A 
ATOM     10  C   UNL     1      69.756  33.170 -43.983  1.00  0.00     0.146 A 
ATOM     11  O   UNL     1      69.189  34.284 -44.433  1.00  0.00    -0.452 OA
ENDROOT
BRANCH   1  12
ATOM     12  C   UNL     1      68.222  36.486 -44.277  1.00  0.00     0.025 A 
ATOM     13  C   UNL     1      68.486  36.791 -45.622  1.00  0.00     0.016 A 
ATOM     14  C   UNL     1      67.864  37.882 -46.235  1.00  0.00     0.051 A 
ATOM     15  C   UNL     1      66.960  38.674 -45.521  1.00  0.00     0.157 A 
ATOM     16  C   UNL     1      67.297  37.272 -43.567  1.00  0.00     0.062 A 
ATOM     17  C   UNL     1      66.670  38.366 -44.181  1.00  0.00     0.158 A 
BRANCH  15  18
ATOM     18  O   UNL     1      66.357  39.757 -46.159  1.00  0.00    -0.504 OA
ATOM     19  H   UNL     1      66.743  40.693 -46.111  1.00  0.00     0.293 HD
ENDBRANCH  15  18
BRANCH  17  20
ATOM     20  O   UNL     1      65.759  39.143 -43.468  1.00  0.00    -0.504 OA
ATOM     21  H   UNL     1      65.373  38.832 -42.584  1.00  0.00     0.293 HD
ENDBRANCH  17  20
ENDBRANCH   1  12
BRANCH   2  22
ATOM     22  O   UNL     1      68.950  36.384 -41.474  1.00  0.00    -0.502 OA
ATOM     23  H   UNL     1      69.418  37.271 -41.613  1.00  0.00     0.293 HD
ENDBRANCH   2  22
BRANCH   6  24
ATOM     24  O   UNL     1      70.838  31.446 -40.828  1.00  0.00    -0.507 OA
ATOM     25  H   UNL     1      71.492  31.919 -40.225  1.00  0.00     0.293 HD
ENDBRANCH   6  24
BRANCH   8  26
ATOM     26  O   UNL     1      70.987  29.996 -45.404  1.00  0.00    -0.508 OA
ATOM     27  H   UNL     1      71.799  30.078 -46.005  1.00  0.00     0.293 HD
ENDBRANCH   8  26
TORSDOF 6
ENDMDL
MODEL 3
REMARK VINA RESULT:    -7.255      2.920      5.394
REMARK INTER + INTRA:          -8.937
REMARK INTER:                  -8.677
REMARK INTRA:                  -0.260
REMARK UNBOUND:                -0.198
REMARK SMILES O=c1c(O)c(-c2ccc(O)c(O)c2)oc2cc(O)cc(O)c12
REMARK SMILES IDX 5 1 3 2 2 3 1 4 22 5 20 6 19 7 17 8 16 9 15 10 14 11 6 12
REMARK SMILES IDX 7 13 8 14 9 15 13 16 11 17 10 18 12 20 4 22 21 24 18 26
REMARK H PARENT 10 19 12 21 4 23 21 25 18 27
REMARK Flexibility Score: inf
ROOT
ATOM      1  C   UNL     1      59.835  41.595 -38.533  1.00  0.00     0.180 A 
ATOM      2  C   UNL     1      59.388  42.911 -38.325  1.00  0.00     0.208 A 
ATOM      3  C   UNL     1      60.327  43.907 -38.010  1.00  0.00     0.238 A 
ATOM      4  O   UNL     1      59.929  45.093 -37.879  1.00  0.00    -0.285 OA
ATOM      5  C   UNL     1      61.698  43.571 -37.894  1.00  0.00     0.111 A 
ATOM      6  C   UNL     1      62.730  44.492 -37.542  1.00  0.00     0.134 A 
ATOM      7  C   UNL     1      64.067  44.078 -37.584  1.00  0.00     0.093 A 
ATOM      8  C   UNL     1      64.404  42.761 -37.903  1.00  0.00     0.123 A 
ATOM      9  C   UNL     1      63.399  41.840 -38.190  1.00  0.00     0.094 A 
ATOM     10  C   UNL     1      62.059  42.232 -38.192  1.00  0.00     0.146 A 
ATOM     11  O   UNL     1      61.133  41.325 -38.482  1.00  0.00    -0.452 OA
ENDROOT
BRANCH   1  12
ATOM     12  C   UNL     1      58.903  40.487 -38.843  1.00  0.00     0.025 A 
ATOM     13  C   UNL     1      58.913  39.911 -40.123  1.00  0.00     0.016 A 
ATOM     14  C   UNL     1      58.057  38.851 -40.430  1.00  0.00     0.051 A 
ATOM     15  C   UNL     1      57.189  38.339 -39.461  1.00  0.00     0.157 A 
ATOM     16  C   UNL     1      58.044  39.957 -37.863  1.00  0.00     0.062 A 
ATOM     17  C   UNL     1      57.185  38.891 -38.168  1.00  0.00     0.158 A 
BRANCH  15  18
ATOM     18  O   UNL     1      56.344  37.283 -39.797  1.00  0.00    -0.504 OA
ATOM     19  H   UNL     1      56.701  36.366 -40.041  1.00  0.00     0.293 HD
ENDBRANCH  15  18
BRANCH  17  20
ATOM     20  O   UNL     1      56.332  38.377 -37.193  1.00  0.00    -0.504 OA
ATOM     21  H   UNL     1      56.470  37.452 -36.801  1.00  0.00     0.293 HD
ENDBRANCH  17  20
ENDBRANCH   1  12
BRANCH   2  22
ATOM     22  O   UNL     1      58.033  43.225 -38.465  1.00  0.00    -0.502 OA
ATOM     23  H   UNL     1      57.670  43.715 -39.273  1.00  0.00     0.293 HD
ENDBRANCH   2  22
BRANCH   6  24
ATOM     24  O   UNL     1      62.495  45.803 -37.120  1.00  0.00    -0.507 OA
ATOM     25  H   UNL     1      62.218  46.561 -37.725  1.00  0.00     0.293 HD
ENDBRANCH   6  24
BRANCH   8  26
ATOM     26  O   UNL     1      65.737  42.354 -37.927  1.00  0.00    -0.508 OA
ATOM     27  H   UNL     1      66.123  41.848 -38.716  1.00  0.00     0.293 HD
ENDBRANCH   8  26
TORSDOF 6
ENDMDL
MODEL 4
REMARK VINA RESULT:    -7.245     13.901     15.093
REMARK INTER + INTRA:          -8.925
REMARK INTER:                  -8.989
REMARK INTRA:                   0.064
REMARK UNBOUND:                -0.198
REMARK SMILES O=c1c(O)c(-c2ccc(O)c(O)c2)oc2cc(O)cc(O)c12
REMARK SMILES IDX 5 1 3 2 2 3 1 4 22 5 20 6 19 7 17 8 16 9 15 10 14 11 6 12
REMARK SMILES IDX 7 13 8 14 9 15 13 16 11 17 10 18 12 20 4 22 21 24 18 26
REMARK H PARENT 10 19 12 21 4 23 21 25 18 27
REMARK Flexibility Score: inf
ROOT
ATOM      1  C   UNL     1      69.322  32.217 -45.630  1.00  0.00     0.180 A 
ATOM      2  C   UNL     1      69.956  31.352 -44.722  1.00  0.00     0.208 A 
ATOM      3  C   UNL     1      70.251  31.818 -43.430  1.00  0.00     0.238 A 
ATOM      4  O   UNL     1      70.769  31.022 -42.603  1.00  0.00    -0.285 OA
ATOM      5  C   UNL     1      69.922  33.147 -43.069  1.00  0.00     0.111 A 
ATOM      6  C   UNL     1      70.210  33.736 -41.801  1.00  0.00     0.134 A 
ATOM      7  C   UNL     1      69.723  35.016 -41.509  1.00  0.00     0.093 A 
ATOM      8  C   UNL     1      69.014  35.752 -42.462  1.00  0.00     0.123 A 
ATOM      9  C   UNL     1      68.780  35.208 -43.722  1.00  0.00     0.094 A 
ATOM     10  C   UNL     1      69.221  33.920 -44.031  1.00  0.00     0.146 A 
ATOM     11  O   UNL     1      68.968  33.434 -45.240  1.00  0.00    -0.452 OA
ENDROOT
BRANCH   1  12
ATOM     12  C   UNL     1      69.003  31.806 -47.016  1.00  0.00     0.025 A 
ATOM     13  C   UNL     1      67.772  32.177 -47.581  1.00  0.00     0.016 A 
ATOM     14  C   UNL     1      67.459  31.819 -48.895  1.00  0.00     0.051 A 
ATOM     15  C   UNL     1      68.374  31.097 -49.668  1.00  0.00     0.157 A 
ATOM     16  C   UNL     1      69.930  31.098 -47.803  1.00  0.00     0.062 A 
ATOM     17  C   UNL     1      69.618  30.738 -49.122  1.00  0.00     0.158 A 
BRANCH  15  18
ATOM     18  O   UNL     1      68.032  30.751 -50.974  1.00  0.00    -0.504 OA
ATOM     19  H   UNL     1      67.073  30.763 -51.301  1.00  0.00     0.293 HD
ENDBRANCH  15  18
BRANCH  17  20
ATOM     20  O   UNL     1      70.540  30.032 -49.892  1.00  0.00    -0.504 OA
ATOM     21  H   UNL     1      70.377  29.069 -50.164  1.00  0.00     0.293 HD
ENDBRANCH  17  20
ENDBRANCH   1  12
BRANCH   2  22
ATOM     22  O   UNL     1      70.252  30.036 -45.092  1.00  0.00    -0.502 OA
ATOM     23  H   UNL     1      71.194  29.731 -45.307  1.00  0.00     0.293 HD
ENDBRANCH   2  22
BRANCH   6  24
ATOM     24  O   UNL     1      70.988  33.124 -40.814  1.00  0.00    -0.507 OA
ATOM     25  H   UNL     1      71.511  33.616 -40.107  1.00  0.00     0.293 HD
ENDBRANCH   6  24
BRANCH   8  26
ATOM     26  O   UNL     1      68.547  37.031 -42.167  1.00  0.00    -0.508 OA
ATOM     27  H   UNL     1      67.639  37.351 -42.486  1.00  0.00     0.293 HD
ENDBRANCH   8  26
TORSDOF 6
ENDMDL
MODEL 5
REMARK VINA RESULT:    -7.227      2.122      7.401
REMARK INTER + INTRA:          -8.904
REMARK INTER:                  -8.601
REMARK INTRA:                  -0.302
REMARK UNBOUND:                -0.198
REMARK SMILES O=c1c(O)c(-c2ccc(O)c(O)c2)oc2cc(O)cc(O)c12
REMARK SMILES IDX 5 1 3 2 2 3 1 4 22 5 20 6 19 7 17 8 16 9 15 10 14 11 6 12
REMARK SMILES IDX 7 13 8 14 9 15 13 16 11 17 10 18 12 20 4 22 21 24 18 26
REMARK H PARENT 10 19 12 21 4 23 21 25 18 27
REMARK Flexibility Score: inf
ROOT
ATOM      1  C   UNL     1      62.752  41.844 -36.429  1.00  0.00     0.180 A 
ATOM      2  C   UNL     1      62.328  40.538 -36.127  1.00  0.00     0.208 A 
ATOM      3  C   UNL     1      61.025  40.147 -36.480  1.00  0.00     0.238 A 
ATOM      4  O   UNL     1      60.669  38.961 -36.257  1.00  0.00    -0.285 OA
ATOM      5  C   UNL     1      60.160  41.071 -37.115  1.00  0.00     0.111 A 
ATOM      6  C   UNL     1      58.809  40.794 -37.481  1.00  0.00     0.134 A 
ATOM      7  C   UNL     1      58.088  41.739 -38.221  1.00  0.00     0.093 A 
ATOM      8  C   UNL     1      58.648  42.975 -38.552  1.00  0.00     0.123 A 
ATOM      9  C   UNL     1      59.946  43.277 -38.148  1.00  0.00     0.094 A 
ATOM     10  C   UNL     1      60.703  42.341 -37.440  1.00  0.00     0.146 A 
ATOM     11  O   UNL     1      61.940  42.665 -37.083  1.00  0.00    -0.452 OA
ENDROOT
BRANCH   1  12
ATOM     12  C   UNL     1      64.100  42.336 -36.065  1.00  0.00     0.025 A 
ATOM     13  C   UNL     1      64.347  42.769 -34.753  1.00  0.00     0.016 A 
ATOM     14  C   UNL     1      65.618  43.218 -34.383  1.00  0.00     0.051 A 
ATOM     15  C   UNL     1      66.663  43.227 -35.311  1.00  0.00     0.157 A 
ATOM     16  C   UNL     1      65.158  42.326 -36.992  1.00  0.00     0.062 A 
ATOM     17  C   UNL     1      66.434  42.775 -36.622  1.00  0.00     0.158 A 
BRANCH  15  18
ATOM     18  O   UNL     1      67.919  43.682 -34.914  1.00  0.00    -0.504 OA
ATOM     19  H   UNL     1      68.629  43.954 -35.583  1.00  0.00     0.293 HD
ENDBRANCH  15  18
BRANCH  17  20
ATOM     20  O   UNL     1      67.476  42.768 -37.549  1.00  0.00    -0.504 OA
ATOM     21  H   UNL     1      68.446  42.784 -37.257  1.00  0.00     0.293 HD
ENDBRANCH  17  20
ENDBRANCH   1  12
BRANCH   2  22
ATOM     22  O   UNL     1      63.205  39.636 -35.519  1.00  0.00    -0.502 OA
ATOM     23  H   UNL     1      63.677  38.904 -36.036  1.00  0.00     0.293 HD
ENDBRANCH   2  22
BRANCH   6  24
ATOM     24  O   UNL     1      58.125  39.630 -37.120  1.00  0.00    -0.507 OA
ATOM     25  H   UNL     1      57.179  39.603 -36.773  1.00  0.00     0.293 HD
ENDBRANCH   6  24
BRANCH   8  26
ATOM     26  O   UNL     1      57.917  43.916 -39.276  1.00  0.00    -0.508 OA
ATOM     27  H   UNL     1      58.085  44.910 -39.175  1.00  0.00     0.293 HD
ENDBRANCH   8  26
TORSDOF 6
ENDMDL
MODEL 6
REMARK VINA RESULT:    -7.196      1.275      2.853
REMARK INTER + INTRA:          -8.866
REMARK INTER:                  -8.584
REMARK INTRA:                  -0.282
REMARK UNBOUND:                -0.198
REMARK SMILES O=c1c(O)c(-c2ccc(O)c(O)c2)oc2cc(O)cc(O)c12
REMARK SMILES IDX 5 1 3 2 2 3 1 4 22 5 20 6 19 7 17 8 16 9 15 10 14 11 6 12
REMARK SMILES IDX 7 13 8 14 9 15 13 16 11 17 10 18 12 20 4 22 21 24 18 26
REMARK H PARENT 10 19 12 21 4 23 21 25 18 27
REMARK Flexibility Score: inf
ROOT
ATOM      1  C   UNL     1      63.490  42.662 -37.105  1.00  0.00     0.180 A 
ATOM      2  C   UNL     1      63.843  42.347 -35.782  1.00  0.00     0.208 A 
ATOM      3  C   UNL     1      65.200  42.179 -35.460  1.00  0.00     0.238 A 
ATOM      4  O   UNL     1      65.514  41.952 -34.263  1.00  0.00    -0.285 OA
ATOM      5  C   UNL     1      66.185  42.314 -36.469  1.00  0.00     0.111 A 
ATOM      6  C   UNL     1      67.584  42.128 -36.264  1.00  0.00     0.134 A 
ATOM      7  C   UNL     1      68.478  42.415 -37.304  1.00  0.00     0.093 A 
ATOM      8  C   UNL     1      68.017  42.819 -38.559  1.00  0.00     0.123 A 
ATOM      9  C   UNL     1      66.649  42.946 -38.785  1.00  0.00     0.094 A 
ATOM     10  C   UNL     1      65.735  42.703 -37.758  1.00  0.00     0.146 A 
ATOM     11  O   UNL     1      64.440  42.846 -38.013  1.00  0.00    -0.452 OA
ENDROOT
BRANCH   1  12
ATOM     12  C   UNL     1      62.080  42.828 -37.525  1.00  0.00     0.025 A 
ATOM     13  C   UNL     1      61.277  41.692 -37.715  1.00  0.00     0.016 A 
ATOM     14  C   UNL     1      59.938  41.826 -38.090  1.00  0.00     0.051 A 
ATOM     15  C   UNL     1      59.376  43.094 -38.267  1.00  0.00     0.157 A 
ATOM     16  C   UNL     1      61.507  44.103 -37.684  1.00  0.00     0.062 A 
ATOM     17  C   UNL     1      60.163  44.239 -38.059  1.00  0.00     0.158 A 
BRANCH  15  18
ATOM     18  O   UNL     1      58.038  43.196 -38.644  1.00  0.00    -0.504 OA
ATOM     19  H   UNL     1      57.560  44.088 -38.696  1.00  0.00     0.293 HD
ENDBRANCH  15  18
BRANCH  17  20
ATOM     20  O   UNL     1      59.606  45.507 -38.220  1.00  0.00    -0.504 OA
ATOM     21  H   UNL     1      59.982  46.172 -38.886  1.00  0.00     0.293 HD
ENDBRANCH  17  20
ENDBRANCH   1  12
BRANCH   2  22
ATOM     22  O   UNL     1      62.857  42.239 -34.797  1.00  0.00    -0.502 OA
ATOM     23  H   UNL     1      61.970  42.724 -34.860  1.00  0.00     0.293 HD
ENDBRANCH   2  22
BRANCH   6  24
ATOM     24  O   UNL     1      68.142  41.640 -35.079  1.00  0.00    -0.507 OA
ATOM     25  H   UNL     1      68.364  40.672 -34.904  1.00  0.00     0.293 HD
ENDBRANCH   6  24
BRANCH   8  26
ATOM     26  O   UNL     1      68.913  43.087 -39.592  1.00  0.00    -0.508 OA
ATOM     27  H   UNL     1      68.717  43.791 -40.294  1.00  0.00     0.293 HD
ENDBRANCH   8  26
TORSDOF 6
ENDMDL
MODEL 7
REMARK VINA RESULT:    -7.195      3.019      7.215
REMARK INTER + INTRA:          -8.864
REMARK INTER:                  -8.574
REMARK INTRA:                  -0.291
REMARK UNBOUND:                -0.198
REMARK SMILES O=c1c(O)c(-c2ccc(O)c(O)c2)oc2cc(O)cc(O)c12
REMARK SMILES IDX 5 1 3 2 2 3 1 4 22 5 20 6 19 7 17 8 16 9 15 10 14 11 6 12
REMARK SMILES IDX 7 13 8 14 9 15 13 16 11 17 10 18 12 20 4 22 21 24 18 26
REMARK H PARENT 10 19 12 21 4 23 21 25 18 27
REMARK Flexibility Score: inf
ROOT
ATOM      1  C   UNL     1      61.513  42.106 -37.857  1.00  0.00     0.180 A 
ATOM      2  C   UNL     1      61.554  41.340 -36.679  1.00  0.00     0.208 A 
ATOM      3  C   UNL     1      60.675  40.253 -36.544  1.00  0.00     0.238 A 
ATOM      4  O   UNL     1      60.753  39.537 -35.512  1.00  0.00    -0.285 OA
ATOM      5  C   UNL     1      59.757  39.956 -37.580  1.00  0.00     0.111 A 
ATOM      6  C   UNL     1      58.794  38.903 -37.532  1.00  0.00     0.134 A 
ATOM      7  C   UNL     1      58.025  38.619 -38.668  1.00  0.00     0.093 A 
ATOM      8  C   UNL     1      58.139  39.392 -39.826  1.00  0.00     0.123 A 
ATOM      9  C   UNL     1      59.033  40.458 -39.861  1.00  0.00     0.094 A 
ATOM     10  C   UNL     1      59.840  40.743 -38.758  1.00  0.00     0.146 A 
ATOM     11  O   UNL     1      60.687  41.763 -38.836  1.00  0.00    -0.452 OA
ENDROOT
BRANCH   1  12
ATOM     12  C   UNL     1      62.390  43.282 -38.061  1.00  0.00     0.025 A 
ATOM     13  C   UNL     1      61.889  44.569 -37.813  1.00  0.00     0.016 A 
ATOM     14  C   UNL     1      62.706  45.691 -37.979  1.00  0.00     0.051 A 
ATOM     15  C   UNL     1      64.037  45.543 -38.379  1.00  0.00     0.157 A 
ATOM     16  C   UNL     1      63.736  43.134 -38.444  1.00  0.00     0.062 A 
ATOM     17  C   UNL     1      64.557  44.258 -38.609  1.00  0.00     0.158 A 
BRANCH  15  18
ATOM     18  O   UNL     1      64.827  46.681 -38.539  1.00  0.00    -0.504 OA
ATOM     19  H   UNL     1      64.572  47.574 -38.134  1.00  0.00     0.293 HD
ENDBRANCH  15  18
BRANCH  17  20
ATOM     20  O   UNL     1      65.888  44.103 -38.995  1.00  0.00    -0.504 OA
ATOM     21  H   UNL     1      66.614  43.882 -38.323  1.00  0.00     0.293 HD
ENDBRANCH  17  20
ENDBRANCH   1  12
BRANCH   2  22
ATOM     22  O   UNL     1      62.483  41.637 -35.678  1.00  0.00    -0.502 OA
ATOM     23  H   UNL     1      63.481  41.648 -35.848  1.00  0.00     0.293 HD
ENDBRANCH   2  22
BRANCH   6  24
ATOM     24  O   UNL     1      58.537  38.132 -36.395  1.00  0.00    -0.507 OA
ATOM     25  H   UNL     1      57.617  37.876 -36.071  1.00  0.00     0.293 HD
ENDBRANCH   6  24
BRANCH   8  26
ATOM     26  O   UNL     1      57.358  39.112 -40.946  1.00  0.00    -0.508 OA
ATOM     27  H   UNL     1      56.376  38.876 -40.862  1.00  0.00     0.293 HD
ENDBRANCH   8  26
TORSDOF 6
ENDMDL
MODEL 8
REMARK VINA RESULT:    -7.161     10.641     12.621
REMARK INTER + INTRA:          -8.824
REMARK INTER:                  -9.210
REMARK INTRA:                   0.386
REMARK UNBOUND:                -0.198
REMARK SMILES O=c1c(O)c(-c2ccc(O)c(O)c2)oc2cc(O)cc(O)c12
REMARK SMILES IDX 5 1 3 2 2 3 1 4 22 5 20 6 19 7 17 8 16 9 15 10 14 11 6 12
REMARK SMILES IDX 7 13 8 14 9 15 13 16 11 17 10 18 12 20 4 22 21 24 18 26
REMARK H PARENT 10 19 12 21 4 23 21 25 18 27
REMARK Flexibility Score: inf
ROOT
ATOM      1  C   UNL     1      68.941  34.973 -43.217  1.00  0.00     0.180 A 
ATOM      2  C   UNL     1      69.124  35.535 -41.941  1.00  0.00     0.208 A 
ATOM      3  C   UNL     1      68.758  36.874 -41.728  1.00  0.00     0.238 A 
ATOM      4  O   UNL     1      68.872  37.356 -40.571  1.00  0.00    -0.285 OA
ATOM      5  C   UNL     1      68.229  37.638 -42.796  1.00  0.00     0.111 A 
ATOM      6  C   UNL     1      67.862  39.014 -42.704  1.00  0.00     0.134 A 
ATOM      7  C   UNL     1      67.227  39.633 -43.788  1.00  0.00     0.093 A 
ATOM      8  C   UNL     1      67.006  38.944 -44.983  1.00  0.00     0.123 A 
ATOM      9  C   UNL     1      67.415  37.618 -45.102  1.00  0.00     0.094 A 
ATOM     10  C   UNL     1      68.017  36.963 -44.027  1.00  0.00     0.146 A 
ATOM     11  O   UNL     1      68.383  35.695 -44.179  1.00  0.00    -0.452 OA
ENDROOT
BRANCH   1  12
ATOM     12  C   UNL     1      69.327  33.577 -43.524  1.00  0.00     0.025 A 
ATOM     13  C   UNL     1      69.357  32.626 -42.492  1.00  0.00     0.016 A 
ATOM     14  C   UNL     1      69.697  31.298 -42.764  1.00  0.00     0.051 A 
ATOM     15  C   UNL     1      69.997  30.896 -44.069  1.00  0.00     0.157 A 
ATOM     16  C   UNL     1      69.608  33.167 -44.840  1.00  0.00     0.062 A 
ATOM     17  C   UNL     1      69.948  31.835 -45.115  1.00  0.00     0.158 A 
BRANCH  15  18
ATOM     18  O   UNL     1      70.335  29.566 -44.309  1.00  0.00    -0.504 OA
ATOM     19  H   UNL     1      70.361  29.177 -45.244  1.00  0.00     0.293 HD
ENDBRANCH  15  18
BRANCH  17  20
ATOM     20  O   UNL     1      70.232  31.438 -46.420  1.00  0.00    -0.504 OA
ATOM     21  H   UNL     1      69.509  31.389 -47.130  1.00  0.00     0.293 HD
ENDBRANCH  17  20
ENDBRANCH   1  12
BRANCH   2  22
ATOM     22  O   UNL     1      69.628  34.756 -40.895  1.00  0.00    -0.502 OA
ATOM     23  H   UNL     1      70.620  34.647 -40.728  1.00  0.00     0.293 HD
ENDBRANCH   2  22
BRANCH   6  24
ATOM     24  O   UNL     1      68.121  39.818 -41.590  1.00  0.00    -0.507 OA
ATOM     25  H   UNL     1      68.198  39.480 -40.643  1.00  0.00     0.293 HD
ENDBRANCH   6  24
BRANCH   8  26
ATOM     26  O   UNL     1      66.389  39.574 -46.062  1.00  0.00    -0.508 OA
ATOM     27  H   UNL     1      66.229  40.575 -46.072  1.00  0.00     0.293 HD
ENDBRANCH   8  26
TORSDOF 6
ENDMDL
MODEL 9
REMARK VINA RESULT:    -6.984      2.194      6.761
REMARK INTER + INTRA:          -8.611
REMARK INTER:                  -8.281
REMARK INTRA:                  -0.330
REMARK UNBOUND:                -0.198
REMARK SMILES O=c1c(O)c(-c2ccc(O)c(O)c2)oc2cc(O)cc(O)c12
REMARK SMILES IDX 5 1 3 2 2 3 1 4 22 5 20 6 19 7 17 8 16 9 15 10 14 11 6 12
REMARK SMILES IDX 7 13 8 14 9 15 13 16 11 17 10 18 12 20 4 22 21 24 18 26
REMARK H PARENT 10 19 12 21 4 23 21 25 18 27
REMARK Flexibility Score: inf
ROOT
ATOM      1  C   UNL     1      65.174  42.361 -36.634  1.00  0.00     0.180 A 
ATOM      2  C   UNL     1      64.651  42.859 -37.840  1.00  0.00     0.208 A 
ATOM      3  C   UNL     1      63.353  42.487 -38.225  1.00  0.00     0.238 A 
ATOM      4  O   UNL     1      62.869  42.980 -39.277  1.00  0.00    -0.285 OA
ATOM      5  C   UNL     1      62.600  41.611 -37.406  1.00  0.00     0.111 A 
ATOM      6  C   UNL     1      61.290  41.137 -37.718  1.00  0.00     0.134 A 
ATOM      7  C   UNL     1      60.588  40.378 -36.773  1.00  0.00     0.093 A 
ATOM      8  C   UNL     1      61.174  40.022 -35.556  1.00  0.00     0.123 A 
ATOM      9  C   UNL     1      62.474  40.430 -35.269  1.00  0.00     0.094 A 
ATOM     10  C   UNL     1      63.186  41.219 -36.175  1.00  0.00     0.146 A 
ATOM     11  O   UNL     1      64.419  41.595 -35.857  1.00  0.00    -0.452 OA
ENDROOT
BRANCH   1  12
ATOM     12  C   UNL     1      66.543  42.688 -36.175  1.00  0.00     0.025 A 
ATOM     13  C   UNL     1      66.745  43.794 -35.334  1.00  0.00     0.016 A 
ATOM     14  C   UNL     1      68.026  44.108 -34.872  1.00  0.00     0.051 A 
ATOM     15  C   UNL     1      69.120  43.316 -35.229  1.00  0.00     0.157 A 
ATOM     16  C   UNL     1      67.643  41.880 -36.516  1.00  0.00     0.062 A 
ATOM     17  C   UNL     1      68.928  42.192 -36.052  1.00  0.00     0.158 A 
BRANCH  15  18
ATOM     18  O   UNL     1      70.386  43.655 -34.755  1.00  0.00    -0.504 OA
ATOM     19  H   UNL     1      70.518  44.316 -33.998  1.00  0.00     0.293 HD
ENDBRANCH  15  18
BRANCH  17  20
ATOM     20  O   UNL     1      70.014  41.390 -36.400  1.00  0.00    -0.504 OA
ATOM     21  H   UNL     1      69.953  40.378 -36.382  1.00  0.00     0.293 HD
ENDBRANCH  17  20
ENDBRANCH   1  12
BRANCH   2  22
ATOM     22  O   UNL     1      65.404  43.741 -38.622  1.00  0.00    -0.502 OA
ATOM     23  H   UNL     1      64.991  44.306 -39.354  1.00  0.00     0.293 HD
ENDBRANCH   2  22
BRANCH   6  24
ATOM     24  O   UNL     1      60.650  41.359 -38.941  1.00  0.00    -0.507 OA
ATOM     25  H   UNL     1      61.098  41.300 -39.842  1.00  0.00     0.293 HD
ENDBRANCH   6  24
BRANCH   8  26
ATOM     26  O   UNL     1      60.474  39.252 -34.629  1.00  0.00    -0.508 OA
ATOM     27  H   UNL     1      60.938  38.827 -33.834  1.00  0.00     0.293 HD
ENDBRANCH   8  26
TORSDOF 6
ENDMDL
