MODEL 1
REMARK VINA RESULT:    -2.051      0.000      0.000
REMARK INTER + INTRA:          -2.762
REMARK INTER:                  -2.471
REMARK INTRA:                  -0.292
REMARK UNBOUND:                -0.292
REMARK SMILES O=c1c(O)c(-c2ccc(O)c(O)c2)oc2cc(O)cc(O)c12
REMARK SMILES IDX 5 1 3 2 2 3 1 4 22 5 20 6 19 7 17 8 16 9 15 10 14 11 6 12
REMARK SMILES IDX 7 13 8 14 9 15 13 16 11 17 10 18 12 20 4 22 21 24 18 26
REMARK H PARENT 10 19 12 21 4 23 21 25 18 27
REMARK Flexibility Score: inf
ROOT
ATOM      1  C   UNL     1     -21.776 -15.620 -14.097  1.00  0.00     0.180 A 
ATOM      2  C   UNL     1     -22.471 -14.943 -15.113  1.00  0.00     0.208 A 
ATOM      3  C   UNL     1     -23.789 -15.328 -15.410  1.00  0.00     0.238 A 
ATOM      4  O   UNL     1     -24.425 -14.682 -16.283  1.00  0.00    -0.285 OA
ATOM      5  C   UNL     1     -24.387 -16.396 -14.700  1.00  0.00     0.111 A 
ATOM      6  C   UNL     1     -25.701 -16.897 -14.945  1.00  0.00     0.134 A 
ATOM      7  C   UNL     1     -26.238 -17.871 -14.095  1.00  0.00     0.093 A 
ATOM      8  C   UNL     1     -25.488 -18.408 -13.050  1.00  0.00     0.123 A 
ATOM      9  C   UNL     1     -24.181 -17.968 -12.837  1.00  0.00     0.094 A 
ATOM     10  C   UNL     1     -23.630 -16.972 -13.646  1.00  0.00     0.146 A 
ATOM     11  O   UNL     1     -22.387 -16.574 -13.404  1.00  0.00    -0.452 OA
ENDROOT
BRANCH   1  12
ATOM     12  C   UNL     1     -20.377 -15.287 -13.742  1.00  0.00     0.025 A 
ATOM     13  C   UNL     1     -20.072 -14.186 -12.923  1.00  0.00     0.016 A 
ATOM     14  C   UNL     1     -18.744 -13.875 -12.621  1.00  0.00     0.051 A 
ATOM     15  C   UNL     1     -17.701 -14.650 -13.145  1.00  0.00     0.157 A 
ATOM     16  C   UNL     1     -19.326 -16.047 -14.281  1.00  0.00     0.062 A 
ATOM     17  C   UNL     1     -17.992 -15.737 -13.978  1.00  0.00     0.158 A 
BRANCH  15  18
ATOM     18  O   UNL     1     -16.375 -14.345 -12.845  1.00  0.00    -0.504 OA
ATOM     19  H   UNL     1     -16.119 -13.889 -11.977  1.00  0.00     0.293 HD
ENDBRANCH  15  18
BRANCH  17  20
ATOM     20  O   UNL     1     -16.953 -16.503 -14.504  1.00  0.00    -0.504 OA
ATOM     21  H   UNL     1     -16.345 -17.052 -13.908  1.00  0.00     0.293 HD
ENDBRANCH  17  20
ENDBRANCH   1  12
BRANCH   2  22
ATOM     22  O   UNL     1     -21.869 -13.876 -15.787  1.00  0.00    -0.502 OA
ATOM     23  H   UNL     1     -22.316 -13.400 -16.560  1.00  0.00     0.293 HD
ENDBRANCH   2  22
BRANCH   6  24
ATOM     24  O   UNL     1     -26.501 -16.495 -16.019  1.00  0.00    -0.507 OA
ATOM     25  H   UNL     1     -26.485 -15.577 -16.435  1.00  0.00     0.293 HD
ENDBRANCH   6  24
BRANCH   8  26
ATOM     26  O   UNL     1     -26.050 -19.387 -12.232  1.00  0.00    -0.508 OA
ATOM     27  H   UNL     1     -26.087 -20.358 -12.517  1.00  0.00     0.293 HD
ENDBRANCH   8  26
TORSDOF 6
ENDMDL
