MODEL 1
REMARK VINA RESULT:    -5.804      0.000      0.000
REMARK INTER + INTRA:          -6.232
REMARK INTER:                  -6.143
REMARK INTRA:                  -0.089
REMARK UNBOUND:                -0.089
REMARK SMILES C=C(C)[C@@H]1CC=C(C)C(=O)C1
REMARK SMILES IDX 8 1 7 2 6 3 5 4 4 5 11 6 9 7 10 8 2 9 1 10 3 11
REMARK H PARENT
REMARK Flexibility Score: inf
ROOT
ATOM      1  C   UNL     1      85.893  36.002  26.810  1.00  0.00     0.048 C 
ATOM      2  C   UNL     1      86.925  37.096  26.763  1.00  0.00    -0.012 C 
ATOM      3  C   UNL     1      87.403  37.513  25.579  1.00  0.00    -0.019 C 
ATOM      4  C   UNL     1      88.423  38.617  25.473  1.00  0.00     0.036 C 
ATOM      5  C   UNL     1      89.371  38.613  26.688  1.00  0.00     0.025 C 
ATOM      6  C   UNL     1      88.562  38.688  27.997  1.00  0.00     0.089 C 
ATOM      7  C   UNL     1      87.502  37.622  28.025  1.00  0.00     0.158 C 
ATOM      8  O   UNL     1      87.079  37.206  29.137  1.00  0.00    -0.295 OA
ENDROOT
BRANCH   5   9
ATOM      9  C   UNL     1      90.393  39.737  26.601  1.00  0.00    -0.077 C 
ATOM     10  C   UNL     1      91.663  39.524  26.984  1.00  0.00     0.008 C 
ATOM     11  C   UNL     1      90.016  41.105  26.089  1.00  0.00     0.039 C 
ENDBRANCH   5   9
TORSDOF 1
ENDMDL
MODEL 2
REMARK VINA RESULT:    -5.674      1.614      2.201
REMARK INTER + INTRA:          -6.095
REMARK INTER:                  -5.998
REMARK INTRA:                  -0.097
REMARK UNBOUND:                -0.089
REMARK SMILES C=C(C)[C@@H]1CC=C(C)C(=O)C1
REMARK SMILES IDX 8 1 7 2 6 3 5 4 4 5 11 6 9 7 10 8 2 9 1 10 3 11
REMARK H PARENT
REMARK Flexibility Score: inf
ROOT
ATOM      1  C   UNL     1      85.313  36.508  26.440  1.00  0.00     0.048 C 
ATOM      2  C   UNL     1      86.662  37.173  26.463  1.00  0.00    -0.012 C 
ATOM      3  C   UNL     1      87.195  37.561  27.634  1.00  0.00    -0.019 C 
ATOM      4  C   UNL     1      88.550  38.216  27.717  1.00  0.00     0.036 C 
ATOM      5  C   UNL     1      88.832  39.065  26.463  1.00  0.00     0.025 C 
ATOM      6  C   UNL     1      88.673  38.211  25.192  1.00  0.00     0.089 C 
ATOM      7  C   UNL     1      87.342  37.510  25.188  1.00  0.00     0.158 C 
ATOM      8  O   UNL     1      86.825  37.178  24.087  1.00  0.00    -0.295 OA
ENDROOT
BRANCH   5   9
ATOM      9  C   UNL     1      90.207  39.714  26.528  1.00  0.00    -0.077 C 
ATOM     10  C   UNL     1      91.267  39.007  26.952  1.00  0.00     0.008 C 
ATOM     11  C   UNL     1      90.416  41.154  26.126  1.00  0.00     0.039 C 
ENDBRANCH   5   9
TORSDOF 1
ENDMDL
MODEL 3
REMARK VINA RESULT:    -4.702      2.415      4.599
REMARK INTER + INTRA:          -5.066
REMARK INTER:                  -4.968
REMARK INTRA:                  -0.098
REMARK UNBOUND:                -0.089
REMARK SMILES C=C(C)[C@@H]1CC=C(C)C(=O)C1
REMARK SMILES IDX 8 1 7 2 6 3 5 4 4 5 11 6 9 7 10 8 2 9 1 10 3 11
REMARK H PARENT
REMARK Flexibility Score: inf
ROOT
ATOM      1  C   UNL     1      88.213  38.642  28.366  1.00  0.00     0.048 C 
ATOM      2  C   UNL     1      87.836  38.037  27.042  1.00  0.00    -0.012 C 
ATOM      3  C   UNL     1      86.875  37.099  26.985  1.00  0.00    -0.019 C 
ATOM      4  C   UNL     1      86.445  36.474  25.683  1.00  0.00     0.036 C 
ATOM      5  C   UNL     1      87.627  36.375  24.700  1.00  0.00     0.025 C 
ATOM      6  C   UNL     1      88.272  37.758  24.498  1.00  0.00     0.089 C 
ATOM      7  C   UNL     1      88.609  38.384  25.824  1.00  0.00     0.158 C 
ATOM      8  O   UNL     1      89.535  39.237  25.882  1.00  0.00    -0.295 OA
ENDROOT
BRANCH   5   9
ATOM      9  C   UNL     1      87.199  35.761  23.375  1.00  0.00    -0.077 C 
ATOM     10  C   UNL     1      85.953  35.955  22.914  1.00  0.00     0.008 C 
ATOM     11  C   UNL     1      88.149  34.926  22.552  1.00  0.00     0.039 C 
ENDBRANCH   5   9
TORSDOF 1
ENDMDL
MODEL 4
REMARK VINA RESULT:    -4.671      2.242      4.404
REMARK INTER + INTRA:          -5.033
REMARK INTER:                  -4.943
REMARK INTRA:                  -0.090
REMARK UNBOUND:                -0.089
REMARK SMILES C=C(C)[C@@H]1CC=C(C)C(=O)C1
REMARK SMILES IDX 8 1 7 2 6 3 5 4 4 5 11 6 9 7 10 8 2 9 1 10 3 11
REMARK H PARENT
REMARK Flexibility Score: inf
ROOT
ATOM      1  C   UNL     1      88.543  37.999  24.981  1.00  0.00     0.048 C 
ATOM      2  C   UNL     1      87.929  37.875  26.348  1.00  0.00    -0.012 C 
ATOM      3  C   UNL     1      86.769  37.212  26.502  1.00  0.00    -0.019 C 
ATOM      4  C   UNL     1      86.120  37.042  27.851  1.00  0.00     0.036 C 
ATOM      5  C   UNL     1      86.397  38.257  28.757  1.00  0.00     0.025 C 
ATOM      6  C   UNL     1      87.913  38.507  28.866  1.00  0.00     0.089 C 
ATOM      7  C   UNL     1      88.536  38.588  27.500  1.00  0.00     0.158 C 
ATOM      8  O   UNL     1      89.604  39.239  27.349  1.00  0.00    -0.295 OA
ENDROOT
BRANCH   5   9
ATOM      9  C   UNL     1      85.761  38.086  30.129  1.00  0.00    -0.077 C 
ATOM     10  C   UNL     1      85.333  39.160  30.812  1.00  0.00     0.008 C 
ATOM     11  C   UNL     1      85.596  36.723  30.754  1.00  0.00     0.039 C 
ENDBRANCH   5   9
TORSDOF 1
ENDMDL
MODEL 5
REMARK VINA RESULT:    -4.412      2.100      2.966
REMARK INTER + INTRA:          -4.759
REMARK INTER:                  -4.661
REMARK INTRA:                  -0.098
REMARK UNBOUND:                -0.089
REMARK SMILES C=C(C)[C@@H]1CC=C(C)C(=O)C1
REMARK SMILES IDX 8 1 7 2 6 3 5 4 4 5 11 6 9 7 10 8 2 9 1 10 3 11
REMARK H PARENT
REMARK Flexibility Score: inf
ROOT
ATOM      1  C   UNL     1      86.764  35.116  22.966  1.00  0.00     0.048 C 
ATOM      2  C   UNL     1      87.131  36.165  23.979  1.00  0.00    -0.012 C 
ATOM      3  C   UNL     1      88.234  36.912  23.797  1.00  0.00    -0.019 C 
ATOM      4  C   UNL     1      88.638  37.989  24.770  1.00  0.00     0.036 C 
ATOM      5  C   UNL     1      88.232  37.617  26.209  1.00  0.00     0.025 C 
ATOM      6  C   UNL     1      86.725  37.306  26.275  1.00  0.00     0.089 C 
ATOM      7  C   UNL     1      86.348  36.289  25.234  1.00  0.00     0.158 C 
ATOM      8  O   UNL     1      85.334  35.564  25.421  1.00  0.00    -0.295 OA
ENDROOT
BRANCH   5   9
ATOM      9  C   UNL     1      88.619  38.708  27.197  1.00  0.00    -0.077 C 
ATOM     10  C   UNL     1      89.432  39.706  26.814  1.00  0.00     0.008 C 
ATOM     11  C   UNL     1      88.109  38.699  28.617  1.00  0.00     0.039 C 
ENDBRANCH   5   9
TORSDOF 1
ENDMDL
MODEL 6
REMARK VINA RESULT:    -4.412      1.748      2.931
REMARK INTER + INTRA:          -4.759
REMARK INTER:                  -4.661
REMARK INTRA:                  -0.098
REMARK UNBOUND:                -0.089
REMARK SMILES C=C(C)[C@@H]1CC=C(C)C(=O)C1
REMARK SMILES IDX 8 1 7 2 6 3 5 4 4 5 11 6 9 7 10 8 2 9 1 10 3 11
REMARK H PARENT
REMARK Flexibility Score: inf
ROOT
ATOM      1  C   UNL     1      85.076  37.773  30.514  1.00  0.00     0.048 C 
ATOM      2  C   UNL     1      86.109  37.797  29.422  1.00  0.00    -0.012 C 
ATOM      3  C   UNL     1      87.191  38.585  29.544  1.00  0.00    -0.019 C 
ATOM      4  C   UNL     1      88.266  38.635  28.489  1.00  0.00     0.036 C 
ATOM      5  C   UNL     1      87.674  38.411  27.084  1.00  0.00     0.025 C 
ATOM      6  C   UNL     1      86.876  37.095  27.044  1.00  0.00     0.089 C 
ATOM      7  C   UNL     1      85.871  37.050  28.162  1.00  0.00     0.158 C 
ATOM      8  O   UNL     1      84.839  36.339  28.032  1.00  0.00    -0.295 OA
ENDROOT
BRANCH   5   9
ATOM      9  C   UNL     1      88.754  38.440  26.013  1.00  0.00    -0.077 C 
ATOM     10  C   UNL     1      89.946  39.002  26.273  1.00  0.00     0.008 C 
ATOM     11  C   UNL     1      88.521  37.848  24.645  1.00  0.00     0.039 C 
ENDBRANCH   5   9
TORSDOF 1
ENDMDL
MODEL 7
REMARK VINA RESULT:    -4.386      1.234      4.509
REMARK INTER + INTRA:          -4.732
REMARK INTER:                  -4.643
REMARK INTRA:                  -0.088
REMARK UNBOUND:                -0.089
REMARK SMILES C=C(C)[C@@H]1CC=C(C)C(=O)C1
REMARK SMILES IDX 8 1 7 2 6 3 5 4 4 5 11 6 9 7 10 8 2 9 1 10 3 11
REMARK H PARENT
REMARK Flexibility Score: inf
ROOT
ATOM      1  C   UNL     1      90.079  39.839  26.596  1.00  0.00     0.048 C 
ATOM      2  C   UNL     1      89.009  38.803  26.388  1.00  0.00    -0.012 C 
ATOM      3  C   UNL     1      88.699  38.402  25.143  1.00  0.00    -0.019 C 
ATOM      4  C   UNL     1      87.650  37.354  24.879  1.00  0.00     0.036 C 
ATOM      5  C   UNL     1      86.526  37.418  25.932  1.00  0.00     0.025 C 
ATOM      6  C   UNL     1      87.116  37.310  27.350  1.00  0.00     0.089 C 
ATOM      7  C   UNL     1      88.215  38.318  27.544  1.00  0.00     0.158 C 
ATOM      8  O   UNL     1      88.481  38.719  28.709  1.00  0.00    -0.295 OA
ENDROOT
BRANCH   5   9
ATOM      9  C   UNL     1      85.471  36.350  25.685  1.00  0.00    -0.077 C 
ATOM     10  C   UNL     1      84.167  36.668  25.731  1.00  0.00     0.008 C 
ATOM     11  C   UNL     1      85.853  34.921  25.388  1.00  0.00     0.039 C 
ENDBRANCH   5   9
TORSDOF 1
ENDMDL
MODEL 8
REMARK VINA RESULT:    -4.380      2.107      4.538
REMARK INTER + INTRA:          -4.725
REMARK INTER:                  -4.629
REMARK INTRA:                  -0.096
REMARK UNBOUND:                -0.089
REMARK SMILES C=C(C)[C@@H]1CC=C(C)C(=O)C1
REMARK SMILES IDX 8 1 7 2 6 3 5 4 4 5 11 6 9 7 10 8 2 9 1 10 3 11
REMARK H PARENT
REMARK Flexibility Score: inf
ROOT
ATOM      1  C   UNL     1      89.122  38.973  27.436  1.00  0.00     0.048 C 
ATOM      2  C   UNL     1      88.325  38.198  26.423  1.00  0.00    -0.012 C 
ATOM      3  C   UNL     1      88.660  38.256  25.122  1.00  0.00    -0.019 C 
ATOM      4  C   UNL     1      87.908  37.485  24.069  1.00  0.00     0.036 C 
ATOM      5  C   UNL     1      86.419  37.351  24.438  1.00  0.00     0.025 C 
ATOM      6  C   UNL     1      86.270  36.725  25.837  1.00  0.00     0.089 C 
ATOM      7  C   UNL     1      87.101  37.473  26.843  1.00  0.00     0.158 C 
ATOM      8  O   UNL     1      86.765  37.447  28.058  1.00  0.00    -0.295 OA
ENDROOT
BRANCH   5   9
ATOM      9  C   UNL     1      85.654  36.557  23.389  1.00  0.00    -0.077 C 
ATOM     10  C   UNL     1      85.956  35.267  23.168  1.00  0.00     0.008 C 
ATOM     11  C   UNL     1      84.551  37.188  22.576  1.00  0.00     0.039 C 
ENDBRANCH   5   9
TORSDOF 1
ENDMDL
MODEL 9
REMARK VINA RESULT:    -4.348      1.804      4.915
REMARK INTER + INTRA:          -4.692
REMARK INTER:                  -4.595
REMARK INTRA:                  -0.097
REMARK UNBOUND:                -0.089
REMARK SMILES C=C(C)[C@@H]1CC=C(C)C(=O)C1
REMARK SMILES IDX 8 1 7 2 6 3 5 4 4 5 11 6 9 7 10 8 2 9 1 10 3 11
REMARK H PARENT
REMARK Flexibility Score: inf
ROOT
ATOM      1  C   UNL     1      90.367  39.400  26.629  1.00  0.00     0.048 C 
ATOM      2  C   UNL     1      89.033  38.776  26.934  1.00  0.00    -0.012 C 
ATOM      3  C   UNL     1      88.623  38.667  28.209  1.00  0.00    -0.019 C 
ATOM      4  C   UNL     1      87.288  38.067  28.570  1.00  0.00     0.036 C 
ATOM      5  C   UNL     1      86.889  36.963  27.573  1.00  0.00     0.025 C 
ATOM      6  C   UNL     1      86.914  37.509  26.133  1.00  0.00     0.089 C 
ATOM      7  C   UNL     1      88.232  38.172  25.841  1.00  0.00     0.158 C 
ATOM      8  O   UNL     1      88.633  38.243  24.648  1.00  0.00    -0.295 OA
ENDROOT
BRANCH   5   9
ATOM      9  C   UNL     1      85.534  36.365  27.918  1.00  0.00    -0.077 C 
ATOM     10  C   UNL     1      84.500  37.167  28.222  1.00  0.00     0.008 C 
ATOM     11  C   UNL     1      85.313  34.872  27.930  1.00  0.00     0.039 C 
ENDBRANCH   5   9
TORSDOF 1
ENDMDL
