MODEL 1
REMARK VINA RESULT:    -5.590      0.000      0.000
REMARK INTER + INTRA:          -9.170
REMARK INTER:                  -7.877
REMARK INTRA:                  -1.293
REMARK UNBOUND:                -1.293
REMARK SMILES C=C(CC[C@@H](C(=O)[O-])[C@H]1[C@H](O)C[C@@]2(C)C3=C(CC[C@]12C)[C@@]1(C)CC[C@H](O)C(C)(C)[C@H]1CC3)C(C)C
REMARK SMILES IDX 4 1 5 2 6 3 7 4 8 5 9 6 10 7 19 8 12 9 13 10 18 11 20 12
REMARK SMILES IDX 14 13 15 14 17 15 16 16 32 17 21 18 31 19 30 20 23 21 22 22
REMARK SMILES IDX 27 23 24 24 25 25 28 26 29 27 11 28 26 30 3 32 2 33 1 34
REMARK SMILES IDX 33 35 34 36 35 37
REMARK H PARENT 11 29 26 31
REMARK Flexibility Score: inf
ROOT
ATOM      1  C   UNL     1       6.326 -11.138  39.344  1.00  0.00     0.014 C 
ENDROOT
BRANCH   1   2
ATOM      2  C   UNL     1       7.694 -10.406  39.360  1.00  0.00     0.042 C 
BRANCH   2   3
ATOM      3  C   UNL     1       8.294 -10.351  37.971  1.00  0.00     0.045 C 
ATOM      4  O   UNL     1       8.471  -9.242  37.402  1.00  0.00    -0.550 OA
ATOM      5  O   UNL     1       8.710 -11.510  37.325  1.00  0.00    -0.550 OA
ENDBRANCH   2   3
BRANCH   2   6
ATOM      6  C   UNL     1       7.679  -9.044  40.153  1.00  0.00     0.033 C 
ATOM      7  C   UNL     1       6.470  -8.920  41.123  1.00  0.00     0.119 C 
ATOM      8  C   UNL     1       8.893  -8.544  41.004  1.00  0.00    -0.017 C 
ATOM      9  C   UNL     1       6.920  -7.999  42.280  1.00  0.00     0.043 C 
ATOM     10  C   UNL     1       8.247  -7.376  41.812  1.00  0.00    -0.003 C 
ATOM     11  C   UNL     1      10.097  -7.963  40.233  1.00  0.00     0.012 C 
ATOM     12  C   UNL     1       9.420  -9.688  41.934  1.00  0.00     0.013 C 
ATOM     13  C   UNL     1       7.894  -6.095  40.984  1.00  0.00     0.017 C 
ATOM     14  C   UNL     1       9.221  -6.912  42.881  1.00  0.00    -0.064 C 
ATOM     15  C   UNL     1      11.061  -7.160  41.157  1.00  0.00     0.032 C 
ATOM     16  C   UNL     1      10.532  -6.717  42.545  1.00  0.00    -0.064 C 
ATOM     17  C   UNL     1       8.727  -6.496  44.244  1.00  0.00     0.032 C 
ATOM     18  C   UNL     1      11.535  -6.197  43.611  1.00  0.00    -0.008 C 
ATOM     19  C   UNL     1       9.308  -5.135  44.577  1.00  0.00     0.009 C 
ATOM     20  C   UNL     1      10.858  -5.176  44.646  1.00  0.00     0.007 C 
ATOM     21  C   UNL     1      12.780  -5.561  42.906  1.00  0.00     0.014 C 
ATOM     22  C   UNL     1      12.031  -7.450  44.381  1.00  0.00     0.016 C 
ATOM     23  C   UNL     1      11.475  -3.724  44.659  1.00  0.00    -0.006 C 
ATOM     24  C   UNL     1      13.730  -4.819  43.846  1.00  0.00     0.033 C 
ATOM     25  C   UNL     1      13.039  -3.809  44.795  1.00  0.00     0.120 C 
ATOM     26  C   UNL     1      10.939  -2.924  45.881  1.00  0.00     0.014 C 
ATOM     27  C   UNL     1      11.075  -2.922  43.378  1.00  0.00     0.014 C 
BRANCH   7  28
ATOM     28  O   UNL     1       5.371  -8.369  40.447  1.00  0.00    -0.393 OA
ATOM     29  H   UNL     1       4.876  -9.127  40.037  1.00  0.00     0.210 HD
ENDBRANCH   7  28
BRANCH  25  30
ATOM     30  O   UNL     1      13.439  -4.063  46.123  1.00  0.00    -0.393 OA
ATOM     31  H   UNL     1      12.776  -3.640  46.729  1.00  0.00     0.210 HD
ENDBRANCH  25  30
ENDBRANCH   2   6
ENDBRANCH   1   2
BRANCH   1  32
ATOM     32  C   UNL     1       6.298 -12.391  40.240  1.00  0.00     0.031 C 
BRANCH  32  33
ATOM     33  C   UNL     1       5.087 -12.386  41.152  1.00  0.00    -0.075 C 
ATOM     34  C   UNL     1       3.876 -12.121  40.627  1.00  0.00     0.008 C 
BRANCH  33  35
ATOM     35  C   UNL     1       5.232 -12.591  42.656  1.00  0.00     0.008 C 
ATOM     36  C   UNL     1       6.518 -11.939  43.183  1.00  0.00     0.012 C 
ATOM     37  C   UNL     1       4.001 -12.068  43.407  1.00  0.00     0.012 C 
ENDBRANCH  33  35
ENDBRANCH  32  33
ENDBRANCH   1  32
TORSDOF 8
ENDMDL
MODEL 2
REMARK VINA RESULT:    -5.559      2.206      9.107
REMARK INTER + INTRA:          -9.127
REMARK INTER:                  -8.329
REMARK INTRA:                  -0.798
REMARK UNBOUND:                -1.293
REMARK SMILES C=C(CC[C@@H](C(=O)[O-])[C@H]1[C@H](O)C[C@@]2(C)C3=C(CC[C@]12C)[C@@]1(C)CC[C@H](O)C(C)(C)[C@H]1CC3)C(C)C
REMARK SMILES IDX 4 1 5 2 6 3 7 4 8 5 9 6 10 7 19 8 12 9 13 10 18 11 20 12
REMARK SMILES IDX 14 13 15 14 17 15 16 16 32 17 21 18 31 19 30 20 23 21 22 22
REMARK SMILES IDX 27 23 24 24 25 25 28 26 29 27 11 28 26 30 3 32 2 33 1 34
REMARK SMILES IDX 33 35 34 36 35 37
REMARK H PARENT 11 29 26 31
REMARK Flexibility Score: inf
ROOT
ATOM      1  C   UNL     1      12.395  -4.179  43.516  1.00  0.00     0.014 C 
ENDROOT
BRANCH   1   2
ATOM      2  C   UNL     1      11.097  -5.018  43.652  1.00  0.00     0.042 C 
BRANCH   2   3
ATOM      3  C   UNL     1       9.903  -4.128  43.921  1.00  0.00     0.045 C 
ATOM      4  O   UNL     1       9.147  -4.362  44.900  1.00  0.00    -0.550 OA
ATOM      5  O   UNL     1       9.651  -3.010  43.133  1.00  0.00    -0.550 OA
ENDBRANCH   2   3
BRANCH   2   6
ATOM      6  C   UNL     1      10.909  -6.089  42.511  1.00  0.00     0.033 C 
ATOM      7  C   UNL     1      12.049  -7.146  42.477  1.00  0.00     0.119 C 
ATOM      8  C   UNL     1       9.606  -6.940  42.352  1.00  0.00    -0.017 C 
ATOM      9  C   UNL     1      11.438  -8.442  41.896  1.00  0.00     0.043 C 
ATOM     10  C   UNL     1      10.067  -8.028  41.332  1.00  0.00    -0.003 C 
ATOM     11  C   UNL     1       8.376  -6.231  41.747  1.00  0.00     0.012 C 
ATOM     12  C   UNL     1       9.183  -7.557  43.727  1.00  0.00     0.013 C 
ATOM     13  C   UNL     1      10.297  -7.528  39.867  1.00  0.00     0.017 C 
ATOM     14  C   UNL     1       8.996  -9.101  41.232  1.00  0.00    -0.064 C 
ATOM     15  C   UNL     1       7.281  -7.238  41.284  1.00  0.00     0.032 C 
ATOM     16  C   UNL     1       7.688  -8.723  41.111  1.00  0.00    -0.064 C 
ATOM     17  C   UNL     1       9.374 -10.553  41.083  1.00  0.00     0.032 C 
ATOM     18  C   UNL     1       6.582  -9.803  40.958  1.00  0.00    -0.008 C 
ATOM     19  C   UNL     1       8.616 -11.134  39.904  1.00  0.00     0.009 C 
ATOM     20  C   UNL     1       7.081 -11.081  40.130  1.00  0.00     0.007 C 
ATOM     21  C   UNL     1       5.301  -9.167  40.320  1.00  0.00     0.014 C 
ATOM     22  C   UNL     1       6.209 -10.242  42.400  1.00  0.00     0.016 C 
ATOM     23  C   UNL     1       6.291 -11.368  38.795  1.00  0.00    -0.006 C 
ATOM     24  C   UNL     1       4.226 -10.176  39.919  1.00  0.00     0.033 C 
ATOM     25  C   UNL     1       4.744 -11.370  39.079  1.00  0.00     0.120 C 
ATOM     26  C   UNL     1       6.669 -12.771  38.237  1.00  0.00     0.014 C 
ATOM     27  C   UNL     1       6.646 -10.325  37.685  1.00  0.00     0.014 C 
BRANCH   7  28
ATOM     28  O   UNL     1      13.102  -6.687  41.670  1.00  0.00    -0.393 OA
ATOM     29  H   UNL     1      12.991  -7.120  40.782  1.00  0.00     0.210 HD
ENDBRANCH   7  28
BRANCH  25  30
ATOM     30  O   UNL     1       4.319 -12.578  39.669  1.00  0.00    -0.393 OA
ATOM     31  H   UNL     1       3.330 -12.625  39.594  1.00  0.00     0.210 HD
ENDBRANCH  25  30
ENDBRANCH   2   6
ENDBRANCH   1   2
BRANCH   1  32
ATOM     32  C   UNL     1      12.990  -3.757  44.874  1.00  0.00     0.031 C 
BRANCH  32  33
ATOM     33  C   UNL     1      14.499  -3.902  44.879  1.00  0.00    -0.075 C 
ATOM     34  C   UNL     1      15.206  -3.341  45.879  1.00  0.00     0.008 C 
BRANCH  33  35
ATOM     35  C   UNL     1      15.228  -4.597  43.734  1.00  0.00     0.008 C 
ATOM     36  C   UNL     1      16.460  -3.796  43.294  1.00  0.00     0.012 C 
ATOM     37  C   UNL     1      15.609  -6.034  44.112  1.00  0.00     0.012 C 
ENDBRANCH  33  35
ENDBRANCH  32  33
ENDBRANCH   1  32
TORSDOF 8
ENDMDL
MODEL 3
REMARK VINA RESULT:    -5.445      8.441     13.278
REMARK INTER + INTRA:          -8.967
REMARK INTER:                  -7.465
REMARK INTRA:                  -1.502
REMARK UNBOUND:                -1.293
REMARK SMILES C=C(CC[C@@H](C(=O)[O-])[C@H]1[C@H](O)C[C@@]2(C)C3=C(CC[C@]12C)[C@@]1(C)CC[C@H](O)C(C)(C)[C@H]1CC3)C(C)C
REMARK SMILES IDX 4 1 5 2 6 3 7 4 8 5 9 6 10 7 19 8 12 9 13 10 18 11 20 12
REMARK SMILES IDX 14 13 15 14 17 15 16 16 32 17 21 18 31 19 30 20 23 21 22 22
REMARK SMILES IDX 27 23 24 24 25 25 28 26 29 27 11 28 26 30 3 32 2 33 1 34
REMARK SMILES IDX 33 35 34 36 35 37
REMARK H PARENT 11 29 26 31
REMARK Flexibility Score: inf
ROOT
ATOM      1  C   UNL     1      14.932  -6.746  32.346  1.00  0.00     0.014 C 
ENDROOT
BRANCH   1   2
ATOM      2  C   UNL     1      14.090  -5.751  31.505  1.00  0.00     0.042 C 
BRANCH   2   3
ATOM      3  C   UNL     1      14.982  -4.777  30.766  1.00  0.00     0.045 C 
ATOM      4  O   UNL     1      15.001  -4.766  29.507  1.00  0.00    -0.550 OA
ATOM      5  O   UNL     1      15.750  -3.845  31.456  1.00  0.00    -0.550 OA
ENDBRANCH   2   3
BRANCH   2   6
ATOM      6  C   UNL     1      12.965  -6.439  30.641  1.00  0.00     0.033 C 
ATOM      7  C   UNL     1      13.418  -7.791  30.022  1.00  0.00     0.119 C 
ATOM      8  C   UNL     1      11.535  -6.742  31.197  1.00  0.00    -0.017 C 
ATOM      9  C   UNL     1      12.146  -8.655  29.859  1.00  0.00     0.043 C 
ATOM     10  C   UNL     1      10.968  -7.692  30.095  1.00  0.00    -0.003 C 
ATOM     11  C   UNL     1      10.564  -5.550  31.322  1.00  0.00     0.012 C 
ATOM     12  C   UNL     1      11.626  -7.442  32.594  1.00  0.00     0.013 C 
ATOM     13  C   UNL     1      10.636  -7.015  28.724  1.00  0.00     0.017 C 
ATOM     14  C   UNL     1       9.659  -8.291  30.581  1.00  0.00    -0.064 C 
ATOM     15  C   UNL     1       9.086  -6.006  31.511  1.00  0.00     0.032 C 
ATOM     16  C   UNL     1       8.730  -7.473  31.162  1.00  0.00    -0.064 C 
ATOM     17  C   UNL     1       9.305  -9.723  30.267  1.00  0.00     0.032 C 
ATOM     18  C   UNL     1       7.365  -8.055  31.620  1.00  0.00    -0.008 C 
ATOM     19  C   UNL     1       7.912  -9.759  29.666  1.00  0.00     0.009 C 
ATOM     20  C   UNL     1       6.845  -9.232  30.663  1.00  0.00     0.007 C 
ATOM     21  C   UNL     1       6.310  -6.905  31.745  1.00  0.00     0.014 C 
ATOM     22  C   UNL     1       7.599  -8.623  33.047  1.00  0.00     0.016 C 
ATOM     23  C   UNL     1       5.469  -8.955  29.944  1.00  0.00    -0.006 C 
ATOM     24  C   UNL     1       4.877  -7.383  31.976  1.00  0.00     0.033 C 
ATOM     25  C   UNL     1       4.401  -8.486  30.998  1.00  0.00     0.120 C 
ATOM     26  C   UNL     1       4.937 -10.258  29.282  1.00  0.00     0.014 C 
ATOM     27  C   UNL     1       5.622  -7.895  28.805  1.00  0.00     0.014 C 
BRANCH   7  28
ATOM     28  O   UNL     1      14.030  -7.567  28.779  1.00  0.00    -0.393 OA
ATOM     29  H   UNL     1      14.794  -8.199  28.718  1.00  0.00     0.210 HD
ENDBRANCH   7  28
BRANCH  25  30
ATOM     30  O   UNL     1       3.875  -9.569  31.733  1.00  0.00    -0.393 OA
ATOM     31  H   UNL     1       3.915  -9.334  32.697  1.00  0.00     0.210 HD
ENDBRANCH  25  30
ENDBRANCH   2   6
ENDBRANCH   1   2
BRANCH   1  32
ATOM     32  C   UNL     1      15.005  -6.369  33.839  1.00  0.00     0.031 C 
BRANCH  32  33
ATOM     33  C   UNL     1      14.665  -7.555  34.720  1.00  0.00    -0.075 C 
ATOM     34  C   UNL     1      14.779  -8.798  34.214  1.00  0.00     0.008 C 
BRANCH  33  35
ATOM     35  C   UNL     1      14.121  -7.359  36.131  1.00  0.00     0.008 C 
ATOM     36  C   UNL     1      14.864  -6.230  36.859  1.00  0.00     0.012 C 
ATOM     37  C   UNL     1      12.609  -7.101  36.110  1.00  0.00     0.012 C 
ENDBRANCH  33  35
ENDBRANCH  32  33
ENDBRANCH   1  32
TORSDOF 8
ENDMDL
MODEL 4
REMARK VINA RESULT:    -5.362      2.078      8.333
REMARK INTER + INTRA:          -8.850
REMARK INTER:                  -7.207
REMARK INTRA:                  -1.643
REMARK UNBOUND:                -1.293
REMARK SMILES C=C(CC[C@@H](C(=O)[O-])[C@H]1[C@H](O)C[C@@]2(C)C3=C(CC[C@]12C)[C@@]1(C)CC[C@H](O)C(C)(C)[C@H]1CC3)C(C)C
REMARK SMILES IDX 4 1 5 2 6 3 7 4 8 5 9 6 10 7 19 8 12 9 13 10 18 11 20 12
REMARK SMILES IDX 14 13 15 14 17 15 16 16 32 17 21 18 31 19 30 20 23 21 22 22
REMARK SMILES IDX 27 23 24 24 25 25 28 26 29 27 11 28 26 30 3 32 2 33 1 34
REMARK SMILES IDX 33 35 34 36 35 37
REMARK H PARENT 11 29 26 31
REMARK Flexibility Score: inf
ROOT
ATOM      1  C   UNL     1      13.443  -4.844  43.637  1.00  0.00     0.014 C 
ENDROOT
BRANCH   1   2
ATOM      2  C   UNL     1      13.347  -5.769  42.396  1.00  0.00     0.042 C 
BRANCH   2   3
ATOM      3  C   UNL     1      14.698  -5.929  41.733  1.00  0.00     0.045 C 
ATOM      4  O   UNL     1      15.480  -6.843  42.105  1.00  0.00    -0.550 OA
ATOM      5  O   UNL     1      15.077  -5.113  40.674  1.00  0.00    -0.550 OA
ENDBRANCH   2   3
BRANCH   2   6
ATOM      6  C   UNL     1      12.551  -7.105  42.657  1.00  0.00     0.033 C 
ATOM      7  C   UNL     1      12.414  -7.443  44.168  1.00  0.00     0.119 C 
ATOM      8  C   UNL     1      11.119  -7.365  42.084  1.00  0.00    -0.017 C 
ATOM      9  C   UNL     1      11.108  -8.256  44.326  1.00  0.00     0.043 C 
ATOM     10  C   UNL     1      10.685  -8.627  42.894  1.00  0.00    -0.003 C 
ATOM     11  C   UNL     1      11.017  -7.719  40.586  1.00  0.00     0.012 C 
ATOM     12  C   UNL     1      10.187  -6.137  42.356  1.00  0.00     0.013 C 
ATOM     13  C   UNL     1      11.420  -9.957  42.519  1.00  0.00     0.017 C 
ATOM     14  C   UNL     1       9.210  -8.894  42.644  1.00  0.00    -0.064 C 
ATOM     15  C   UNL     1       9.630  -8.323  40.213  1.00  0.00     0.032 C 
ATOM     16  C   UNL     1       8.734  -8.846  41.363  1.00  0.00    -0.064 C 
ATOM     17  C   UNL     1       8.318  -9.384  43.758  1.00  0.00     0.032 C 
ATOM     18  C   UNL     1       7.240  -9.164  41.081  1.00  0.00    -0.008 C 
ATOM     19  C   UNL     1       7.569 -10.612  43.275  1.00  0.00     0.009 C 
ATOM     20  C   UNL     1       6.652 -10.284  42.066  1.00  0.00     0.007 C 
ATOM     21  C   UNL     1       7.055  -9.563  39.578  1.00  0.00     0.014 C 
ATOM     22  C   UNL     1       6.469  -7.834  41.303  1.00  0.00     0.016 C 
ATOM     23  C   UNL     1       6.136 -11.597  41.360  1.00  0.00    -0.006 C 
ATOM     24  C   UNL     1       5.669 -10.109  39.234  1.00  0.00     0.033 C 
ATOM     25  C   UNL     1       5.162 -11.223  40.184  1.00  0.00     0.120 C 
ATOM     26  C   UNL     1       5.341 -12.474  42.369  1.00  0.00     0.014 C 
ATOM     27  C   UNL     1       7.324 -12.469  40.836  1.00  0.00     0.014 C 
BRANCH   7  28
ATOM     28  O   UNL     1      13.521  -8.194  44.592  1.00  0.00    -0.393 OA
ATOM     29  H   UNL     1      13.814  -7.807  45.460  1.00  0.00     0.210 HD
ENDBRANCH   7  28
BRANCH  25  30
ATOM     30  O   UNL     1       3.875 -10.889  40.652  1.00  0.00    -0.393 OA
ATOM     31  H   UNL     1       3.972 -10.168  41.328  1.00  0.00     0.210 HD
ENDBRANCH  25  30
ENDBRANCH   2   6
ENDBRANCH   1   2
BRANCH   1  32
ATOM     32  C   UNL     1      12.360  -3.747  43.662  1.00  0.00     0.031 C 
BRANCH  32  33
ATOM     33  C   UNL     1      11.936  -3.428  45.082  1.00  0.00    -0.075 C 
ATOM     34  C   UNL     1      12.869  -3.026  45.967  1.00  0.00     0.008 C 
BRANCH  33  35
ATOM     35  C   UNL     1      10.496  -3.635  45.539  1.00  0.00     0.008 C 
ATOM     36  C   UNL     1       9.505  -3.295  44.419  1.00  0.00     0.012 C 
ATOM     37  C   UNL     1      10.279  -5.062  46.054  1.00  0.00     0.012 C 
ENDBRANCH  33  35
ENDBRANCH  32  33
ENDBRANCH   1  32
TORSDOF 8
ENDMDL
MODEL 5
REMARK VINA RESULT:    -5.346      8.567     12.155
REMARK INTER + INTRA:          -8.827
REMARK INTER:                  -8.035
REMARK INTRA:                  -0.792
REMARK UNBOUND:                -1.293
REMARK SMILES C=C(CC[C@@H](C(=O)[O-])[C@H]1[C@H](O)C[C@@]2(C)C3=C(CC[C@]12C)[C@@]1(C)CC[C@H](O)C(C)(C)[C@H]1CC3)C(C)C
REMARK SMILES IDX 4 1 5 2 6 3 7 4 8 5 9 6 10 7 19 8 12 9 13 10 18 11 20 12
REMARK SMILES IDX 14 13 15 14 17 15 16 16 32 17 21 18 31 19 30 20 23 21 22 22
REMARK SMILES IDX 27 23 24 24 25 25 28 26 29 27 11 28 26 30 3 32 2 33 1 34
REMARK SMILES IDX 33 35 34 36 35 37
REMARK H PARENT 11 29 26 31
REMARK Flexibility Score: inf
ROOT
ATOM      1  C   UNL     1       5.408  -8.534  34.047  1.00  0.00     0.014 C 
ENDROOT
BRANCH   1   2
ATOM      2  C   UNL     1       5.938  -8.220  32.623  1.00  0.00     0.042 C 
BRANCH   2   3
ATOM      3  C   UNL     1       5.228  -7.020  32.034  1.00  0.00     0.045 C 
ATOM      4  O   UNL     1       5.149  -5.948  32.689  1.00  0.00    -0.550 OA
ATOM      5  O   UNL     1       4.702  -7.060  30.747  1.00  0.00    -0.550 OA
ENDBRANCH   2   3
BRANCH   2   6
ATOM      6  C   UNL     1       7.511  -8.204  32.517  1.00  0.00     0.033 C 
ATOM      7  C   UNL     1       8.157  -9.568  32.891  1.00  0.00     0.119 C 
ATOM      8  C   UNL     1       8.269  -7.774  31.219  1.00  0.00    -0.017 C 
ATOM      9  C   UNL     1       9.483  -9.664  32.101  1.00  0.00     0.043 C 
ATOM     10  C   UNL     1       9.722  -8.253  31.535  1.00  0.00    -0.003 C 
ATOM     11  C   UNL     1       8.337  -6.263  30.915  1.00  0.00     0.012 C 
ATOM     12  C   UNL     1       7.667  -8.493  29.967  1.00  0.00     0.013 C 
ATOM     13  C   UNL     1      10.482  -7.433  32.630  1.00  0.00     0.017 C 
ATOM     14  C   UNL     1      10.567  -8.134  30.278  1.00  0.00    -0.064 C 
ATOM     15  C   UNL     1       9.414  -5.922  29.842  1.00  0.00     0.032 C 
ATOM     16  C   UNL     1      10.493  -6.990  29.533  1.00  0.00    -0.064 C 
ATOM     17  C   UNL     1      11.609  -9.175  29.951  1.00  0.00     0.032 C 
ATOM     18  C   UNL     1      11.386  -6.828  28.273  1.00  0.00    -0.008 C 
ATOM     19  C   UNL     1      12.924  -8.475  29.667  1.00  0.00     0.009 C 
ATOM     20  C   UNL     1      12.816  -7.533  28.437  1.00  0.00     0.007 C 
ATOM     21  C   UNL     1      11.529  -5.311  27.912  1.00  0.00     0.014 C 
ATOM     22  C   UNL     1      10.613  -7.507  27.109  1.00  0.00     0.016 C 
ATOM     23  C   UNL     1      14.058  -6.566  28.340  1.00  0.00    -0.006 C 
ATOM     24  C   UNL     1      12.561  -5.014  26.824  1.00  0.00     0.033 C 
ATOM     25  C   UNL     1      13.943  -5.676  27.049  1.00  0.00     0.120 C 
ATOM     26  C   UNL     1      15.374  -7.389  28.229  1.00  0.00     0.014 C 
ATOM     27  C   UNL     1      14.187  -5.671  29.616  1.00  0.00     0.014 C 
BRANCH   7  28
ATOM     28  O   UNL     1       8.398  -9.620  34.273  1.00  0.00    -0.393 OA
ATOM     29  H   UNL     1       7.613  -9.199  34.716  1.00  0.00     0.210 HD
ENDBRANCH   7  28
BRANCH  25  30
ATOM     30  O   UNL     1      14.318  -6.383  25.888  1.00  0.00    -0.393 OA
ATOM     31  H   UNL     1      14.293  -7.353  26.097  1.00  0.00     0.210 HD
ENDBRANCH  25  30
ENDBRANCH   2   6
ENDBRANCH   1   2
BRANCH   1  32
ATOM     32  C   UNL     1       4.435  -9.729  34.082  1.00  0.00     0.031 C 
BRANCH  32  33
ATOM     33  C   UNL     1       4.918 -10.800  35.040  1.00  0.00    -0.075 C 
ATOM     34  C   UNL     1       5.182 -12.032  34.562  1.00  0.00     0.008 C 
BRANCH  33  35
ATOM     35  C   UNL     1       5.029 -10.529  36.536  1.00  0.00     0.008 C 
ATOM     36  C   UNL     1       4.066 -11.418  37.333  1.00  0.00     0.012 C 
ATOM     37  C   UNL     1       6.473 -10.702  37.024  1.00  0.00     0.012 C 
ENDBRANCH  33  35
ENDBRANCH  32  33
ENDBRANCH   1  32
TORSDOF 8
ENDMDL
MODEL 6
REMARK VINA RESULT:    -5.171     11.767     13.553
REMARK INTER + INTRA:          -8.580
REMARK INTER:                  -7.451
REMARK INTRA:                  -1.129
REMARK UNBOUND:                -1.293
REMARK SMILES C=C(CC[C@@H](C(=O)[O-])[C@H]1[C@H](O)C[C@@]2(C)C3=C(CC[C@]12C)[C@@]1(C)CC[C@H](O)C(C)(C)[C@H]1CC3)C(C)C
REMARK SMILES IDX 4 1 5 2 6 3 7 4 8 5 9 6 10 7 19 8 12 9 13 10 18 11 20 12
REMARK SMILES IDX 14 13 15 14 17 15 16 16 32 17 21 18 31 19 30 20 23 21 22 22
REMARK SMILES IDX 27 23 24 24 25 25 28 26 29 27 11 28 26 30 3 32 2 33 1 34
REMARK SMILES IDX 33 35 34 36 35 37
REMARK H PARENT 11 29 26 31
REMARK Flexibility Score: inf
ROOT
ATOM      1  C   UNL     1      15.039 -19.773  41.289  1.00  0.00     0.014 C 
ENDROOT
BRANCH   1   2
ATOM      2  C   UNL     1      15.852 -19.668  42.605  1.00  0.00     0.042 C 
BRANCH   2   3
ATOM      3  C   UNL     1      15.707 -20.926  43.433  1.00  0.00     0.045 C 
ATOM      4  O   UNL     1      16.258 -21.996  43.061  1.00  0.00    -0.550 OA
ATOM      5  O   UNL     1      15.015 -20.913  44.639  1.00  0.00    -0.550 OA
ENDBRANCH   2   3
BRANCH   2   6
ATOM      6  C   UNL     1      17.327 -19.149  42.403  1.00  0.00     0.033 C 
ATOM      7  C   UNL     1      17.908 -19.501  41.005  1.00  0.00     0.119 C 
ATOM      8  C   UNL     1      17.736 -17.653  42.612  1.00  0.00    -0.017 C 
ATOM      9  C   UNL     1      18.945 -18.405  40.664  1.00  0.00     0.043 C 
ATOM     10  C   UNL     1      19.161 -17.629  41.975  1.00  0.00    -0.003 C 
ATOM     11  C   UNL     1      17.872 -17.161  44.068  1.00  0.00     0.012 C 
ATOM     12  C   UNL     1      16.739 -16.703  41.870  1.00  0.00     0.013 C 
ATOM     13  C   UNL     1      20.276 -18.376  42.782  1.00  0.00     0.017 C 
ATOM     14  C   UNL     1      19.633 -16.189  41.868  1.00  0.00    -0.064 C 
ATOM     15  C   UNL     1      18.639 -15.808  44.167  1.00  0.00     0.032 C 
ATOM     16  C   UNL     1      19.473 -15.357  42.942  1.00  0.00    -0.064 C 
ATOM     17  C   UNL     1      20.429 -15.727  40.674  1.00  0.00     0.032 C 
ATOM     18  C   UNL     1      19.993 -13.895  42.871  1.00  0.00    -0.008 C 
ATOM     19  C   UNL     1      21.679 -15.021  41.166  1.00  0.00     0.009 C 
ATOM     20  C   UNL     1      21.332 -13.759  42.000  1.00  0.00     0.007 C 
ATOM     21  C   UNL     1      20.186 -13.327  44.317  1.00  0.00     0.014 C 
ATOM     22  C   UNL     1      18.861 -13.069  42.200  1.00  0.00     0.016 C 
ATOM     23  C   UNL     1      22.591 -13.219  42.782  1.00  0.00    -0.006 C 
ATOM     24  C   UNL     1      20.900 -11.977  44.378  1.00  0.00     0.033 C 
ATOM     25  C   UNL     1      22.214 -11.907  43.561  1.00  0.00     0.120 C 
ATOM     26  C   UNL     1      23.732 -12.865  41.785  1.00  0.00     0.014 C 
ATOM     27  C   UNL     1      23.160 -14.297  43.762  1.00  0.00     0.014 C 
BRANCH   7  28
ATOM     28  O   UNL     1      18.516 -20.765  41.045  1.00  0.00    -0.393 OA
ATOM     29  H   UNL     1      18.788 -20.982  40.113  1.00  0.00     0.210 HD
ENDBRANCH   7  28
BRANCH  25  30
ATOM     30  O   UNL     1      22.177 -10.783  42.710  1.00  0.00    -0.393 OA
ATOM     31  H   UNL     1      23.009 -10.781  42.168  1.00  0.00     0.210 HD
ENDBRANCH  25  30
ENDBRANCH   2   6
ENDBRANCH   1   2
BRANCH   1  32
ATOM     32  C   UNL     1      13.515 -19.710  41.510  1.00  0.00     0.031 C 
BRANCH  32  33
ATOM     33  C   UNL     1      12.813 -20.864  40.822  1.00  0.00    -0.075 C 
ATOM     34  C   UNL     1      13.181 -22.125  41.122  1.00  0.00     0.008 C 
BRANCH  33  35
ATOM     35  C   UNL     1      11.764 -20.618  39.743  1.00  0.00     0.008 C 
ATOM     36  C   UNL     1      12.421 -20.326  38.387  1.00  0.00     0.012 C 
ATOM     37  C   UNL     1      10.789 -21.797  39.641  1.00  0.00     0.012 C 
ENDBRANCH  33  35
ENDBRANCH  32  33
ENDBRANCH   1  32
TORSDOF 8
ENDMDL
MODEL 7
REMARK VINA RESULT:    -5.165      8.252     11.977
REMARK INTER + INTRA:          -8.572
REMARK INTER:                  -6.898
REMARK INTRA:                  -1.675
REMARK UNBOUND:                -1.293
REMARK SMILES C=C(CC[C@@H](C(=O)[O-])[C@H]1[C@H](O)C[C@@]2(C)C3=C(CC[C@]12C)[C@@]1(C)CC[C@H](O)C(C)(C)[C@H]1CC3)C(C)C
REMARK SMILES IDX 4 1 5 2 6 3 7 4 8 5 9 6 10 7 19 8 12 9 13 10 18 11 20 12
REMARK SMILES IDX 14 13 15 14 17 15 16 16 32 17 21 18 31 19 30 20 23 21 22 22
REMARK SMILES IDX 27 23 24 24 25 25 28 26 29 27 11 28 26 30 3 32 2 33 1 34
REMARK SMILES IDX 33 35 34 36 35 37
REMARK H PARENT 11 29 26 31
REMARK Flexibility Score: inf
ROOT
ATOM      1  C   UNL     1       5.937  -9.114  34.452  1.00  0.00     0.014 C 
ENDROOT
BRANCH   1   2
ATOM      2  C   UNL     1       6.208  -9.942  33.168  1.00  0.00     0.042 C 
BRANCH   2   3
ATOM      3  C   UNL     1       5.087 -10.927  32.914  1.00  0.00     0.045 C 
ATOM      4  O   UNL     1       3.995 -10.531  32.427  1.00  0.00    -0.550 OA
ATOM      5  O   UNL     1       5.259 -12.285  33.157  1.00  0.00    -0.550 OA
ENDBRANCH   2   3
BRANCH   2   6
ATOM      6  C   UNL     1       6.648  -9.071  31.929  1.00  0.00     0.033 C 
ATOM      7  C   UNL     1       6.034  -7.643  31.944  1.00  0.00     0.119 C 
ATOM      8  C   UNL     1       8.147  -8.831  31.551  1.00  0.00    -0.017 C 
ATOM      9  C   UNL     1       7.026  -6.725  31.192  1.00  0.00     0.043 C 
ATOM     10  C   UNL     1       8.022  -7.677  30.507  1.00  0.00    -0.003 C 
ATOM     11  C   UNL     1       8.892  -9.996  30.866  1.00  0.00     0.012 C 
ATOM     12  C   UNL     1       8.969  -8.404  32.812  1.00  0.00     0.013 C 
ATOM     13  C   UNL     1       7.409  -8.079  29.124  1.00  0.00     0.017 C 
ATOM     14  C   UNL     1       9.408  -7.138  30.196  1.00  0.00    -0.064 C 
ATOM     15  C   UNL     1      10.222  -9.537  30.198  1.00  0.00     0.032 C 
ATOM     16  C   UNL     1      10.425  -8.020  29.954  1.00  0.00    -0.064 C 
ATOM     17  C   UNL     1       9.627  -5.662  29.974  1.00  0.00     0.032 C 
ATOM     18  C   UNL     1      11.837  -7.490  29.585  1.00  0.00    -0.008 C 
ATOM     19  C   UNL     1      10.381  -5.473  28.671  1.00  0.00     0.009 C 
ATOM     20  C   UNL     1      11.782  -6.141  28.719  1.00  0.00     0.007 C 
ATOM     21  C   UNL     1      12.653  -8.609  28.856  1.00  0.00     0.014 C 
ATOM     22  C   UNL     1      12.553  -7.202  30.933  1.00  0.00     0.016 C 
ATOM     23  C   UNL     1      12.426  -6.238  27.283  1.00  0.00    -0.006 C 
ATOM     24  C   UNL     1      13.975  -8.138  28.250  1.00  0.00     0.033 C 
ATOM     25  C   UNL     1      13.866  -6.859  27.383  1.00  0.00     0.120 C 
ATOM     26  C   UNL     1      12.567  -4.819  26.661  1.00  0.00     0.014 C 
ATOM     27  C   UNL     1      11.531  -7.074  26.310  1.00  0.00     0.014 C 
BRANCH   7  28
ATOM     28  O   UNL     1       4.785  -7.654  31.305  1.00  0.00    -0.393 OA
ATOM     29  H   UNL     1       4.871  -8.254  30.517  1.00  0.00     0.210 HD
ENDBRANCH   7  28
BRANCH  25  30
ATOM     30  O   UNL     1      14.818  -5.915  27.819  1.00  0.00    -0.393 OA
ATOM     31  H   UNL     1      15.333  -5.610  27.027  1.00  0.00     0.210 HD
ENDBRANCH  25  30
ENDBRANCH   2   6
ENDBRANCH   1   2
BRANCH   1  32
ATOM     32  C   UNL     1       5.913  -9.971  35.733  1.00  0.00     0.031 C 
BRANCH  32  33
ATOM     33  C   UNL     1       7.300 -10.467  36.087  1.00  0.00    -0.075 C 
ATOM     34  C   UNL     1       7.511 -11.793  36.197  1.00  0.00     0.008 C 
BRANCH  33  35
ATOM     35  C   UNL     1       8.431  -9.492  36.397  1.00  0.00     0.008 C 
ATOM     36  C   UNL     1       8.378  -9.031  37.860  1.00  0.00     0.012 C 
ATOM     37  C   UNL     1       9.796 -10.102  36.059  1.00  0.00     0.012 C 
ENDBRANCH  33  35
ENDBRANCH  32  33
ENDBRANCH   1  32
TORSDOF 8
ENDMDL
MODEL 8
REMARK VINA RESULT:    -5.132     11.440     13.344
REMARK INTER + INTRA:          -8.525
REMARK INTER:                  -7.001
REMARK INTRA:                  -1.524
REMARK UNBOUND:                -1.293
REMARK SMILES C=C(CC[C@@H](C(=O)[O-])[C@H]1[C@H](O)C[C@@]2(C)C3=C(CC[C@]12C)[C@@]1(C)CC[C@H](O)C(C)(C)[C@H]1CC3)C(C)C
REMARK SMILES IDX 4 1 5 2 6 3 7 4 8 5 9 6 10 7 19 8 12 9 13 10 18 11 20 12
REMARK SMILES IDX 14 13 15 14 17 15 16 16 32 17 21 18 31 19 30 20 23 21 22 22
REMARK SMILES IDX 27 23 24 24 25 25 28 26 29 27 11 28 26 30 3 32 2 33 1 34
REMARK SMILES IDX 33 35 34 36 35 37
REMARK H PARENT 11 29 26 31
REMARK Flexibility Score: inf
ROOT
ATOM      1  C   UNL     1      13.310 -21.017  40.504  1.00  0.00     0.014 C 
ENDROOT
BRANCH   1   2
ATOM      2  C   UNL     1      13.246 -20.124  41.771  1.00  0.00     0.042 C 
BRANCH   2   3
ATOM      3  C   UNL     1      12.108 -20.546  42.675  1.00  0.00     0.045 C 
ATOM      4  O   UNL     1      12.188 -21.616  43.334  1.00  0.00    -0.550 OA
ATOM      5  O   UNL     1      10.986 -19.741  42.836  1.00  0.00    -0.550 OA
ENDBRANCH   2   3
BRANCH   2   6
ATOM      6  C   UNL     1      14.641 -19.919  42.477  1.00  0.00     0.033 C 
ATOM      7  C   UNL     1      15.566 -21.164  42.364  1.00  0.00     0.119 C 
ATOM      8  C   UNL     1      15.589 -18.718  42.152  1.00  0.00    -0.017 C 
ATOM      9  C   UNL     1      17.021 -20.642  42.407  1.00  0.00     0.043 C 
ATOM     10  C   UNL     1      16.913 -19.170  42.844  1.00  0.00    -0.003 C 
ATOM     11  C   UNL     1      15.206 -17.344  42.741  1.00  0.00     0.012 C 
ATOM     12  C   UNL     1      15.754 -18.552  40.604  1.00  0.00     0.013 C 
ATOM     13  C   UNL     1      16.901 -19.147  44.409  1.00  0.00     0.017 C 
ATOM     14  C   UNL     1      18.034 -18.231  42.432  1.00  0.00    -0.064 C 
ATOM     15  C   UNL     1      16.384 -16.326  42.686  1.00  0.00     0.032 C 
ATOM     16  C   UNL     1      17.811 -16.882  42.453  1.00  0.00    -0.064 C 
ATOM     17  C   UNL     1      19.425 -18.758  42.181  1.00  0.00     0.032 C 
ATOM     18  C   UNL     1      18.959 -15.903  42.083  1.00  0.00    -0.008 C 
ATOM     19  C   UNL     1      20.411 -17.929  42.984  1.00  0.00     0.009 C 
ATOM     20  C   UNL     1      20.398 -16.441  42.542  1.00  0.00     0.007 C 
ATOM     21  C   UNL     1      18.660 -14.484  42.672  1.00  0.00     0.014 C 
ATOM     22  C   UNL     1      18.932 -15.775  40.536  1.00  0.00     0.016 C 
ATOM     23  C   UNL     1      21.160 -15.525  43.577  1.00  0.00    -0.006 C 
ATOM     24  C   UNL     1      19.819 -13.495  42.562  1.00  0.00     0.033 C 
ATOM     25  C   UNL     1      21.180 -14.040  43.061  1.00  0.00     0.120 C 
ATOM     26  C   UNL     1      22.636 -15.993  43.725  1.00  0.00     0.014 C 
ATOM     27  C   UNL     1      20.511 -15.606  44.997  1.00  0.00     0.014 C 
BRANCH   7  28
ATOM     28  O   UNL     1      15.320 -22.041  43.431  1.00  0.00    -0.393 OA
ATOM     29  H   UNL     1      16.200 -22.419  43.700  1.00  0.00     0.210 HD
ENDBRANCH   7  28
BRANCH  25  30
ATOM     30  O   UNL     1      22.158 -13.842  42.066  1.00  0.00    -0.393 OA
ATOM     31  H   UNL     1      21.694 -13.592  41.224  1.00  0.00     0.210 HD
ENDBRANCH  25  30
ENDBRANCH   2   6
ENDBRANCH   1   2
BRANCH   1  32
ATOM     32  C   UNL     1      12.073 -20.872  39.597  1.00  0.00     0.031 C 
BRANCH  32  33
ATOM     33  C   UNL     1      12.405 -20.095  38.338  1.00  0.00    -0.075 C 
ATOM     34  C   UNL     1      12.113 -20.637  37.140  1.00  0.00     0.008 C 
BRANCH  33  35
ATOM     35  C   UNL     1      13.134 -18.757  38.407  1.00  0.00     0.008 C 
ATOM     36  C   UNL     1      13.601 -18.308  37.016  1.00  0.00     0.012 C 
ATOM     37  C   UNL     1      12.259 -17.685  39.068  1.00  0.00     0.012 C 
ENDBRANCH  33  35
ENDBRANCH  32  33
ENDBRANCH   1  32
TORSDOF 8
ENDMDL
MODEL 9
REMARK VINA RESULT:    -5.069      8.357     10.496
REMARK INTER + INTRA:          -8.437
REMARK INTER:                  -6.993
REMARK INTRA:                  -1.444
REMARK UNBOUND:                -1.293
REMARK SMILES C=C(CC[C@@H](C(=O)[O-])[C@H]1[C@H](O)C[C@@]2(C)C3=C(CC[C@]12C)[C@@]1(C)CC[C@H](O)C(C)(C)[C@H]1CC3)C(C)C
REMARK SMILES IDX 4 1 5 2 6 3 7 4 8 5 9 6 10 7 19 8 12 9 13 10 18 11 20 12
REMARK SMILES IDX 14 13 15 14 17 15 16 16 32 17 21 18 31 19 30 20 23 21 22 22
REMARK SMILES IDX 27 23 24 24 25 25 28 26 29 27 11 28 26 30 3 32 2 33 1 34
REMARK SMILES IDX 33 35 34 36 35 37
REMARK H PARENT 11 29 26 31
REMARK Flexibility Score: inf
ROOT
ATOM      1  C   UNL     1       6.002  -7.127  30.566  1.00  0.00     0.014 C 
ENDROOT
BRANCH   1   2
ATOM      2  C   UNL     1       7.098  -7.957  29.849  1.00  0.00     0.042 C 
BRANCH   2   3
ATOM      3  C   UNL     1       6.904  -7.928  28.348  1.00  0.00     0.045 C 
ATOM      4  O   UNL     1       7.821  -7.498  27.600  1.00  0.00    -0.550 OA
ATOM      5  O   UNL     1       5.741  -8.423  27.768  1.00  0.00    -0.550 OA
ENDBRANCH   2   3
BRANCH   2   6
ATOM      6  C   UNL     1       8.560  -7.654  30.355  1.00  0.00     0.033 C 
ATOM      7  C   UNL     1       8.753  -6.178  30.803  1.00  0.00     0.119 C 
ATOM      8  C   UNL     1       9.255  -8.483  31.485  1.00  0.00    -0.017 C 
ATOM      9  C   UNL     1       9.863  -6.182  31.880  1.00  0.00     0.043 C 
ATOM     10  C   UNL     1      10.490  -7.586  31.814  1.00  0.00    -0.003 C 
ATOM     11  C   UNL     1       9.787  -9.880  31.104  1.00  0.00     0.012 C 
ATOM     12  C   UNL     1       8.298  -8.647  32.713  1.00  0.00     0.013 C 
ATOM     13  C   UNL     1      11.608  -7.547  30.720  1.00  0.00     0.017 C 
ATOM     14  C   UNL     1      11.166  -8.112  33.068  1.00  0.00    -0.064 C 
ATOM     15  C   UNL     1      10.777 -10.447  32.166  1.00  0.00     0.032 C 
ATOM     16  C   UNL     1      11.389  -9.456  33.188  1.00  0.00    -0.064 C 
ATOM     17  C   UNL     1      11.751  -7.162  34.084  1.00  0.00     0.032 C 
ATOM     18  C   UNL     1      12.124 -10.010  34.439  1.00  0.00    -0.008 C 
ATOM     19  C   UNL     1      13.180  -7.581  34.375  1.00  0.00     0.009 C 
ATOM     20  C   UNL     1      13.244  -9.005  34.991  1.00  0.00     0.007 C 
ATOM     21  C   UNL     1      12.722 -11.422  34.125  1.00  0.00     0.014 C 
ATOM     22  C   UNL     1      11.032 -10.204  35.527  1.00  0.00     0.016 C 
ATOM     23  C   UNL     1      14.717  -9.570  34.985  1.00  0.00    -0.006 C 
ATOM     24  C   UNL     1      13.653 -11.971  35.206  1.00  0.00     0.033 C 
ATOM     25  C   UNL     1      14.749 -10.983  35.674  1.00  0.00     0.120 C 
ATOM     26  C   UNL     1      15.656  -8.630  35.794  1.00  0.00     0.014 C 
ATOM     27  C   UNL     1      15.292  -9.651  33.534  1.00  0.00     0.014 C 
BRANCH   7  28
ATOM     28  O   UNL     1       9.129  -5.390  29.705  1.00  0.00    -0.393 OA
ATOM     29  H   UNL     1       8.764  -5.836  28.894  1.00  0.00     0.210 HD
ENDBRANCH   7  28
BRANCH  25  30
ATOM     30  O   UNL     1      14.721 -10.883  37.080  1.00  0.00    -0.393 OA
ATOM     31  H   UNL     1      15.656 -10.939  37.410  1.00  0.00     0.210 HD
ENDBRANCH  25  30
ENDBRANCH   2   6
ENDBRANCH   1   2
BRANCH   1  32
ATOM     32  C   UNL     1       4.820  -7.983  31.063  1.00  0.00     0.031 C 
BRANCH  32  33
ATOM     33  C   UNL     1       4.525  -7.712  32.525  1.00  0.00    -0.075 C 
ATOM     34  C   UNL     1       4.629  -6.453  32.990  1.00  0.00     0.008 C 
BRANCH  33  35
ATOM     35  C   UNL     1       4.195  -8.850  33.486  1.00  0.00     0.008 C 
ATOM     36  C   UNL     1       3.878 -10.144  32.725  1.00  0.00     0.012 C 
ATOM     37  C   UNL     1       5.329  -9.067  34.495  1.00  0.00     0.012 C 
ENDBRANCH  33  35
ENDBRANCH  32  33
ENDBRANCH   1  32
TORSDOF 8
ENDMDL
