MODEL 1
REMARK VINA RESULT:    -4.151      0.000      0.000
REMARK INTER + INTRA:          -8.632
REMARK INTER:                  -7.063
REMARK INTRA:                  -1.569
REMARK UNBOUND:                -1.569
REMARK SMILES CCCCCCCCCCCCCC(=O)[O-]
REMARK SMILES IDX 8 1 9 2 10 3 11 4 12 5 13 6 14 7 15 8 16 9 7 10 6 11 5 12
REMARK SMILES IDX 4 13 3 14 2 15 1 16
REMARK H PARENT
REMARK Flexibility Score: inf
ROOT
ATOM      1  C   UNL     1       8.943 -16.835 -24.641  1.00  0.00     0.000 C 
ENDROOT
BRANCH   1   2
ATOM      2  C   UNL     1      10.397 -16.319 -24.633  1.00  0.00     0.000 C 
BRANCH   2   3
ATOM      3  C   UNL     1      10.553 -14.831 -24.276  1.00  0.00     0.000 C 
BRANCH   3   4
ATOM      4  C   UNL     1      11.094 -14.613 -22.851  1.00  0.00     0.000 C 
BRANCH   4   5
ATOM      5  C   UNL     1      10.074 -13.926 -21.931  1.00  0.00     0.006 C 
BRANCH   5   6
ATOM      6  C   UNL     1       9.716 -14.780 -20.707  1.00  0.00     0.053 C 
BRANCH   6   7
ATOM      7  C   UNL     1      10.590 -14.421 -19.548  1.00  0.00     0.041 C 
ATOM      8  O   UNL     1      10.776 -13.212 -19.244  1.00  0.00    -0.550 OA
ATOM      9  O   UNL     1      11.161 -15.420 -18.771  1.00  0.00    -0.550 OA
ENDBRANCH   6   7
ENDBRANCH   5   6
ENDBRANCH   4   5
ENDBRANCH   3   4
ENDBRANCH   2   3
ENDBRANCH   1   2
BRANCH   1  10
ATOM     10  C   UNL     1       8.372 -17.195 -23.255  1.00  0.00     0.000 C 
BRANCH  10  11
ATOM     11  C   UNL     1       9.278 -18.093 -22.387  1.00  0.00    -0.000 C 
BRANCH  11  12
ATOM     12  C   UNL     1       8.663 -19.444 -21.978  1.00  0.00    -0.000 C 
BRANCH  12  13
ATOM     13  C   UNL     1       9.394 -20.646 -22.599  1.00  0.00    -0.000 C 
BRANCH  13  14
ATOM     14  C   UNL     1      10.414 -20.234 -23.678  1.00  0.00    -0.000 C 
BRANCH  14  15
ATOM     15  C   UNL     1      10.111 -20.755 -25.094  1.00  0.00    -0.003 C 
ATOM     16  C   UNL     1      10.710 -19.882 -26.195  1.00  0.00     0.004 C 
ENDBRANCH  14  15
ENDBRANCH  13  14
ENDBRANCH  12  13
ENDBRANCH  11  12
ENDBRANCH  10  11
ENDBRANCH   1  10
TORSDOF 12
ENDMDL
MODEL 2
REMARK VINA RESULT:    -4.074      2.901      6.169
REMARK INTER + INTRA:          -8.500
REMARK INTER:                  -7.469
REMARK INTRA:                  -1.031
REMARK UNBOUND:                -1.569
REMARK SMILES CCCCCCCCCCCCCC(=O)[O-]
REMARK SMILES IDX 8 1 9 2 10 3 11 4 12 5 13 6 14 7 15 8 16 9 7 10 6 11 5 12
REMARK SMILES IDX 4 13 3 14 2 15 1 16
REMARK H PARENT
REMARK Flexibility Score: inf
ROOT
ATOM      1  C   UNL     1       9.816 -15.546 -25.042  1.00  0.00     0.000 C 
ENDROOT
BRANCH   1   2
ATOM      2  C   UNL     1       9.059 -16.635 -24.253  1.00  0.00     0.000 C 
BRANCH   2   3
ATOM      3  C   UNL     1       9.957 -17.619 -23.484  1.00  0.00     0.000 C 
BRANCH   3   4
ATOM      4  C   UNL     1       9.750 -17.548 -21.960  1.00  0.00     0.000 C 
BRANCH   4   5
ATOM      5  C   UNL     1      10.625 -16.474 -21.295  1.00  0.00     0.006 C 
BRANCH   5   6
ATOM      6  C   UNL     1       9.795 -15.392 -20.592  1.00  0.00     0.053 C 
BRANCH   6   7
ATOM      7  C   UNL     1      10.602 -14.728 -19.522  1.00  0.00     0.041 C 
ATOM      8  O   UNL     1      10.629 -13.471 -19.436  1.00  0.00    -0.550 OA
ATOM      9  O   UNL     1      11.286 -15.496 -18.589  1.00  0.00    -0.550 OA
ENDBRANCH   6   7
ENDBRANCH   5   6
ENDBRANCH   4   5
ENDBRANCH   3   4
ENDBRANCH   2   3
ENDBRANCH   1   2
BRANCH   1  10
ATOM     10  C   UNL     1       9.571 -14.103 -24.557  1.00  0.00     0.000 C 
BRANCH  10  11
ATOM     11  C   UNL     1      10.674 -13.521 -23.650  1.00  0.00    -0.000 C 
BRANCH  11  12
ATOM     12  C   UNL     1      10.398 -12.107 -23.104  1.00  0.00    -0.000 C 
BRANCH  12  13
ATOM     13  C   UNL     1       9.317 -11.360 -23.904  1.00  0.00    -0.000 C 
BRANCH  13  14
ATOM     14  C   UNL     1       9.879 -10.166 -24.698  1.00  0.00    -0.000 C 
BRANCH  14  15
ATOM     15  C   UNL     1       9.095  -8.850 -24.540  1.00  0.00    -0.003 C 
ATOM     16  C   UNL     1       9.442  -7.813 -25.606  1.00  0.00     0.004 C 
ENDBRANCH  14  15
ENDBRANCH  13  14
ENDBRANCH  12  13
ENDBRANCH  11  12
ENDBRANCH  10  11
ENDBRANCH   1  10
TORSDOF 12
ENDMDL
MODEL 3
REMARK VINA RESULT:    -4.019      1.422      2.935
REMARK INTER + INTRA:          -8.407
REMARK INTER:                  -6.628
REMARK INTRA:                  -1.779
REMARK UNBOUND:                -1.569
REMARK SMILES CCCCCCCCCCCCCC(=O)[O-]
REMARK SMILES IDX 8 1 9 2 10 3 11 4 12 5 13 6 14 7 15 8 16 9 7 10 6 11 5 12
REMARK SMILES IDX 4 13 3 14 2 15 1 16
REMARK H PARENT
REMARK Flexibility Score: inf
ROOT
ATOM      1  C   UNL     1       8.864 -14.871 -25.504  1.00  0.00     0.000 C 
ENDROOT
BRANCH   1   2
ATOM      2  C   UNL     1       8.094 -14.667 -24.182  1.00  0.00     0.000 C 
BRANCH   2   3
ATOM      3  C   UNL     1       8.903 -13.996 -23.059  1.00  0.00     0.000 C 
BRANCH   3   4
ATOM      4  C   UNL     1      10.423 -14.144 -23.248  1.00  0.00     0.000 C 
BRANCH   4   5
ATOM      5  C   UNL     1      11.136 -14.600 -21.965  1.00  0.00     0.006 C 
BRANCH   5   6
ATOM      6  C   UNL     1      10.154 -14.963 -20.844  1.00  0.00     0.053 C 
BRANCH   6   7
ATOM      7  C   UNL     1      10.726 -14.598 -19.511  1.00  0.00     0.041 C 
ATOM      8  O   UNL     1      11.200 -15.490 -18.759  1.00  0.00    -0.550 OA
ATOM      9  O   UNL     1      10.780 -13.267 -19.118  1.00  0.00    -0.550 OA
ENDBRANCH   6   7
ENDBRANCH   5   6
ENDBRANCH   4   5
ENDBRANCH   3   4
ENDBRANCH   2   3
ENDBRANCH   1   2
BRANCH   1  10
ATOM     10  C   UNL     1       8.846 -16.312 -26.051  1.00  0.00     0.000 C 
BRANCH  10  11
ATOM     11  C   UNL     1      10.181 -16.802 -26.649  1.00  0.00    -0.000 C 
BRANCH  11  12
ATOM     12  C   UNL     1      10.912 -17.878 -25.826  1.00  0.00    -0.000 C 
BRANCH  12  13
ATOM     13  C   UNL     1      11.497 -17.332 -24.513  1.00  0.00    -0.000 C 
BRANCH  13  14
ATOM     14  C   UNL     1      11.115 -18.184 -23.287  1.00  0.00    -0.000 C 
BRANCH  14  15
ATOM     15  C   UNL     1       9.678 -17.981 -22.774  1.00  0.00    -0.003 C 
ATOM     16  C   UNL     1       8.996 -19.286 -22.369  1.00  0.00     0.004 C 
ENDBRANCH  14  15
ENDBRANCH  13  14
ENDBRANCH  12  13
ENDBRANCH  11  12
ENDBRANCH  10  11
ENDBRANCH   1  10
TORSDOF 12
ENDMDL
MODEL 4
REMARK VINA RESULT:    -3.994      1.926      4.503
REMARK INTER + INTRA:          -8.365
REMARK INTER:                  -6.583
REMARK INTRA:                  -1.782
REMARK UNBOUND:                -1.569
REMARK SMILES CCCCCCCCCCCCCC(=O)[O-]
REMARK SMILES IDX 8 1 9 2 10 3 11 4 12 5 13 6 14 7 15 8 16 9 7 10 6 11 5 12
REMARK SMILES IDX 4 13 3 14 2 15 1 16
REMARK H PARENT
REMARK Flexibility Score: inf
ROOT
ATOM      1  C   UNL     1      10.782 -16.706 -25.606  1.00  0.00     0.000 C 
ENDROOT
BRANCH   1   2
ATOM      2  C   UNL     1      10.990 -16.844 -24.084  1.00  0.00     0.000 C 
BRANCH   2   3
ATOM      3  C   UNL     1       9.979 -17.760 -23.373  1.00  0.00     0.000 C 
BRANCH   3   4
ATOM      4  C   UNL     1       9.783 -17.395 -21.890  1.00  0.00     0.000 C 
BRANCH   4   5
ATOM      5  C   UNL     1      10.668 -16.218 -21.450  1.00  0.00     0.006 C 
BRANCH   5   6
ATOM      6  C   UNL     1       9.864 -15.090 -20.793  1.00  0.00     0.053 C 
BRANCH   6   7
ATOM      7  C   UNL     1      10.584 -14.568 -19.591  1.00  0.00     0.041 C 
ATOM      8  O   UNL     1      10.591 -13.333 -19.343  1.00  0.00    -0.550 OA
ATOM      9  O   UNL     1      11.207 -15.448 -18.716  1.00  0.00    -0.550 OA
ENDBRANCH   6   7
ENDBRANCH   5   6
ENDBRANCH   4   5
ENDBRANCH   3   4
ENDBRANCH   2   3
ENDBRANCH   1   2
BRANCH   1  10
ATOM     10  C   UNL     1       9.312 -16.751 -26.069  1.00  0.00     0.000 C 
BRANCH  10  11
ATOM     11  C   UNL     1       8.546 -15.418 -25.945  1.00  0.00    -0.000 C 
BRANCH  11  12
ATOM     12  C   UNL     1       7.876 -15.170 -24.581  1.00  0.00    -0.000 C 
BRANCH  12  13
ATOM     13  C   UNL     1       8.047 -13.725 -24.086  1.00  0.00    -0.000 C 
BRANCH  13  14
ATOM     14  C   UNL     1       9.337 -13.062 -24.604  1.00  0.00    -0.000 C 
BRANCH  14  15
ATOM     15  C   UNL     1      10.561 -13.207 -23.681  1.00  0.00    -0.003 C 
ATOM     16  C   UNL     1      10.686 -12.069 -22.670  1.00  0.00     0.004 C 
ENDBRANCH  14  15
ENDBRANCH  13  14
ENDBRANCH  12  13
ENDBRANCH  11  12
ENDBRANCH  10  11
ENDBRANCH   1  10
TORSDOF 12
ENDMDL
MODEL 5
REMARK VINA RESULT:    -3.929      4.685      7.776
REMARK INTER + INTRA:          -8.253
REMARK INTER:                  -7.592
REMARK INTRA:                  -0.661
REMARK UNBOUND:                -1.569
REMARK SMILES CCCCCCCCCCCCCC(=O)[O-]
REMARK SMILES IDX 8 1 9 2 10 3 11 4 12 5 13 6 14 7 15 8 16 9 7 10 6 11 5 12
REMARK SMILES IDX 4 13 3 14 2 15 1 16
REMARK H PARENT
REMARK Flexibility Score: inf
ROOT
ATOM      1  C   UNL     1      10.009 -11.471 -23.723  1.00  0.00     0.000 C 
ENDROOT
BRANCH   1   2
ATOM      2  C   UNL     1       9.197 -12.627 -24.344  1.00  0.00     0.000 C 
BRANCH   2   3
ATOM      3  C   UNL     1       8.930 -13.812 -23.399  1.00  0.00     0.000 C 
BRANCH   3   4
ATOM      4  C   UNL     1      10.131 -14.768 -23.290  1.00  0.00     0.000 C 
BRANCH   4   5
ATOM      5  C   UNL     1      10.884 -14.620 -21.958  1.00  0.00     0.006 C 
BRANCH   5   6
ATOM      6  C   UNL     1      10.016 -14.989 -20.748  1.00  0.00     0.053 C 
BRANCH   6   7
ATOM      7  C   UNL     1      10.700 -14.596 -19.477  1.00  0.00     0.041 C 
ATOM      8  O   UNL     1      11.210 -15.476 -18.734  1.00  0.00    -0.550 OA
ATOM      9  O   UNL     1      10.817 -13.255 -19.136  1.00  0.00    -0.550 OA
ENDBRANCH   6   7
ENDBRANCH   5   6
ENDBRANCH   4   5
ENDBRANCH   3   4
ENDBRANCH   2   3
ENDBRANCH   1   2
BRANCH   1  10
ATOM     10  C   UNL     1       9.849 -10.110 -24.429  1.00  0.00     0.000 C 
BRANCH  10  11
ATOM     11  C   UNL     1       8.394  -9.697 -24.731  1.00  0.00    -0.000 C 
BRANCH  11  12
ATOM     12  C   UNL     1       7.875 -10.094 -26.126  1.00  0.00    -0.000 C 
BRANCH  12  13
ATOM     13  C   UNL     1       8.810  -9.643 -27.261  1.00  0.00    -0.000 C 
BRANCH  13  14
ATOM     14  C   UNL     1       8.112  -8.724 -28.282  1.00  0.00    -0.000 C 
BRANCH  14  15
ATOM     15  C   UNL     1       8.259  -7.217 -28.009  1.00  0.00    -0.003 C 
ATOM     16  C   UNL     1       9.346  -6.896 -26.985  1.00  0.00     0.004 C 
ENDBRANCH  14  15
ENDBRANCH  13  14
ENDBRANCH  12  13
ENDBRANCH  11  12
ENDBRANCH  10  11
ENDBRANCH   1  10
TORSDOF 12
ENDMDL
MODEL 6
REMARK VINA RESULT:    -3.918      1.270      2.673
REMARK INTER + INTRA:          -8.235
REMARK INTER:                  -6.482
REMARK INTRA:                  -1.752
REMARK UNBOUND:                -1.569
REMARK SMILES CCCCCCCCCCCCCC(=O)[O-]
REMARK SMILES IDX 8 1 9 2 10 3 11 4 12 5 13 6 14 7 15 8 16 9 7 10 6 11 5 12
REMARK SMILES IDX 4 13 3 14 2 15 1 16
REMARK H PARENT
REMARK Flexibility Score: inf
ROOT
ATOM      1  C   UNL     1      10.529 -16.276 -25.734  1.00  0.00     0.000 C 
ENDROOT
BRANCH   1   2
ATOM      2  C   UNL     1       9.223 -15.517 -25.422  1.00  0.00     0.000 C 
BRANCH   2   3
ATOM      3  C   UNL     1       9.208 -14.780 -24.072  1.00  0.00     0.000 C 
BRANCH   3   4
ATOM      4  C   UNL     1      10.583 -14.202 -23.693  1.00  0.00     0.000 C 
BRANCH   4   5
ATOM      5  C   UNL     1      11.112 -14.760 -22.363  1.00  0.00     0.006 C 
BRANCH   5   6
ATOM      6  C   UNL     1      10.050 -14.750 -21.256  1.00  0.00     0.053 C 
BRANCH   6   7
ATOM      7  C   UNL     1      10.246 -13.573 -20.355  1.00  0.00     0.041 C 
ATOM      8  O   UNL     1       9.951 -12.415 -20.753  1.00  0.00    -0.550 OA
ATOM      9  O   UNL     1      10.708 -13.759 -19.059  1.00  0.00    -0.550 OA
ENDBRANCH   6   7
ENDBRANCH   5   6
ENDBRANCH   4   5
ENDBRANCH   3   4
ENDBRANCH   2   3
ENDBRANCH   1   2
BRANCH   1  10
ATOM     10  C   UNL     1      10.464 -17.206 -26.962  1.00  0.00     0.000 C 
BRANCH  10  11
ATOM     11  C   UNL     1       9.867 -18.602 -26.695  1.00  0.00    -0.000 C 
BRANCH  11  12
ATOM     12  C   UNL     1      10.831 -19.617 -26.053  1.00  0.00    -0.000 C 
BRANCH  12  13
ATOM     13  C   UNL     1      10.441 -19.980 -24.610  1.00  0.00    -0.000 C 
BRANCH  13  14
ATOM     14  C   UNL     1      11.177 -19.130 -23.558  1.00  0.00    -0.000 C 
BRANCH  14  15
ATOM     15  C   UNL     1      10.265 -18.313 -22.625  1.00  0.00    -0.003 C 
ATOM     16  C   UNL     1       8.791 -18.379 -23.020  1.00  0.00     0.004 C 
ENDBRANCH  14  15
ENDBRANCH  13  14
ENDBRANCH  12  13
ENDBRANCH  11  12
ENDBRANCH  10  11
ENDBRANCH   1  10
TORSDOF 12
ENDMDL
MODEL 7
REMARK VINA RESULT:    -3.812      1.445      2.559
REMARK INTER + INTRA:          -8.055
REMARK INTER:                  -6.233
REMARK INTRA:                  -1.822
REMARK UNBOUND:                -1.569
REMARK SMILES CCCCCCCCCCCCCC(=O)[O-]
REMARK SMILES IDX 8 1 9 2 10 3 11 4 12 5 13 6 14 7 15 8 16 9 7 10 6 11 5 12
REMARK SMILES IDX 4 13 3 14 2 15 1 16
REMARK H PARENT
REMARK Flexibility Score: inf
ROOT
ATOM      1  C   UNL     1      11.470 -17.633 -22.807  1.00  0.00     0.000 C 
ENDROOT
BRANCH   1   2
ATOM      2  C   UNL     1      10.155 -17.352 -22.050  1.00  0.00     0.000 C 
BRANCH   2   3
ATOM      3  C   UNL     1       9.391 -16.103 -22.521  1.00  0.00     0.000 C 
BRANCH   3   4
ATOM      4  C   UNL     1      10.313 -15.039 -23.142  1.00  0.00     0.000 C 
BRANCH   4   5
ATOM      5  C   UNL     1      10.664 -13.913 -22.157  1.00  0.00     0.006 C 
BRANCH   5   6
ATOM      6  C   UNL     1       9.758 -13.913 -20.918  1.00  0.00     0.053 C 
BRANCH   6   7
ATOM      7  C   UNL     1      10.581 -13.948 -19.670  1.00  0.00     0.041 C 
ATOM      8  O   UNL     1      10.832 -12.883 -19.046  1.00  0.00    -0.550 OA
ATOM      9  O   UNL     1      11.030 -15.163 -19.168  1.00  0.00    -0.550 OA
ENDBRANCH   6   7
ENDBRANCH   5   6
ENDBRANCH   4   5
ENDBRANCH   3   4
ENDBRANCH   2   3
ENDBRANCH   1   2
BRANCH   1  10
ATOM     10  C   UNL     1      11.447 -18.886 -23.706  1.00  0.00     0.000 C 
BRANCH  10  11
ATOM     11  C   UNL     1      10.206 -19.788 -23.540  1.00  0.00    -0.000 C 
BRANCH  11  12
ATOM     12  C   UNL     1       9.343 -19.954 -24.805  1.00  0.00    -0.000 C 
BRANCH  12  13
ATOM     13  C   UNL     1       8.350 -18.798 -25.006  1.00  0.00    -0.000 C 
BRANCH  13  14
ATOM     14  C   UNL     1       8.587 -18.026 -26.318  1.00  0.00    -0.000 C 
BRANCH  14  15
ATOM     15  C   UNL     1       9.496 -16.790 -26.191  1.00  0.00    -0.003 C 
ATOM     16  C   UNL     1      10.874 -16.992 -26.819  1.00  0.00     0.004 C 
ENDBRANCH  14  15
ENDBRANCH  13  14
ENDBRANCH  12  13
ENDBRANCH  11  12
ENDBRANCH  10  11
ENDBRANCH   1  10
TORSDOF 12
ENDMDL
MODEL 8
REMARK VINA RESULT:    -3.740      2.884      4.196
REMARK INTER + INTRA:          -7.933
REMARK INTER:                  -6.581
REMARK INTRA:                  -1.352
REMARK UNBOUND:                -1.569
REMARK SMILES CCCCCCCCCCCCCC(=O)[O-]
REMARK SMILES IDX 8 1 9 2 10 3 11 4 12 5 13 6 14 7 15 8 16 9 7 10 6 11 5 12
REMARK SMILES IDX 4 13 3 14 2 15 1 16
REMARK H PARENT
REMARK Flexibility Score: inf
ROOT
ATOM      1  C   UNL     1      10.827 -15.257 -21.095  1.00  0.00     0.000 C 
ENDROOT
BRANCH   1   2
ATOM      2  C   UNL     1       9.948 -14.053 -20.694  1.00  0.00     0.000 C 
BRANCH   2   3
ATOM      3  C   UNL     1      10.097 -12.815 -21.594  1.00  0.00     0.000 C 
BRANCH   3   4
ATOM      4  C   UNL     1      10.857 -13.114 -22.899  1.00  0.00     0.000 C 
BRANCH   4   5
ATOM      5  C   UNL     1       9.946 -13.071 -24.136  1.00  0.00     0.006 C 
BRANCH   5   6
ATOM      6  C   UNL     1       8.788 -12.076 -23.979  1.00  0.00     0.053 C 
BRANCH   6   7
ATOM      7  C   UNL     1       9.204 -10.715 -24.437  1.00  0.00     0.041 C 
ATOM      8  O   UNL     1       8.727  -9.687 -23.886  1.00  0.00    -0.550 OA
ATOM      9  O   UNL     1      10.156 -10.578 -25.439  1.00  0.00    -0.550 OA
ENDBRANCH   6   7
ENDBRANCH   5   6
ENDBRANCH   4   5
ENDBRANCH   3   4
ENDBRANCH   2   3
ENDBRANCH   1   2
BRANCH   1  10
ATOM     10  C   UNL     1      10.048 -16.534 -21.470  1.00  0.00     0.000 C 
BRANCH  10  11
ATOM     11  C   UNL     1       9.758 -16.704 -22.975  1.00  0.00    -0.000 C 
BRANCH  11  12
ATOM     12  C   UNL     1      10.996 -16.678 -23.889  1.00  0.00    -0.000 C 
BRANCH  12  13
ATOM     13  C   UNL     1      11.278 -18.037 -24.552  1.00  0.00    -0.000 C 
BRANCH  13  14
ATOM     14  C   UNL     1      11.495 -19.169 -23.530  1.00  0.00    -0.000 C 
BRANCH  14  15
ATOM     15  C   UNL     1      10.651 -20.433 -23.769  1.00  0.00    -0.003 C 
ATOM     16  C   UNL     1       9.393 -20.486 -22.905  1.00  0.00     0.004 C 
ENDBRANCH  14  15
ENDBRANCH  13  14
ENDBRANCH  12  13
ENDBRANCH  11  12
ENDBRANCH  10  11
ENDBRANCH   1  10
TORSDOF 12
ENDMDL
MODEL 9
REMARK VINA RESULT:    -3.716      4.078      7.104
REMARK INTER + INTRA:          -7.891
REMARK INTER:                  -7.297
REMARK INTRA:                  -0.594
REMARK UNBOUND:                -1.569
REMARK SMILES CCCCCCCCCCCCCC(=O)[O-]
REMARK SMILES IDX 8 1 9 2 10 3 11 4 12 5 13 6 14 7 15 8 16 9 7 10 6 11 5 12
REMARK SMILES IDX 4 13 3 14 2 15 1 16
REMARK H PARENT
REMARK Flexibility Score: inf
ROOT
ATOM      1  C   UNL     1      10.798 -13.452 -23.608  1.00  0.00     0.000 C 
ENDROOT
BRANCH   1   2
ATOM      2  C   UNL     1       9.894 -14.528 -24.244  1.00  0.00     0.000 C 
BRANCH   2   3
ATOM      3  C   UNL     1       9.132 -15.410 -23.240  1.00  0.00     0.000 C 
BRANCH   3   4
ATOM      4  C   UNL     1       9.983 -16.575 -22.703  1.00  0.00     0.000 C 
BRANCH   4   5
ATOM      5  C   UNL     1      10.413 -16.368 -21.242  1.00  0.00     0.006 C 
BRANCH   5   6
ATOM      6  C   UNL     1       9.805 -15.102 -20.624  1.00  0.00     0.053 C 
BRANCH   6   7
ATOM      7  C   UNL     1      10.616 -14.654 -19.450  1.00  0.00     0.041 C 
ATOM      8  O   UNL     1      11.204 -15.500 -18.726  1.00  0.00    -0.550 OA
ATOM      9  O   UNL     1      10.763 -13.299 -19.182  1.00  0.00    -0.550 OA
ENDBRANCH   6   7
ENDBRANCH   5   6
ENDBRANCH   4   5
ENDBRANCH   3   4
ENDBRANCH   2   3
ENDBRANCH   1   2
BRANCH   1  10
ATOM     10  C   UNL     1      10.121 -12.087 -23.377  1.00  0.00     0.000 C 
BRANCH  10  11
ATOM     11  C   UNL     1       9.752 -11.314 -24.659  1.00  0.00    -0.000 C 
BRANCH  11  12
ATOM     12  C   UNL     1       8.546 -10.365 -24.530  1.00  0.00    -0.000 C 
BRANCH  12  13
ATOM     13  C   UNL     1       7.933  -9.990 -25.889  1.00  0.00    -0.000 C 
BRANCH  13  14
ATOM     14  C   UNL     1       8.743  -8.913 -26.635  1.00  0.00    -0.000 C 
BRANCH  14  15
ATOM     15  C   UNL     1       8.047  -8.313 -27.870  1.00  0.00    -0.003 C 
ATOM     16  C   UNL     1       9.020  -7.646 -28.842  1.00  0.00     0.004 C 
ENDBRANCH  14  15
ENDBRANCH  13  14
ENDBRANCH  12  13
ENDBRANCH  11  12
ENDBRANCH  10  11
ENDBRANCH   1  10
TORSDOF 12
ENDMDL
