MODEL 1
REMARK VINA RESULT:    -4.725      0.000      0.000
REMARK INTER + INTRA:          -8.513
REMARK INTER:                  -7.487
REMARK INTRA:                  -1.026
REMARK UNBOUND:                -1.026
REMARK SMILES CCCCCCCCCCCC(=O)[O-]
REMARK SMILES IDX 7 1 8 2 9 3 10 4 11 5 12 6 13 7 14 8 6 9 5 10 4 11 3 12 2 13
REMARK SMILES IDX 1 14
REMARK H PARENT
REMARK Flexibility Score: inf
ROOT
ATOM      1  C   UNL     1       1.095 -21.943 -15.626  1.00  0.00     0.000 C 
ENDROOT
BRANCH   1   2
ATOM      2  C   UNL     1       0.352 -20.772 -14.961  1.00  0.00     0.000 C 
BRANCH   2   3
ATOM      3  C   UNL     1       1.173 -20.108 -13.841  1.00  0.00     0.000 C 
BRANCH   3   4
ATOM      4  C   UNL     1       2.612 -20.640 -13.769  1.00  0.00     0.006 C 
BRANCH   4   5
ATOM      5  C   UNL     1       3.313 -20.268 -12.456  1.00  0.00     0.053 C 
BRANCH   5   6
ATOM      6  C   UNL     1       4.229 -21.370 -12.023  1.00  0.00     0.041 C 
ATOM      7  O   UNL     1       3.799 -22.300 -11.292  1.00  0.00    -0.550 OA
ATOM      8  O   UNL     1       5.569 -21.342 -12.385  1.00  0.00    -0.550 OA
ENDBRANCH   5   6
ENDBRANCH   4   5
ENDBRANCH   3   4
ENDBRANCH   2   3
ENDBRANCH   1   2
BRANCH   1   9
ATOM      9  C   UNL     1       0.192 -22.752 -16.573  1.00  0.00     0.000 C 
BRANCH   9  10
ATOM     10  C   UNL     1      -0.473 -23.950 -15.874  1.00  0.00    -0.000 C 
BRANCH  10  11
ATOM     11  C   UNL     1       0.511 -24.756 -15.013  1.00  0.00    -0.000 C 
BRANCH  11  12
ATOM     12  C   UNL     1      -0.217 -25.460 -13.863  1.00  0.00    -0.000 C 
BRANCH  12  13
ATOM     13  C   UNL     1       0.438 -25.137 -12.515  1.00  0.00    -0.003 C 
ATOM     14  C   UNL     1       0.665 -23.636 -12.358  1.00  0.00     0.004 C 
ENDBRANCH  12  13
ENDBRANCH  11  12
ENDBRANCH  10  11
ENDBRANCH   9  10
ENDBRANCH   1   9
TORSDOF 10
ENDMDL
MODEL 2
REMARK VINA RESULT:    -4.355      1.469      2.564
REMARK INTER + INTRA:          -7.927
REMARK INTER:                  -7.111
REMARK INTRA:                  -0.816
REMARK UNBOUND:                -1.026
REMARK SMILES CCCCCCCCCCCC(=O)[O-]
REMARK SMILES IDX 7 1 8 2 9 3 10 4 11 5 12 6 13 7 14 8 6 9 5 10 4 11 3 12 2 13
REMARK SMILES IDX 1 14
REMARK H PARENT
REMARK Flexibility Score: inf
ROOT
ATOM      1  C   UNL     1      -0.414 -21.090 -14.999  1.00  0.00     0.000 C 
ENDROOT
BRANCH   1   2
ATOM      2  C   UNL     1       0.424 -20.946 -13.719  1.00  0.00     0.000 C 
BRANCH   2   3
ATOM      3  C   UNL     1       1.902 -21.322 -13.930  1.00  0.00     0.000 C 
BRANCH   3   4
ATOM      4  C   UNL     1       2.857 -20.162 -13.614  1.00  0.00     0.006 C 
BRANCH   4   5
ATOM      5  C   UNL     1       3.315 -20.158 -12.150  1.00  0.00     0.053 C 
BRANCH   5   6
ATOM      6  C   UNL     1       4.267 -21.285 -11.897  1.00  0.00     0.041 C 
ATOM      7  O   UNL     1       5.371 -21.329 -12.501  1.00  0.00    -0.550 OA
ATOM      8  O   UNL     1       3.914 -22.313 -11.032  1.00  0.00    -0.550 OA
ENDBRANCH   5   6
ENDBRANCH   4   5
ENDBRANCH   3   4
ENDBRANCH   2   3
ENDBRANCH   1   2
BRANCH   1   9
ATOM      9  C   UNL     1       0.383 -21.714 -16.158  1.00  0.00     0.000 C 
BRANCH   9  10
ATOM     10  C   UNL     1      -0.246 -23.021 -16.670  1.00  0.00    -0.000 C 
BRANCH  10  11
ATOM     11  C   UNL     1      -0.297 -24.116 -15.594  1.00  0.00    -0.000 C 
BRANCH  11  12
ATOM     12  C   UNL     1      -1.739 -24.574 -15.346  1.00  0.00    -0.000 C 
BRANCH  12  13
ATOM     13  C   UNL     1      -2.497 -24.744 -16.668  1.00  0.00    -0.003 C 
ATOM     14  C   UNL     1      -3.833 -24.008 -16.636  1.00  0.00     0.004 C 
ENDBRANCH  12  13
ENDBRANCH  11  12
ENDBRANCH  10  11
ENDBRANCH   9  10
ENDBRANCH   1   9
TORSDOF 10
ENDMDL
MODEL 3
REMARK VINA RESULT:    -4.276      1.007      2.260
REMARK INTER + INTRA:          -7.802
REMARK INTER:                  -6.806
REMARK INTRA:                  -0.996
REMARK UNBOUND:                -1.026
REMARK SMILES CCCCCCCCCCCC(=O)[O-]
REMARK SMILES IDX 7 1 8 2 9 3 10 4 11 5 12 6 13 7 14 8 6 9 5 10 4 11 3 12 2 13
REMARK SMILES IDX 1 14
REMARK H PARENT
REMARK Flexibility Score: inf
ROOT
ATOM      1  C   UNL     1      -0.555 -21.096 -13.524  1.00  0.00     0.000 C 
ENDROOT
BRANCH   1   2
ATOM      2  C   UNL     1       0.894 -21.054 -13.014  1.00  0.00     0.000 C 
BRANCH   2   3
ATOM      3  C   UNL     1       1.010 -20.446 -11.604  1.00  0.00     0.000 C 
BRANCH   3   4
ATOM      4  C   UNL     1       2.419 -19.911 -11.307  1.00  0.00     0.006 C 
BRANCH   4   5
ATOM      5  C   UNL     1       3.422 -20.242 -12.419  1.00  0.00     0.053 C 
BRANCH   5   6
ATOM      6  C   UNL     1       4.476 -21.175 -11.911  1.00  0.00     0.041 C 
ATOM      7  O   UNL     1       5.664 -21.067 -12.314  1.00  0.00    -0.550 OA
ATOM      8  O   UNL     1       4.138 -22.195 -11.032  1.00  0.00    -0.550 OA
ENDBRANCH   5   6
ENDBRANCH   4   5
ENDBRANCH   3   4
ENDBRANCH   2   3
ENDBRANCH   1   2
BRANCH   1   9
ATOM      9  C   UNL     1      -0.643 -21.011 -15.058  1.00  0.00     0.000 C 
BRANCH   9  10
ATOM     10  C   UNL     1       0.605 -21.580 -15.753  1.00  0.00    -0.000 C 
BRANCH  10  11
ATOM     11  C   UNL     1       0.287 -22.786 -16.650  1.00  0.00    -0.000 C 
BRANCH  11  12
ATOM     12  C   UNL     1      -0.462 -23.870 -15.865  1.00  0.00    -0.000 C 
BRANCH  12  13
ATOM     13  C   UNL     1       0.515 -24.766 -15.095  1.00  0.00    -0.003 C 
ATOM     14  C   UNL     1       0.017 -25.034 -13.678  1.00  0.00     0.004 C 
ENDBRANCH  12  13
ENDBRANCH  11  12
ENDBRANCH  10  11
ENDBRANCH   9  10
ENDBRANCH   1   9
TORSDOF 10
ENDMDL
MODEL 4
REMARK VINA RESULT:    -4.274     11.852     13.479
REMARK INTER + INTRA:          -7.797
REMARK INTER:                  -7.000
REMARK INTRA:                  -0.798
REMARK UNBOUND:                -1.026
REMARK SMILES CCCCCCCCCCCC(=O)[O-]
REMARK SMILES IDX 7 1 8 2 9 3 10 4 11 5 12 6 13 7 14 8 6 9 5 10 4 11 3 12 2 13
REMARK SMILES IDX 1 14
REMARK H PARENT
REMARK Flexibility Score: inf
ROOT
ATOM      1  C   UNL     1      -7.128 -20.218  -3.508  1.00  0.00     0.000 C 
ENDROOT
BRANCH   1   2
ATOM      2  C   UNL     1      -6.735 -20.603  -4.944  1.00  0.00     0.000 C 
BRANCH   2   3
ATOM      3  C   UNL     1      -7.425 -19.726  -6.004  1.00  0.00     0.000 C 
BRANCH   3   4
ATOM      4  C   UNL     1      -8.880 -19.395  -5.640  1.00  0.00     0.006 C 
BRANCH   4   5
ATOM      5  C   UNL     1      -9.652 -18.767  -6.807  1.00  0.00     0.053 C 
BRANCH   5   6
ATOM      6  C   UNL     1     -10.462 -19.806  -7.517  1.00  0.00     0.041 C 
ATOM      7  O   UNL     1     -11.051 -20.706  -6.863  1.00  0.00    -0.550 OA
ATOM      8  O   UNL     1     -10.526 -19.809  -8.905  1.00  0.00    -0.550 OA
ENDBRANCH   5   6
ENDBRANCH   4   5
ENDBRANCH   3   4
ENDBRANCH   2   3
ENDBRANCH   1   2
BRANCH   1   9
ATOM      9  C   UNL     1      -6.341 -21.009  -2.449  1.00  0.00     0.000 C 
BRANCH   9  10
ATOM     10  C   UNL     1      -5.814 -22.350  -2.986  1.00  0.00    -0.000 C 
BRANCH  10  11
ATOM     11  C   UNL     1      -4.309 -22.539  -2.736  1.00  0.00    -0.000 C 
BRANCH  11  12
ATOM     12  C   UNL     1      -3.728 -23.605  -3.671  1.00  0.00    -0.000 C 
BRANCH  12  13
ATOM     13  C   UNL     1      -4.421 -23.577  -5.038  1.00  0.00    -0.003 C 
ATOM     14  C   UNL     1      -3.699 -22.641  -6.003  1.00  0.00     0.004 C 
ENDBRANCH  12  13
ENDBRANCH  11  12
ENDBRANCH  10  11
ENDBRANCH   9  10
ENDBRANCH   1   9
TORSDOF 10
ENDMDL
MODEL 5
REMARK VINA RESULT:    -4.264     12.050     13.588
REMARK INTER + INTRA:          -7.783
REMARK INTER:                  -7.087
REMARK INTRA:                  -0.696
REMARK UNBOUND:                -1.026
REMARK SMILES CCCCCCCCCCCC(=O)[O-]
REMARK SMILES IDX 7 1 8 2 9 3 10 4 11 5 12 6 13 7 14 8 6 9 5 10 4 11 3 12 2 13
REMARK SMILES IDX 1 14
REMARK H PARENT
REMARK Flexibility Score: inf
ROOT
ATOM      1  C   UNL     1      -6.747 -20.302  -4.363  1.00  0.00     0.000 C 
ENDROOT
BRANCH   1   2
ATOM      2  C   UNL     1      -8.046 -19.519  -4.615  1.00  0.00     0.000 C 
BRANCH   2   3
ATOM      3  C   UNL     1      -8.022 -18.742  -5.944  1.00  0.00     0.000 C 
BRANCH   3   4
ATOM      4  C   UNL     1      -9.430 -18.393  -6.448  1.00  0.00     0.006 C 
BRANCH   4   5
ATOM      5  C   UNL     1      -9.616 -18.702  -7.939  1.00  0.00     0.053 C 
BRANCH   5   6
ATOM      6  C   UNL     1     -10.287 -20.028  -8.118  1.00  0.00     0.041 C 
ATOM      7  O   UNL     1     -10.308 -20.579  -9.250  1.00  0.00    -0.550 OA
ATOM      8  O   UNL     1     -10.934 -20.631  -7.047  1.00  0.00    -0.550 OA
ENDBRANCH   5   6
ENDBRANCH   4   5
ENDBRANCH   3   4
ENDBRANCH   2   3
ENDBRANCH   1   2
BRANCH   1   9
ATOM      9  C   UNL     1      -6.539 -20.634  -2.875  1.00  0.00     0.000 C 
BRANCH   9  10
ATOM     10  C   UNL     1      -6.161 -22.107  -2.647  1.00  0.00    -0.000 C 
BRANCH  10  11
ATOM     11  C   UNL     1      -4.700 -22.409  -3.013  1.00  0.00    -0.000 C 
BRANCH  11  12
ATOM     12  C   UNL     1      -4.620 -23.393  -4.185  1.00  0.00    -0.000 C 
BRANCH  12  13
ATOM     13  C   UNL     1      -6.000 -23.980  -4.506  1.00  0.00    -0.003 C 
ATOM     14  C   UNL     1      -6.228 -24.062  -6.013  1.00  0.00     0.004 C 
ENDBRANCH  12  13
ENDBRANCH  11  12
ENDBRANCH  10  11
ENDBRANCH   9  10
ENDBRANCH   1   9
TORSDOF 10
ENDMDL
MODEL 6
REMARK VINA RESULT:    -4.226     11.798     13.221
REMARK INTER + INTRA:          -7.721
REMARK INTER:                  -6.606
REMARK INTRA:                  -1.115
REMARK UNBOUND:                -1.026
REMARK SMILES CCCCCCCCCCCC(=O)[O-]
REMARK SMILES IDX 7 1 8 2 9 3 10 4 11 5 12 6 13 7 14 8 6 9 5 10 4 11 3 12 2 13
REMARK SMILES IDX 1 14
REMARK H PARENT
REMARK Flexibility Score: inf
ROOT
ATOM      1  C   UNL     1      -5.811 -20.695  -6.505  1.00  0.00     0.000 C 
ENDROOT
BRANCH   1   2
ATOM      2  C   UNL     1      -6.629 -19.479  -6.044  1.00  0.00     0.000 C 
BRANCH   2   3
ATOM      3  C   UNL     1      -7.946 -19.877  -5.352  1.00  0.00     0.000 C 
BRANCH   3   4
ATOM      4  C   UNL     1      -9.131 -19.004  -5.793  1.00  0.00     0.006 C 
BRANCH   4   5
ATOM      5  C   UNL     1      -9.246 -18.894  -7.318  1.00  0.00     0.053 C 
BRANCH   5   6
ATOM      6  C   UNL     1     -10.296 -19.830  -7.832  1.00  0.00     0.041 C 
ATOM      7  O   UNL     1     -10.534 -19.898  -9.066  1.00  0.00    -0.550 OA
ATOM      8  O   UNL     1     -11.046 -20.589  -6.943  1.00  0.00    -0.550 OA
ENDBRANCH   5   6
ENDBRANCH   4   5
ENDBRANCH   3   4
ENDBRANCH   2   3
ENDBRANCH   1   2
BRANCH   1   9
ATOM      9  C   UNL     1      -6.463 -22.030  -6.107  1.00  0.00     0.000 C 
BRANCH   9  10
ATOM     10  C   UNL     1      -5.431 -23.146  -5.875  1.00  0.00    -0.000 C 
BRANCH  10  11
ATOM     11  C   UNL     1      -4.902 -23.175  -4.433  1.00  0.00    -0.000 C 
BRANCH  11  12
ATOM     12  C   UNL     1      -5.999 -22.775  -3.439  1.00  0.00    -0.000 C 
BRANCH  12  13
ATOM     13  C   UNL     1      -5.443 -21.855  -2.346  1.00  0.00    -0.003 C 
ATOM     14  C   UNL     1      -6.401 -20.705  -2.053  1.00  0.00     0.004 C 
ENDBRANCH  12  13
ENDBRANCH  11  12
ENDBRANCH  10  11
ENDBRANCH   9  10
ENDBRANCH   1   9
TORSDOF 10
ENDMDL
MODEL 7
REMARK VINA RESULT:    -4.218      1.000      2.561
REMARK INTER + INTRA:          -7.710
REMARK INTER:                  -6.423
REMARK INTRA:                  -1.287
REMARK UNBOUND:                -1.026
REMARK SMILES CCCCCCCCCCCC(=O)[O-]
REMARK SMILES IDX 7 1 8 2 9 3 10 4 11 5 12 6 13 7 14 8 6 9 5 10 4 11 3 12 2 13
REMARK SMILES IDX 1 14
REMARK H PARENT
REMARK Flexibility Score: inf
ROOT
ATOM      1  C   UNL     1      -0.751 -21.557 -12.983  1.00  0.00     0.000 C 
ENDROOT
BRANCH   1   2
ATOM      2  C   UNL     1       0.259 -20.567 -13.584  1.00  0.00     0.000 C 
BRANCH   2   3
ATOM      3  C   UNL     1       1.589 -21.237 -13.974  1.00  0.00     0.000 C 
BRANCH   3   4
ATOM      4  C   UNL     1       2.809 -20.371 -13.631  1.00  0.00     0.006 C 
BRANCH   4   5
ATOM      5  C   UNL     1       3.130 -20.373 -12.131  1.00  0.00     0.053 C 
BRANCH   5   6
ATOM      6  C   UNL     1       4.241 -21.331 -11.834  1.00  0.00     0.041 C 
ATOM      7  O   UNL     1       5.274 -21.343 -12.554  1.00  0.00    -0.550 OA
ATOM      8  O   UNL     1       4.114 -22.243 -10.796  1.00  0.00    -0.550 OA
ENDBRANCH   5   6
ENDBRANCH   4   5
ENDBRANCH   3   4
ENDBRANCH   2   3
ENDBRANCH   1   2
BRANCH   1   9
ATOM      9  C   UNL     1      -0.173 -22.337 -11.790  1.00  0.00     0.000 C 
BRANCH   9  10
ATOM     10  C   UNL     1      -0.458 -23.846 -11.877  1.00  0.00    -0.000 C 
BRANCH  10  11
ATOM     11  C   UNL     1       0.573 -24.596 -12.734  1.00  0.00    -0.000 C 
BRANCH  11  12
ATOM     12  C   UNL     1      -0.080 -25.177 -13.993  1.00  0.00    -0.000 C 
BRANCH  12  13
ATOM     13  C   UNL     1       0.489 -24.526 -15.260  1.00  0.00    -0.003 C 
ATOM     14  C   UNL     1      -0.591 -23.761 -16.018  1.00  0.00     0.004 C 
ENDBRANCH  12  13
ENDBRANCH  11  12
ENDBRANCH  10  11
ENDBRANCH   9  10
ENDBRANCH   1   9
TORSDOF 10
ENDMDL
MODEL 8
REMARK VINA RESULT:    -4.114     11.572     13.121
REMARK INTER + INTRA:          -7.544
REMARK INTER:                  -6.502
REMARK INTRA:                  -1.042
REMARK UNBOUND:                -1.026
REMARK SMILES CCCCCCCCCCCC(=O)[O-]
REMARK SMILES IDX 7 1 8 2 9 3 10 4 11 5 12 6 13 7 14 8 6 9 5 10 4 11 3 12 2 13
REMARK SMILES IDX 1 14
REMARK H PARENT
REMARK Flexibility Score: inf
ROOT
ATOM      1  C   UNL     1      -5.900 -21.058  -3.813  1.00  0.00     0.000 C 
ENDROOT
BRANCH   1   2
ATOM      2  C   UNL     1      -7.114 -20.126  -3.948  1.00  0.00     0.000 C 
BRANCH   2   3
ATOM      3  C   UNL     1      -7.562 -19.942  -5.409  1.00  0.00     0.000 C 
BRANCH   3   4
ATOM      4  C   UNL     1      -8.975 -19.351  -5.523  1.00  0.00     0.006 C 
BRANCH   4   5
ATOM      5  C   UNL     1      -9.323 -18.927  -6.955  1.00  0.00     0.053 C 
BRANCH   5   6
ATOM      6  C   UNL     1     -10.340 -19.855  -7.543  1.00  0.00     0.041 C 
ATOM      7  O   UNL     1     -11.003 -20.622  -6.796  1.00  0.00    -0.550 OA
ATOM      8  O   UNL     1     -10.519 -19.910  -8.919  1.00  0.00    -0.550 OA
ENDBRANCH   5   6
ENDBRANCH   4   5
ENDBRANCH   3   4
ENDBRANCH   2   3
ENDBRANCH   1   2
BRANCH   1   9
ATOM      9  C   UNL     1      -6.304 -22.534  -3.657  1.00  0.00     0.000 C 
BRANCH   9  10
ATOM     10  C   UNL     1      -5.168 -23.500  -4.034  1.00  0.00    -0.000 C 
BRANCH  10  11
ATOM     11  C   UNL     1      -5.326 -24.077  -5.449  1.00  0.00    -0.000 C 
BRANCH  11  12
ATOM     12  C   UNL     1      -6.750 -23.860  -5.974  1.00  0.00    -0.000 C 
BRANCH  12  13
ATOM     13  C   UNL     1      -6.734 -23.177  -7.347  1.00  0.00    -0.003 C 
ATOM     14  C   UNL     1      -5.522 -22.262  -7.493  1.00  0.00     0.004 C 
ENDBRANCH  12  13
ENDBRANCH  11  12
ENDBRANCH  10  11
ENDBRANCH   9  10
ENDBRANCH   1   9
TORSDOF 10
ENDMDL
MODEL 9
REMARK VINA RESULT:    -4.045      1.190      3.307
REMARK INTER + INTRA:          -7.436
REMARK INTER:                  -6.199
REMARK INTRA:                  -1.236
REMARK UNBOUND:                -1.026
REMARK SMILES CCCCCCCCCCCC(=O)[O-]
REMARK SMILES IDX 7 1 8 2 9 3 10 4 11 5 12 6 13 7 14 8 6 9 5 10 4 11 3 12 2 13
REMARK SMILES IDX 1 14
REMARK H PARENT
REMARK Flexibility Score: inf
ROOT
ATOM      1  C   UNL     1       0.526 -24.781 -13.374  1.00  0.00     0.000 C 
ENDROOT
BRANCH   1   2
ATOM      2  C   UNL     1      -0.641 -24.000 -12.750  1.00  0.00     0.000 C 
BRANCH   2   3
ATOM      3  C   UNL     1      -0.175 -22.756 -11.973  1.00  0.00     0.000 C 
BRANCH   3   4
ATOM      4  C   UNL     1       1.050 -23.037 -11.090  1.00  0.00     0.006 C 
BRANCH   4   5
ATOM      5  C   UNL     1       2.077 -21.899 -11.127  1.00  0.00     0.053 C 
BRANCH   5   6
ATOM      6  C   UNL     1       3.447 -22.420 -10.823  1.00  0.00     0.041 C 
ATOM      7  O   UNL     1       4.459 -21.878 -11.338  1.00  0.00    -0.550 OA
ATOM      8  O   UNL     1       3.602 -23.536 -10.011  1.00  0.00    -0.550 OA
ENDBRANCH   5   6
ENDBRANCH   4   5
ENDBRANCH   3   4
ENDBRANCH   2   3
ENDBRANCH   1   2
BRANCH   1   9
ATOM      9  C   UNL     1       0.394 -24.919 -14.901  1.00  0.00     0.000 C 
BRANCH   9  10
ATOM     10  C   UNL     1      -0.632 -23.940 -15.495  1.00  0.00    -0.000 C 
BRANCH  10  11
ATOM     11  C   UNL     1      -0.004 -22.957 -16.496  1.00  0.00    -0.000 C 
BRANCH  11  12
ATOM     12  C   UNL     1       0.974 -22.009 -15.792  1.00  0.00    -0.000 C 
BRANCH  12  13
ATOM     13  C   UNL     1       0.227 -20.879 -15.075  1.00  0.00    -0.003 C 
ATOM     14  C   UNL     1       1.173 -20.057 -14.205  1.00  0.00     0.004 C 
ENDBRANCH  12  13
ENDBRANCH  11  12
ENDBRANCH  10  11
ENDBRANCH   9  10
ENDBRANCH   1   9
TORSDOF 10
ENDMDL
