MODEL 1
REMARK VINA RESULT:    -4.977      0.000      0.000
REMARK INTER + INTRA:         -11.973
REMARK INTER:                  -9.050
REMARK INTRA:                  -2.923
REMARK UNBOUND:                -2.923
REMARK SMILES CCCCCC=CCC=CCCCCCCCC(=O)[O-]
REMARK SMILES IDX 11 1 12 2 13 3 14 4 15 5 16 6 17 7 18 8 19 9 20 10 10 11
REMARK SMILES IDX 9 12 8 13 7 14 6 15 5 16 4 17 3 18 2 19 1 20
REMARK H PARENT
REMARK Flexibility Score: inf
ROOT
ATOM      1  C   UNL     1       0.392  -4.676  -5.801  1.00  0.00     0.027 C 
ENDROOT
BRANCH   1   2
ATOM      2  C   UNL     1       1.618  -3.831  -6.172  1.00  0.00     0.004 C 
BRANCH   2   3
ATOM      3  C   UNL     1       1.973  -2.807  -5.081  1.00  0.00     0.000 C 
BRANCH   3   4
ATOM      4  C   UNL     1       3.487  -2.772  -4.786  1.00  0.00     0.000 C 
BRANCH   4   5
ATOM      5  C   UNL     1       4.326  -3.594  -5.779  1.00  0.00     0.000 C 
BRANCH   5   6
ATOM      6  C   UNL     1       5.119  -4.723  -5.101  1.00  0.00     0.006 C 
BRANCH   6   7
ATOM      7  C   UNL     1       4.579  -6.112  -5.467  1.00  0.00     0.053 C 
BRANCH   7   8
ATOM      8  C   UNL     1       4.675  -6.376  -6.939  1.00  0.00     0.041 C 
ATOM      9  O   UNL     1       3.629  -6.482  -7.632  1.00  0.00    -0.550 OA
ATOM     10  O   UNL     1       5.918  -6.462  -7.552  1.00  0.00    -0.550 OA
ENDBRANCH   7   8
ENDBRANCH   6   7
ENDBRANCH   5   6
ENDBRANCH   4   5
ENDBRANCH   3   4
ENDBRANCH   2   3
ENDBRANCH   1   2
BRANCH   1  11
ATOM     11  C   UNL     1       0.735  -6.139  -5.657  1.00  0.00    -0.031 C 
ATOM     12  C   UNL     1       1.213  -6.709  -4.536  1.00  0.00    -0.027 C 
BRANCH  12  13
ATOM     13  C   UNL     1       1.546  -5.963  -3.266  1.00  0.00     0.054 C 
BRANCH  13  14
ATOM     14  C   UNL     1       0.729  -6.455  -2.099  1.00  0.00    -0.027 C 
ATOM     15  C   UNL     1      -0.221  -5.742  -1.465  1.00  0.00    -0.031 C 
BRANCH  15  16
ATOM     16  C   UNL     1      -0.617  -4.323  -1.800  1.00  0.00     0.027 C 
BRANCH  16  17
ATOM     17  C   UNL     1      -1.646  -4.284  -2.940  1.00  0.00     0.004 C 
BRANCH  17  18
ATOM     18  C   UNL     1      -2.612  -5.482  -2.939  1.00  0.00     0.000 C 
BRANCH  18  19
ATOM     19  C   UNL     1      -2.660  -6.197  -4.297  1.00  0.00    -0.003 C 
ATOM     20  C   UNL     1      -2.985  -7.677  -4.129  1.00  0.00     0.004 C 
ENDBRANCH  18  19
ENDBRANCH  17  18
ENDBRANCH  16  17
ENDBRANCH  15  16
ENDBRANCH  13  14
ENDBRANCH  12  13
ENDBRANCH   1  11
TORSDOF 14
ENDMDL
MODEL 2
REMARK VINA RESULT:    -4.964      2.833      6.257
REMARK INTER + INTRA:         -11.950
REMARK INTER:                  -8.745
REMARK INTRA:                  -3.205
REMARK UNBOUND:                -2.923
REMARK SMILES CCCCCC=CCC=CCCCCCCCC(=O)[O-]
REMARK SMILES IDX 11 1 12 2 13 3 14 4 15 5 16 6 17 7 18 8 19 9 20 10 10 11
REMARK SMILES IDX 9 12 8 13 7 14 6 15 5 16 4 17 3 18 2 19 1 20
REMARK H PARENT
REMARK Flexibility Score: inf
ROOT
ATOM      1  C   UNL     1       1.541  -6.815  -3.875  1.00  0.00     0.027 C 
ENDROOT
BRANCH   1   2
ATOM      2  C   UNL     1       1.081  -6.631  -2.421  1.00  0.00     0.004 C 
BRANCH   2   3
ATOM      3  C   UNL     1       0.733  -5.168  -2.101  1.00  0.00     0.000 C 
BRANCH   3   4
ATOM      4  C   UNL     1      -0.772  -4.976  -1.819  1.00  0.00     0.000 C 
BRANCH   4   5
ATOM      5  C   UNL     1      -1.515  -4.221  -2.935  1.00  0.00     0.000 C 
BRANCH   5   6
ATOM      6  C   UNL     1      -2.782  -4.951  -3.409  1.00  0.00     0.006 C 
BRANCH   6   7
ATOM      7  C   UNL     1      -3.007  -6.269  -2.655  1.00  0.00     0.053 C 
BRANCH   7   8
ATOM      8  C   UNL     1      -2.889  -7.456  -3.562  1.00  0.00     0.041 C 
ATOM      9  O   UNL     1      -3.251  -7.371  -4.765  1.00  0.00    -0.550 OA
ATOM     10  O   UNL     1      -2.340  -8.642  -3.090  1.00  0.00    -0.550 OA
ENDBRANCH   7   8
ENDBRANCH   6   7
ENDBRANCH   5   6
ENDBRANCH   4   5
ENDBRANCH   3   4
ENDBRANCH   2   3
ENDBRANCH   1   2
BRANCH   1  11
ATOM     11  C   UNL     1       0.377  -6.838  -4.837  1.00  0.00    -0.031 C 
ATOM     12  C   UNL     1       0.247  -6.027  -5.902  1.00  0.00    -0.027 C 
BRANCH  12  13
ATOM     13  C   UNL     1       1.208  -4.920  -6.265  1.00  0.00     0.054 C 
BRANCH  13  14
ATOM     14  C   UNL     1       0.770  -3.593  -5.700  1.00  0.00    -0.027 C 
ATOM     15  C   UNL     1       1.516  -2.811  -4.897  1.00  0.00    -0.031 C 
BRANCH  15  16
ATOM     16  C   UNL     1       2.908  -3.138  -4.408  1.00  0.00     0.027 C 
BRANCH  16  17
ATOM     17  C   UNL     1       3.978  -2.638  -5.391  1.00  0.00     0.004 C 
BRANCH  17  18
ATOM     18  C   UNL     1       4.991  -3.722  -5.801  1.00  0.00     0.000 C 
BRANCH  18  19
ATOM     19  C   UNL     1       4.735  -5.061  -5.095  1.00  0.00    -0.003 C 
ATOM     20  C   UNL     1       4.700  -6.212  -6.094  1.00  0.00     0.004 C 
ENDBRANCH  18  19
ENDBRANCH  17  18
ENDBRANCH  16  17
ENDBRANCH  15  16
ENDBRANCH  13  14
ENDBRANCH  12  13
ENDBRANCH   1  11
TORSDOF 14
ENDMDL
MODEL 3
REMARK VINA RESULT:    -4.955      2.817      6.502
REMARK INTER + INTRA:         -11.934
REMARK INTER:                  -9.491
REMARK INTRA:                  -2.443
REMARK UNBOUND:                -2.923
REMARK SMILES CCCCCC=CCC=CCCCCCCCC(=O)[O-]
REMARK SMILES IDX 11 1 12 2 13 3 14 4 15 5 16 6 17 7 18 8 19 9 20 10 10 11
REMARK SMILES IDX 9 12 8 13 7 14 6 15 5 16 4 17 3 18 2 19 1 20
REMARK H PARENT
REMARK Flexibility Score: inf
ROOT
ATOM      1  C   UNL     1       1.464  -3.185  -3.609  1.00  0.00     0.027 C 
ENDROOT
BRANCH   1   2
ATOM      2  C   UNL     1       0.114  -2.788  -2.994  1.00  0.00     0.004 C 
BRANCH   2   3
ATOM      3  C   UNL     1      -0.310  -3.731  -1.857  1.00  0.00     0.000 C 
BRANCH   3   4
ATOM      4  C   UNL     1       0.314  -5.135  -2.002  1.00  0.00     0.000 C 
BRANCH   4   5
ATOM      5  C   UNL     1      -0.421  -6.221  -1.197  1.00  0.00     0.000 C 
BRANCH   5   6
ATOM      6  C   UNL     1      -1.240  -7.172  -2.085  1.00  0.00     0.006 C 
BRANCH   6   7
ATOM      7  C   UNL     1      -2.714  -6.757  -2.173  1.00  0.00     0.053 C 
BRANCH   7   8
ATOM      8  C   UNL     1      -2.971  -5.860  -3.346  1.00  0.00     0.041 C 
ATOM      9  O   UNL     1      -2.557  -6.183  -4.490  1.00  0.00    -0.550 OA
ATOM     10  O   UNL     1      -3.705  -4.692  -3.184  1.00  0.00    -0.550 OA
ENDBRANCH   7   8
ENDBRANCH   6   7
ENDBRANCH   5   6
ENDBRANCH   4   5
ENDBRANCH   3   4
ENDBRANCH   2   3
ENDBRANCH   1   2
BRANCH   1  11
ATOM     11  C   UNL     1       1.659  -2.588  -4.981  1.00  0.00    -0.031 C 
ATOM     12  C   UNL     1       1.267  -3.164  -6.132  1.00  0.00    -0.027 C 
BRANCH  12  13
ATOM     13  C   UNL     1       0.633  -4.531  -6.238  1.00  0.00     0.054 C 
BRANCH  13  14
ATOM     14  C   UNL     1       1.523  -5.504  -6.968  1.00  0.00    -0.027 C 
ATOM     15  C   UNL     1       2.367  -6.372  -6.379  1.00  0.00    -0.031 C 
BRANCH  15  16
ATOM     16  C   UNL     1       2.581  -6.506  -4.889  1.00  0.00     0.027 C 
BRANCH  16  17
ATOM     17  C   UNL     1       4.076  -6.468  -4.534  1.00  0.00     0.004 C 
BRANCH  17  18
ATOM     18  C   UNL     1       4.909  -5.576  -5.471  1.00  0.00     0.000 C 
BRANCH  18  19
ATOM     19  C   UNL     1       4.919  -4.106  -5.026  1.00  0.00    -0.003 C 
ATOM     20  C   UNL     1       5.221  -3.178  -6.198  1.00  0.00     0.004 C 
ENDBRANCH  18  19
ENDBRANCH  17  18
ENDBRANCH  16  17
ENDBRANCH  15  16
ENDBRANCH  13  14
ENDBRANCH  12  13
ENDBRANCH   1  11
TORSDOF 14
ENDMDL
MODEL 4
REMARK VINA RESULT:    -4.912      2.940      6.427
REMARK INTER + INTRA:         -11.855
REMARK INTER:                  -9.895
REMARK INTRA:                  -1.961
REMARK UNBOUND:                -2.923
REMARK SMILES CCCCCC=CCC=CCCCCCCCC(=O)[O-]
REMARK SMILES IDX 11 1 12 2 13 3 14 4 15 5 16 6 17 7 18 8 19 9 20 10 10 11
REMARK SMILES IDX 9 12 8 13 7 14 6 15 5 16 4 17 3 18 2 19 1 20
REMARK H PARENT
REMARK Flexibility Score: inf
ROOT
ATOM      1  C   UNL     1       1.232  -3.776  -3.591  1.00  0.00     0.027 C 
ENDROOT
BRANCH   1   2
ATOM      2  C   UNL     1      -0.046  -3.458  -2.802  1.00  0.00     0.004 C 
BRANCH   2   3
ATOM      3  C   UNL     1      -0.075  -4.158  -1.433  1.00  0.00     0.000 C 
BRANCH   3   4
ATOM      4  C   UNL     1       0.550  -5.567  -1.486  1.00  0.00     0.000 C 
BRANCH   4   5
ATOM      5  C   UNL     1      -0.456  -6.673  -1.851  1.00  0.00     0.000 C 
BRANCH   5   6
ATOM      6  C   UNL     1      -1.851  -6.432  -1.252  1.00  0.00     0.006 C 
BRANCH   6   7
ATOM      7  C   UNL     1      -2.974  -6.879  -2.198  1.00  0.00     0.053 C 
BRANCH   7   8
ATOM      8  C   UNL     1      -3.035  -6.029  -3.430  1.00  0.00     0.041 C 
ATOM      9  O   UNL     1      -3.424  -4.834  -3.354  1.00  0.00    -0.550 OA
ATOM     10  O   UNL     1      -2.622  -6.542  -4.653  1.00  0.00    -0.550 OA
ENDBRANCH   7   8
ENDBRANCH   6   7
ENDBRANCH   5   6
ENDBRANCH   4   5
ENDBRANCH   3   4
ENDBRANCH   2   3
ENDBRANCH   1   2
BRANCH   1  11
ATOM     11  C   UNL     1       1.512  -2.743  -4.656  1.00  0.00    -0.031 C 
ATOM     12  C   UNL     1       2.733  -2.452  -5.141  1.00  0.00    -0.027 C 
BRANCH  12  13
ATOM     13  C   UNL     1       4.023  -3.063  -4.649  1.00  0.00     0.054 C 
BRANCH  13  14
ATOM     14  C   UNL     1       4.899  -3.512  -5.790  1.00  0.00    -0.027 C 
ATOM     15  C   UNL     1       4.743  -4.658  -6.480  1.00  0.00    -0.031 C 
BRANCH  15  16
ATOM     16  C   UNL     1       3.678  -5.697  -6.216  1.00  0.00     0.027 C 
BRANCH  16  17
ATOM     17  C   UNL     1       4.150  -6.733  -5.184  1.00  0.00     0.004 C 
BRANCH  17  18
ATOM     18  C   UNL     1       3.220  -6.855  -3.964  1.00  0.00     0.000 C 
BRANCH  18  19
ATOM     19  C   UNL     1       3.830  -7.710  -2.844  1.00  0.00    -0.003 C 
ATOM     20  C   UNL     1       3.321  -9.146  -2.909  1.00  0.00     0.004 C 
ENDBRANCH  18  19
ENDBRANCH  17  18
ENDBRANCH  16  17
ENDBRANCH  15  16
ENDBRANCH  13  14
ENDBRANCH  12  13
ENDBRANCH   1  11
TORSDOF 14
ENDMDL
MODEL 5
REMARK VINA RESULT:    -4.862      1.471      2.728
REMARK INTER + INTRA:         -11.764
REMARK INTER:                  -8.700
REMARK INTRA:                  -3.064
REMARK UNBOUND:                -2.923
REMARK SMILES CCCCCC=CCC=CCCCCCCCC(=O)[O-]
REMARK SMILES IDX 11 1 12 2 13 3 14 4 15 5 16 6 17 7 18 8 19 9 20 10 10 11
REMARK SMILES IDX 9 12 8 13 7 14 6 15 5 16 4 17 3 18 2 19 1 20
REMARK H PARENT
REMARK Flexibility Score: inf
ROOT
ATOM      1  C   UNL     1       1.343  -4.184  -3.549  1.00  0.00     0.027 C 
ENDROOT
BRANCH   1   2
ATOM      2  C   UNL     1       1.916  -2.966  -4.288  1.00  0.00     0.004 C 
BRANCH   2   3
ATOM      3  C   UNL     1       1.763  -3.085  -5.814  1.00  0.00     0.000 C 
BRANCH   3   4
ATOM      4  C   UNL     1       1.098  -4.414  -6.230  1.00  0.00     0.000 C 
BRANCH   4   5
ATOM      5  C   UNL     1       2.036  -5.351  -7.011  1.00  0.00     0.000 C 
BRANCH   5   6
ATOM      6  C   UNL     1       2.223  -6.715  -6.326  1.00  0.00     0.006 C 
BRANCH   6   7
ATOM      7  C   UNL     1       3.277  -6.663  -5.211  1.00  0.00     0.053 C 
BRANCH   7   8
ATOM      8  C   UNL     1       4.536  -5.990  -5.666  1.00  0.00     0.041 C 
ATOM      9  O   UNL     1       4.902  -4.910  -5.133  1.00  0.00    -0.550 OA
ATOM     10  O   UNL     1       5.326  -6.578  -6.645  1.00  0.00    -0.550 OA
ENDBRANCH   7   8
ENDBRANCH   6   7
ENDBRANCH   5   6
ENDBRANCH   4   5
ENDBRANCH   3   4
ENDBRANCH   2   3
ENDBRANCH   1   2
BRANCH   1  11
ATOM     11  C   UNL     1       0.286  -3.791  -2.545  1.00  0.00    -0.031 C 
ATOM     12  C   UNL     1      -0.013  -4.487  -1.433  1.00  0.00    -0.027 C 
BRANCH  12  13
ATOM     13  C   UNL     1       0.612  -5.806  -1.050  1.00  0.00     0.054 C 
BRANCH  13  14
ATOM     14  C   UNL     1      -0.409  -6.914  -0.995  1.00  0.00    -0.027 C 
ATOM     15  C   UNL     1      -0.606  -7.833  -1.959  1.00  0.00    -0.031 C 
BRANCH  15  16
ATOM     16  C   UNL     1       0.147  -7.899  -3.268  1.00  0.00     0.027 C 
BRANCH  16  17
ATOM     17  C   UNL     1      -0.808  -7.810  -4.468  1.00  0.00     0.004 C 
BRANCH  17  18
ATOM     18  C   UNL     1      -1.393  -6.403  -4.686  1.00  0.00     0.000 C 
BRANCH  18  19
ATOM     19  C   UNL     1      -2.873  -6.316  -4.286  1.00  0.00    -0.003 C 
ATOM     20  C   UNL     1      -3.099  -5.219  -3.251  1.00  0.00     0.004 C 
ENDBRANCH  18  19
ENDBRANCH  17  18
ENDBRANCH  16  17
ENDBRANCH  15  16
ENDBRANCH  13  14
ENDBRANCH  12  13
ENDBRANCH   1  11
TORSDOF 14
ENDMDL
MODEL 6
REMARK VINA RESULT:    -4.812      3.266      6.469
REMARK INTER + INTRA:         -11.674
REMARK INTER:                  -8.921
REMARK INTRA:                  -2.752
REMARK UNBOUND:                -2.923
REMARK SMILES CCCCCC=CCC=CCCCCCCCC(=O)[O-]
REMARK SMILES IDX 11 1 12 2 13 3 14 4 15 5 16 6 17 7 18 8 19 9 20 10 10 11
REMARK SMILES IDX 9 12 8 13 7 14 6 15 5 16 4 17 3 18 2 19 1 20
REMARK H PARENT
REMARK Flexibility Score: inf
ROOT
ATOM      1  C   UNL     1       0.424  -4.697  -1.034  1.00  0.00     0.027 C 
ENDROOT
BRANCH   1   2
ATOM      2  C   UNL     1       0.306  -6.190  -1.372  1.00  0.00     0.004 C 
BRANCH   2   3
ATOM      3  C   UNL     1       1.262  -6.610  -2.502  1.00  0.00     0.000 C 
BRANCH   3   4
ATOM      4  C   UNL     1       0.748  -7.846  -3.270  1.00  0.00     0.000 C 
BRANCH   4   5
ATOM      5  C   UNL     1      -0.121  -7.494  -4.490  1.00  0.00     0.000 C 
BRANCH   5   6
ATOM      6  C   UNL     1      -1.627  -7.587  -4.197  1.00  0.00     0.006 C 
BRANCH   6   7
ATOM      7  C   UNL     1      -2.350  -6.259  -4.455  1.00  0.00     0.053 C 
BRANCH   7   8
ATOM      8  C   UNL     1      -3.075  -5.773  -3.237  1.00  0.00     0.041 C 
ATOM      9  O   UNL     1      -3.686  -4.673  -3.262  1.00  0.00    -0.550 OA
ATOM     10  O   UNL     1      -3.112  -6.556  -2.090  1.00  0.00    -0.550 OA
ENDBRANCH   7   8
ENDBRANCH   6   7
ENDBRANCH   5   6
ENDBRANCH   4   5
ENDBRANCH   3   4
ENDBRANCH   2   3
ENDBRANCH   1   2
BRANCH   1  11
ATOM     11  C   UNL     1      -0.465  -3.847  -1.908  1.00  0.00    -0.031 C 
ATOM     12  C   UNL     1      -0.058  -3.189  -3.009  1.00  0.00    -0.027 C 
BRANCH  12  13
ATOM     13  C   UNL     1       1.368  -3.142  -3.505  1.00  0.00     0.054 C 
BRANCH  13  14
ATOM     14  C   UNL     1       1.469  -2.472  -4.851  1.00  0.00    -0.027 C 
ATOM     15  C   UNL     1       1.355  -3.098  -6.037  1.00  0.00    -0.031 C 
BRANCH  15  16
ATOM     16  C   UNL     1       1.127  -4.581  -6.223  1.00  0.00     0.027 C 
BRANCH  16  17
ATOM     17  C   UNL     1       2.416  -5.296  -6.655  1.00  0.00     0.004 C 
BRANCH  17  18
ATOM     18  C   UNL     1       3.238  -5.848  -5.477  1.00  0.00     0.000 C 
BRANCH  18  19
ATOM     19  C   UNL     1       4.381  -4.907  -5.067  1.00  0.00    -0.003 C 
ATOM     20  C   UNL     1       4.867  -4.083  -6.254  1.00  0.00     0.004 C 
ENDBRANCH  18  19
ENDBRANCH  17  18
ENDBRANCH  16  17
ENDBRANCH  15  16
ENDBRANCH  13  14
ENDBRANCH  12  13
ENDBRANCH   1  11
TORSDOF 14
ENDMDL
MODEL 7
REMARK VINA RESULT:    -4.797      3.008      6.238
REMARK INTER + INTRA:         -11.647
REMARK INTER:                  -9.487
REMARK INTRA:                  -2.159
REMARK UNBOUND:                -2.923
REMARK SMILES CCCCCC=CCC=CCCCCCCCC(=O)[O-]
REMARK SMILES IDX 11 1 12 2 13 3 14 4 15 5 16 6 17 7 18 8 19 9 20 10 10 11
REMARK SMILES IDX 9 12 8 13 7 14 6 15 5 16 4 17 3 18 2 19 1 20
REMARK H PARENT
REMARK Flexibility Score: inf
ROOT
ATOM      1  C   UNL     1       2.537  -6.616  -4.241  1.00  0.00     0.027 C 
ENDROOT
BRANCH   1   2
ATOM      2  C   UNL     1       1.962  -6.814  -2.831  1.00  0.00     0.004 C 
BRANCH   2   3
ATOM      3  C   UNL     1       0.658  -7.629  -2.842  1.00  0.00     0.000 C 
BRANCH   3   4
ATOM      4  C   UNL     1      -0.120  -7.501  -1.515  1.00  0.00     0.000 C 
BRANCH   4   5
ATOM      5  C   UNL     1      -1.206  -8.575  -1.334  1.00  0.00     0.000 C 
BRANCH   5   6
ATOM      6  C   UNL     1      -2.621  -8.050  -1.629  1.00  0.00     0.006 C 
BRANCH   6   7
ATOM      7  C   UNL     1      -2.656  -6.521  -1.756  1.00  0.00     0.053 C 
BRANCH   7   8
ATOM      8  C   UNL     1      -3.067  -6.086  -3.130  1.00  0.00     0.041 C 
ATOM      9  O   UNL     1      -3.463  -4.907  -3.327  1.00  0.00    -0.550 OA
ATOM     10  O   UNL     1      -2.969  -6.967  -4.199  1.00  0.00    -0.550 OA
ENDBRANCH   7   8
ENDBRANCH   6   7
ENDBRANCH   5   6
ENDBRANCH   4   5
ENDBRANCH   3   4
ENDBRANCH   2   3
ENDBRANCH   1   2
BRANCH   1  11
ATOM     11  C   UNL     1       4.030  -6.832  -4.278  1.00  0.00    -0.031 C 
ATOM     12  C   UNL     1       4.892  -6.108  -5.016  1.00  0.00    -0.027 C 
BRANCH  12  13
ATOM     13  C   UNL     1       4.494  -5.012  -5.975  1.00  0.00     0.054 C 
BRANCH  13  14
ATOM     14  C   UNL     1       4.751  -3.643  -5.397  1.00  0.00    -0.027 C 
ATOM     15  C   UNL     1       3.797  -2.771  -5.021  1.00  0.00    -0.031 C 
BRANCH  15  16
ATOM     16  C   UNL     1       2.308  -3.005  -5.134  1.00  0.00     0.027 C 
BRANCH  16  17
ATOM     17  C   UNL     1       1.625  -2.932  -3.760  1.00  0.00     0.004 C 
BRANCH  17  18
ATOM     18  C   UNL     1       0.303  -3.717  -3.687  1.00  0.00     0.000 C 
BRANCH  18  19
ATOM     19  C   UNL     1      -0.576  -3.277  -2.507  1.00  0.00    -0.003 C 
ATOM     20  C   UNL     1      -0.119  -3.932  -1.208  1.00  0.00     0.004 C 
ENDBRANCH  18  19
ENDBRANCH  17  18
ENDBRANCH  16  17
ENDBRANCH  15  16
ENDBRANCH  13  14
ENDBRANCH  12  13
ENDBRANCH   1  11
TORSDOF 14
ENDMDL
MODEL 8
REMARK VINA RESULT:    -4.782      1.854      3.176
REMARK INTER + INTRA:         -11.618
REMARK INTER:                  -8.689
REMARK INTRA:                  -2.929
REMARK UNBOUND:                -2.923
REMARK SMILES CCCCCC=CCC=CCCCCCCCC(=O)[O-]
REMARK SMILES IDX 11 1 12 2 13 3 14 4 15 5 16 6 17 7 18 8 19 9 20 10 10 11
REMARK SMILES IDX 9 12 8 13 7 14 6 15 5 16 4 17 3 18 2 19 1 20
REMARK H PARENT
REMARK Flexibility Score: inf
ROOT
ATOM      1  C   UNL     1       0.668  -7.948  -3.751  1.00  0.00     0.027 C 
ENDROOT
BRANCH   1   2
ATOM      2  C   UNL     1       0.601  -7.786  -5.276  1.00  0.00     0.004 C 
BRANCH   2   3
ATOM      3  C   UNL     1       0.335  -6.331  -5.697  1.00  0.00     0.000 C 
BRANCH   3   4
ATOM      4  C   UNL     1       1.498  -5.741  -6.521  1.00  0.00     0.000 C 
BRANCH   4   5
ATOM      5  C   UNL     1       1.452  -4.208  -6.640  1.00  0.00     0.000 C 
BRANCH   5   6
ATOM      6  C   UNL     1       1.255  -3.509  -5.285  1.00  0.00     0.006 C 
BRANCH   6   7
ATOM      7  C   UNL     1       2.541  -3.496  -4.448  1.00  0.00     0.053 C 
BRANCH   7   8
ATOM      8  C   UNL     1       3.670  -2.826  -5.171  1.00  0.00     0.041 C 
ATOM      9  O   UNL     1       3.579  -1.613  -5.497  1.00  0.00    -0.550 OA
ATOM     10  O   UNL     1       4.837  -3.527  -5.444  1.00  0.00    -0.550 OA
ENDBRANCH   7   8
ENDBRANCH   6   7
ENDBRANCH   5   6
ENDBRANCH   4   5
ENDBRANCH   3   4
ENDBRANCH   2   3
ENDBRANCH   1   2
BRANCH   1  11
ATOM     11  C   UNL     1       1.735  -7.076  -3.136  1.00  0.00    -0.031 C 
ATOM     12  C   UNL     1       1.535  -6.224  -2.114  1.00  0.00    -0.027 C 
BRANCH  12  13
ATOM     13  C   UNL     1       0.198  -5.955  -1.467  1.00  0.00     0.054 C 
BRANCH  13  14
ATOM     14  C   UNL     1      -0.148  -4.488  -1.486  1.00  0.00    -0.027 C 
ATOM     15  C   UNL     1      -0.959  -3.896  -2.383  1.00  0.00    -0.031 C 
BRANCH  15  16
ATOM     16  C   UNL     1      -1.644  -4.595  -3.534  1.00  0.00     0.027 C 
BRANCH  16  17
ATOM     17  C   UNL     1      -2.975  -5.225  -3.094  1.00  0.00     0.004 C 
BRANCH  17  18
ATOM     18  C   UNL     1      -2.993  -6.760  -3.198  1.00  0.00     0.000 C 
BRANCH  18  19
ATOM     19  C   UNL     1      -3.061  -7.249  -4.652  1.00  0.00    -0.003 C 
ATOM     20  C   UNL     1      -3.325  -8.749  -4.716  1.00  0.00     0.004 C 
ENDBRANCH  18  19
ENDBRANCH  17  18
ENDBRANCH  16  17
ENDBRANCH  15  16
ENDBRANCH  13  14
ENDBRANCH  12  13
ENDBRANCH   1  11
TORSDOF 14
ENDMDL
MODEL 9
REMARK VINA RESULT:    -4.712      3.033      6.097
REMARK INTER + INTRA:         -11.493
REMARK INTER:                  -8.329
REMARK INTRA:                  -3.164
REMARK UNBOUND:                -2.923
REMARK SMILES CCCCCC=CCC=CCCCCCCCC(=O)[O-]
REMARK SMILES IDX 11 1 12 2 13 3 14 4 15 5 16 6 17 7 18 8 19 9 20 10 10 11
REMARK SMILES IDX 9 12 8 13 7 14 6 15 5 16 4 17 3 18 2 19 1 20
REMARK H PARENT
REMARK Flexibility Score: inf
ROOT
ATOM      1  C   UNL     1       0.547  -4.626  -1.671  1.00  0.00     0.027 C 
ENDROOT
BRANCH   1   2
ATOM      2  C   UNL     1      -0.782  -3.891  -1.901  1.00  0.00     0.004 C 
BRANCH   2   3
ATOM      3  C   UNL     1      -1.389  -4.200  -3.279  1.00  0.00     0.000 C 
BRANCH   3   4
ATOM      4  C   UNL     1      -2.861  -4.654  -3.179  1.00  0.00     0.000 C 
BRANCH   4   5
ATOM      5  C   UNL     1      -3.036  -6.182  -3.214  1.00  0.00     0.000 C 
BRANCH   5   6
ATOM      6  C   UNL     1      -2.705  -6.789  -4.587  1.00  0.00     0.006 C 
BRANCH   6   7
ATOM      7  C   UNL     1      -1.818  -8.036  -4.471  1.00  0.00     0.053 C 
BRANCH   7   8
ATOM      8  C   UNL     1      -2.342  -8.998  -3.448  1.00  0.00     0.041 C 
ATOM      9  O   UNL     1      -3.416  -9.620  -3.656  1.00  0.00    -0.550 OA
ATOM     10  O   UNL     1      -1.620  -9.240  -2.286  1.00  0.00    -0.550 OA
ENDBRANCH   7   8
ENDBRANCH   6   7
ENDBRANCH   5   6
ENDBRANCH   4   5
ENDBRANCH   3   4
ENDBRANCH   2   3
ENDBRANCH   1   2
BRANCH   1  11
ATOM     11  C   UNL     1       0.390  -6.123  -1.777  1.00  0.00    -0.031 C 
ATOM     12  C   UNL     1       1.105  -6.914  -2.597  1.00  0.00    -0.027 C 
BRANCH  12  13
ATOM     13  C   UNL     1       2.128  -6.421  -3.592  1.00  0.00     0.054 C 
BRANCH  13  14
ATOM     14  C   UNL     1       1.910  -7.017  -4.959  1.00  0.00    -0.027 C 
ATOM     15  C   UNL     1       1.179  -6.454  -5.940  1.00  0.00    -0.031 C 
BRANCH  15  16
ATOM     16  C   UNL     1       0.437  -5.142  -5.832  1.00  0.00     0.027 C 
BRANCH  16  17
ATOM     17  C   UNL     1       1.315  -3.964  -6.281  1.00  0.00     0.004 C 
BRANCH  17  18
ATOM     18  C   UNL     1       1.482  -2.876  -5.205  1.00  0.00     0.000 C 
BRANCH  18  19
ATOM     19  C   UNL     1       2.804  -3.012  -4.435  1.00  0.00    -0.003 C 
ATOM     20  C   UNL     1       3.908  -3.562  -5.331  1.00  0.00     0.004 C 
ENDBRANCH  18  19
ENDBRANCH  17  18
ENDBRANCH  16  17
ENDBRANCH  15  16
ENDBRANCH  13  14
ENDBRANCH  12  13
ENDBRANCH   1  11
TORSDOF 14
ENDMDL
