MODEL 1
REMARK VINA RESULT:    -3.229      0.000      0.000
REMARK INTER + INTRA:          -3.857
REMARK INTER:                  -3.795
REMARK INTRA:                  -0.062
REMARK UNBOUND:                -0.062
REMARK SMILES O=C([O-])CCC(=O)[O-]
REMARK SMILES IDX 4 1 2 2 1 3 3 4 5 5 6 6 7 7 8 8
REMARK H PARENT
REMARK Flexibility Score: inf
ROOT
ATOM      1  C   UNL     1      14.710  16.284  15.525  1.00  0.00     0.059 C 
ENDROOT
BRANCH   1   2
ATOM      2  C   UNL     1      15.740  17.287  15.105  1.00  0.00     0.042 C 
ATOM      3  O   UNL     1      15.888  18.354  15.758  1.00  0.00    -0.550 OA
ATOM      4  O   UNL     1      16.565  17.027  14.018  1.00  0.00    -0.550 OA
ENDBRANCH   1   2
BRANCH   1   5
ATOM      5  C   UNL     1      13.395  16.959  15.930  1.00  0.00     0.059 C 
BRANCH   5   6
ATOM      6  C   UNL     1      12.878  16.424  17.230  1.00  0.00     0.042 C 
ATOM      7  O   UNL     1      11.963  17.030  17.845  1.00  0.00    -0.550 OA
ATOM      8  O   UNL     1      13.435  15.277  17.780  1.00  0.00    -0.550 OA
ENDBRANCH   5   6
ENDBRANCH   1   5
TORSDOF 3
ENDMDL
MODEL 2
REMARK VINA RESULT:    -3.213      1.119      4.121
REMARK INTER + INTRA:          -3.839
REMARK INTER:                  -3.719
REMARK INTRA:                  -0.120
REMARK UNBOUND:                -0.062
REMARK SMILES O=C([O-])CCC(=O)[O-]
REMARK SMILES IDX 4 1 2 2 1 3 3 4 5 5 6 6 7 7 8 8
REMARK H PARENT
REMARK Flexibility Score: inf
ROOT
ATOM      1  C   UNL     1      13.770  17.280  15.627  1.00  0.00     0.059 C 
ENDROOT
BRANCH   1   2
ATOM      2  C   UNL     1      13.401  16.447  16.817  1.00  0.00     0.042 C 
ATOM      3  O   UNL     1      14.113  15.463  17.147  1.00  0.00    -0.550 OA
ATOM      4  O   UNL     1      12.294  16.783  17.586  1.00  0.00    -0.550 OA
ENDBRANCH   1   2
BRANCH   1   5
ATOM      5  C   UNL     1      15.266  17.611  15.611  1.00  0.00     0.059 C 
BRANCH   5   6
ATOM      6  C   UNL     1      15.975  16.907  14.495  1.00  0.00     0.042 C 
ATOM      7  O   UNL     1      16.997  17.421  13.969  1.00  0.00    -0.550 OA
ATOM      8  O   UNL     1      15.484  15.702  14.010  1.00  0.00    -0.550 OA
ENDBRANCH   5   6
ENDBRANCH   1   5
TORSDOF 3
ENDMDL
MODEL 3
REMARK VINA RESULT:    -3.203      1.099      1.694
REMARK INTER + INTRA:          -3.826
REMARK INTER:                  -3.703
REMARK INTRA:                  -0.123
REMARK UNBOUND:                -0.062
REMARK SMILES O=C([O-])CCC(=O)[O-]
REMARK SMILES IDX 4 1 2 2 1 3 3 4 5 5 6 6 7 7 8 8
REMARK H PARENT
REMARK Flexibility Score: inf
ROOT
ATOM      1  C   UNL     1      15.245  17.522  15.625  1.00  0.00     0.059 C 
ENDROOT
BRANCH   1   2
ATOM      2  C   UNL     1      15.925  16.813  14.494  1.00  0.00     0.042 C 
ATOM      3  O   UNL     1      16.923  17.333  13.928  1.00  0.00    -0.550 OA
ATOM      4  O   UNL     1      15.484  15.559  14.092  1.00  0.00    -0.550 OA
ENDBRANCH   1   2
BRANCH   1   5
ATOM      5  C   UNL     1      13.741  17.229  15.652  1.00  0.00     0.059 C 
BRANCH   5   6
ATOM      6  C   UNL     1      13.359  16.418  16.852  1.00  0.00     0.042 C 
ATOM      7  O   UNL     1      13.989  15.364  17.131  1.00  0.00    -0.550 OA
ATOM      8  O   UNL     1      12.283  16.804  17.639  1.00  0.00    -0.550 OA
ENDBRANCH   5   6
ENDBRANCH   1   5
TORSDOF 3
ENDMDL
MODEL 4
REMARK VINA RESULT:    -3.192      0.100      4.018
REMARK INTER + INTRA:          -3.814
REMARK INTER:                  -3.755
REMARK INTRA:                  -0.059
REMARK UNBOUND:                -0.062
REMARK SMILES O=C([O-])CCC(=O)[O-]
REMARK SMILES IDX 4 1 2 2 1 3 3 4 5 5 6 6 7 7 8 8
REMARK H PARENT
REMARK Flexibility Score: inf
ROOT
ATOM      1  C   UNL     1      13.382  16.920  15.986  1.00  0.00     0.059 C 
ENDROOT
BRANCH   1   2
ATOM      2  C   UNL     1      12.853  16.406  17.290  1.00  0.00     0.042 C 
ATOM      3  O   UNL     1      11.907  17.002  17.868  1.00  0.00    -0.550 OA
ATOM      4  O   UNL     1      13.377  15.246  17.846  1.00  0.00    -0.550 OA
ENDBRANCH   1   2
BRANCH   1   5
ATOM      5  C   UNL     1      14.740  16.297  15.642  1.00  0.00     0.059 C 
BRANCH   5   6
ATOM      6  C   UNL     1      15.721  17.332  15.185  1.00  0.00     0.042 C 
ATOM      7  O   UNL     1      15.770  18.454  15.753  1.00  0.00    -0.550 OA
ATOM      8  O   UNL     1      16.555  17.070  14.106  1.00  0.00    -0.550 OA
ENDBRANCH   5   6
ENDBRANCH   1   5
TORSDOF 3
ENDMDL
MODEL 5
REMARK VINA RESULT:    -3.041      1.820      4.021
REMARK INTER + INTRA:          -3.637
REMARK INTER:                  -3.603
REMARK INTRA:                  -0.034
REMARK UNBOUND:                -0.062
REMARK SMILES O=C([O-])CCC(=O)[O-]
REMARK SMILES IDX 4 1 2 2 1 3 3 4 5 5 6 6 7 7 8 8
REMARK H PARENT
REMARK Flexibility Score: inf
ROOT
ATOM      1  C   UNL     1      13.266  16.487  15.682  1.00  0.00     0.059 C 
ENDROOT
BRANCH   1   2
ATOM      2  C   UNL     1      12.464  15.292  15.264  1.00  0.00     0.042 C 
ATOM      3  O   UNL     1      11.914  14.564  16.132  1.00  0.00    -0.550 OA
ATOM      4  O   UNL     1      12.291  15.005  13.916  1.00  0.00    -0.550 OA
ENDBRANCH   1   2
BRANCH   1   5
ATOM      5  C   UNL     1      14.757  16.153  15.799  1.00  0.00     0.059 C 
BRANCH   5   6
ATOM      6  C   UNL     1      15.611  17.224  15.190  1.00  0.00     0.042 C 
ATOM      7  O   UNL     1      15.589  18.393  15.657  1.00  0.00    -0.550 OA
ATOM      8  O   UNL     1      16.399  16.939  14.084  1.00  0.00    -0.550 OA
ENDBRANCH   5   6
ENDBRANCH   1   5
TORSDOF 3
ENDMDL
MODEL 6
REMARK VINA RESULT:    -2.961      2.591      5.109
REMARK INTER + INTRA:          -3.542
REMARK INTER:                  -3.435
REMARK INTRA:                  -0.107
REMARK UNBOUND:                -0.062
REMARK SMILES O=C([O-])CCC(=O)[O-]
REMARK SMILES IDX 4 1 2 2 1 3 3 4 5 5 6 6 7 7 8 8
REMARK H PARENT
REMARK Flexibility Score: inf
ROOT
ATOM      1  C   UNL     1      11.947  14.802  17.815  1.00  0.00     0.059 C 
ENDROOT
BRANCH   1   2
ATOM      2  C   UNL     1      10.473  14.538  17.750  1.00  0.00     0.042 C 
ATOM      3  O   UNL     1       9.983  13.925  16.766  1.00  0.00    -0.550 OA
ATOM      4  O   UNL     1       9.648  14.933  18.795  1.00  0.00    -0.550 OA
ENDBRANCH   1   2
BRANCH   1   5
ATOM      5  C   UNL     1      12.276  16.257  17.468  1.00  0.00     0.059 C 
BRANCH   5   6
ATOM      6  C   UNL     1      12.926  16.370  16.123  1.00  0.00     0.042 C 
ATOM      7  O   UNL     1      13.843  17.212  15.931  1.00  0.00    -0.550 OA
ATOM      8  O   UNL     1      12.493  15.573  15.072  1.00  0.00    -0.550 OA
ENDBRANCH   5   6
ENDBRANCH   1   5
TORSDOF 3
ENDMDL
MODEL 7
REMARK VINA RESULT:    -2.913      2.168      3.218
REMARK INTER + INTRA:          -3.486
REMARK INTER:                  -3.456
REMARK INTRA:                  -0.030
REMARK UNBOUND:                -0.062
REMARK SMILES O=C([O-])CCC(=O)[O-]
REMARK SMILES IDX 4 1 2 2 1 3 3 4 5 5 6 6 7 7 8 8
REMARK H PARENT
REMARK Flexibility Score: inf
ROOT
ATOM      1  C   UNL     1      16.165  16.349  13.847  1.00  0.00     0.059 C 
ENDROOT
BRANCH   1   2
ATOM      2  C   UNL     1      16.552  15.159  13.023  1.00  0.00     0.042 C 
ATOM      3  O   UNL     1      17.740  14.743  13.030  1.00  0.00    -0.550 OA
ATOM      4  O   UNL     1      15.592  14.485  12.279  1.00  0.00    -0.550 OA
ENDBRANCH   1   2
BRANCH   1   5
ATOM      5  C   UNL     1      15.052  16.008  14.844  1.00  0.00     0.059 C 
BRANCH   5   6
ATOM      6  C   UNL     1      14.549  17.231  15.548  1.00  0.00     0.042 C 
ATOM      7  O   UNL     1      13.358  17.284  15.953  1.00  0.00    -0.550 OA
ATOM      8  O   UNL     1      15.383  18.327  15.720  1.00  0.00    -0.550 OA
ENDBRANCH   5   6
ENDBRANCH   1   5
TORSDOF 3
ENDMDL
MODEL 8
REMARK VINA RESULT:    -2.902      1.582      4.361
REMARK INTER + INTRA:          -3.472
REMARK INTER:                  -3.426
REMARK INTRA:                  -0.046
REMARK UNBOUND:                -0.062
REMARK SMILES O=C([O-])CCC(=O)[O-]
REMARK SMILES IDX 4 1 2 2 1 3 3 4 5 5 6 6 7 7 8 8
REMARK H PARENT
REMARK Flexibility Score: inf
ROOT
ATOM      1  C   UNL     1      14.634  16.260  15.748  1.00  0.00     0.059 C 
ENDROOT
BRANCH   1   2
ATOM      2  C   UNL     1      13.173  16.191  16.076  1.00  0.00     0.042 C 
ATOM      3  O   UNL     1      12.712  16.839  17.052  1.00  0.00    -0.550 OA
ATOM      4  O   UNL     1      12.315  15.444  15.279  1.00  0.00    -0.550 OA
ENDBRANCH   1   2
BRANCH   1   5
ATOM      5  C   UNL     1      14.997  15.325  14.590  1.00  0.00     0.059 C 
BRANCH   5   6
ATOM      6  C   UNL     1      16.063  15.916  13.719  1.00  0.00     0.042 C 
ATOM      7  O   UNL     1      16.463  15.296  12.699  1.00  0.00    -0.550 OA
ATOM      8  O   UNL     1      16.643  17.131  14.056  1.00  0.00    -0.550 OA
ENDBRANCH   5   6
ENDBRANCH   1   5
TORSDOF 3
ENDMDL
MODEL 9
REMARK VINA RESULT:    -2.899      1.454      4.184
REMARK INTER + INTRA:          -3.469
REMARK INTER:                  -3.390
REMARK INTRA:                  -0.080
REMARK UNBOUND:                -0.062
REMARK SMILES O=C([O-])CCC(=O)[O-]
REMARK SMILES IDX 4 1 2 2 1 3 3 4 5 5 6 6 7 7 8 8
REMARK H PARENT
REMARK Flexibility Score: inf
ROOT
ATOM      1  C   UNL     1      13.228  16.348  17.011  1.00  0.00     0.059 C 
ENDROOT
BRANCH   1   2
ATOM      2  C   UNL     1      12.132  15.355  16.773  1.00  0.00     0.042 C 
ATOM      3  O   UNL     1      11.918  14.913  15.614  1.00  0.00    -0.550 OA
ATOM      4  O   UNL     1      11.373  14.886  17.838  1.00  0.00    -0.550 OA
ENDBRANCH   1   2
BRANCH   1   5
ATOM      5  C   UNL     1      13.487  17.211  15.772  1.00  0.00     0.059 C 
BRANCH   5   6
ATOM      6  C   UNL     1      14.941  17.236  15.412  1.00  0.00     0.042 C 
ATOM      7  O   UNL     1      15.643  18.246  15.678  1.00  0.00    -0.550 OA
ATOM      8  O   UNL     1      15.511  16.159  14.746  1.00  0.00    -0.550 OA
ENDBRANCH   5   6
ENDBRANCH   1   5
TORSDOF 3
ENDMDL
