MODEL 1
REMARK VINA RESULT:    -3.842      0.000      0.000
REMARK INTER + INTRA:          -5.042
REMARK INTER:                  -4.628
REMARK INTRA:                  -0.414
REMARK UNBOUND:                -0.414
REMARK SMILES O=c1c(O)c(-c2ccc(O)cc2O)oc2cc(O)cc(O)c12
REMARK SMILES IDX 5 1 3 2 2 3 1 4 22 5 20 6 19 7 17 8 16 9 15 10 14 11 6 12
REMARK SMILES IDX 8 13 7 14 9 15 11 16 12 17 10 18 13 20 4 22 21 24 18 26
REMARK H PARENT 10 19 13 21 4 23 21 25 18 27
REMARK Flexibility Score: inf
ROOT
ATOM      1  C   UNL     1      19.375  34.789  44.124  1.00  0.00     0.184 A 
ATOM      2  C   UNL     1      19.894  35.966  44.688  1.00  0.00     0.208 A 
ATOM      3  C   UNL     1      21.187  35.945  45.236  1.00  0.00     0.238 A 
ATOM      4  O   UNL     1      21.626  36.987  45.787  1.00  0.00    -0.285 OA
ATOM      5  C   UNL     1      21.949  34.752  45.196  1.00  0.00     0.111 A 
ATOM      6  C   UNL     1      23.284  34.627  45.685  1.00  0.00     0.134 A 
ATOM      7  C   UNL     1      23.894  33.367  45.713  1.00  0.00     0.093 A 
ATOM      8  C   UNL     1      23.242  32.239  45.210  1.00  0.00     0.123 A 
ATOM      9  C   UNL     1      21.961  32.361  44.676  1.00  0.00     0.094 A 
ATOM     10  C   UNL     1      21.311  33.598  44.668  1.00  0.00     0.146 A 
ATOM     11  O   UNL     1      20.086  33.668  44.160  1.00  0.00    -0.451 OA
ENDROOT
BRANCH   1  12
ATOM     12  C   UNL     1      18.029  34.747  43.516  1.00  0.00     0.063 A 
ATOM     13  C   UNL     1      15.620  34.602  43.811  1.00  0.00     0.047 A 
ATOM     14  C   UNL     1      16.907  34.649  44.354  1.00  0.00     0.020 A 
ATOM     15  C   UNL     1      15.438  34.638  42.427  1.00  0.00     0.119 A 
ATOM     16  C   UNL     1      16.553  34.712  41.582  1.00  0.00     0.093 A 
ATOM     17  C   UNL     1      17.849  34.754  42.118  1.00  0.00     0.130 A 
BRANCH  15  18
ATOM     18  O   UNL     1      14.150  34.594  41.901  1.00  0.00    -0.508 OA
ATOM     19  H   UNL     1      13.360  34.986  42.400  1.00  0.00     0.293 HD
ENDBRANCH  15  18
BRANCH  17  20
ATOM     20  O   UNL     1      18.952  34.778  41.264  1.00  0.00    -0.507 OA
ATOM     21  H   UNL     1      19.501  33.947  41.080  1.00  0.00     0.293 HD
ENDBRANCH  17  20
ENDBRANCH   1  12
BRANCH   2  22
ATOM     22  O   UNL     1      19.114  37.124  44.730  1.00  0.00    -0.502 OA
ATOM     23  H   UNL     1      19.115  37.751  45.524  1.00  0.00     0.293 HD
ENDBRANCH   2  22
BRANCH   6  24
ATOM     24  O   UNL     1      24.058  35.705  46.125  1.00  0.00    -0.507 OA
ATOM     25  H   UNL     1      24.594  36.312  45.522  1.00  0.00     0.293 HD
ENDBRANCH   6  24
BRANCH   8  26
ATOM     26  O   UNL     1      23.862  30.992  45.228  1.00  0.00    -0.508 OA
ATOM     27  H   UNL     1      24.812  30.868  44.898  1.00  0.00     0.293 HD
ENDBRANCH   8  26
TORSDOF 6
ENDMDL
MODEL 2
REMARK VINA RESULT:    -3.707      1.562      3.359
REMARK INTER + INTRA:          -4.879
REMARK INTER:                  -4.468
REMARK INTRA:                  -0.411
REMARK UNBOUND:                -0.414
REMARK SMILES O=c1c(O)c(-c2ccc(O)cc2O)oc2cc(O)cc(O)c12
REMARK SMILES IDX 5 1 3 2 2 3 1 4 22 5 20 6 19 7 17 8 16 9 15 10 14 11 6 12
REMARK SMILES IDX 8 13 7 14 9 15 11 16 12 17 10 18 13 20 4 22 21 24 18 26
REMARK H PARENT 10 19 13 21 4 23 21 25 18 27
REMARK Flexibility Score: inf
ROOT
ATOM      1  C   UNL     1      17.731  34.697  43.232  1.00  0.00     0.184 A 
ATOM      2  C   UNL     1      18.205  33.377  43.168  1.00  0.00     0.208 A 
ATOM      3  C   UNL     1      19.430  33.063  43.776  1.00  0.00     0.238 A 
ATOM      4  O   UNL     1      19.875  31.891  43.670  1.00  0.00    -0.285 OA
ATOM      5  C   UNL     1      20.157  34.072  44.455  1.00  0.00     0.111 A 
ATOM      6  C   UNL     1      21.390  33.858  45.141  1.00  0.00     0.134 A 
ATOM      7  C   UNL     1      22.087  34.954  45.666  1.00  0.00     0.093 A 
ATOM      8  C   UNL     1      21.563  36.246  45.587  1.00  0.00     0.123 A 
ATOM      9  C   UNL     1      20.332  36.457  44.970  1.00  0.00     0.094 A 
ATOM     10  C   UNL     1      19.630  35.390  44.405  1.00  0.00     0.146 A 
ATOM     11  O   UNL     1      18.465  35.636  43.817  1.00  0.00    -0.451 OA
ENDROOT
BRANCH   1  12
ATOM     12  C   UNL     1      16.441  35.090  42.627  1.00  0.00     0.063 A 
ATOM     13  C   UNL     1      14.032  35.331  42.848  1.00  0.00     0.047 A 
ATOM     14  C   UNL     1      15.269  34.972  43.390  1.00  0.00     0.020 A 
ATOM     15  C   UNL     1      13.948  35.797  41.534  1.00  0.00     0.119 A 
ATOM     16  C   UNL     1      15.109  35.895  40.757  1.00  0.00     0.093 A 
ATOM     17  C   UNL     1      16.355  35.533  41.292  1.00  0.00     0.130 A 
BRANCH  15  18
ATOM     18  O   UNL     1      12.709  36.153  41.008  1.00  0.00    -0.508 OA
ATOM     19  H   UNL     1      12.434  37.124  40.912  1.00  0.00     0.293 HD
ENDBRANCH  15  18
BRANCH  17  20
ATOM     20  O   UNL     1      17.496  35.589  40.491  1.00  0.00    -0.507 OA
ATOM     21  H   UNL     1      18.165  34.829  40.463  1.00  0.00     0.293 HD
ENDBRANCH  17  20
ENDBRANCH   1  12
BRANCH   2  22
ATOM     22  O   UNL     1      17.476  32.406  42.476  1.00  0.00    -0.502 OA
ATOM     23  H   UNL     1      17.154  32.542  41.526  1.00  0.00     0.293 HD
ENDBRANCH   2  22
BRANCH   6  24
ATOM     24  O   UNL     1      21.956  32.598  45.357  1.00  0.00    -0.507 OA
ATOM     25  H   UNL     1      21.905  31.827  44.708  1.00  0.00     0.293 HD
ENDBRANCH   6  24
BRANCH   8  26
ATOM     26  O   UNL     1      22.256  37.328  46.125  1.00  0.00    -0.508 OA
ATOM     27  H   UNL     1      22.268  37.507  47.122  1.00  0.00     0.293 HD
ENDBRANCH   8  26
TORSDOF 6
ENDMDL
MODEL 3
REMARK VINA RESULT:    -3.575      2.534      7.376
REMARK INTER + INTRA:          -4.721
REMARK INTER:                  -4.302
REMARK INTRA:                  -0.419
REMARK UNBOUND:                -0.414
REMARK SMILES O=c1c(O)c(-c2ccc(O)cc2O)oc2cc(O)cc(O)c12
REMARK SMILES IDX 5 1 3 2 2 3 1 4 22 5 20 6 19 7 17 8 16 9 15 10 14 11 6 12
REMARK SMILES IDX 8 13 7 14 9 15 11 16 12 17 10 18 13 20 4 22 21 24 18 26
REMARK H PARENT 10 19 13 21 4 23 21 25 18 27
REMARK Flexibility Score: inf
ROOT
ATOM      1  C   UNL     1      19.848  34.104  41.208  1.00  0.00     0.184 A 
ATOM      2  C   UNL     1      19.859  34.381  39.831  1.00  0.00     0.208 A 
ATOM      3  C   UNL     1      18.711  34.930  39.239  1.00  0.00     0.238 A 
ATOM      4  O   UNL     1      18.707  35.126  37.996  1.00  0.00    -0.285 OA
ATOM      5  C   UNL     1      17.573  35.209  40.036  1.00  0.00     0.111 A 
ATOM      6  C   UNL     1      16.370  35.803  39.549  1.00  0.00     0.134 A 
ATOM      7  C   UNL     1      15.262  35.914  40.399  1.00  0.00     0.093 A 
ATOM      8  C   UNL     1      15.336  35.514  41.735  1.00  0.00     0.123 A 
ATOM      9  C   UNL     1      16.525  34.988  42.235  1.00  0.00     0.094 A 
ATOM     10  C   UNL     1      17.636  34.830  41.403  1.00  0.00     0.146 A 
ATOM     11  O   UNL     1      18.746  34.314  41.917  1.00  0.00    -0.451 OA
ENDROOT
BRANCH   1  12
ATOM     12  C   UNL     1      21.029  33.542  41.896  1.00  0.00     0.063 A 
ATOM     13  C   UNL     1      22.234  31.586  42.692  1.00  0.00     0.047 A 
ATOM     14  C   UNL     1      21.133  32.149  42.042  1.00  0.00     0.020 A 
ATOM     15  C   UNL     1      23.236  32.404  43.217  1.00  0.00     0.119 A 
ATOM     16  C   UNL     1      23.130  33.796  43.097  1.00  0.00     0.093 A 
ATOM     17  C   UNL     1      22.026  34.371  42.450  1.00  0.00     0.130 A 
BRANCH  15  18
ATOM     18  O   UNL     1      24.329  31.828  43.858  1.00  0.00    -0.508 OA
ATOM     19  H   UNL     1      25.279  32.006  43.553  1.00  0.00     0.293 HD
ENDBRANCH  15  18
BRANCH  17  20
ATOM     20  O   UNL     1      21.908  35.759  42.382  1.00  0.00    -0.507 OA
ATOM     21  H   UNL     1      21.298  36.210  41.710  1.00  0.00     0.293 HD
ENDBRANCH  17  20
ENDBRANCH   1  12
BRANCH   2  22
ATOM     22  O   UNL     1      20.988  34.078  39.066  1.00  0.00    -0.502 OA
ATOM     23  H   UNL     1      21.280  34.645  38.280  1.00  0.00     0.293 HD
ENDBRANCH   2  22
BRANCH   6  24
ATOM     24  O   UNL     1      16.220  36.319  38.258  1.00  0.00    -0.507 OA
ATOM     25  H   UNL     1      15.664  35.895  37.531  1.00  0.00     0.293 HD
ENDBRANCH   6  24
BRANCH   8  26
ATOM     26  O   UNL     1      14.234  35.642  42.577  1.00  0.00    -0.508 OA
ATOM     27  H   UNL     1      13.431  35.029  42.496  1.00  0.00     0.293 HD
ENDBRANCH   8  26
TORSDOF 6
ENDMDL
MODEL 4
REMARK VINA RESULT:    -3.564      5.282      6.984
REMARK INTER + INTRA:          -4.707
REMARK INTER:                  -4.288
REMARK INTRA:                  -0.419
REMARK UNBOUND:                -0.414
REMARK SMILES O=c1c(O)c(-c2ccc(O)cc2O)oc2cc(O)cc(O)c12
REMARK SMILES IDX 5 1 3 2 2 3 1 4 22 5 20 6 19 7 17 8 16 9 15 10 14 11 6 12
REMARK SMILES IDX 8 13 7 14 9 15 11 16 12 17 10 18 13 20 4 22 21 24 18 26
REMARK H PARENT 10 19 13 21 4 23 21 25 18 27
REMARK Flexibility Score: inf
ROOT
ATOM      1  C   UNL     1      17.564  35.385  38.755  1.00  0.00     0.184 A 
ATOM      2  C   UNL     1      18.501  35.068  39.751  1.00  0.00     0.208 A 
ATOM      3  C   UNL     1      19.801  34.700  39.370  1.00  0.00     0.238 A 
ATOM      4  O   UNL     1      20.620  34.365  40.264  1.00  0.00    -0.285 OA
ATOM      5  C   UNL     1      20.151  34.673  37.998  1.00  0.00     0.111 A 
ATOM      6  C   UNL     1      21.450  34.356  37.500  1.00  0.00     0.134 A 
ATOM      7  C   UNL     1      21.648  34.232  36.119  1.00  0.00     0.093 A 
ATOM      8  C   UNL     1      20.611  34.479  35.216  1.00  0.00     0.123 A 
ATOM      9  C   UNL     1      19.355  34.848  35.691  1.00  0.00     0.094 A 
ATOM     10  C   UNL     1      19.115  34.943  37.064  1.00  0.00     0.146 A 
ATOM     11  O   UNL     1      17.900  35.287  37.474  1.00  0.00    -0.451 OA
ENDROOT
BRANCH   1  12
ATOM     12  C   UNL     1      16.184  35.795  39.089  1.00  0.00     0.063 A 
ATOM     13  C   UNL     1      13.938  35.165  39.774  1.00  0.00     0.047 A 
ATOM     14  C   UNL     1      15.252  34.812  39.457  1.00  0.00     0.020 A 
ATOM     15  C   UNL     1      13.534  36.501  39.713  1.00  0.00     0.119 A 
ATOM     16  C   UNL     1      14.450  37.486  39.324  1.00  0.00     0.093 A 
ATOM     17  C   UNL     1      15.770  37.140  38.999  1.00  0.00     0.130 A 
BRANCH  15  18
ATOM     18  O   UNL     1      12.222  36.838  40.035  1.00  0.00    -0.508 OA
ATOM     19  H   UNL     1      11.997  37.340  40.887  1.00  0.00     0.293 HD
ENDBRANCH  15  18
BRANCH  17  20
ATOM     20  O   UNL     1      16.658  38.125  38.566  1.00  0.00    -0.507 OA
ATOM     21  H   UNL     1      16.593  39.082  38.891  1.00  0.00     0.293 HD
ENDBRANCH  17  20
ENDBRANCH   1  12
BRANCH   2  22
ATOM     22  O   UNL     1      18.123  35.085  41.097  1.00  0.00    -0.502 OA
ATOM     23  H   UNL     1      18.634  34.581  41.811  1.00  0.00     0.293 HD
ENDBRANCH   2  22
BRANCH   6  24
ATOM     24  O   UNL     1      22.576  34.179  38.310  1.00  0.00    -0.507 OA
ATOM     25  H   UNL     1      22.546  33.931  39.288  1.00  0.00     0.293 HD
ENDBRANCH   6  24
BRANCH   8  26
ATOM     26  O   UNL     1      20.821  34.369  33.844  1.00  0.00    -0.508 OA
ATOM     27  H   UNL     1      20.829  35.184  33.242  1.00  0.00     0.293 HD
ENDBRANCH   8  26
TORSDOF 6
ENDMDL
MODEL 5
REMARK VINA RESULT:    -3.525      3.615      4.864
REMARK INTER + INTRA:          -4.661
REMARK INTER:                  -4.239
REMARK INTRA:                  -0.422
REMARK UNBOUND:                -0.414
REMARK SMILES O=c1c(O)c(-c2ccc(O)cc2O)oc2cc(O)cc(O)c12
REMARK SMILES IDX 5 1 3 2 2 3 1 4 22 5 20 6 19 7 17 8 16 9 15 10 14 11 6 12
REMARK SMILES IDX 8 13 7 14 9 15 11 16 12 17 10 18 13 20 4 22 21 24 18 26
REMARK H PARENT 10 19 13 21 4 23 21 25 18 27
REMARK Flexibility Score: inf
ROOT
ATOM      1  C   UNL     1      21.307  33.965  42.159  1.00  0.00     0.184 A 
ATOM      2  C   UNL     1      21.038  34.174  40.797  1.00  0.00     0.208 A 
ATOM      3  C   UNL     1      22.023  33.849  39.851  1.00  0.00     0.238 A 
ATOM      4  O   UNL     1      21.797  34.088  38.637  1.00  0.00    -0.285 OA
ATOM      5  C   UNL     1      23.257  33.302  40.281  1.00  0.00     0.111 A 
ATOM      6  C   UNL     1      24.311  32.898  39.407  1.00  0.00     0.134 A 
ATOM      7  C   UNL     1      25.538  32.492  39.947  1.00  0.00     0.093 A 
ATOM      8  C   UNL     1      25.727  32.413  41.329  1.00  0.00     0.123 A 
ATOM      9  C   UNL     1      24.684  32.749  42.189  1.00  0.00     0.094 A 
ATOM     10  C   UNL     1      23.461  33.193  41.682  1.00  0.00     0.146 A 
ATOM     11  O   UNL     1      22.497  33.513  42.538  1.00  0.00    -0.451 OA
ENDROOT
BRANCH   1  12
ATOM     12  C   UNL     1      20.308  34.270  43.205  1.00  0.00     0.063 A 
ATOM     13  C   UNL     1      18.225  33.695  44.318  1.00  0.00     0.047 A 
ATOM     14  C   UNL     1      19.190  33.432  43.343  1.00  0.00     0.020 A 
ATOM     15  C   UNL     1      18.354  34.804  45.156  1.00  0.00     0.119 A 
ATOM     16  C   UNL     1      19.454  35.660  45.010  1.00  0.00     0.093 A 
ATOM     17  C   UNL     1      20.426  35.407  44.031  1.00  0.00     0.130 A 
BRANCH  15  18
ATOM     18  O   UNL     1      17.386  35.051  46.125  1.00  0.00    -0.508 OA
ATOM     19  H   UNL     1      17.075  34.326  46.762  1.00  0.00     0.293 HD
ENDBRANCH  15  18
BRANCH  17  20
ATOM     20  O   UNL     1      21.489  36.294  43.863  1.00  0.00    -0.507 OA
ATOM     21  H   UNL     1      22.394  35.984  43.528  1.00  0.00     0.293 HD
ENDBRANCH  17  20
ENDBRANCH   1  12
BRANCH   2  22
ATOM     22  O   UNL     1      19.819  34.732  40.404  1.00  0.00    -0.502 OA
ATOM     23  H   UNL     1      19.024  34.795  41.027  1.00  0.00     0.293 HD
ENDBRANCH   2  22
BRANCH   6  24
ATOM     24  O   UNL     1      24.197  32.851  38.014  1.00  0.00    -0.507 OA
ATOM     25  H   UNL     1      24.933  33.095  37.369  1.00  0.00     0.293 HD
ENDBRANCH   6  24
BRANCH   8  26
ATOM     26  O   UNL     1      26.945  31.994  41.857  1.00  0.00    -0.508 OA
ATOM     27  H   UNL     1      27.815  32.455  41.616  1.00  0.00     0.293 HD
ENDBRANCH   8  26
TORSDOF 6
ENDMDL
MODEL 6
REMARK VINA RESULT:    -3.489      1.991      7.134
REMARK INTER + INTRA:          -4.617
REMARK INTER:                  -4.205
REMARK INTRA:                  -0.412
REMARK UNBOUND:                -0.414
REMARK SMILES O=c1c(O)c(-c2ccc(O)cc2O)oc2cc(O)cc(O)c12
REMARK SMILES IDX 5 1 3 2 2 3 1 4 22 5 20 6 19 7 17 8 16 9 15 10 14 11 6 12
REMARK SMILES IDX 8 13 7 14 9 15 11 16 12 17 10 18 13 20 4 22 21 24 18 26
REMARK H PARENT 10 19 13 21 4 23 21 25 18 27
REMARK Flexibility Score: inf
ROOT
ATOM      1  C   UNL     1      17.832  35.195  43.920  1.00  0.00     0.184 A 
ATOM      2  C   UNL     1      16.856  34.557  44.702  1.00  0.00     0.208 A 
ATOM      3  C   UNL     1      15.658  34.147  44.095  1.00  0.00     0.238 A 
ATOM      4  O   UNL     1      14.766  33.624  44.812  1.00  0.00    -0.285 OA
ATOM      5  C   UNL     1      15.461  34.366  42.710  1.00  0.00     0.111 A 
ATOM      6  C   UNL     1      14.304  33.955  41.983  1.00  0.00     0.134 A 
ATOM      7  C   UNL     1      14.158  34.340  40.644  1.00  0.00     0.093 A 
ATOM      8  C   UNL     1      15.157  35.063  39.988  1.00  0.00     0.123 A 
ATOM      9  C   UNL     1      16.317  35.417  40.673  1.00  0.00     0.094 A 
ATOM     10  C   UNL     1      16.476  35.080  42.020  1.00  0.00     0.146 A 
ATOM     11  O   UNL     1      17.592  35.447  42.638  1.00  0.00    -0.451 OA
ENDROOT
BRANCH   1  12
ATOM     12  C   UNL     1      19.120  35.636  44.493  1.00  0.00     0.063 A 
ATOM     13  C   UNL     1      20.431  37.389  45.552  1.00  0.00     0.047 A 
ATOM     14  C   UNL     1      19.226  36.938  45.008  1.00  0.00     0.020 A 
ATOM     15  C   UNL     1      21.549  36.552  45.576  1.00  0.00     0.119 A 
ATOM     16  C   UNL     1      21.461  35.260  45.043  1.00  0.00     0.093 A 
ATOM     17  C   UNL     1      20.256  34.801  44.489  1.00  0.00     0.130 A 
BRANCH  15  18
ATOM     18  O   UNL     1      22.742  37.014  46.125  1.00  0.00    -0.508 OA
ATOM     19  H   UNL     1      23.157  37.891  45.832  1.00  0.00     0.293 HD
ENDBRANCH  15  18
BRANCH  17  20
ATOM     20  O   UNL     1      20.195  33.530  43.917  1.00  0.00    -0.507 OA
ATOM     21  H   UNL     1      20.947  32.859  44.028  1.00  0.00     0.293 HD
ENDBRANCH  17  20
ENDBRANCH   1  12
BRANCH   2  22
ATOM     22  O   UNL     1      17.070  34.370  46.070  1.00  0.00    -0.502 OA
ATOM     23  H   UNL     1      16.681  33.586  46.579  1.00  0.00     0.293 HD
ENDBRANCH   2  22
BRANCH   6  24
ATOM     24  O   UNL     1      13.289  33.154  42.516  1.00  0.00    -0.507 OA
ATOM     25  H   UNL     1      13.442  32.284  43.005  1.00  0.00     0.293 HD
ENDBRANCH   6  24
BRANCH   8  26
ATOM     26  O   UNL     1      15.010  35.428  38.652  1.00  0.00    -0.508 OA
ATOM     27  H   UNL     1      15.100  36.392  38.353  1.00  0.00     0.293 HD
ENDBRANCH   8  26
TORSDOF 6
ENDMDL
MODEL 7
REMARK VINA RESULT:    -3.468      1.437      1.512
REMARK INTER + INTRA:          -4.592
REMARK INTER:                  -4.188
REMARK INTRA:                  -0.404
REMARK UNBOUND:                -0.414
REMARK SMILES O=c1c(O)c(-c2ccc(O)cc2O)oc2cc(O)cc(O)c12
REMARK SMILES IDX 5 1 3 2 2 3 1 4 22 5 20 6 19 7 17 8 16 9 15 10 14 11 6 12
REMARK SMILES IDX 8 13 7 14 9 15 11 16 12 17 10 18 13 20 4 22 21 24 18 26
REMARK H PARENT 10 19 13 21 4 23 21 25 18 27
REMARK Flexibility Score: inf
ROOT
ATOM      1  C   UNL     1      19.912  34.141  43.130  1.00  0.00     0.184 A 
ATOM      2  C   UNL     1      19.986  35.250  43.988  1.00  0.00     0.208 A 
ATOM      3  C   UNL     1      21.143  35.437  44.760  1.00  0.00     0.238 A 
ATOM      4  O   UNL     1      21.182  36.402  45.567  1.00  0.00    -0.285 OA
ATOM      5  C   UNL     1      22.218  34.522  44.650  1.00  0.00     0.111 A 
ATOM      6  C   UNL     1      23.454  34.636  45.353  1.00  0.00     0.134 A 
ATOM      7  C   UNL     1      24.396  33.602  45.267  1.00  0.00     0.093 A 
ATOM      8  C   UNL     1      24.174  32.491  44.451  1.00  0.00     0.123 A 
ATOM      9  C   UNL     1      22.996  32.399  43.714  1.00  0.00     0.094 A 
ATOM     10  C   UNL     1      22.021  33.395  43.807  1.00  0.00     0.146 A 
ATOM     11  O   UNL     1      20.907  33.263  43.096  1.00  0.00    -0.451 OA
ENDROOT
BRANCH   1  12
ATOM     12  C   UNL     1      18.730  33.895  42.278  1.00  0.00     0.063 A 
ATOM     13  C   UNL     1      16.482  32.996  42.054  1.00  0.00     0.047 A 
ATOM     14  C   UNL     1      17.614  33.248  42.833  1.00  0.00     0.020 A 
ATOM     15  C   UNL     1      16.455  33.373  40.710  1.00  0.00     0.119 A 
ATOM     16  C   UNL     1      17.571  33.998  40.141  1.00  0.00     0.093 A 
ATOM     17  C   UNL     1      18.715  34.251  40.914  1.00  0.00     0.130 A 
BRANCH  15  18
ATOM     18  O   UNL     1      15.318  33.118  39.947  1.00  0.00    -0.508 OA
ATOM     19  H   UNL     1      15.371  32.988  38.943  1.00  0.00     0.293 HD
ENDBRANCH  15  18
BRANCH  17  20
ATOM     20  O   UNL     1      19.838  34.829  40.323  1.00  0.00    -0.507 OA
ATOM     21  H   UNL     1      19.972  35.833  40.302  1.00  0.00     0.293 HD
ENDBRANCH  17  20
ENDBRANCH   1  12
BRANCH   2  22
ATOM     22  O   UNL     1      18.903  36.128  44.091  1.00  0.00    -0.502 OA
ATOM     23  H   UNL     1      18.237  36.259  43.340  1.00  0.00     0.293 HD
ENDBRANCH   2  22
BRANCH   6  24
ATOM     24  O   UNL     1      23.815  35.746  46.123  1.00  0.00    -0.507 OA
ATOM     25  H   UNL     1      23.541  36.697  45.924  1.00  0.00     0.293 HD
ENDBRANCH   6  24
BRANCH   8  26
ATOM     26  O   UNL     1      25.122  31.476  44.359  1.00  0.00    -0.508 OA
ATOM     27  H   UNL     1      26.018  31.542  44.829  1.00  0.00     0.293 HD
ENDBRANCH   8  26
TORSDOF 6
ENDMDL
MODEL 8
REMARK VINA RESULT:    -3.449      4.088      7.931
REMARK INTER + INTRA:          -4.568
REMARK INTER:                  -4.224
REMARK INTRA:                  -0.344
REMARK UNBOUND:                -0.414
REMARK SMILES O=c1c(O)c(-c2ccc(O)cc2O)oc2cc(O)cc(O)c12
REMARK SMILES IDX 5 1 3 2 2 3 1 4 22 5 20 6 19 7 17 8 16 9 15 10 14 11 6 12
REMARK SMILES IDX 8 13 7 14 9 15 11 16 12 17 10 18 13 20 4 22 21 24 18 26
REMARK H PARENT 10 19 13 21 4 23 21 25 18 27
REMARK Flexibility Score: inf
ROOT
ATOM      1  C   UNL     1      19.023  34.398  40.014  1.00  0.00     0.184 A 
ATOM      2  C   UNL     1      18.424  34.161  41.262  1.00  0.00     0.208 A 
ATOM      3  C   UNL     1      17.178  34.745  41.540  1.00  0.00     0.238 A 
ATOM      4  O   UNL     1      16.671  34.573  42.678  1.00  0.00    -0.285 OA
ATOM      5  C   UNL     1      16.540  35.543  40.559  1.00  0.00     0.111 A 
ATOM      6  C   UNL     1      15.258  36.150  40.717  1.00  0.00     0.134 A 
ATOM      7  C   UNL     1      14.783  37.026  39.733  1.00  0.00     0.093 A 
ATOM      8  C   UNL     1      15.513  37.264  38.567  1.00  0.00     0.123 A 
ATOM      9  C   UNL     1      16.738  36.630  38.376  1.00  0.00     0.094 A 
ATOM     10  C   UNL     1      17.257  35.780  39.356  1.00  0.00     0.146 A 
ATOM     11  O   UNL     1      18.434  35.205  39.139  1.00  0.00    -0.451 OA
ENDROOT
BRANCH   1  12
ATOM     12  C   UNL     1      20.325  33.801  39.651  1.00  0.00     0.063 A 
ATOM     13  C   UNL     1      21.565  32.120  38.407  1.00  0.00     0.047 A 
ATOM     14  C   UNL     1      20.351  32.711  38.767  1.00  0.00     0.020 A 
ATOM     15  C   UNL     1      22.765  32.599  38.936  1.00  0.00     0.119 A 
ATOM     16  C   UNL     1      22.748  33.671  39.837  1.00  0.00     0.093 A 
ATOM     17  C   UNL     1      21.533  34.268  40.208  1.00  0.00     0.130 A 
BRANCH  15  18
ATOM     18  O   UNL     1      23.967  32.002  38.565  1.00  0.00    -0.508 OA
ATOM     19  H   UNL     1      24.116  31.005  38.664  1.00  0.00     0.293 HD
ENDBRANCH  15  18
BRANCH  17  20
ATOM     20  O   UNL     1      21.527  35.302  41.144  1.00  0.00    -0.507 OA
ATOM     21  H   UNL     1      20.765  35.420  41.802  1.00  0.00     0.293 HD
ENDBRANCH  17  20
ENDBRANCH   1  12
BRANCH   2  22
ATOM     22  O   UNL     1      19.084  33.384  42.217  1.00  0.00    -0.502 OA
ATOM     23  H   UNL     1      18.650  32.583  42.660  1.00  0.00     0.293 HD
ENDBRANCH   2  22
BRANCH   6  24
ATOM     24  O   UNL     1      14.408  35.908  41.801  1.00  0.00    -0.507 OA
ATOM     25  H   UNL     1      13.401  35.867  41.742  1.00  0.00     0.293 HD
ENDBRANCH   6  24
BRANCH   8  26
ATOM     26  O   UNL     1      15.025  38.125  37.586  1.00  0.00    -0.508 OA
ATOM     27  H   UNL     1      15.197  37.957  36.601  1.00  0.00     0.293 HD
ENDBRANCH   8  26
TORSDOF 6
ENDMDL
MODEL 9
REMARK VINA RESULT:    -3.391      4.493      6.345
REMARK INTER + INTRA:          -4.498
REMARK INTER:                  -4.209
REMARK INTRA:                  -0.290
REMARK UNBOUND:                -0.414
REMARK SMILES O=c1c(O)c(-c2ccc(O)cc2O)oc2cc(O)cc(O)c12
REMARK SMILES IDX 5 1 3 2 2 3 1 4 22 5 20 6 19 7 17 8 16 9 15 10 14 11 6 12
REMARK SMILES IDX 8 13 7 14 9 15 11 16 12 17 10 18 13 20 4 22 21 24 18 26
REMARK H PARENT 10 19 13 21 4 23 21 25 18 27
REMARK Flexibility Score: inf
ROOT
ATOM      1  C   UNL     1      17.650  35.416  38.814  1.00  0.00     0.184 A 
ATOM      2  C   UNL     1      17.969  35.336  37.449  1.00  0.00     0.208 A 
ATOM      3  C   UNL     1      19.239  34.872  37.073  1.00  0.00     0.238 A 
ATOM      4  O   UNL     1      19.539  34.852  35.852  1.00  0.00    -0.285 OA
ATOM      5  C   UNL     1      20.167  34.478  38.069  1.00  0.00     0.111 A 
ATOM      6  C   UNL     1      21.467  33.954  37.802  1.00  0.00     0.134 A 
ATOM      7  C   UNL     1      22.349  33.720  38.864  1.00  0.00     0.093 A 
ATOM      8  C   UNL     1      21.954  33.928  40.188  1.00  0.00     0.123 A 
ATOM      9  C   UNL     1      20.666  34.383  40.462  1.00  0.00     0.094 A 
ATOM     10  C   UNL     1      19.776  34.661  39.422  1.00  0.00     0.146 A 
ATOM     11  O   UNL     1      18.562  35.103  39.727  1.00  0.00    -0.451 OA
ENDROOT
BRANCH   1  12
ATOM     12  C   UNL     1      16.325  35.880  39.276  1.00  0.00     0.063 A 
ATOM     13  C   UNL     1      14.195  35.365  40.330  1.00  0.00     0.047 A 
ATOM     14  C   UNL     1      15.457  34.960  39.886  1.00  0.00     0.020 A 
ATOM     15  C   UNL     1      13.779  36.687  40.158  1.00  0.00     0.119 A 
ATOM     16  C   UNL     1      14.629  37.607  39.530  1.00  0.00     0.093 A 
ATOM     17  C   UNL     1      15.895  37.208  39.076  1.00  0.00     0.130 A 
BRANCH  15  18
ATOM     18  O   UNL     1      12.521  37.076  40.609  1.00  0.00    -0.508 OA
ATOM     19  H   UNL     1      12.063  36.602  41.379  1.00  0.00     0.293 HD
ENDBRANCH  15  18
BRANCH  17  20
ATOM     20  O   UNL     1      16.711  38.121  38.408  1.00  0.00    -0.507 OA
ATOM     21  H   UNL     1      17.440  37.819  37.773  1.00  0.00     0.293 HD
ENDBRANCH  17  20
ENDBRANCH   1  12
BRANCH   2  22
ATOM     22  O   UNL     1      17.041  35.748  36.489  1.00  0.00    -0.502 OA
ATOM     23  H   UNL     1      17.096  35.459  35.520  1.00  0.00     0.293 HD
ENDBRANCH   2  22
BRANCH   6  24
ATOM     24  O   UNL     1      21.929  33.624  36.524  1.00  0.00    -0.507 OA
ATOM     25  H   UNL     1      21.372  33.666  35.683  1.00  0.00     0.293 HD
ENDBRANCH   6  24
BRANCH   8  26
ATOM     26  O   UNL     1      22.832  33.678  41.240  1.00  0.00    -0.508 OA
ATOM     27  H   UNL     1      22.553  33.807  42.205  1.00  0.00     0.293 HD
ENDBRANCH   8  26
TORSDOF 6
ENDMDL
