MODEL 1
REMARK VINA RESULT:    -3.692      0.000      0.000
REMARK INTER + INTRA:          -6.872
REMARK INTER:                  -6.067
REMARK INTRA:                  -0.805
REMARK UNBOUND:                -0.805
REMARK SMILES CCCCCCCCCCCCCC
REMARK SMILES IDX 7 1 6 2 5 3 4 4 3 5 2 6 1 7 8 8 9 9 10 10 11 11 12 12 13 13
REMARK SMILES IDX 14 14
REMARK H PARENT
REMARK Flexibility Score: inf
ROOT
ATOM      1  C   UNL     1     480.917  38.761 459.369  1.00  0.00    -0.000 C 
ENDROOT
BRANCH   1   2
ATOM      2  C   UNL     1     482.074  38.291 458.474  1.00  0.00    -0.000 C 
BRANCH   2   3
ATOM      3  C   UNL     1     483.122  39.387 458.236  1.00  0.00    -0.000 C 
BRANCH   3   4
ATOM      4  C   UNL     1     484.542  38.812 458.301  1.00  0.00    -0.000 C 
BRANCH   4   5
ATOM      5  C   UNL     1     484.869  38.308 459.712  1.00  0.00    -0.000 C 
BRANCH   5   6
ATOM      6  C   UNL     1     484.922  39.468 460.713  1.00  0.00    -0.003 C 
ATOM      7  C   UNL     1     483.904  39.278 461.832  1.00  0.00     0.004 C 
ENDBRANCH   5   6
ENDBRANCH   4   5
ENDBRANCH   3   4
ENDBRANCH   2   3
ENDBRANCH   1   2
BRANCH   1   8
ATOM      8  C   UNL     1     479.727  37.789 459.358  1.00  0.00    -0.000 C 
BRANCH   8   9
ATOM      9  C   UNL     1     478.551  38.351 460.166  1.00  0.00    -0.000 C 
BRANCH   9  10
ATOM     10  C   UNL     1     477.959  37.284 461.094  1.00  0.00    -0.000 C 
BRANCH  10  11
ATOM     11  C   UNL     1     478.535  35.896 460.773  1.00  0.00    -0.000 C 
BRANCH  11  12
ATOM     12  C   UNL     1     477.862  34.775 461.580  1.00  0.00    -0.000 C 
BRANCH  12  13
ATOM     13  C   UNL     1     476.712  35.287 462.459  1.00  0.00    -0.003 C 
ATOM     14  C   UNL     1     476.012  34.135 463.174  1.00  0.00     0.004 C 
ENDBRANCH  12  13
ENDBRANCH  11  12
ENDBRANCH  10  11
ENDBRANCH   9  10
ENDBRANCH   8   9
ENDBRANCH   1   8
TORSDOF 11
ENDMDL
MODEL 2
REMARK VINA RESULT:    -3.684      1.150      6.957
REMARK INTER + INTRA:          -6.857
REMARK INTER:                  -5.782
REMARK INTRA:                  -1.075
REMARK UNBOUND:                -0.805
REMARK SMILES CCCCCCCCCCCCCC
REMARK SMILES IDX 7 1 6 2 5 3 4 4 3 5 2 6 1 7 8 8 9 9 10 10 11 11 12 12 13 13
REMARK SMILES IDX 14 14
REMARK H PARENT
REMARK Flexibility Score: inf
ROOT
ATOM      1  C   UNL     1     478.892  38.414 462.152  1.00  0.00    -0.000 C 
ENDROOT
BRANCH   1   2
ATOM      2  C   UNL     1     477.960  37.463 461.387  1.00  0.00    -0.000 C 
BRANCH   2   3
ATOM      3  C   UNL     1     478.697  36.241 460.820  1.00  0.00    -0.000 C 
BRANCH   3   4
ATOM      4  C   UNL     1     478.025  34.937 461.271  1.00  0.00    -0.000 C 
BRANCH   4   5
ATOM      5  C   UNL     1     477.083  35.183 462.456  1.00  0.00    -0.000 C 
BRANCH   5   6
ATOM      6  C   UNL     1     476.805  33.882 463.217  1.00  0.00    -0.003 C 
ATOM      7  C   UNL     1     475.320  33.733 463.530  1.00  0.00     0.004 C 
ENDBRANCH   5   6
ENDBRANCH   4   5
ENDBRANCH   3   4
ENDBRANCH   2   3
ENDBRANCH   1   2
BRANCH   1   8
ATOM      8  C   UNL     1     480.193  38.709 461.390  1.00  0.00    -0.000 C 
BRANCH   8   9
ATOM      9  C   UNL     1     479.971  39.786 460.321  1.00  0.00    -0.000 C 
BRANCH   9  10
ATOM     10  C   UNL     1     479.934  39.170 458.917  1.00  0.00    -0.000 C 
BRANCH  10  11
ATOM     11  C   UNL     1     481.103  38.194 458.714  1.00  0.00    -0.000 C 
BRANCH  11  12
ATOM     12  C   UNL     1     482.449  38.912 458.531  1.00  0.00    -0.000 C 
BRANCH  12  13
ATOM     13  C   UNL     1     483.471  38.537 459.614  1.00  0.00    -0.003 C 
ATOM     14  C   UNL     1     483.793  39.735 460.503  1.00  0.00     0.004 C 
ENDBRANCH  12  13
ENDBRANCH  11  12
ENDBRANCH  10  11
ENDBRANCH   9  10
ENDBRANCH   8   9
ENDBRANCH   1   8
TORSDOF 11
ENDMDL
MODEL 3
REMARK VINA RESULT:    -3.662      1.416      6.919
REMARK INTER + INTRA:          -6.821
REMARK INTER:                  -5.619
REMARK INTRA:                  -1.203
REMARK UNBOUND:                -0.805
REMARK SMILES CCCCCCCCCCCCCC
REMARK SMILES IDX 7 1 6 2 5 3 4 4 3 5 2 6 1 7 8 8 9 9 10 10 11 11 12 12 13 13
REMARK SMILES IDX 14 14
REMARK H PARENT
REMARK Flexibility Score: inf
ROOT
ATOM      1  C   UNL     1     479.327  38.189 459.245  1.00  0.00    -0.000 C 
ENDROOT
BRANCH   1   2
ATOM      2  C   UNL     1     479.719  36.707 459.346  1.00  0.00    -0.000 C 
BRANCH   2   3
ATOM      3  C   UNL     1     478.905  35.949 460.404  1.00  0.00    -0.000 C 
BRANCH   3   4
ATOM      4  C   UNL     1     477.969  36.900 461.162  1.00  0.00    -0.000 C 
BRANCH   4   5
ATOM      5  C   UNL     1     477.114  36.136 462.180  1.00  0.00    -0.000 C 
BRANCH   5   6
ATOM      6  C   UNL     1     477.321  34.623 462.048  1.00  0.00    -0.003 C 
ATOM      7  C   UNL     1     476.269  33.851 462.838  1.00  0.00     0.004 C 
ENDBRANCH   5   6
ENDBRANCH   4   5
ENDBRANCH   3   4
ENDBRANCH   2   3
ENDBRANCH   1   2
BRANCH   1   8
ATOM      8  C   UNL     1     480.525  39.132 459.429  1.00  0.00    -0.000 C 
BRANCH   8   9
ATOM      9  C   UNL     1     481.848  38.359 459.358  1.00  0.00    -0.000 C 
BRANCH   9  10
ATOM     10  C   UNL     1     483.021  39.300 459.058  1.00  0.00    -0.000 C 
BRANCH  10  11
ATOM     11  C   UNL     1     483.215  39.472 457.544  1.00  0.00    -0.000 C 
BRANCH  11  12
ATOM     12  C   UNL     1     483.113  38.144 456.779  1.00  0.00    -0.000 C 
BRANCH  12  13
ATOM     13  C   UNL     1     482.111  38.206 455.617  1.00  0.00    -0.003 C 
ATOM     14  C   UNL     1     480.894  37.328 455.893  1.00  0.00     0.004 C 
ENDBRANCH  12  13
ENDBRANCH  11  12
ENDBRANCH  10  11
ENDBRANCH   9  10
ENDBRANCH   8   9
ENDBRANCH   1   8
TORSDOF 11
ENDMDL
MODEL 4
REMARK VINA RESULT:    -3.638      2.419      6.170
REMARK INTER + INTRA:          -6.782
REMARK INTER:                  -5.097
REMARK INTRA:                  -1.685
REMARK UNBOUND:                -0.805
REMARK SMILES CCCCCCCCCCCCCC
REMARK SMILES IDX 7 1 6 2 5 3 4 4 3 5 2 6 1 7 8 8 9 9 10 10 11 11 12 12 13 13
REMARK SMILES IDX 14 14
REMARK H PARENT
REMARK Flexibility Score: inf
ROOT
ATOM      1  C   UNL     1     478.714  38.277 459.936  1.00  0.00    -0.000 C 
ENDROOT
BRANCH   1   2
ATOM      2  C   UNL     1     479.320  36.867 459.873  1.00  0.00    -0.000 C 
BRANCH   2   3
ATOM      3  C   UNL     1     478.572  35.860 460.758  1.00  0.00    -0.000 C 
BRANCH   3   4
ATOM      4  C   UNL     1     477.952  36.555 461.977  1.00  0.00    -0.000 C 
BRANCH   4   5
ATOM      5  C   UNL     1     476.638  35.880 462.388  1.00  0.00    -0.000 C 
BRANCH   5   6
ATOM      6  C   UNL     1     476.782  34.353 462.396  1.00  0.00    -0.003 C 
ATOM      7  C   UNL     1     475.751  33.707 463.316  1.00  0.00     0.004 C 
ENDBRANCH   5   6
ENDBRANCH   4   5
ENDBRANCH   3   4
ENDBRANCH   2   3
ENDBRANCH   1   2
BRANCH   1   8
ATOM      8  C   UNL     1     479.762  39.381 459.734  1.00  0.00    -0.000 C 
BRANCH   8   9
ATOM      9  C   UNL     1     481.010  39.116 460.585  1.00  0.00    -0.000 C 
BRANCH   9  10
ATOM     10  C   UNL     1     480.940  39.873 461.917  1.00  0.00    -0.000 C 
BRANCH  10  11
ATOM     11  C   UNL     1     480.594  38.922 463.073  1.00  0.00    -0.000 C 
BRANCH  11  12
ATOM     12  C   UNL     1     479.425  39.431 463.929  1.00  0.00    -0.000 C 
BRANCH  12  13
ATOM     13  C   UNL     1     478.528  40.423 463.175  1.00  0.00    -0.003 C 
ATOM     14  C   UNL     1     477.102  39.893 463.055  1.00  0.00     0.004 C 
ENDBRANCH  12  13
ENDBRANCH  11  12
ENDBRANCH  10  11
ENDBRANCH   9  10
ENDBRANCH   8   9
ENDBRANCH   1   8
TORSDOF 11
ENDMDL
MODEL 5
REMARK VINA RESULT:    -3.594      1.525      2.470
REMARK INTER + INTRA:          -6.710
REMARK INTER:                  -6.416
REMARK INTRA:                  -0.294
REMARK UNBOUND:                -0.805
REMARK SMILES CCCCCCCCCCCCCC
REMARK SMILES IDX 7 1 6 2 5 3 4 4 3 5 2 6 1 7 8 8 9 9 10 10 11 11 12 12 13 13
REMARK SMILES IDX 14 14
REMARK H PARENT
REMARK Flexibility Score: inf
ROOT
ATOM      1  C   UNL     1     479.801  37.638 459.406  1.00  0.00    -0.000 C 
ENDROOT
BRANCH   1   2
ATOM      2  C   UNL     1     480.473  37.700 458.026  1.00  0.00    -0.000 C 
BRANCH   2   3
ATOM      3  C   UNL     1     481.852  38.374 458.069  1.00  0.00    -0.000 C 
BRANCH   3   4
ATOM      4  C   UNL     1     482.656  38.059 456.801  1.00  0.00    -0.000 C 
BRANCH   4   5
ATOM      5  C   UNL     1     484.160  38.248 457.040  1.00  0.00    -0.000 C 
BRANCH   5   6
ATOM      6  C   UNL     1     484.414  39.187 458.226  1.00  0.00    -0.003 C 
ATOM      7  C   UNL     1     484.645  40.619 457.756  1.00  0.00     0.004 C 
ENDBRANCH   5   6
ENDBRANCH   4   5
ENDBRANCH   3   4
ENDBRANCH   2   3
ENDBRANCH   1   2
BRANCH   1   8
ATOM      8  C   UNL     1     479.365  36.215 459.787  1.00  0.00    -0.000 C 
BRANCH   8   9
ATOM      9  C   UNL     1     478.346  36.242 460.933  1.00  0.00    -0.000 C 
BRANCH   9  10
ATOM     10  C   UNL     1     477.990  34.822 461.388  1.00  0.00    -0.000 C 
BRANCH  10  11
ATOM     11  C   UNL     1     477.247  34.845 462.733  1.00  0.00    -0.000 C 
BRANCH  11  12
ATOM     12  C   UNL     1     476.062  33.869 462.772  1.00  0.00    -0.000 C 
BRANCH  12  13
ATOM     13  C   UNL     1     475.021  34.244 463.837  1.00  0.00    -0.003 C 
ATOM     14  C   UNL     1     474.202  33.028 464.258  1.00  0.00     0.004 C 
ENDBRANCH  12  13
ENDBRANCH  11  12
ENDBRANCH  10  11
ENDBRANCH   9  10
ENDBRANCH   8   9
ENDBRANCH   1   8
TORSDOF 11
ENDMDL
MODEL 6
REMARK VINA RESULT:    -3.574      1.171      6.912
REMARK INTER + INTRA:          -6.677
REMARK INTER:                  -5.658
REMARK INTRA:                  -1.018
REMARK UNBOUND:                -0.805
REMARK SMILES CCCCCCCCCCCCCC
REMARK SMILES IDX 7 1 6 2 5 3 4 4 3 5 2 6 1 7 8 8 9 9 10 10 11 11 12 12 13 13
REMARK SMILES IDX 14 14
REMARK H PARENT
REMARK Flexibility Score: inf
ROOT
ATOM      1  C   UNL     1     480.570  39.551 459.108  1.00  0.00    -0.000 C 
ENDROOT
BRANCH   1   2
ATOM      2  C   UNL     1     480.352  38.071 459.457  1.00  0.00    -0.000 C 
BRANCH   2   3
ATOM      3  C   UNL     1     478.975  37.807 460.084  1.00  0.00    -0.000 C 
BRANCH   3   4
ATOM      4  C   UNL     1     478.813  36.327 460.449  1.00  0.00    -0.000 C 
BRANCH   4   5
ATOM      5  C   UNL     1     477.863  36.153 461.641  1.00  0.00    -0.000 C 
BRANCH   5   6
ATOM      6  C   UNL     1     477.539  34.673 461.876  1.00  0.00    -0.003 C 
ATOM      7  C   UNL     1     476.429  34.509 462.909  1.00  0.00     0.004 C 
ENDBRANCH   5   6
ENDBRANCH   4   5
ENDBRANCH   3   4
ENDBRANCH   2   3
ENDBRANCH   1   2
BRANCH   1   8
ATOM      8  C   UNL     1     481.838  40.130 459.754  1.00  0.00    -0.000 C 
BRANCH   8   9
ATOM      9  C   UNL     1     482.636  39.036 460.473  1.00  0.00    -0.000 C 
BRANCH   9  10
ATOM     10  C   UNL     1     484.120  39.411 460.572  1.00  0.00    -0.000 C 
BRANCH  10  11
ATOM     11  C   UNL     1     484.816  39.265 459.211  1.00  0.00    -0.000 C 
BRANCH  11  12
ATOM     12  C   UNL     1     484.409  37.982 458.472  1.00  0.00    -0.000 C 
BRANCH  12  13
ATOM     13  C   UNL     1     484.133  38.221 456.980  1.00  0.00    -0.003 C 
ATOM     14  C   UNL     1     482.702  37.835 456.617  1.00  0.00     0.004 C 
ENDBRANCH  12  13
ENDBRANCH  11  12
ENDBRANCH  10  11
ENDBRANCH   9  10
ENDBRANCH   8   9
ENDBRANCH   1   8
TORSDOF 11
ENDMDL
MODEL 7
REMARK VINA RESULT:    -3.566      1.482      6.773
REMARK INTER + INTRA:          -6.664
REMARK INTER:                  -5.420
REMARK INTRA:                  -1.245
REMARK UNBOUND:                -0.805
REMARK SMILES CCCCCCCCCCCCCC
REMARK SMILES IDX 7 1 6 2 5 3 4 4 3 5 2 6 1 7 8 8 9 9 10 10 11 11 12 12 13 13
REMARK SMILES IDX 14 14
REMARK H PARENT
REMARK Flexibility Score: inf
ROOT
ATOM      1  C   UNL     1     480.197  37.937 457.547  1.00  0.00    -0.000 C 
ENDROOT
BRANCH   1   2
ATOM      2  C   UNL     1     480.192  37.018 458.778  1.00  0.00    -0.000 C 
BRANCH   2   3
ATOM      3  C   UNL     1     479.277  37.532 459.898  1.00  0.00    -0.000 C 
BRANCH   3   4
ATOM      4  C   UNL     1     478.654  36.367 460.676  1.00  0.00    -0.000 C 
BRANCH   4   5
ATOM      5  C   UNL     1     477.602  36.869 461.672  1.00  0.00    -0.000 C 
BRANCH   5   6
ATOM      6  C   UNL     1     476.847  35.699 462.313  1.00  0.00    -0.003 C 
ATOM      7  C   UNL     1     477.538  34.371 462.022  1.00  0.00     0.004 C 
ENDBRANCH   5   6
ENDBRANCH   4   5
ENDBRANCH   3   4
ENDBRANCH   2   3
ENDBRANCH   1   2
BRANCH   1   8
ATOM      8  C   UNL     1     481.289  37.562 456.533  1.00  0.00    -0.000 C 
BRANCH   8   9
ATOM      9  C   UNL     1     482.114  38.792 456.136  1.00  0.00    -0.000 C 
BRANCH   9  10
ATOM     10  C   UNL     1     483.615  38.478 456.151  1.00  0.00    -0.000 C 
BRANCH  10  11
ATOM     11  C   UNL     1     484.040  37.889 457.505  1.00  0.00    -0.000 C 
BRANCH  11  12
ATOM     12  C   UNL     1     484.292  38.970 458.567  1.00  0.00    -0.000 C 
BRANCH  12  13
ATOM     13  C   UNL     1     483.349  38.845 459.773  1.00  0.00    -0.003 C 
ATOM     14  C   UNL     1     482.328  39.979 459.792  1.00  0.00     0.004 C 
ENDBRANCH  12  13
ENDBRANCH  11  12
ENDBRANCH  10  11
ENDBRANCH   9  10
ENDBRANCH   8   9
ENDBRANCH   1   8
TORSDOF 11
ENDMDL
MODEL 8
REMARK VINA RESULT:    -3.559      1.013      2.356
REMARK INTER + INTRA:          -6.652
REMARK INTER:                  -5.632
REMARK INTRA:                  -1.020
REMARK UNBOUND:                -0.805
REMARK SMILES CCCCCCCCCCCCCC
REMARK SMILES IDX 7 1 6 2 5 3 4 4 3 5 2 6 1 7 8 8 9 9 10 10 11 11 12 12 13 13
REMARK SMILES IDX 14 14
REMARK H PARENT
REMARK Flexibility Score: inf
ROOT
ATOM      1  C   UNL     1     481.529  40.074 460.296  1.00  0.00    -0.000 C 
ENDROOT
BRANCH   1   2
ATOM      2  C   UNL     1     482.697  40.355 461.254  1.00  0.00    -0.000 C 
BRANCH   2   3
ATOM      3  C   UNL     1     483.594  39.128 461.470  1.00  0.00    -0.000 C 
BRANCH   3   4
ATOM      4  C   UNL     1     484.865  39.220 460.617  1.00  0.00    -0.000 C 
BRANCH   4   5
ATOM      5  C   UNL     1     484.804  38.250 459.431  1.00  0.00    -0.000 C 
BRANCH   5   6
ATOM      6  C   UNL     1     484.436  38.984 458.137  1.00  0.00    -0.003 C 
ATOM      7  C   UNL     1     483.626  38.088 457.205  1.00  0.00     0.004 C 
ENDBRANCH   5   6
ENDBRANCH   4   5
ENDBRANCH   3   4
ENDBRANCH   2   3
ENDBRANCH   1   2
BRANCH   1   8
ATOM      8  C   UNL     1     480.851  38.723 460.569  1.00  0.00    -0.000 C 
BRANCH   8   9
ATOM      9  C   UNL     1     480.277  38.126 459.278  1.00  0.00    -0.000 C 
BRANCH   9  10
ATOM     10  C   UNL     1     479.713  36.722 459.523  1.00  0.00    -0.000 C 
BRANCH  10  11
ATOM     11  C   UNL     1     478.585  36.757 460.566  1.00  0.00    -0.000 C 
BRANCH  11  12
ATOM     12  C   UNL     1     478.268  35.368 461.142  1.00  0.00    -0.000 C 
BRANCH  12  13
ATOM     13  C   UNL     1     477.245  35.423 462.286  1.00  0.00    -0.003 C 
ATOM     14  C   UNL     1     476.602  34.057 462.513  1.00  0.00     0.004 C 
ENDBRANCH  12  13
ENDBRANCH  11  12
ENDBRANCH  10  11
ENDBRANCH   9  10
ENDBRANCH   8   9
ENDBRANCH   1   8
TORSDOF 11
ENDMDL
MODEL 9
REMARK VINA RESULT:    -3.483      0.887      6.848
REMARK INTER + INTRA:          -6.528
REMARK INTER:                  -5.585
REMARK INTRA:                  -0.943
REMARK UNBOUND:                -0.805
REMARK SMILES CCCCCCCCCCCCCC
REMARK SMILES IDX 7 1 6 2 5 3 4 4 3 5 2 6 1 7 8 8 9 9 10 10 11 11 12 12 13 13
REMARK SMILES IDX 14 14
REMARK H PARENT
REMARK Flexibility Score: inf
ROOT
ATOM      1  C   UNL     1     480.769  38.821 460.269  1.00  0.00    -0.000 C 
ENDROOT
BRANCH   1   2
ATOM      2  C   UNL     1     479.408  39.167 459.645  1.00  0.00    -0.000 C 
BRANCH   2   3
ATOM      3  C   UNL     1     478.262  38.323 460.219  1.00  0.00    -0.000 C 
BRANCH   3   4
ATOM      4  C   UNL     1     478.751  36.921 460.603  1.00  0.00    -0.000 C 
BRANCH   4   5
ATOM      5  C   UNL     1     477.854  36.300 461.681  1.00  0.00    -0.000 C 
BRANCH   5   6
ATOM      6  C   UNL     1     477.840  34.771 461.572  1.00  0.00    -0.003 C 
ATOM      7  C   UNL     1     476.895  34.153 462.597  1.00  0.00     0.004 C 
ENDBRANCH   5   6
ENDBRANCH   4   5
ENDBRANCH   3   4
ENDBRANCH   2   3
ENDBRANCH   1   2
BRANCH   1   8
ATOM      8  C   UNL     1     481.810  38.397 459.221  1.00  0.00    -0.000 C 
BRANCH   8   9
ATOM      9  C   UNL     1     482.428  39.621 458.535  1.00  0.00    -0.000 C 
BRANCH   9  10
ATOM     10  C   UNL     1     483.960  39.557 458.571  1.00  0.00    -0.000 C 
BRANCH  10  11
ATOM     11  C   UNL     1     484.442  38.381 459.434  1.00  0.00    -0.000 C 
BRANCH  11  12
ATOM     12  C   UNL     1     485.465  38.807 460.498  1.00  0.00    -0.000 C 
BRANCH  12  13
ATOM     13  C   UNL     1     484.938  39.924 461.411  1.00  0.00    -0.003 C 
ATOM     14  C   UNL     1     483.801  39.421 462.295  1.00  0.00     0.004 C 
ENDBRANCH  12  13
ENDBRANCH  11  12
ENDBRANCH  10  11
ENDBRANCH   9  10
ENDBRANCH   8   9
ENDBRANCH   1   8
TORSDOF 11
ENDMDL
