MODEL 1
REMARK VINA RESULT:    -3.312      0.000      0.000
REMARK INTER + INTRA:          -3.914
REMARK INTER:                  -3.893
REMARK INTRA:                  -0.020
REMARK UNBOUND:                -0.020
REMARK SMILES CCCCC(=O)[O-]
REMARK SMILES IDX 4 1 5 2 6 3 7 4 3 5 2 6 1 7
REMARK H PARENT
REMARK Flexibility Score: inf
ROOT
ATOM      1  C   UNL     1     -14.191   7.436   0.403  1.00  0.00     0.053 C 
ENDROOT
BRANCH   1   2
ATOM      2  C   UNL     1     -13.033   8.385   0.370  1.00  0.00     0.041 C 
ATOM      3  O   UNL     1     -13.037   9.416   1.093  1.00  0.00    -0.550 OA
ATOM      4  O   UNL     1     -11.963   8.149  -0.485  1.00  0.00    -0.550 OA
ENDBRANCH   1   2
BRANCH   1   5
ATOM      5  C   UNL     1     -13.891   6.145  -0.370  1.00  0.00     0.006 C 
BRANCH   5   6
ATOM      6  C   UNL     1     -15.167   5.356  -0.699  1.00  0.00    -0.003 C 
ATOM      7  C   UNL     1     -14.935   4.396  -1.863  1.00  0.00     0.004 C 
ENDBRANCH   5   6
ENDBRANCH   1   5
TORSDOF 3
ENDMDL
MODEL 2
REMARK VINA RESULT:    -3.234      2.738      3.955
REMARK INTER + INTRA:          -3.822
REMARK INTER:                  -3.780
REMARK INTRA:                  -0.042
REMARK UNBOUND:                -0.020
REMARK SMILES CCCCC(=O)[O-]
REMARK SMILES IDX 4 1 5 2 6 3 7 4 3 5 2 6 1 7
REMARK H PARENT
REMARK Flexibility Score: inf
ROOT
ATOM      1  C   UNL     1     -13.762   6.135  -0.363  1.00  0.00     0.053 C 
ENDROOT
BRANCH   1   2
ATOM      2  C   UNL     1     -14.904   5.330  -0.903  1.00  0.00     0.041 C 
ATOM      3  O   UNL     1     -16.046   5.421  -0.383  1.00  0.00    -0.550 OA
ATOM      4  O   UNL     1     -14.698   4.453  -1.961  1.00  0.00    -0.550 OA
ENDBRANCH   1   2
BRANCH   1   5
ATOM      5  C   UNL     1     -14.250   7.352   0.433  1.00  0.00     0.006 C 
BRANCH   5   6
ATOM      6  C   UNL     1     -13.185   8.455   0.519  1.00  0.00    -0.003 C 
ATOM      7  C   UNL     1     -12.027   8.177  -0.434  1.00  0.00     0.004 C 
ENDBRANCH   5   6
ENDBRANCH   1   5
TORSDOF 3
ENDMDL
MODEL 3
REMARK VINA RESULT:    -3.016     10.079     11.770
REMARK INTER + INTRA:          -3.566
REMARK INTER:                  -3.519
REMARK INTRA:                  -0.047
REMARK UNBOUND:                -0.020
REMARK SMILES CCCCC(=O)[O-]
REMARK SMILES IDX 4 1 5 2 6 3 7 4 3 5 2 6 1 7
REMARK H PARENT
REMARK Flexibility Score: inf
ROOT
ATOM      1  C   UNL     1     -14.537  12.506   8.915  1.00  0.00     0.053 C 
ENDROOT
BRANCH   1   2
ATOM      2  C   UNL     1     -14.454  13.150   7.565  1.00  0.00     0.041 C 
ATOM      3  O   UNL     1     -15.457  13.160   6.804  1.00  0.00    -0.550 OA
ATOM      4  O   UNL     1     -13.259  13.711   7.134  1.00  0.00    -0.550 OA
ENDBRANCH   1   2
BRANCH   1   5
ATOM      5  C   UNL     1     -15.020  13.491   9.988  1.00  0.00     0.006 C 
BRANCH   5   6
ATOM      6  C   UNL     1     -13.888  14.398  10.494  1.00  0.00    -0.003 C 
ATOM      7  C   UNL     1     -13.348  13.908  11.834  1.00  0.00     0.004 C 
ENDBRANCH   5   6
ENDBRANCH   1   5
TORSDOF 3
ENDMDL
MODEL 4
REMARK VINA RESULT:    -2.997     10.068     11.802
REMARK INTER + INTRA:          -3.542
REMARK INTER:                  -3.500
REMARK INTRA:                  -0.043
REMARK UNBOUND:                -0.020
REMARK SMILES CCCCC(=O)[O-]
REMARK SMILES IDX 4 1 5 2 6 3 7 4 3 5 2 6 1 7
REMARK H PARENT
REMARK Flexibility Score: inf
ROOT
ATOM      1  C   UNL     1     -14.502  12.531   8.895  1.00  0.00     0.053 C 
ENDROOT
BRANCH   1   2
ATOM      2  C   UNL     1     -14.426  13.160   7.537  1.00  0.00     0.041 C 
ATOM      3  O   UNL     1     -13.346  13.663   7.131  1.00  0.00    -0.550 OA
ATOM      4  O   UNL     1     -15.558  13.221   6.734  1.00  0.00    -0.550 OA
ENDBRANCH   1   2
BRANCH   1   5
ATOM      5  C   UNL     1     -14.976  13.529   9.959  1.00  0.00     0.006 C 
BRANCH   5   6
ATOM      6  C   UNL     1     -13.820  14.366  10.527  1.00  0.00    -0.003 C 
ATOM      7  C   UNL     1     -13.477  13.936  11.950  1.00  0.00     0.004 C 
ENDBRANCH   5   6
ENDBRANCH   1   5
TORSDOF 3
ENDMDL
MODEL 5
REMARK VINA RESULT:    -2.814     10.873     11.785
REMARK INTER + INTRA:          -3.328
REMARK INTER:                  -3.218
REMARK INTRA:                  -0.110
REMARK UNBOUND:                -0.020
REMARK SMILES CCCCC(=O)[O-]
REMARK SMILES IDX 4 1 5 2 6 3 7 4 3 5 2 6 1 7
REMARK H PARENT
REMARK Flexibility Score: inf
ROOT
ATOM      1  C   UNL     1     -15.299  13.006   9.938  1.00  0.00     0.053 C 
ENDROOT
BRANCH   1   2
ATOM      2  C   UNL     1     -14.260  13.689  10.773  1.00  0.00     0.041 C 
ATOM      3  O   UNL     1     -13.724  14.755  10.370  1.00  0.00    -0.550 OA
ATOM      4  O   UNL     1     -13.859  13.131  11.980  1.00  0.00    -0.550 OA
ENDBRANCH   1   2
BRANCH   1   5
ATOM      5  C   UNL     1     -14.675  12.244   8.762  1.00  0.00     0.006 C 
BRANCH   5   6
ATOM      6  C   UNL     1     -14.790  13.020   7.441  1.00  0.00    -0.003 C 
ATOM      7  C   UNL     1     -13.441  13.599   7.025  1.00  0.00     0.004 C 
ENDBRANCH   5   6
ENDBRANCH   1   5
TORSDOF 3
ENDMDL
MODEL 6
REMARK VINA RESULT:    -2.699     23.700     24.682
REMARK INTER + INTRA:          -3.192
REMARK INTER:                  -3.109
REMARK INTRA:                  -0.084
REMARK UNBOUND:                -0.020
REMARK SMILES CCCCC(=O)[O-]
REMARK SMILES IDX 4 1 5 2 6 3 7 4 3 5 2 6 1 7
REMARK H PARENT
REMARK Flexibility Score: inf
ROOT
ATOM      1  C   UNL     1       2.169  21.890  11.388  1.00  0.00     0.053 C 
ENDROOT
BRANCH   1   2
ATOM      2  C   UNL     1       1.037  22.847  11.604  1.00  0.00     0.041 C 
ATOM      3  O   UNL     1       1.253  24.086  11.636  1.00  0.00    -0.550 OA
ATOM      4  O   UNL     1      -0.251  22.367  11.803  1.00  0.00    -0.550 OA
ENDBRANCH   1   2
BRANCH   1   5
ATOM      5  C   UNL     1       2.769  21.408  12.715  1.00  0.00     0.006 C 
BRANCH   5   6
ATOM      6  C   UNL     1       2.887  19.878  12.778  1.00  0.00    -0.003 C 
ATOM      7  C   UNL     1       1.527  19.232  13.021  1.00  0.00     0.004 C 
ENDBRANCH   5   6
ENDBRANCH   1   5
TORSDOF 3
ENDMDL
MODEL 7
REMARK VINA RESULT:    -2.507      9.134      9.621
REMARK INTER + INTRA:          -2.967
REMARK INTER:                  -2.930
REMARK INTRA:                  -0.037
REMARK UNBOUND:                -0.020
REMARK SMILES CCCCC(=O)[O-]
REMARK SMILES IDX 4 1 5 2 6 3 7 4 3 5 2 6 1 7
REMARK H PARENT
REMARK Flexibility Score: inf
ROOT
ATOM      1  C   UNL     1     -14.857  12.023   8.678  1.00  0.00     0.053 C 
ENDROOT
BRANCH   1   2
ATOM      2  C   UNL     1     -14.669  12.985   7.545  1.00  0.00     0.041 C 
ATOM      3  O   UNL     1     -15.607  13.198   6.733  1.00  0.00    -0.550 OA
ATOM      4  O   UNL     1     -13.447  13.622   7.367  1.00  0.00    -0.550 OA
ENDBRANCH   1   2
BRANCH   1   5
ATOM      5  C   UNL     1     -15.866  10.921   8.328  1.00  0.00     0.006 C 
BRANCH   5   6
ATOM      6  C   UNL     1     -15.192   9.553   8.145  1.00  0.00    -0.003 C 
ATOM      7  C   UNL     1     -15.781   8.518   9.099  1.00  0.00     0.004 C 
ENDBRANCH   5   6
ENDBRANCH   1   5
TORSDOF 3
ENDMDL
MODEL 8
REMARK VINA RESULT:    -2.425      9.563     11.303
REMARK INTER + INTRA:          -2.870
REMARK INTER:                  -2.839
REMARK INTRA:                  -0.032
REMARK UNBOUND:                -0.020
REMARK SMILES CCCCC(=O)[O-]
REMARK SMILES IDX 4 1 5 2 6 3 7 4 3 5 2 6 1 7
REMARK H PARENT
REMARK Flexibility Score: inf
ROOT
ATOM      1  C   UNL     1     -14.531  13.071   8.050  1.00  0.00     0.053 C 
ENDROOT
BRANCH   1   2
ATOM      2  C   UNL     1     -15.634  12.649   7.128  1.00  0.00     0.041 C 
ATOM      3  O   UNL     1     -16.296  13.513   6.496  1.00  0.00    -0.550 OA
ATOM      4  O   UNL     1     -15.951  11.304   6.992  1.00  0.00    -0.550 OA
ENDBRANCH   1   2
BRANCH   1   5
ATOM      5  C   UNL     1     -14.748  12.546   9.475  1.00  0.00     0.006 C 
BRANCH   5   6
ATOM      6  C   UNL     1     -15.057  13.676  10.469  1.00  0.00    -0.003 C 
ATOM      7  C   UNL     1     -13.825  14.540  10.719  1.00  0.00     0.004 C 
ENDBRANCH   5   6
ENDBRANCH   1   5
TORSDOF 3
ENDMDL
MODEL 9
REMARK VINA RESULT:    -2.413      9.896     10.725
REMARK INTER + INTRA:          -2.856
REMARK INTER:                  -2.811
REMARK INTRA:                  -0.045
REMARK UNBOUND:                -0.020
REMARK SMILES CCCCC(=O)[O-]
REMARK SMILES IDX 4 1 5 2 6 3 7 4 3 5 2 6 1 7
REMARK H PARENT
REMARK Flexibility Score: inf
ROOT
ATOM      1  C   UNL     1     -14.074  13.227   8.113  1.00  0.00     0.053 C 
ENDROOT
BRANCH   1   2
ATOM      2  C   UNL     1     -14.320  13.467   9.571  1.00  0.00     0.041 C 
ATOM      3  O   UNL     1     -15.018  12.658  10.238  1.00  0.00    -0.550 OA
ATOM      4  O   UNL     1     -13.805  14.601  10.186  1.00  0.00    -0.550 OA
ENDBRANCH   1   2
BRANCH   1   5
ATOM      5  C   UNL     1     -15.378  12.943   7.355  1.00  0.00     0.006 C 
BRANCH   5   6
ATOM      6  C   UNL     1     -15.613  11.440   7.145  1.00  0.00    -0.003 C 
ATOM      7  C   UNL     1     -17.048  11.054   7.488  1.00  0.00     0.004 C 
ENDBRANCH   5   6
ENDBRANCH   1   5
TORSDOF 3
ENDMDL
