MODEL 1
REMARK VINA RESULT:    -5.375      0.000      0.000
REMARK INTER + INTRA:          -5.787
REMARK INTER:                  -5.689
REMARK INTRA:                  -0.098
REMARK UNBOUND:                -0.098
REMARK SMILES C=C(C)[C@@H]1CC=C(C)C(=O)C1
REMARK SMILES IDX 8 1 7 2 6 3 5 4 4 5 11 6 9 7 10 8 2 9 1 10 3 11
REMARK H PARENT
REMARK Flexibility Score: inf
ROOT
ATOM      1  C   UNL     1      16.189 -34.388  22.562  1.00  0.00     0.048 C 
ATOM      2  C   UNL     1      15.278 -33.193  22.509  1.00  0.00    -0.012 C 
ATOM      3  C   UNL     1      15.092 -32.444  23.609  1.00  0.00    -0.019 C 
ATOM      4  C   UNL     1      14.206 -31.227  23.606  1.00  0.00     0.036 C 
ATOM      5  C   UNL     1      13.028 -31.402  22.630  1.00  0.00     0.025 C 
ATOM      6  C   UNL     1      13.547 -31.749  21.222  1.00  0.00     0.089 C 
ATOM      7  C   UNL     1      14.493 -32.917  21.280  1.00  0.00     0.158 C 
ATOM      8  O   UNL     1      14.639 -33.639  20.258  1.00  0.00    -0.295 OA
ENDROOT
BRANCH   5   9
ATOM      9  C   UNL     1      12.136 -30.168  22.606  1.00  0.00    -0.077 C 
ATOM     10  C   UNL     1      12.463 -29.087  23.332  1.00  0.00     0.008 C 
ATOM     11  C   UNL     1      10.875 -30.125  21.778  1.00  0.00     0.039 C 
ENDBRANCH   5   9
TORSDOF 1
ENDMDL
MODEL 2
REMARK VINA RESULT:    -5.278      1.569      1.746
REMARK INTER + INTRA:          -5.685
REMARK INTER:                  -5.592
REMARK INTRA:                  -0.093
REMARK UNBOUND:                -0.098
REMARK SMILES C=C(C)[C@@H]1CC=C(C)C(=O)C1
REMARK SMILES IDX 8 1 7 2 6 3 5 4 4 5 11 6 9 7 10 8 2 9 1 10 3 11
REMARK H PARENT
REMARK Flexibility Score: inf
ROOT
ATOM      1  C   UNL     1      16.939 -32.074  21.417  1.00  0.00     0.048 C 
ATOM      2  C   UNL     1      15.701 -31.276  21.722  1.00  0.00    -0.012 C 
ATOM      3  C   UNL     1      15.809 -30.070  22.305  1.00  0.00    -0.019 C 
ATOM      4  C   UNL     1      14.604 -29.223  22.615  1.00  0.00     0.036 C 
ATOM      5  C   UNL     1      13.385 -30.098  22.960  1.00  0.00     0.025 C 
ATOM      6  C   UNL     1      13.113 -31.107  21.829  1.00  0.00     0.089 C 
ATOM      7  C   UNL     1      14.362 -31.874  21.493  1.00  0.00     0.158 C 
ATOM      8  O   UNL     1      14.258 -33.020  20.979  1.00  0.00    -0.295 OA
ENDROOT
BRANCH   5   9
ATOM      9  C   UNL     1      12.155 -29.250  23.257  1.00  0.00    -0.077 C 
ATOM     10  C   UNL     1      12.193 -28.328  24.232  1.00  0.00     0.008 C 
ATOM     11  C   UNL     1      10.875 -29.421  22.476  1.00  0.00     0.039 C 
ENDBRANCH   5   9
TORSDOF 1
ENDMDL
MODEL 3
REMARK VINA RESULT:    -5.273      1.875      2.232
REMARK INTER + INTRA:          -5.680
REMARK INTER:                  -5.592
REMARK INTRA:                  -0.088
REMARK UNBOUND:                -0.098
REMARK SMILES C=C(C)[C@@H]1CC=C(C)C(=O)C1
REMARK SMILES IDX 8 1 7 2 6 3 5 4 4 5 11 6 9 7 10 8 2 9 1 10 3 11
REMARK H PARENT
REMARK Flexibility Score: inf
ROOT
ATOM      1  C   UNL     1      17.369 -31.986  23.726  1.00  0.00     0.048 C 
ATOM      2  C   UNL     1      16.027 -31.373  23.435  1.00  0.00    -0.012 C 
ATOM      3  C   UNL     1      15.944 -30.073  23.103  1.00  0.00    -0.019 C 
ATOM      4  C   UNL     1      14.629 -29.414  22.783  1.00  0.00     0.036 C 
ATOM      5  C   UNL     1      13.483 -30.037  23.601  1.00  0.00     0.025 C 
ATOM      6  C   UNL     1      13.438 -31.561  23.385  1.00  0.00     0.089 C 
ATOM      7  C   UNL     1      14.791 -32.170  23.634  1.00  0.00     0.158 C 
ATOM      8  O   UNL     1      14.865 -33.379  23.980  1.00  0.00    -0.295 OA
ENDROOT
BRANCH   5   9
ATOM      9  C   UNL     1      12.145 -29.389  23.271  1.00  0.00    -0.077 C 
ATOM     10  C   UNL     1      11.740 -28.300  23.943  1.00  0.00     0.008 C 
ATOM     11  C   UNL     1      11.245 -29.947  22.195  1.00  0.00     0.039 C 
ENDBRANCH   5   9
TORSDOF 1
ENDMDL
MODEL 4
REMARK VINA RESULT:    -5.158      1.963      4.374
REMARK INTER + INTRA:          -5.558
REMARK INTER:                  -5.466
REMARK INTRA:                  -0.092
REMARK UNBOUND:                -0.098
REMARK SMILES C=C(C)[C@@H]1CC=C(C)C(=O)C1
REMARK SMILES IDX 8 1 7 2 6 3 5 4 4 5 11 6 9 7 10 8 2 9 1 10 3 11
REMARK H PARENT
REMARK Flexibility Score: inf
ROOT
ATOM      1  C   UNL     1      11.366 -28.501  23.636  1.00  0.00     0.048 C 
ATOM      2  C   UNL     1      12.392 -29.502  23.183  1.00  0.00    -0.012 C 
ATOM      3  C   UNL     1      13.647 -29.437  23.659  1.00  0.00    -0.019 C 
ATOM      4  C   UNL     1      14.708 -30.425  23.253  1.00  0.00     0.036 C 
ATOM      5  C   UNL     1      14.498 -30.899  21.803  1.00  0.00     0.025 C 
ATOM      6  C   UNL     1      13.076 -31.464  21.625  1.00  0.00     0.089 C 
ATOM      7  C   UNL     1      12.051 -30.480  22.120  1.00  0.00     0.158 C 
ATOM      8  O   UNL     1      10.884 -30.520  21.645  1.00  0.00    -0.295 OA
ENDROOT
BRANCH   5   9
ATOM      9  C   UNL     1      15.555 -31.913  21.389  1.00  0.00    -0.077 C 
ATOM     10  C   UNL     1      16.851 -31.563  21.365  1.00  0.00     0.008 C 
ATOM     11  C   UNL     1      15.182 -33.322  20.996  1.00  0.00     0.039 C 
ENDBRANCH   5   9
TORSDOF 1
ENDMDL
MODEL 5
REMARK VINA RESULT:    -5.052      2.041      2.595
REMARK INTER + INTRA:          -5.446
REMARK INTER:                  -5.356
REMARK INTRA:                  -0.089
REMARK UNBOUND:                -0.098
REMARK SMILES C=C(C)[C@@H]1CC=C(C)C(=O)C1
REMARK SMILES IDX 8 1 7 2 6 3 5 4 4 5 11 6 9 7 10 8 2 9 1 10 3 11
REMARK H PARENT
REMARK Flexibility Score: inf
ROOT
ATOM      1  C   UNL     1      16.426 -32.787  22.352  1.00  0.00     0.048 C 
ATOM      2  C   UNL     1      15.527 -31.669  22.804  1.00  0.00    -0.012 C 
ATOM      3  C   UNL     1      14.427 -31.945  23.524  1.00  0.00    -0.019 C 
ATOM      4  C   UNL     1      13.504 -30.863  24.017  1.00  0.00     0.036 C 
ATOM      5  C   UNL     1      13.458 -29.681  23.031  1.00  0.00     0.025 C 
ATOM      6  C   UNL     1      14.880 -29.156  22.759  1.00  0.00     0.089 C 
ATOM      7  C   UNL     1      15.790 -30.281  22.350  1.00  0.00     0.158 C 
ATOM      8  O   UNL     1      16.802 -30.025  21.644  1.00  0.00    -0.295 OA
ENDROOT
BRANCH   5   9
ATOM      9  C   UNL     1      12.541 -28.573  23.530  1.00  0.00    -0.077 C 
ATOM     10  C   UNL     1      11.211 -28.683  23.386  1.00  0.00     0.008 C 
ATOM     11  C   UNL     1      13.094 -27.333  24.190  1.00  0.00     0.039 C 
ENDBRANCH   5   9
TORSDOF 1
ENDMDL
MODEL 6
REMARK VINA RESULT:    -5.020      1.078      4.508
REMARK INTER + INTRA:          -5.412
REMARK INTER:                  -5.314
REMARK INTRA:                  -0.098
REMARK UNBOUND:                -0.098
REMARK SMILES C=C(C)[C@@H]1CC=C(C)C(=O)C1
REMARK SMILES IDX 8 1 7 2 6 3 5 4 4 5 11 6 9 7 10 8 2 9 1 10 3 11
REMARK H PARENT
REMARK Flexibility Score: inf
ROOT
ATOM      1  C   UNL     1      12.380 -30.198  22.574  1.00  0.00     0.048 C 
ATOM      2  C   UNL     1      13.272 -31.404  22.679  1.00  0.00    -0.012 C 
ATOM      3  C   UNL     1      13.742 -31.787  23.878  1.00  0.00    -0.019 C 
ATOM      4  C   UNL     1      14.623 -32.997  24.041  1.00  0.00     0.036 C 
ATOM      5  C   UNL     1      15.517 -33.202  22.804  1.00  0.00     0.025 C 
ATOM      6  C   UNL     1      14.656 -33.276  21.529  1.00  0.00     0.089 C 
ATOM      7  C   UNL     1      13.731 -32.092  21.447  1.00  0.00     0.158 C 
ATOM      8  O   UNL     1      13.320 -31.713  20.317  1.00  0.00    -0.295 OA
ENDROOT
BRANCH   5   9
ATOM      9  C   UNL     1      16.399 -34.435  22.951  1.00  0.00    -0.077 C 
ATOM     10  C   UNL     1      16.847 -35.076  21.860  1.00  0.00     0.008 C 
ATOM     11  C   UNL     1      16.788 -34.966  24.309  1.00  0.00     0.039 C 
ENDBRANCH   5   9
TORSDOF 1
ENDMDL
MODEL 7
REMARK VINA RESULT:    -4.915      2.148      3.168
REMARK INTER + INTRA:          -5.301
REMARK INTER:                  -5.204
REMARK INTRA:                  -0.097
REMARK UNBOUND:                -0.098
REMARK SMILES C=C(C)[C@@H]1CC=C(C)C(=O)C1
REMARK SMILES IDX 8 1 7 2 6 3 5 4 4 5 11 6 9 7 10 8 2 9 1 10 3 11
REMARK H PARENT
REMARK Flexibility Score: inf
ROOT
ATOM      1  C   UNL     1      16.507 -35.831  19.860  1.00  0.00     0.048 C 
ATOM      2  C   UNL     1      15.855 -34.804  20.743  1.00  0.00    -0.012 C 
ATOM      3  C   UNL     1      14.970 -33.938  20.222  1.00  0.00    -0.019 C 
ATOM      4  C   UNL     1      14.274 -32.902  21.064  1.00  0.00     0.036 C 
ATOM      5  C   UNL     1      15.181 -32.422  22.213  1.00  0.00     0.025 C 
ATOM      6  C   UNL     1      15.668 -33.621  23.047  1.00  0.00     0.089 C 
ATOM      7  C   UNL     1      16.281 -34.669  22.158  1.00  0.00     0.158 C 
ATOM      8  O   UNL     1      17.138 -35.457  22.641  1.00  0.00    -0.295 OA
ENDROOT
BRANCH   5   9
ATOM      9  C   UNL     1      14.479 -31.388  23.083  1.00  0.00    -0.077 C 
ATOM     10  C   UNL     1      13.624 -31.782  24.040  1.00  0.00     0.008 C 
ATOM     11  C   UNL     1      14.718 -29.909  22.895  1.00  0.00     0.039 C 
ENDBRANCH   5   9
TORSDOF 1
ENDMDL
MODEL 8
REMARK VINA RESULT:    -4.897      2.718      4.736
REMARK INTER + INTRA:          -5.282
REMARK INTER:                  -5.184
REMARK INTRA:                  -0.098
REMARK UNBOUND:                -0.098
REMARK SMILES C=C(C)[C@@H]1CC=C(C)C(=O)C1
REMARK SMILES IDX 8 1 7 2 6 3 5 4 4 5 11 6 9 7 10 8 2 9 1 10 3 11
REMARK H PARENT
REMARK Flexibility Score: inf
ROOT
ATOM      1  C   UNL     1      12.723 -29.481  23.998  1.00  0.00     0.048 C 
ATOM      2  C   UNL     1      14.029 -29.932  23.405  1.00  0.00    -0.012 C 
ATOM      3  C   UNL     1      14.752 -29.084  22.654  1.00  0.00    -0.019 C 
ATOM      4  C   UNL     1      16.075 -29.478  22.053  1.00  0.00     0.036 C 
ATOM      5  C   UNL     1      16.096 -30.975  21.694  1.00  0.00     0.025 C 
ATOM      6  C   UNL     1      15.739 -31.826  22.927  1.00  0.00     0.089 C 
ATOM      7  C   UNL     1      14.455 -31.347  23.547  1.00  0.00     0.158 C 
ATOM      8  O   UNL     1      13.761 -32.154  24.221  1.00  0.00    -0.295 OA
ENDROOT
BRANCH   5   9
ATOM      9  C   UNL     1      17.437 -31.388  21.102  1.00  0.00    -0.077 C 
ATOM     10  C   UNL     1      18.426 -30.488  20.984  1.00  0.00     0.008 C 
ATOM     11  C   UNL     1      17.689 -32.801  20.635  1.00  0.00     0.039 C 
ENDBRANCH   5   9
TORSDOF 1
ENDMDL
