MODEL 1
REMARK VINA RESULT:    -4.136      0.000      0.000
REMARK INTER + INTRA:          -8.740
REMARK INTER:                  -7.520
REMARK INTRA:                  -1.220
REMARK UNBOUND:                -1.220
REMARK SMILES CCCCCC=CCC=CCCCCCCCC(=O)[O-]
REMARK SMILES IDX 11 1 12 2 13 3 14 4 15 5 16 6 17 7 18 8 19 9 20 10 10 11
REMARK SMILES IDX 9 12 8 13 7 14 6 15 5 16 4 17 3 18 2 19 1 20
REMARK H PARENT
REMARK Flexibility Score: inf
ROOT
ATOM      1  C   UNL     1       6.147  -7.778  -8.633  1.00  0.00     0.027 C 
ENDROOT
BRANCH   1   2
ATOM      2  C   UNL     1       5.489  -8.633  -9.721  1.00  0.00     0.004 C 
BRANCH   2   3
ATOM      3  C   UNL     1       4.330  -9.460  -9.145  1.00  0.00     0.000 C 
BRANCH   3   4
ATOM      4  C   UNL     1       3.137  -8.592  -8.706  1.00  0.00     0.000 C 
BRANCH   4   5
ATOM      5  C   UNL     1       2.508  -7.734  -9.824  1.00  0.00     0.000 C 
BRANCH   5   6
ATOM      6  C   UNL     1       1.856  -6.419  -9.355  1.00  0.00     0.006 C 
BRANCH   6   7
ATOM      7  C   UNL     1       2.643  -5.674  -8.265  1.00  0.00     0.053 C 
BRANCH   7   8
ATOM      8  C   UNL     1       1.882  -4.500  -7.730  1.00  0.00     0.041 C 
ATOM      9  O   UNL     1       1.623  -4.420  -6.500  1.00  0.00    -0.550 OA
ATOM     10  O   UNL     1       1.432  -3.510  -8.593  1.00  0.00    -0.550 OA
ENDBRANCH   7   8
ENDBRANCH   6   7
ENDBRANCH   5   6
ENDBRANCH   4   5
ENDBRANCH   3   4
ENDBRANCH   2   3
ENDBRANCH   1   2
BRANCH   1  11
ATOM     11  C   UNL     1       6.551  -6.443  -9.195  1.00  0.00    -0.031 C 
ATOM     12  C   UNL     1       7.839  -6.125  -9.389  1.00  0.00    -0.027 C 
BRANCH  12  13
ATOM     13  C   UNL     1       8.244  -4.765  -9.880  1.00  0.00     0.054 C 
BRANCH  13  14
ATOM     14  C   UNL     1       9.173  -4.095  -8.906  1.00  0.00    -0.027 C 
ATOM     15  C   UNL     1       8.724  -3.141  -8.079  1.00  0.00    -0.031 C 
BRANCH  15  16
ATOM     16  C   UNL     1       9.643  -2.436  -7.117  1.00  0.00     0.027 C 
BRANCH  16  17
ATOM     17  C   UNL     1       8.940  -2.074  -5.796  1.00  0.00     0.004 C 
BRANCH  17  18
ATOM     18  C   UNL     1       7.536  -1.465  -5.978  1.00  0.00     0.000 C 
BRANCH  18  19
ATOM     19  C   UNL     1       6.845  -1.155  -4.641  1.00  0.00    -0.003 C 
ATOM     20  C   UNL     1       7.496  -1.927  -3.498  1.00  0.00     0.004 C 
ENDBRANCH  18  19
ENDBRANCH  17  18
ENDBRANCH  16  17
ENDBRANCH  15  16
ENDBRANCH  13  14
ENDBRANCH  12  13
ENDBRANCH   1  11
TORSDOF 14
ENDMDL
MODEL 2
REMARK VINA RESULT:    -3.998     14.431     17.128
REMARK INTER + INTRA:          -8.490
REMARK INTER:                  -5.946
REMARK INTRA:                  -2.544
REMARK UNBOUND:                -1.220
REMARK SMILES CCCCCC=CCC=CCCCCCCCC(=O)[O-]
REMARK SMILES IDX 11 1 12 2 13 3 14 4 15 5 16 6 17 7 18 8 19 9 20 10 10 11
REMARK SMILES IDX 9 12 8 13 7 14 6 15 5 16 4 17 3 18 2 19 1 20
REMARK H PARENT
REMARK Flexibility Score: inf
ROOT
ATOM      1  C   UNL     1       7.207  -0.616   9.005  1.00  0.00     0.027 C 
ENDROOT
BRANCH   1   2
ATOM      2  C   UNL     1       8.350  -0.572   7.986  1.00  0.00     0.004 C 
BRANCH   2   3
ATOM      3  C   UNL     1       8.053  -1.481   6.786  1.00  0.00     0.000 C 
BRANCH   3   4
ATOM      4  C   UNL     1       8.424  -0.834   5.439  1.00  0.00     0.000 C 
BRANCH   4   5
ATOM      5  C   UNL     1       8.662   0.690   5.491  1.00  0.00     0.000 C 
BRANCH   5   6
ATOM      6  C   UNL     1       7.880   1.512   4.448  1.00  0.00     0.006 C 
BRANCH   6   7
ATOM      7  C   UNL     1       6.579   2.135   4.976  1.00  0.00     0.053 C 
BRANCH   7   8
ATOM      8  C   UNL     1       5.725   2.671   3.868  1.00  0.00     0.041 C 
ATOM      9  O   UNL     1       4.841   1.944   3.342  1.00  0.00    -0.550 OA
ATOM     10  O   UNL     1       5.926   3.961   3.395  1.00  0.00    -0.550 OA
ENDBRANCH   7   8
ENDBRANCH   6   7
ENDBRANCH   5   6
ENDBRANCH   4   5
ENDBRANCH   3   4
ENDBRANCH   2   3
ENDBRANCH   1   2
BRANCH   1  11
ATOM     11  C   UNL     1       6.168   0.417   8.667  1.00  0.00    -0.031 C 
ATOM     12  C   UNL     1       4.907   0.315   9.113  1.00  0.00    -0.027 C 
BRANCH  12  13
ATOM     13  C   UNL     1       3.853   1.307   8.714  1.00  0.00     0.054 C 
BRANCH  13  14
ATOM     14  C   UNL     1       4.474   2.596   8.253  1.00  0.00    -0.027 C 
ATOM     15  C   UNL     1       4.321   3.722   8.964  1.00  0.00    -0.031 C 
BRANCH  15  16
ATOM     16  C   UNL     1       4.910   5.030   8.505  1.00  0.00     0.027 C 
BRANCH  16  17
ATOM     17  C   UNL     1       5.970   4.840   7.405  1.00  0.00     0.004 C 
BRANCH  17  18
ATOM     18  C   UNL     1       7.423   4.916   7.913  1.00  0.00     0.000 C 
BRANCH  18  19
ATOM     19  C   UNL     1       8.089   3.536   8.020  1.00  0.00    -0.003 C 
ATOM     20  C   UNL     1       8.456   3.217   9.466  1.00  0.00     0.004 C 
ENDBRANCH  18  19
ENDBRANCH  17  18
ENDBRANCH  16  17
ENDBRANCH  15  16
ENDBRANCH  13  14
ENDBRANCH  12  13
ENDBRANCH   1  11
TORSDOF 14
ENDMDL
MODEL 3
REMARK VINA RESULT:    -3.927     13.327     16.427
REMARK INTER + INTRA:          -8.361
REMARK INTER:                  -7.056
REMARK INTRA:                  -1.305
REMARK UNBOUND:                -1.220
REMARK SMILES CCCCCC=CCC=CCCCCCCCC(=O)[O-]
REMARK SMILES IDX 11 1 12 2 13 3 14 4 15 5 16 6 17 7 18 8 19 9 20 10 10 11
REMARK SMILES IDX 9 12 8 13 7 14 6 15 5 16 4 17 3 18 2 19 1 20
REMARK H PARENT
REMARK Flexibility Score: inf
ROOT
ATOM      1  C   UNL     1      -8.190  -4.645  -4.580  1.00  0.00     0.027 C 
ENDROOT
BRANCH   1   2
ATOM      2  C   UNL     1      -8.661  -3.542  -3.627  1.00  0.00     0.004 C 
BRANCH   2   3
ATOM      3  C   UNL     1      -9.393  -2.430  -4.390  1.00  0.00     0.000 C 
BRANCH   3   4
ATOM      4  C   UNL     1      -8.618  -1.944  -5.629  1.00  0.00     0.000 C 
BRANCH   4   5
ATOM      5  C   UNL     1      -9.427  -1.936  -6.943  1.00  0.00     0.000 C 
BRANCH   5   6
ATOM      6  C   UNL     1      -9.056  -3.044  -7.948  1.00  0.00     0.006 C 
BRANCH   6   7
ATOM      7  C   UNL     1      -7.581  -3.473  -7.905  1.00  0.00     0.053 C 
BRANCH   7   8
ATOM      8  C   UNL     1      -6.904  -3.283  -9.227  1.00  0.00     0.041 C 
ATOM      9  O   UNL     1      -6.310  -4.247  -9.779  1.00  0.00    -0.550 OA
ATOM     10  O   UNL     1      -6.898  -2.034  -9.834  1.00  0.00    -0.550 OA
ENDBRANCH   7   8
ENDBRANCH   6   7
ENDBRANCH   5   6
ENDBRANCH   4   5
ENDBRANCH   3   4
ENDBRANCH   2   3
ENDBRANCH   1   2
BRANCH   1  11
ATOM     11  C   UNL     1      -9.209  -5.749  -4.641  1.00  0.00    -0.031 C 
ATOM     12  C   UNL     1      -8.929  -6.987  -4.205  1.00  0.00    -0.027 C 
BRANCH  12  13
ATOM     13  C   UNL     1      -9.921  -8.106  -4.334  1.00  0.00     0.054 C 
BRANCH  13  14
ATOM     14  C   UNL     1      -9.247  -9.442  -4.195  1.00  0.00    -0.027 C 
ATOM     15  C   UNL     1      -9.970 -10.560  -4.043  1.00  0.00    -0.031 C 
BRANCH  15  16
ATOM     16  C   UNL     1      -9.315 -11.905  -3.872  1.00  0.00     0.027 C 
BRANCH  16  17
ATOM     17  C   UNL     1      -9.458 -12.447  -2.438  1.00  0.00     0.004 C 
BRANCH  17  18
ATOM     18  C   UNL     1      -8.196 -12.273  -1.571  1.00  0.00     0.000 C 
BRANCH  18  19
ATOM     19  C   UNL     1      -8.341 -11.156  -0.527  1.00  0.00    -0.003 C 
ATOM     20  C   UNL     1      -9.799 -10.728  -0.385  1.00  0.00     0.004 C 
ENDBRANCH  18  19
ENDBRANCH  17  18
ENDBRANCH  16  17
ENDBRANCH  15  16
ENDBRANCH  13  14
ENDBRANCH  12  13
ENDBRANCH   1  11
TORSDOF 14
ENDMDL
MODEL 4
REMARK VINA RESULT:    -3.882     13.614     16.217
REMARK INTER + INTRA:          -8.279
REMARK INTER:                  -6.313
REMARK INTRA:                  -1.966
REMARK UNBOUND:                -1.220
REMARK SMILES CCCCCC=CCC=CCCCCCCCC(=O)[O-]
REMARK SMILES IDX 11 1 12 2 13 3 14 4 15 5 16 6 17 7 18 8 19 9 20 10 10 11
REMARK SMILES IDX 9 12 8 13 7 14 6 15 5 16 4 17 3 18 2 19 1 20
REMARK H PARENT
REMARK Flexibility Score: inf
ROOT
ATOM      1  C   UNL     1       9.909  -2.335   5.281  1.00  0.00     0.027 C 
ENDROOT
BRANCH   1   2
ATOM      2  C   UNL     1       9.498  -1.465   4.089  1.00  0.00     0.004 C 
BRANCH   2   3
ATOM      3  C   UNL     1       8.390  -0.479   4.483  1.00  0.00     0.000 C 
BRANCH   3   4
ATOM      4  C   UNL     1       8.834   0.992   4.384  1.00  0.00     0.000 C 
BRANCH   4   5
ATOM      5  C   UNL     1       8.620   1.826   5.664  1.00  0.00     0.000 C 
BRANCH   5   6
ATOM      6  C   UNL     1       7.510   2.892   5.575  1.00  0.00     0.006 C 
BRANCH   6   7
ATOM      7  C   UNL     1       6.109   2.328   5.295  1.00  0.00     0.053 C 
BRANCH   7   8
ATOM      8  C   UNL     1       5.639   2.657   3.911  1.00  0.00     0.041 C 
ATOM      9  O   UNL     1       6.079   3.677   3.318  1.00  0.00    -0.550 OA
ATOM     10  O   UNL     1       4.690   1.856   3.289  1.00  0.00    -0.550 OA
ENDBRANCH   7   8
ENDBRANCH   6   7
ENDBRANCH   5   6
ENDBRANCH   4   5
ENDBRANCH   3   4
ENDBRANCH   2   3
ENDBRANCH   1   2
BRANCH   1  11
ATOM     11  C   UNL     1       8.880  -2.240   6.374  1.00  0.00    -0.031 C 
ATOM     12  C   UNL     1       9.231  -2.245   7.668  1.00  0.00    -0.027 C 
BRANCH  12  13
ATOM     13  C   UNL     1       8.198  -2.225   8.759  1.00  0.00     0.054 C 
BRANCH  13  14
ATOM     14  C   UNL     1       7.239  -1.083   8.570  1.00  0.00    -0.027 C 
ATOM     15  C   UNL     1       7.557   0.152   8.983  1.00  0.00    -0.031 C 
BRANCH  15  16
ATOM     16  C   UNL     1       6.599   1.304   8.832  1.00  0.00     0.027 C 
BRANCH  16  17
ATOM     17  C   UNL     1       5.133   0.839   8.748  1.00  0.00     0.004 C 
BRANCH  17  18
ATOM     18  C   UNL     1       4.143   1.952   8.355  1.00  0.00     0.000 C 
BRANCH  18  19
ATOM     19  C   UNL     1       2.686   1.595   8.686  1.00  0.00    -0.003 C 
ATOM     20  C   UNL     1       1.918   1.209   7.426  1.00  0.00     0.004 C 
ENDBRANCH  18  19
ENDBRANCH  17  18
ENDBRANCH  16  17
ENDBRANCH  15  16
ENDBRANCH  13  14
ENDBRANCH  12  13
ENDBRANCH   1  11
TORSDOF 14
ENDMDL
MODEL 5
REMARK VINA RESULT:    -3.873     13.915     17.444
REMARK INTER + INTRA:          -8.263
REMARK INTER:                  -5.529
REMARK INTRA:                  -2.734
REMARK UNBOUND:                -1.220
REMARK SMILES CCCCCC=CCC=CCCCCCCCC(=O)[O-]
REMARK SMILES IDX 11 1 12 2 13 3 14 4 15 5 16 6 17 7 18 8 19 9 20 10 10 11
REMARK SMILES IDX 9 12 8 13 7 14 6 15 5 16 4 17 3 18 2 19 1 20
REMARK H PARENT
REMARK Flexibility Score: inf
ROOT
ATOM      1  C   UNL     1       3.735   2.474   8.593  1.00  0.00     0.027 C 
ENDROOT
BRANCH   1   2
ATOM      2  C   UNL     1       4.599   3.480   9.360  1.00  0.00     0.004 C 
BRANCH   2   3
ATOM      3  C   UNL     1       4.655   4.828   8.629  1.00  0.00     0.000 C 
BRANCH   3   4
ATOM      4  C   UNL     1       5.760   4.882   7.558  1.00  0.00     0.000 C 
BRANCH   4   5
ATOM      5  C   UNL     1       6.967   3.957   7.819  1.00  0.00     0.000 C 
BRANCH   5   6
ATOM      6  C   UNL     1       7.460   3.160   6.595  1.00  0.00     0.006 C 
BRANCH   6   7
ATOM      7  C   UNL     1       6.338   2.567   5.729  1.00  0.00     0.053 C 
BRANCH   7   8
ATOM      8  C   UNL     1       6.351   3.123   4.338  1.00  0.00     0.041 C 
ATOM      9  O   UNL     1       6.766   4.293   4.127  1.00  0.00    -0.550 OA
ATOM     10  O   UNL     1       5.875   2.360   3.279  1.00  0.00    -0.550 OA
ENDBRANCH   7   8
ENDBRANCH   6   7
ENDBRANCH   5   6
ENDBRANCH   4   5
ENDBRANCH   3   4
ENDBRANCH   2   3
ENDBRANCH   1   2
BRANCH   1  11
ATOM     11  C   UNL     1       4.174   1.069   8.903  1.00  0.00    -0.031 C 
ATOM     12  C   UNL     1       5.471   0.747   9.008  1.00  0.00    -0.027 C 
BRANCH  12  13
ATOM     13  C   UNL     1       5.909  -0.670   9.245  1.00  0.00     0.054 C 
BRANCH  13  14
ATOM     14  C   UNL     1       7.389  -0.819   9.025  1.00  0.00    -0.027 C 
ATOM     15  C   UNL     1       8.007  -0.144   8.046  1.00  0.00    -0.031 C 
BRANCH  15  16
ATOM     16  C   UNL     1       9.482  -0.301   7.790  1.00  0.00     0.027 C 
BRANCH  16  17
ATOM     17  C   UNL     1       9.785  -0.675   6.327  1.00  0.00     0.004 C 
BRANCH  17  18
ATOM     18  C   UNL     1       8.531  -0.821   5.444  1.00  0.00     0.000 C 
BRANCH  18  19
ATOM     19  C   UNL     1       8.663  -0.088   4.100  1.00  0.00    -0.003 C 
ATOM     20  C   UNL     1       9.528   1.161   4.242  1.00  0.00     0.004 C 
ENDBRANCH  18  19
ENDBRANCH  17  18
ENDBRANCH  16  17
ENDBRANCH  15  16
ENDBRANCH  13  14
ENDBRANCH  12  13
ENDBRANCH   1  11
TORSDOF 14
ENDMDL
MODEL 6
REMARK VINA RESULT:    -3.843     14.495     17.879
REMARK INTER + INTRA:          -8.208
REMARK INTER:                  -5.925
REMARK INTRA:                  -2.283
REMARK UNBOUND:                -1.220
REMARK SMILES CCCCCC=CCC=CCCCCCCCC(=O)[O-]
REMARK SMILES IDX 11 1 12 2 13 3 14 4 15 5 16 6 17 7 18 8 19 9 20 10 10 11
REMARK SMILES IDX 9 12 8 13 7 14 6 15 5 16 4 17 3 18 2 19 1 20
REMARK H PARENT
REMARK Flexibility Score: inf
ROOT
ATOM      1  C   UNL     1       4.782   4.984   8.646  1.00  0.00     0.027 C 
ENDROOT
BRANCH   1   2
ATOM      2  C   UNL     1       6.301   5.018   8.446  1.00  0.00     0.004 C 
BRANCH   2   3
ATOM      3  C   UNL     1       6.979   3.850   9.174  1.00  0.00     0.000 C 
BRANCH   3   4
ATOM      4  C   UNL     1       7.794   2.948   8.229  1.00  0.00     0.000 C 
BRANCH   4   5
ATOM      5  C   UNL     1       7.568   3.206   6.725  1.00  0.00     0.000 C 
BRANCH   5   6
ATOM      6  C   UNL     1       6.778   2.111   5.982  1.00  0.00     0.006 C 
BRANCH   6   7
ATOM      7  C   UNL     1       7.019   2.072   4.466  1.00  0.00     0.053 C 
BRANCH   7   8
ATOM      8  C   UNL     1       5.894   2.702   3.704  1.00  0.00     0.041 C 
ATOM      9  O   UNL     1       5.912   3.935   3.452  1.00  0.00    -0.550 OA
ATOM     10  O   UNL     1       4.810   1.933   3.300  1.00  0.00    -0.550 OA
ENDBRANCH   7   8
ENDBRANCH   6   7
ENDBRANCH   5   6
ENDBRANCH   4   5
ENDBRANCH   3   4
ENDBRANCH   2   3
ENDBRANCH   1   2
BRANCH   1  11
ATOM     11  C   UNL     1       4.351   3.625   9.123  1.00  0.00    -0.031 C 
ATOM     12  C   UNL     1       3.922   2.685   8.267  1.00  0.00    -0.027 C 
BRANCH  12  13
ATOM     13  C   UNL     1       3.422   1.354   8.752  1.00  0.00     0.054 C 
BRANCH  13  14
ATOM     14  C   UNL     1       4.473   0.647   9.562  1.00  0.00    -0.027 C 
ATOM     15  C   UNL     1       5.538   0.093   8.965  1.00  0.00    -0.031 C 
BRANCH  15  16
ATOM     16  C   UNL     1       6.587  -0.646   9.754  1.00  0.00     0.027 C 
BRANCH  16  17
ATOM     17  C   UNL     1       7.483  -1.521   8.859  1.00  0.00     0.004 C 
BRANCH  17  18
ATOM     18  C   UNL     1       7.943  -0.828   7.562  1.00  0.00     0.000 C 
BRANCH  18  19
ATOM     19  C   UNL     1       8.371  -1.825   6.476  1.00  0.00    -0.003 C 
ATOM     20  C   UNL     1       8.659  -3.198   7.077  1.00  0.00     0.004 C 
ENDBRANCH  18  19
ENDBRANCH  17  18
ENDBRANCH  16  17
ENDBRANCH  15  16
ENDBRANCH  13  14
ENDBRANCH  12  13
ENDBRANCH   1  11
TORSDOF 14
ENDMDL
MODEL 7
REMARK VINA RESULT:    -3.842     16.892     19.050
REMARK INTER + INTRA:          -8.207
REMARK INTER:                  -6.441
REMARK INTRA:                  -1.765
REMARK UNBOUND:                -1.220
REMARK SMILES CCCCCC=CCC=CCCCCCCCC(=O)[O-]
REMARK SMILES IDX 11 1 12 2 13 3 14 4 15 5 16 6 17 7 18 8 19 9 20 10 10 11
REMARK SMILES IDX 9 12 8 13 7 14 6 15 5 16 4 17 3 18 2 19 1 20
REMARK H PARENT
REMARK Flexibility Score: inf
ROOT
ATOM      1  C   UNL     1      -3.790  -8.204   7.062  1.00  0.00     0.027 C 
ENDROOT
BRANCH   1   2
ATOM      2  C   UNL     1      -4.830  -7.149   7.453  1.00  0.00     0.004 C 
BRANCH   2   3
ATOM      3  C   UNL     1      -5.149  -7.220   8.952  1.00  0.00     0.000 C 
BRANCH   3   4
ATOM      4  C   UNL     1      -6.506  -7.888   9.244  1.00  0.00     0.000 C 
BRANCH   4   5
ATOM      5  C   UNL     1      -6.421  -9.241   9.981  1.00  0.00     0.000 C 
BRANCH   5   6
ATOM      6  C   UNL     1      -6.276 -10.476   9.071  1.00  0.00     0.006 C 
BRANCH   6   7
ATOM      7  C   UNL     1      -6.822 -10.285   7.648  1.00  0.00     0.053 C 
BRANCH   7   8
ATOM      8  C   UNL     1      -5.984 -10.991   6.627  1.00  0.00     0.041 C 
ATOM      9  O   UNL     1      -5.324 -12.014   6.947  1.00  0.00    -0.550 OA
ATOM     10  O   UNL     1      -5.906 -10.500   5.330  1.00  0.00    -0.550 OA
ENDBRANCH   7   8
ENDBRANCH   6   7
ENDBRANCH   5   6
ENDBRANCH   4   5
ENDBRANCH   3   4
ENDBRANCH   2   3
ENDBRANCH   1   2
BRANCH   1  11
ATOM     11  C   UNL     1      -2.970  -8.596   8.260  1.00  0.00    -0.031 C 
ATOM     12  C   UNL     1      -2.597  -9.868   8.468  1.00  0.00    -0.027 C 
BRANCH  12  13
ATOM     13  C   UNL     1      -1.841 -10.270   9.702  1.00  0.00     0.054 C 
BRANCH  13  14
ATOM     14  C   UNL     1      -0.372 -10.405   9.414  1.00  0.00    -0.027 C 
ATOM     15  C   UNL     1       0.380  -9.321   9.176  1.00  0.00    -0.031 C 
BRANCH  15  16
ATOM     16  C   UNL     1       1.847  -9.435   8.856  1.00  0.00     0.027 C 
BRANCH  16  17
ATOM     17  C   UNL     1       2.096  -9.858   7.397  1.00  0.00     0.004 C 
BRANCH  17  18
ATOM     18  C   UNL     1       3.586  -9.956   7.016  1.00  0.00     0.000 C 
BRANCH  18  19
ATOM     19  C   UNL     1       4.490  -9.123   7.935  1.00  0.00    -0.003 C 
ATOM     20  C   UNL     1       4.866  -7.798   7.277  1.00  0.00     0.004 C 
ENDBRANCH  18  19
ENDBRANCH  17  18
ENDBRANCH  16  17
ENDBRANCH  15  16
ENDBRANCH  13  14
ENDBRANCH  12  13
ENDBRANCH   1  11
TORSDOF 14
ENDMDL
MODEL 8
REMARK VINA RESULT:    -3.788     14.294     17.247
REMARK INTER + INTRA:          -8.108
REMARK INTER:                  -6.107
REMARK INTRA:                  -2.001
REMARK UNBOUND:                -1.220
REMARK SMILES CCCCCC=CCC=CCCCCCCCC(=O)[O-]
REMARK SMILES IDX 11 1 12 2 13 3 14 4 15 5 16 6 17 7 18 8 19 9 20 10 10 11
REMARK SMILES IDX 9 12 8 13 7 14 6 15 5 16 4 17 3 18 2 19 1 20
REMARK H PARENT
REMARK Flexibility Score: inf
ROOT
ATOM      1  C   UNL     1       4.064   1.294   8.347  1.00  0.00     0.027 C 
ENDROOT
BRANCH   1   2
ATOM      2  C   UNL     1       4.825   0.337   9.271  1.00  0.00     0.004 C 
BRANCH   2   3
ATOM      3  C   UNL     1       6.342   0.520   9.124  1.00  0.00     0.000 C 
BRANCH   3   4
ATOM      4  C   UNL     1       7.079  -0.803   8.842  1.00  0.00     0.000 C 
BRANCH   4   5
ATOM      5  C   UNL     1       7.685  -0.922   7.428  1.00  0.00     0.000 C 
BRANCH   5   6
ATOM      6  C   UNL     1       8.129   0.409   6.790  1.00  0.00     0.006 C 
BRANCH   6   7
ATOM      7  C   UNL     1       9.337   0.289   5.848  1.00  0.00     0.053 C 
BRANCH   7   8
ATOM      8  C   UNL     1       8.919   0.049   4.430  1.00  0.00     0.041 C 
ATOM      9  O   UNL     1       8.951   0.988   3.592  1.00  0.00    -0.550 OA
ATOM     10  O   UNL     1       8.464  -1.204   4.041  1.00  0.00    -0.550 OA
ENDBRANCH   7   8
ENDBRANCH   6   7
ENDBRANCH   5   6
ENDBRANCH   4   5
ENDBRANCH   3   4
ENDBRANCH   2   3
ENDBRANCH   1   2
BRANCH   1  11
ATOM     11  C   UNL     1       4.785   2.610   8.254  1.00  0.00    -0.031 C 
ATOM     12  C   UNL     1       4.331   3.705   8.881  1.00  0.00    -0.027 C 
BRANCH  12  13
ATOM     13  C   UNL     1       5.011   5.035   8.727  1.00  0.00     0.054 C 
BRANCH  13  14
ATOM     14  C   UNL     1       6.330   4.886   8.022  1.00  0.00    -0.027 C 
ATOM     15  C   UNL     1       6.626   5.645   6.958  1.00  0.00    -0.031 C 
BRANCH  15  16
ATOM     16  C   UNL     1       7.928   5.492   6.218  1.00  0.00     0.027 C 
BRANCH  16  17
ATOM     17  C   UNL     1       7.782   4.636   4.947  1.00  0.00     0.004 C 
BRANCH  17  18
ATOM     18  C   UNL     1       6.370   4.661   4.331  1.00  0.00     0.000 C 
BRANCH  18  19
ATOM     19  C   UNL     1       5.977   3.323   3.688  1.00  0.00    -0.003 C 
ATOM     20  C   UNL     1       5.871   2.222   4.739  1.00  0.00     0.004 C 
ENDBRANCH  18  19
ENDBRANCH  17  18
ENDBRANCH  16  17
ENDBRANCH  15  16
ENDBRANCH  13  14
ENDBRANCH  12  13
ENDBRANCH   1  11
TORSDOF 14
ENDMDL
MODEL 9
REMARK VINA RESULT:    -3.777     14.140     17.222
REMARK INTER + INTRA:          -8.088
REMARK INTER:                  -5.419
REMARK INTRA:                  -2.669
REMARK UNBOUND:                -1.220
REMARK SMILES CCCCCC=CCC=CCCCCCCCC(=O)[O-]
REMARK SMILES IDX 11 1 12 2 13 3 14 4 15 5 16 6 17 7 18 8 19 9 20 10 10 11
REMARK SMILES IDX 9 12 8 13 7 14 6 15 5 16 4 17 3 18 2 19 1 20
REMARK H PARENT
REMARK Flexibility Score: inf
ROOT
ATOM      1  C   UNL     1       8.288  -2.041   6.728  1.00  0.00     0.027 C 
ENDROOT
BRANCH   1   2
ATOM      2  C   UNL     1       9.293  -1.229   5.905  1.00  0.00     0.004 C 
BRANCH   2   3
ATOM      3  C   UNL     1       8.705  -0.846   4.540  1.00  0.00     0.000 C 
BRANCH   3   4
ATOM      4  C   UNL     1       7.979   0.511   4.561  1.00  0.00     0.000 C 
BRANCH   4   5
ATOM      5  C   UNL     1       8.646   1.594   5.433  1.00  0.00     0.000 C 
BRANCH   5   6
ATOM      6  C   UNL     1       7.681   2.418   6.309  1.00  0.00     0.006 C 
BRANCH   6   7
ATOM      7  C   UNL     1       6.336   2.741   5.642  1.00  0.00     0.053 C 
BRANCH   7   8
ATOM      8  C   UNL     1       6.436   3.917   4.719  1.00  0.00     0.041 C 
ATOM      9  O   UNL     1       6.096   3.806   3.512  1.00  0.00    -0.550 OA
ATOM     10  O   UNL     1       6.936   5.126   5.185  1.00  0.00    -0.550 OA
ENDBRANCH   7   8
ENDBRANCH   6   7
ENDBRANCH   5   6
ENDBRANCH   4   5
ENDBRANCH   3   4
ENDBRANCH   2   3
ENDBRANCH   1   2
BRANCH   1  11
ATOM     11  C   UNL     1       8.072  -1.396   8.069  1.00  0.00    -0.031 C 
ATOM     12  C   UNL     1       7.037  -0.572   8.291  1.00  0.00    -0.027 C 
BRANCH  12  13
ATOM     13  C   UNL     1       6.864   0.129   9.608  1.00  0.00     0.054 C 
BRANCH  13  14
ATOM     14  C   UNL     1       5.811   1.198   9.514  1.00  0.00    -0.027 C 
ATOM     15  C   UNL     1       4.833   1.116   8.602  1.00  0.00    -0.031 C 
BRANCH  15  16
ATOM     16  C   UNL     1       3.786   2.191   8.470  1.00  0.00     0.027 C 
BRANCH  16  17
ATOM     17  C   UNL     1       3.613   3.001   9.769  1.00  0.00     0.004 C 
BRANCH  17  18
ATOM     18  C   UNL     1       4.044   4.475   9.651  1.00  0.00     0.000 C 
BRANCH  18  19
ATOM     19  C   UNL     1       4.890   4.750   8.399  1.00  0.00    -0.003 C 
ATOM     20  C   UNL     1       6.359   4.944   8.764  1.00  0.00     0.004 C 
ENDBRANCH  18  19
ENDBRANCH  17  18
ENDBRANCH  16  17
ENDBRANCH  15  16
ENDBRANCH  13  14
ENDBRANCH  12  13
ENDBRANCH   1  11
TORSDOF 14
ENDMDL
