MODEL 1
REMARK VINA RESULT:    -4.454      0.000      0.000
REMARK INTER + INTRA:          -6.583
REMARK INTER:                  -6.798
REMARK INTRA:                   0.215
REMARK UNBOUND:                 0.215
REMARK SMILES CC1=CCC[C@@H](C)C(=O)C[C@H](C(C)C)C(=O)C1
REMARK SMILES IDX 8 1 9 2 6 3 7 4 5 5 4 6 3 7 2 8 1 9 10 11 11 12 15 13 16 14
REMARK SMILES IDX 17 15 12 17 13 18 14 19
REMARK H PARENT
REMARK Flexibility Score: 70.00
ROOT
ATOM      1  C   UNL     1     -16.092  14.259 -31.451  1.00  0.00     0.136 C 
ATOM      2  O   UNL     1     -16.897  14.285 -32.372  1.00  0.00    -0.299 OA
ENDROOT
BRANCH   1   3
ATOM      3  C   UNL     1     -14.630  14.550 -31.718  1.00  0.00     0.053 C 
ATOM      4  C   UNL     1     -13.954  13.287 -32.263  1.00  0.00     0.016 C 
BRANCH   3   5
ATOM      5  C   UNL     1     -13.901  15.040 -30.445  1.00  0.00     0.015 C 
BRANCH   5   6
ATOM      6  C   UNL     1     -12.623  14.245 -30.133  1.00  0.00     0.028 C 
BRANCH   6   7
ATOM      7  C   UNL     1     -12.543  13.887 -28.668  1.00  0.00    -0.028 C 
ATOM      8  C   UNL     1     -13.151  12.833 -28.079  1.00  0.00    -0.070 CG0
ATOM      9  C   UNL     1     -12.950  12.637 -26.597  1.00  0.00     0.039 C 
ATOM     10  G   UNL     1     -14.048  11.865 -28.828  1.00  0.00     0.000 G0
ENDBRANCH   6   7
ENDBRANCH   5   6
ENDBRANCH   3   5
ENDBRANCH   1   3
BRANCH   1  11
ATOM     11  C   UNL     1     -16.586  13.956 -30.059  1.00  0.00     0.087 C 
BRANCH  11  12
ATOM     12  C   UNL     1     -16.480  12.446 -29.726  1.00  0.00     0.066 C 
BRANCH  12  13
ATOM     13  C   UNL     1     -15.514  12.210 -28.577  1.00  0.00     0.140 C 
ATOM     14  O   UNL     1     -15.922  12.235 -27.424  1.00  0.00    -0.299 OA
BRANCH  13  15
ATOM     15  C   UNL     1     -14.064  11.885 -28.827  1.00  0.00     0.106 CG0
ATOM     16  G   UNL     1     -13.158  12.834 -28.065  1.00  0.00     0.000 G0
ENDBRANCH  13  15
ENDBRANCH  12  13
BRANCH  12  17
ATOM     17  C   UNL     1     -17.858  11.778 -29.423  1.00  0.00    -0.006 C 
ATOM     18  C   UNL     1     -17.727  10.256 -29.249  1.00  0.00     0.008 C 
ATOM     19  C   UNL     1     -18.948  12.096 -30.463  1.00  0.00     0.008 C 
ENDBRANCH  12  17
ENDBRANCH  11  12
ENDBRANCH   1  11
TORSDOF 1
ENDMDL
MODEL 2
REMARK VINA RESULT:    -4.423      1.704      3.852
REMARK INTER + INTRA:          -6.536
REMARK INTER:                  -6.459
REMARK INTRA:                  -0.077
REMARK UNBOUND:                 0.215
REMARK SMILES CC1=CCC[C@@H](C)C(=O)C[C@H](C(C)C)C(=O)C1
REMARK SMILES IDX 8 1 9 2 6 3 7 4 5 5 4 6 3 7 2 8 1 9 10 11 11 12 15 13 16 14
REMARK SMILES IDX 17 15 12 17 13 18 14 19
REMARK H PARENT
REMARK Flexibility Score: 70.00
ROOT
ATOM      1  C   UNL     1     -16.465  12.913 -30.942  1.00  0.00     0.136 C 
ATOM      2  O   UNL     1     -16.952  13.933 -31.410  1.00  0.00    -0.299 OA
ENDROOT
BRANCH   1   3
ATOM      3  C   UNL     1     -17.203  12.149 -29.864  1.00  0.00     0.053 C 
ATOM      4  C   UNL     1     -18.712  12.263 -30.105  1.00  0.00     0.016 C 
BRANCH   3   5
ATOM      5  C   UNL     1     -16.847  12.664 -28.449  1.00  0.00     0.015 C 
BRANCH   5   6
ATOM      6  C   UNL     1     -16.418  11.546 -27.487  1.00  0.00     0.028 C 
BRANCH   6   7
ATOM      7  C   UNL     1     -15.008  11.762 -26.990  1.00  0.00    -0.028 C 
ATOM      8  C   UNL     1     -13.880  11.345 -27.609  1.00  0.00    -0.070 CG0
ATOM      9  C   UNL     1     -12.557  11.657 -26.956  1.00  0.00     0.039 C 
ATOM     10  G   UNL     1     -13.887  10.553 -28.903  1.00  0.00     0.000 G0
ENDBRANCH   6   7
ENDBRANCH   5   6
ENDBRANCH   3   5
ENDBRANCH   1   3
BRANCH   1  11
ATOM     11  C   UNL     1     -15.139  12.430 -31.472  1.00  0.00     0.087 C 
BRANCH  11  12
ATOM     12  C   UNL     1     -13.990  12.675 -30.461  1.00  0.00     0.066 C 
BRANCH  12  13
ATOM     13  C   UNL     1     -13.339  11.364 -30.049  1.00  0.00     0.140 C 
ATOM     14  O   UNL     1     -12.329  10.981 -30.621  1.00  0.00    -0.299 OA
BRANCH  13  15
ATOM     15  C   UNL     1     -13.880  10.546 -28.905  1.00  0.00     0.106 CG0
ATOM     16  G   UNL     1     -13.894  11.354 -27.622  1.00  0.00     0.000 G0
ENDBRANCH  13  15
ENDBRANCH  12  13
BRANCH  12  17
ATOM     17  C   UNL     1     -12.910  13.679 -30.976  1.00  0.00    -0.006 C 
ATOM     18  C   UNL     1     -12.171  14.364 -29.815  1.00  0.00     0.008 C 
ATOM     19  C   UNL     1     -13.459  14.738 -31.949  1.00  0.00     0.008 C 
ENDBRANCH  12  17
ENDBRANCH  11  12
ENDBRANCH   1  11
TORSDOF 1
ENDMDL
MODEL 3
REMARK VINA RESULT:    -4.290      1.981      5.122
REMARK INTER + INTRA:          -6.332
REMARK INTER:                  -6.201
REMARK INTRA:                  -0.131
REMARK UNBOUND:                 0.215
REMARK SMILES CC1=CCC[C@@H](C)C(=O)C[C@H](C(C)C)C(=O)C1
REMARK SMILES IDX 8 1 9 2 6 3 7 4 5 5 4 6 3 7 2 8 1 9 10 11 11 12 15 13 16 14
REMARK SMILES IDX 17 15 12 17 13 18 14 19
REMARK H PARENT
REMARK Flexibility Score: 70.00
ROOT
ATOM      1  C   UNL     1     -12.621  12.118 -28.265  1.00  0.00     0.136 C 
ATOM      2  O   UNL     1     -11.626  11.599 -28.753  1.00  0.00    -0.299 OA
ENDROOT
BRANCH   1   3
ATOM      3  C   UNL     1     -13.443  11.361 -27.243  1.00  0.00     0.053 C 
ATOM      4  C   UNL     1     -12.531  10.893 -26.105  1.00  0.00     0.016 C 
BRANCH   3   5
ATOM      5  C   UNL     1     -14.172  10.152 -27.875  1.00  0.00     0.015 C 
BRANCH   5   6
ATOM      6  C   UNL     1     -14.969  10.515 -29.137  1.00  0.00     0.028 C 
BRANCH   6   7
ATOM      7  C   UNL     1     -16.252  11.231 -28.789  1.00  0.00    -0.028 C 
ATOM      8  C   UNL     1     -16.756  12.307 -29.434  1.00  0.00    -0.070 CG0
ATOM      9  C   UNL     1     -18.058  12.885 -28.938  1.00  0.00     0.039 C 
ATOM     10  G   UNL     1     -16.060  12.976 -30.604  1.00  0.00     0.000 G0
ENDBRANCH   6   7
ENDBRANCH   5   6
ENDBRANCH   3   5
ENDBRANCH   1   3
BRANCH   1  11
ATOM     11  C   UNL     1     -12.993  13.518 -28.683  1.00  0.00     0.087 C 
BRANCH  11  12
ATOM     12  C   UNL     1     -13.531  13.562 -30.136  1.00  0.00     0.066 C 
BRANCH  12  13
ATOM     13  C   UNL     1     -15.001  13.949 -30.159  1.00  0.00     0.140 C 
ATOM     14  O   UNL     1     -15.337  15.082 -29.845  1.00  0.00    -0.299 OA
BRANCH  13  15
ATOM     15  C   UNL     1     -16.060  12.979 -30.618  1.00  0.00     0.106 CG0
ATOM     16  G   UNL     1     -16.766  12.349 -29.433  1.00  0.00     0.000 G0
ENDBRANCH  13  15
ENDBRANCH  12  13
BRANCH  12  17
ATOM     17  C   UNL     1     -12.709  14.498 -31.076  1.00  0.00    -0.006 C 
ATOM     18  C   UNL     1     -13.165  14.376 -32.540  1.00  0.00     0.008 C 
ATOM     19  C   UNL     1     -11.186  14.295 -30.981  1.00  0.00     0.008 C 
ENDBRANCH  12  17
ENDBRANCH  11  12
ENDBRANCH   1  11
TORSDOF 1
ENDMDL
MODEL 4
REMARK VINA RESULT:    -4.244      2.298      5.562
REMARK INTER + INTRA:          -6.261
REMARK INTER:                  -6.062
REMARK INTRA:                  -0.199
REMARK UNBOUND:                 0.215
REMARK SMILES CC1=CCC[C@@H](C)C(=O)C[C@H](C(C)C)C(=O)C1
REMARK SMILES IDX 8 1 9 2 6 3 7 4 5 5 4 6 3 7 2 8 1 9 10 11 11 12 15 13 16 14
REMARK SMILES IDX 17 15 12 17 13 18 14 19
REMARK H PARENT
REMARK Flexibility Score: 70.00
ROOT
ATOM      1  C   UNL     1     -12.508  12.478 -28.923  1.00  0.00     0.136 C 
ATOM      2  O   UNL     1     -11.568  11.715 -28.752  1.00  0.00    -0.299 OA
ENDROOT
BRANCH   1   3
ATOM      3  C   UNL     1     -13.842  12.193 -28.265  1.00  0.00     0.053 C 
ATOM      4  C   UNL     1     -13.652  12.125 -26.746  1.00  0.00     0.016 C 
BRANCH   3   5
ATOM      5  C   UNL     1     -14.469  10.878 -28.785  1.00  0.00     0.015 C 
BRANCH   5   6
ATOM      6  C   UNL     1     -14.898  10.951 -30.258  1.00  0.00     0.028 C 
BRANCH   6   7
ATOM      7  C   UNL     1     -15.929  12.033 -30.476  1.00  0.00    -0.028 C 
ATOM      8  C   UNL     1     -15.887  12.979 -31.441  1.00  0.00    -0.070 CG0
ATOM      9  C   UNL     1     -17.015  13.979 -31.501  1.00  0.00     0.039 C 
ATOM     10  G   UNL     1     -14.749  13.102 -32.436  1.00  0.00     0.000 G0
ENDBRANCH   6   7
ENDBRANCH   5   6
ENDBRANCH   3   5
ENDBRANCH   1   3
BRANCH   1  11
ATOM     11  C   UNL     1     -12.307  13.705 -29.777  1.00  0.00     0.087 C 
BRANCH  11  12
ATOM     12  C   UNL     1     -12.392  13.375 -31.289  1.00  0.00     0.066 C 
BRANCH  12  13
ATOM     13  C   UNL     1     -13.637  13.987 -31.910  1.00  0.00     0.140 C 
ATOM     14  O   UNL     1     -13.729  15.202 -32.016  1.00  0.00    -0.299 OA
BRANCH  13  15
ATOM     15  C   UNL     1     -14.746  13.125 -32.454  1.00  0.00     0.106 CG0
ATOM     16  G   UNL     1     -15.876  13.001 -31.450  1.00  0.00     0.000 G0
ENDBRANCH  13  15
ENDBRANCH  12  13
BRANCH  12  17
ATOM     17  C   UNL     1     -11.121  13.799 -32.091  1.00  0.00    -0.006 C 
ATOM     18  C   UNL     1     -10.093  12.659 -32.171  1.00  0.00     0.008 C 
ATOM     19  C   UNL     1     -10.447  15.078 -31.561  1.00  0.00     0.008 C 
ENDBRANCH  12  17
ENDBRANCH  11  12
ENDBRANCH   1  11
TORSDOF 1
ENDMDL
MODEL 5
REMARK VINA RESULT:    -4.233      1.890      3.830
REMARK INTER + INTRA:          -6.245
REMARK INTER:                  -6.012
REMARK INTRA:                  -0.233
REMARK UNBOUND:                 0.215
REMARK SMILES CC1=CCC[C@@H](C)C(=O)C[C@H](C(C)C)C(=O)C1
REMARK SMILES IDX 8 1 9 2 6 3 7 4 5 5 4 6 3 7 2 8 1 9 10 11 11 12 15 13 16 14
REMARK SMILES IDX 17 15 12 17 13 18 14 19
REMARK H PARENT
REMARK Flexibility Score: 70.00
ROOT
ATOM      1  C   UNL     1     -13.982  11.002 -29.433  1.00  0.00     0.136 C 
ATOM      2  O   UNL     1     -14.361  10.222 -28.569  1.00  0.00    -0.299 OA
ENDROOT
BRANCH   1   3
ATOM      3  C   UNL     1     -12.557  11.514 -29.415  1.00  0.00     0.053 C 
ATOM      4  C   UNL     1     -11.600  10.341 -29.179  1.00  0.00     0.016 C 
BRANCH   3   5
ATOM      5  C   UNL     1     -12.350  12.599 -28.331  1.00  0.00     0.015 C 
BRANCH   5   6
ATOM      6  C   UNL     1     -12.576  14.027 -28.852  1.00  0.00     0.028 C 
BRANCH   6   7
ATOM      7  C   UNL     1     -12.154  14.157 -30.297  1.00  0.00    -0.028 C 
ATOM      8  C   UNL     1     -12.939  14.580 -31.312  1.00  0.00    -0.070 CG0
ATOM      9  C   UNL     1     -12.336  14.645 -32.693  1.00  0.00     0.039 C 
ATOM     10  G   UNL     1     -14.398  14.955 -31.134  1.00  0.00     0.000 G0
ENDBRANCH   6   7
ENDBRANCH   5   6
ENDBRANCH   3   5
ENDBRANCH   1   3
BRANCH   1  11
ATOM     11  C   UNL     1     -14.947  11.419 -30.513  1.00  0.00     0.087 C 
BRANCH  11  12
ATOM     12  C   UNL     1     -15.587  12.799 -30.212  1.00  0.00     0.066 C 
BRANCH  12  13
ATOM     13  C   UNL     1     -15.311  13.783 -31.337  1.00  0.00     0.140 C 
ATOM     14  O   UNL     1     -15.870  13.646 -32.416  1.00  0.00    -0.299 OA
BRANCH  13  15
ATOM     15  C   UNL     1     -14.400  14.966 -31.137  1.00  0.00     0.106 CG0
ATOM     16  G   UNL     1     -12.948  14.569 -31.323  1.00  0.00     0.000 G0
ENDBRANCH  13  15
ENDBRANCH  12  13
BRANCH  12  17
ATOM     17  C   UNL     1     -17.119  12.724 -29.921  1.00  0.00    -0.006 C 
ATOM     18  C   UNL     1     -17.510  13.583 -28.708  1.00  0.00     0.008 C 
ATOM     19  C   UNL     1     -17.650  11.289 -29.742  1.00  0.00     0.008 C 
ENDBRANCH  12  17
ENDBRANCH  11  12
ENDBRANCH   1  11
TORSDOF 1
ENDMDL
MODEL 6
REMARK VINA RESULT:    -4.227      2.122      4.552
REMARK INTER + INTRA:          -6.236
REMARK INTER:                  -6.306
REMARK INTRA:                   0.071
REMARK UNBOUND:                 0.215
REMARK SMILES CC1=CCC[C@@H](C)C(=O)C[C@H](C(C)C)C(=O)C1
REMARK SMILES IDX 8 1 9 2 6 3 7 4 5 5 4 6 3 7 2 8 1 9 10 11 11 12 15 13 16 14
REMARK SMILES IDX 17 15 12 17 13 18 14 19
REMARK H PARENT
REMARK Flexibility Score: 70.00
ROOT
ATOM      1  C   UNL     1     -14.382  13.927 -31.921  1.00  0.00     0.136 C 
ATOM      2  O   UNL     1     -14.425  15.124 -31.671  1.00  0.00    -0.299 OA
ENDROOT
BRANCH   1   3
ATOM      3  C   UNL     1     -15.660  13.115 -31.949  1.00  0.00     0.053 C 
ATOM      4  C   UNL     1     -16.861  14.064 -32.007  1.00  0.00     0.016 C 
BRANCH   3   5
ATOM      5  C   UNL     1     -15.774  12.182 -30.721  1.00  0.00     0.015 C 
BRANCH   5   6
ATOM      6  C   UNL     1     -15.494  12.895 -29.389  1.00  0.00     0.028 C 
BRANCH   6   7
ATOM      7  C   UNL     1     -14.646  12.040 -28.477  1.00  0.00    -0.028 C 
ATOM      8  C   UNL     1     -13.345  12.253 -28.179  1.00  0.00    -0.070 CG0
ATOM      9  C   UNL     1     -12.665  11.286 -27.242  1.00  0.00     0.039 C 
ATOM     10  G   UNL     1     -12.534  13.392 -28.767  1.00  0.00     0.000 G0
ENDBRANCH   6   7
ENDBRANCH   5   6
ENDBRANCH   3   5
ENDBRANCH   1   3
BRANCH   1  11
ATOM     11  C   UNL     1     -13.047  13.291 -32.215  1.00  0.00     0.087 C 
BRANCH  11  12
ATOM     12  C   UNL     1     -11.934  13.828 -31.280  1.00  0.00     0.066 C 
BRANCH  12  13
ATOM     13  C   UNL     1     -11.824  12.980 -30.023  1.00  0.00     0.140 C 
ATOM     14  O   UNL     1     -11.138  11.968 -30.031  1.00  0.00    -0.299 OA
BRANCH  13  15
ATOM     15  C   UNL     1     -12.498  13.390 -28.740  1.00  0.00     0.106 CG0
ATOM     16  G   UNL     1     -13.345  12.259 -28.188  1.00  0.00     0.000 G0
ENDBRANCH  13  15
ENDBRANCH  12  13
BRANCH  12  17
ATOM     17  C   UNL     1     -10.541  13.950 -31.976  1.00  0.00    -0.006 C 
ATOM     18  C   UNL     1     -10.049  15.406 -32.012  1.00  0.00     0.008 C 
ATOM     19  C   UNL     1     -10.497  13.344 -33.391  1.00  0.00     0.008 C 
ENDBRANCH  12  17
ENDBRANCH  11  12
ENDBRANCH   1  11
TORSDOF 1
ENDMDL
MODEL 7
REMARK VINA RESULT:    -4.139      2.105      3.959
REMARK INTER + INTRA:          -6.102
REMARK INTER:                  -5.876
REMARK INTRA:                  -0.225
REMARK UNBOUND:                 0.215
REMARK SMILES CC1=CCC[C@@H](C)C(=O)C[C@H](C(C)C)C(=O)C1
REMARK SMILES IDX 8 1 9 2 6 3 7 4 5 5 4 6 3 7 2 8 1 9 10 11 11 12 15 13 16 14
REMARK SMILES IDX 17 15 12 17 13 18 14 19
REMARK H PARENT
REMARK Flexibility Score: 70.00
ROOT
ATOM      1  C   UNL     1     -12.424  12.096 -30.126  1.00  0.00     0.136 C 
ATOM      2  O   UNL     1     -11.344  11.948 -29.570  1.00  0.00    -0.299 OA
ENDROOT
BRANCH   1   3
ATOM      3  C   UNL     1     -12.599  13.191 -31.157  1.00  0.00     0.053 C 
ATOM      4  C   UNL     1     -11.529  13.040 -32.244  1.00  0.00     0.016 C 
BRANCH   3   5
ATOM      5  C   UNL     1     -12.517  14.598 -30.519  1.00  0.00     0.015 C 
BRANCH   5   6
ATOM      6  C   UNL     1     -13.886  15.154 -30.100  1.00  0.00     0.028 C 
BRANCH   6   7
ATOM      7  C   UNL     1     -14.957  14.790 -31.102  1.00  0.00    -0.028 C 
ATOM      8  C   UNL     1     -16.071  14.070 -30.839  1.00  0.00    -0.070 CG0
ATOM      9  C   UNL     1     -17.028  13.808 -31.975  1.00  0.00     0.039 C 
ATOM     10  G   UNL     1     -16.381  13.487 -29.474  1.00  0.00     0.000 G0
ENDBRANCH   6   7
ENDBRANCH   5   6
ENDBRANCH   3   5
ENDBRANCH   1   3
BRANCH   1  11
ATOM     11  C   UNL     1     -13.556  11.161 -29.782  1.00  0.00     0.087 C 
BRANCH  11  12
ATOM     12  C   UNL     1     -14.514  11.778 -28.731  1.00  0.00     0.066 C 
BRANCH  12  13
ATOM     13  C   UNL     1     -15.876  12.065 -29.341  1.00  0.00     0.140 C 
ATOM     14  O   UNL     1     -16.594  11.138 -29.689  1.00  0.00    -0.299 OA
BRANCH  13  15
ATOM     15  C   UNL     1     -16.394  13.474 -29.476  1.00  0.00     0.106 CG0
ATOM     16  G   UNL     1     -16.048  14.049 -30.836  1.00  0.00     0.000 G0
ENDBRANCH  13  15
ENDBRANCH  12  13
BRANCH  12  17
ATOM     17  C   UNL     1     -14.667  10.911 -27.443  1.00  0.00    -0.006 C 
ATOM     18  C   UNL     1     -15.741  11.478 -26.499  1.00  0.00     0.008 C 
ATOM     19  C   UNL     1     -13.350  10.698 -26.674  1.00  0.00     0.008 C 
ENDBRANCH  12  17
ENDBRANCH  11  12
ENDBRANCH   1  11
TORSDOF 1
ENDMDL
MODEL 8
REMARK VINA RESULT:    -3.923      1.937      4.360
REMARK INTER + INTRA:          -5.772
REMARK INTER:                  -6.092
REMARK INTRA:                   0.320
REMARK UNBOUND:                 0.215
REMARK SMILES CC1=CCC[C@@H](C)C(=O)C[C@H](C(C)C)C(=O)C1
REMARK SMILES IDX 8 1 9 2 6 3 7 4 5 5 4 6 3 7 2 8 1 9 10 11 11 12 15 13 16 14
REMARK SMILES IDX 17 15 12 17 13 18 14 19
REMARK H PARENT
REMARK Flexibility Score: 70.00
ROOT
ATOM      1  C   UNL     1     -15.715  12.049 -29.078  1.00  0.00     0.136 C 
ATOM      2  O   UNL     1     -15.858  10.937 -29.569  1.00  0.00    -0.299 OA
ENDROOT
BRANCH   1   3
ATOM      3  C   UNL     1     -16.659  13.170 -29.460  1.00  0.00     0.053 C 
ATOM      4  C   UNL     1     -18.086  12.620 -29.552  1.00  0.00     0.016 C 
BRANCH   3   5
ATOM      5  C   UNL     1     -16.253  13.831 -30.798  1.00  0.00     0.015 C 
BRANCH   5   6
ATOM      6  C   UNL     1     -15.172  14.911 -30.637  1.00  0.00     0.028 C 
BRANCH   6   7
ATOM      7  C   UNL     1     -14.055  14.723 -31.637  1.00  0.00    -0.028 C 
ATOM      8  C   UNL     1     -12.864  14.135 -31.388  1.00  0.00    -0.070 CG0
ATOM      9  C   UNL     1     -11.872  14.038 -32.520  1.00  0.00     0.039 C 
ATOM     10  G   UNL     1     -12.467  13.606 -30.023  1.00  0.00     0.000 G0
ENDBRANCH   6   7
ENDBRANCH   5   6
ENDBRANCH   3   5
ENDBRANCH   1   3
BRANCH   1  11
ATOM     11  C   UNL     1     -14.604  12.270 -28.083  1.00  0.00     0.087 C 
BRANCH  11  12
ATOM     12  C   UNL     1     -13.288  11.580 -28.525  1.00  0.00     0.066 C 
BRANCH  12  13
ATOM     13  C   UNL     1     -12.799  12.141 -29.850  1.00  0.00     0.140 C 
ATOM     14  O   UNL     1     -12.724  11.412 -30.829  1.00  0.00    -0.299 OA
BRANCH  13  15
ATOM     15  C   UNL     1     -12.453  13.600 -30.003  1.00  0.00     0.106 CG0
ATOM     16  G   UNL     1     -12.887  14.119 -31.361  1.00  0.00     0.000 G0
ENDBRANCH  13  15
ENDBRANCH  12  13
BRANCH  12  17
ATOM     17  C   UNL     1     -12.156  11.654 -27.453  1.00  0.00    -0.006 C 
ATOM     18  C   UNL     1     -11.978  10.314 -26.720  1.00  0.00     0.008 C 
ATOM     19  C   UNL     1     -12.338  12.792 -26.431  1.00  0.00     0.008 C 
ENDBRANCH  12  17
ENDBRANCH  11  12
ENDBRANCH   1  11
TORSDOF 1
ENDMDL
MODEL 9
REMARK VINA RESULT:    -3.870      2.410      3.941
REMARK INTER + INTRA:          -5.690
REMARK INTER:                  -6.398
REMARK INTRA:                   0.708
REMARK UNBOUND:                 0.215
REMARK SMILES CC1=CCC[C@@H](C)C(=O)C[C@H](C(C)C)C(=O)C1
REMARK SMILES IDX 8 1 9 2 6 3 7 4 5 5 4 6 3 7 2 8 1 9 10 11 11 12 15 13 16 14
REMARK SMILES IDX 17 15 12 17 13 18 14 19
REMARK H PARENT
REMARK Flexibility Score: 70.00
ROOT
ATOM      1  C   UNL     1     -15.319  14.239 -30.134  1.00  0.00     0.136 C 
ATOM      2  O   UNL     1     -16.243  14.462 -29.363  1.00  0.00    -0.299 OA
ENDROOT
BRANCH   1   3
ATOM      3  C   UNL     1     -15.552  14.303 -31.629  1.00  0.00     0.053 C 
ATOM      4  C   UNL     1     -16.913  13.681 -31.957  1.00  0.00     0.016 C 
BRANCH   3   5
ATOM      5  C   UNL     1     -14.431  13.583 -32.416  1.00  0.00     0.015 C 
BRANCH   5   6
ATOM      6  C   UNL     1     -13.181  14.451 -32.622  1.00  0.00     0.028 C 
BRANCH   6   7
ATOM      7  C   UNL     1     -11.979  13.607 -32.976  1.00  0.00    -0.028 C 
ATOM      8  C   UNL     1     -11.213  12.919 -32.100  1.00  0.00    -0.070 CG0
ATOM      9  C   UNL     1     -10.050  12.129 -32.646  1.00  0.00     0.039 C 
ATOM     10  G   UNL     1     -11.445  12.936 -30.601  1.00  0.00     0.000 G0
ENDBRANCH   6   7
ENDBRANCH   5   6
ENDBRANCH   3   5
ENDBRANCH   1   3
BRANCH   1  11
ATOM     11  C   UNL     1     -13.958  13.924 -29.570  1.00  0.00     0.087 C 
BRANCH  11  12
ATOM     12  C   UNL     1     -13.732  12.397 -29.428  1.00  0.00     0.066 C 
BRANCH  12  13
ATOM     13  C   UNL     1     -12.485  11.960 -30.181  1.00  0.00     0.140 C 
ATOM     14  O   UNL     1     -12.351  10.789 -30.507  1.00  0.00    -0.299 OA
BRANCH  13  15
ATOM     15  C   UNL     1     -11.428  12.952 -30.588  1.00  0.00     0.106 CG0
ATOM     16  G   UNL     1     -11.226  12.941 -32.092  1.00  0.00     0.000 G0
ENDBRANCH  13  15
ENDBRANCH  12  13
BRANCH  12  17
ATOM     17  C   UNL     1     -13.668  11.912 -27.946  1.00  0.00    -0.006 C 
ATOM     18  C   UNL     1     -15.071  11.786 -27.328  1.00  0.00     0.008 C 
ATOM     19  C   UNL     1     -12.772  12.780 -27.043  1.00  0.00     0.008 C 
ENDBRANCH  12  17
ENDBRANCH  11  12
ENDBRANCH   1  11
TORSDOF 1
ENDMDL
