MODEL 1
REMARK VINA RESULT:    -6.906      0.000      0.000
REMARK INTER + INTRA:          -7.309
REMARK INTER:                  -7.309
REMARK INTRA:                   0.000
REMARK UNBOUND:                 0.000
REMARK SMILES O=c1ccc2cc(O)c(O)cc2o1
REMARK SMILES IDX 4 1 3 2 2 3 1 4 13 5 12 6 11 7 9 8 7 9 6 10 5 11 8 12 10 14
REMARK H PARENT 8 13 10 15
REMARK Flexibility Score: inf
ROOT
ATOM      1  C   UNL     1      81.288  59.148  10.901  1.00  0.00     0.019 A 
ATOM      2  C   UNL     1      80.049  58.522  11.040  1.00  0.00     0.094 A 
ATOM      3  C   UNL     1      78.936  59.291  11.393  1.00  0.00     0.336 A 
ATOM      4  O   UNL     1      77.810  58.745  11.524  1.00  0.00    -0.246 OA
ATOM      5  O   UNL     1      79.059  60.601  11.592  1.00  0.00    -0.423 OA
ATOM      6  C   UNL     1      80.221  61.239  11.470  1.00  0.00     0.142 A 
ATOM      7  C   UNL     1      80.289  62.618  11.691  1.00  0.00     0.098 A 
ATOM      8  C   UNL     1      81.512  63.293  11.563  1.00  0.00     0.161 A 
ATOM      9  C   UNL     1      82.671  62.586  11.212  1.00  0.00     0.158 A 
ATOM     10  C   UNL     1      82.609  61.202  10.989  1.00  0.00     0.062 A 
ATOM     11  C   UNL     1      81.388  60.526  11.116  1.00  0.00     0.022 A 
ENDROOT
BRANCH   9  12
ATOM     12  O   UNL     1      83.882  63.265  11.087  1.00  0.00    -0.504 OA
ATOM     13  H   UNL     1      84.507  63.096  10.307  1.00  0.00     0.293 HD
ENDBRANCH   9  12
BRANCH   8  14
ATOM     14  O   UNL     1      81.583  64.668  11.784  1.00  0.00    -0.504 OA
ATOM     15  H   UNL     1      81.493  65.061  12.713  1.00  0.00     0.293 HD
ENDBRANCH   8  14
TORSDOF 2
ENDMDL
MODEL 2
REMARK VINA RESULT:    -6.261      2.462      3.173
REMARK INTER + INTRA:          -6.627
REMARK INTER:                  -6.627
REMARK INTRA:                   0.000
REMARK UNBOUND:                 0.000
REMARK SMILES O=c1ccc2cc(O)c(O)cc2o1
REMARK SMILES IDX 4 1 3 2 2 3 1 4 13 5 12 6 11 7 9 8 7 9 6 10 5 11 8 12 10 14
REMARK H PARENT 8 13 10 15
REMARK Flexibility Score: inf
ROOT
ATOM      1  C   UNL     1      78.562  60.382  10.219  1.00  0.00     0.019 A 
ATOM      2  C   UNL     1      77.494  61.010  10.859  1.00  0.00     0.094 A 
ATOM      3  C   UNL     1      77.668  61.481  12.165  1.00  0.00     0.336 A 
ATOM      4  O   UNL     1      76.716  62.051  12.760  1.00  0.00    -0.246 OA
ATOM      5  O   UNL     1      78.835  61.330  12.785  1.00  0.00    -0.423 OA
ATOM      6  C   UNL     1      79.880  60.737  12.212  1.00  0.00     0.142 A 
ATOM      7  C   UNL     1      81.082  60.607  12.913  1.00  0.00     0.098 A 
ATOM      8  C   UNL     1      82.185  59.982  12.313  1.00  0.00     0.161 A 
ATOM      9  C   UNL     1      82.085  59.485  11.006  1.00  0.00     0.158 A 
ATOM     10  C   UNL     1      80.881  59.613  10.297  1.00  0.00     0.062 A 
ATOM     11  C   UNL     1      79.778  60.237  10.896  1.00  0.00     0.022 A 
ENDROOT
BRANCH   9  12
ATOM     12  O   UNL     1      83.186  58.866  10.417  1.00  0.00    -0.504 OA
ATOM     13  H   UNL     1      83.243  58.727   9.414  1.00  0.00     0.293 HD
ENDBRANCH   9  12
BRANCH   8  14
ATOM     14  O   UNL     1      83.385  59.851  13.010  1.00  0.00    -0.504 OA
ATOM     15  H   UNL     1      83.673  58.965  13.409  1.00  0.00     0.293 HD
ENDBRANCH   8  14
TORSDOF 2
ENDMDL
MODEL 3
REMARK VINA RESULT:    -6.134      2.500      3.516
REMARK INTER + INTRA:          -6.493
REMARK INTER:                  -6.493
REMARK INTRA:                   0.000
REMARK UNBOUND:                 0.000
REMARK SMILES O=c1ccc2cc(O)c(O)cc2o1
REMARK SMILES IDX 4 1 3 2 2 3 1 4 13 5 12 6 11 7 9 8 7 9 6 10 5 11 8 12 10 14
REMARK H PARENT 8 13 10 15
REMARK Flexibility Score: inf
ROOT
ATOM      1  C   UNL     1      79.459  61.908  13.109  1.00  0.00     0.019 A 
ATOM      2  C   UNL     1      78.357  62.435  12.437  1.00  0.00     0.094 A 
ATOM      3  C   UNL     1      78.228  62.209  11.063  1.00  0.00     0.336 A 
ATOM      4  O   UNL     1      77.241  62.677  10.438  1.00  0.00    -0.246 OA
ATOM      5  O   UNL     1      79.145  61.501  10.408  1.00  0.00    -0.423 OA
ATOM      6  C   UNL     1      80.212  60.980  11.010  1.00  0.00     0.142 A 
ATOM      7  C   UNL     1      81.143  60.245  10.271  1.00  0.00     0.098 A 
ATOM      8  C   UNL     1      82.269  59.694  10.902  1.00  0.00     0.161 A 
ATOM      9  C   UNL     1      82.463  59.880  12.277  1.00  0.00     0.158 A 
ATOM     10  C   UNL     1      81.533  60.617  13.025  1.00  0.00     0.062 A 
ATOM     11  C   UNL     1      80.408  61.168  12.396  1.00  0.00     0.022 A 
ENDROOT
BRANCH   9  12
ATOM     12  O   UNL     1      83.585  59.329  12.896  1.00  0.00    -0.504 OA
ATOM     13  H   UNL     1      83.702  59.356  13.903  1.00  0.00     0.293 HD
ENDBRANCH   9  12
BRANCH   8  14
ATOM     14  O   UNL     1      83.199  58.960  10.166  1.00  0.00    -0.504 OA
ATOM     15  H   UNL     1      82.983  58.605   9.242  1.00  0.00     0.293 HD
ENDBRANCH   8  14
TORSDOF 2
ENDMDL
MODEL 4
REMARK VINA RESULT:    -6.130      2.013      4.390
REMARK INTER + INTRA:          -6.488
REMARK INTER:                  -6.488
REMARK INTRA:                   0.000
REMARK UNBOUND:                 0.000
REMARK SMILES O=c1ccc2cc(O)c(O)cc2o1
REMARK SMILES IDX 4 1 3 2 2 3 1 4 13 5 12 6 11 7 9 8 7 9 6 10 5 11 8 12 10 14
REMARK H PARENT 8 13 10 15
REMARK Flexibility Score: inf
ROOT
ATOM      1  C   UNL     1      81.044  60.265  12.370  1.00  0.00     0.019 A 
ATOM      2  C   UNL     1      82.296  60.704  11.939  1.00  0.00     0.094 A 
ATOM      3  C   UNL     1      82.379  61.878  11.183  1.00  0.00     0.336 A 
ATOM      4  O   UNL     1      83.499  62.292  10.784  1.00  0.00    -0.246 OA
ATOM      5  O   UNL     1      81.279  62.564  10.881  1.00  0.00    -0.423 OA
ATOM      6  C   UNL     1      80.066  62.180  11.271  1.00  0.00     0.142 A 
ATOM      7  C   UNL     1      78.945  62.941  10.924  1.00  0.00     0.098 A 
ATOM      8  C   UNL     1      77.665  62.540  11.334  1.00  0.00     0.161 A 
ATOM      9  C   UNL     1      77.505  61.373  12.094  1.00  0.00     0.158 A 
ATOM     10  C   UNL     1      78.625  60.605  12.446  1.00  0.00     0.062 A 
ATOM     11  C   UNL     1      79.905  61.005  12.037  1.00  0.00     0.022 A 
ENDROOT
BRANCH   9  12
ATOM     12  O   UNL     1      76.229  60.982  12.497  1.00  0.00    -0.504 OA
ATOM     13  H   UNL     1      76.089  60.357  13.283  1.00  0.00     0.293 HD
ENDBRANCH   9  12
BRANCH   8  14
ATOM     14  O   UNL     1      76.547  63.297  10.988  1.00  0.00    -0.504 OA
ATOM     15  H   UNL     1      75.929  63.683  11.692  1.00  0.00     0.293 HD
ENDBRANCH   8  14
TORSDOF 2
ENDMDL
MODEL 5
REMARK VINA RESULT:    -6.062      1.062      2.225
REMARK INTER + INTRA:          -6.416
REMARK INTER:                  -6.416
REMARK INTRA:                   0.000
REMARK UNBOUND:                 0.000
REMARK SMILES O=c1ccc2cc(O)c(O)cc2o1
REMARK SMILES IDX 4 1 3 2 2 3 1 4 13 5 12 6 11 7 9 8 7 9 6 10 5 11 8 12 10 14
REMARK H PARENT 8 13 10 15
REMARK Flexibility Score: inf
ROOT
ATOM      1  C   UNL     1      78.516  60.946  11.991  1.00  0.00     0.019 A 
ATOM      2  C   UNL     1      78.172  59.648  11.614  1.00  0.00     0.094 A 
ATOM      3  C   UNL     1      79.078  58.898  10.857  1.00  0.00     0.336 A 
ATOM      4  O   UNL     1      78.786  57.725  10.507  1.00  0.00    -0.246 OA
ATOM      5  O   UNL     1      80.251  59.418  10.503  1.00  0.00    -0.423 OA
ATOM      6  C   UNL     1      80.619  60.651  10.841  1.00  0.00     0.142 A 
ATOM      7  C   UNL     1      81.864  61.145  10.440  1.00  0.00     0.098 A 
ATOM      8  C   UNL     1      82.256  62.444  10.794  1.00  0.00     0.161 A 
ATOM      9  C   UNL     1      81.398  63.254  11.552  1.00  0.00     0.158 A 
ATOM     10  C   UNL     1      80.147  62.765  11.957  1.00  0.00     0.062 A 
ATOM     11  C   UNL     1      79.755  61.467  11.604  1.00  0.00     0.022 A 
ENDROOT
BRANCH   9  12
ATOM     12  O   UNL     1      81.796  64.544  11.899  1.00  0.00    -0.504 OA
ATOM     13  H   UNL     1      81.173  65.337  11.792  1.00  0.00     0.293 HD
ENDBRANCH   9  12
BRANCH   8  14
ATOM     14  O   UNL     1      83.497  62.938  10.395  1.00  0.00    -0.504 OA
ATOM     15  H   UNL     1      84.149  62.370   9.866  1.00  0.00     0.293 HD
ENDBRANCH   8  14
TORSDOF 2
ENDMDL
MODEL 6
REMARK VINA RESULT:    -6.058      2.464      4.077
REMARK INTER + INTRA:          -6.412
REMARK INTER:                  -6.412
REMARK INTRA:                   0.000
REMARK UNBOUND:                 0.000
REMARK SMILES O=c1ccc2cc(O)c(O)cc2o1
REMARK SMILES IDX 4 1 3 2 2 3 1 4 13 5 12 6 11 7 9 8 7 9 6 10 5 11 8 12 10 14
REMARK H PARENT 8 13 10 15
REMARK Flexibility Score: inf
ROOT
ATOM      1  C   UNL     1      81.598  62.100  10.704  1.00  0.00     0.019 A 
ATOM      2  C   UNL     1      82.559  61.230  11.219  1.00  0.00     0.094 A 
ATOM      3  C   UNL     1      82.188  60.324  12.218  1.00  0.00     0.336 A 
ATOM      4  O   UNL     1      83.040  59.531  12.696  1.00  0.00    -0.246 OA
ATOM      5  O   UNL     1      80.936  60.294  12.669  1.00  0.00    -0.423 OA
ATOM      6  C   UNL     1      79.988  61.106  12.205  1.00  0.00     0.142 A 
ATOM      7  C   UNL     1      78.689  61.029  12.717  1.00  0.00     0.098 A 
ATOM      8  C   UNL     1      77.688  61.883  12.231  1.00  0.00     0.161 A 
ATOM      9  C   UNL     1      77.987  62.817  11.229  1.00  0.00     0.158 A 
ATOM     10  C   UNL     1      79.289  62.899  10.712  1.00  0.00     0.062 A 
ATOM     11  C   UNL     1      80.290  62.047  11.197  1.00  0.00     0.022 A 
ENDROOT
BRANCH   9  12
ATOM     12  O   UNL     1      76.986  63.661  10.753  1.00  0.00    -0.504 OA
ATOM     13  H   UNL     1      76.009  63.388  10.769  1.00  0.00     0.293 HD
ENDBRANCH   9  12
BRANCH   8  14
ATOM     14  O   UNL     1      76.392  61.808  12.740  1.00  0.00    -0.504 OA
ATOM     15  H   UNL     1      75.583  61.785  12.131  1.00  0.00     0.293 HD
ENDBRANCH   8  14
TORSDOF 2
ENDMDL
MODEL 7
REMARK VINA RESULT:    -6.040      2.607      4.935
REMARK INTER + INTRA:          -6.394
REMARK INTER:                  -6.394
REMARK INTRA:                   0.000
REMARK UNBOUND:                 0.000
REMARK SMILES O=c1ccc2cc(O)c(O)cc2o1
REMARK SMILES IDX 4 1 3 2 2 3 1 4 13 5 12 6 11 7 9 8 7 9 6 10 5 11 8 12 10 14
REMARK H PARENT 8 13 10 15
REMARK Flexibility Score: inf
ROOT
ATOM      1  C   UNL     1      80.552  60.950  12.729  1.00  0.00     0.019 A 
ATOM      2  C   UNL     1      81.789  60.473  12.296  1.00  0.00     0.094 A 
ATOM      3  C   UNL     1      81.829  59.549  11.246  1.00  0.00     0.336 A 
ATOM      4  O   UNL     1      82.935  59.106  10.840  1.00  0.00    -0.246 OA
ATOM      5  O   UNL     1      80.703  59.134  10.671  1.00  0.00    -0.423 OA
ATOM      6  C   UNL     1      79.503  59.563  11.053  1.00  0.00     0.142 A 
ATOM      7  C   UNL     1      78.353  59.091  10.412  1.00  0.00     0.098 A 
ATOM      8  C   UNL     1      77.087  59.542  10.812  1.00  0.00     0.161 A 
ATOM      9  C   UNL     1      76.969  60.467  11.858  1.00  0.00     0.158 A 
ATOM     10  C   UNL     1      78.118  60.944  12.506  1.00  0.00     0.062 A 
ATOM     11  C   UNL     1      79.385  60.495  12.107  1.00  0.00     0.022 A 
ENDROOT
BRANCH   9  12
ATOM     12  O   UNL     1      75.706  60.909  12.249  1.00  0.00    -0.504 OA
ATOM     13  H   UNL     1      75.005  60.266  12.601  1.00  0.00     0.293 HD
ENDBRANCH   9  12
BRANCH   8  14
ATOM     14  O   UNL     1      75.940  59.072  10.174  1.00  0.00    -0.504 OA
ATOM     15  H   UNL     1      75.283  59.703   9.729  1.00  0.00     0.293 HD
ENDBRANCH   8  14
TORSDOF 2
ENDMDL
MODEL 8
REMARK VINA RESULT:    -5.898      1.871      3.162
REMARK INTER + INTRA:          -6.243
REMARK INTER:                  -6.243
REMARK INTRA:                   0.000
REMARK UNBOUND:                 0.000
REMARK SMILES O=c1ccc2cc(O)c(O)cc2o1
REMARK SMILES IDX 4 1 3 2 2 3 1 4 13 5 12 6 11 7 9 8 7 9 6 10 5 11 8 12 10 14
REMARK H PARENT 8 13 10 15
REMARK Flexibility Score: inf
ROOT
ATOM      1  C   UNL     1      78.268  60.990  12.578  1.00  0.00     0.019 A 
ATOM      2  C   UNL     1      77.096  60.282  12.315  1.00  0.00     0.094 A 
ATOM      3  C   UNL     1      77.167  59.107  11.561  1.00  0.00     0.336 A 
ATOM      4  O   UNL     1      76.120  58.454  11.312  1.00  0.00    -0.246 OA
ATOM      5  O   UNL     1      78.338  58.671  11.102  1.00  0.00    -0.423 OA
ATOM      6  C   UNL     1      79.481  59.315  11.329  1.00  0.00     0.142 A 
ATOM      7  C   UNL     1      80.682  58.810  10.822  1.00  0.00     0.098 A 
ATOM      8  C   UNL     1      81.888  59.486  11.059  1.00  0.00     0.161 A 
ATOM      9  C   UNL     1      81.893  60.671  11.808  1.00  0.00     0.158 A 
ATOM     10  C   UNL     1      80.691  61.183  12.320  1.00  0.00     0.062 A 
ATOM     11  C   UNL     1      79.485  60.509  12.083  1.00  0.00     0.022 A 
ENDROOT
BRANCH   9  12
ATOM     12  O   UNL     1      83.096  61.336  12.038  1.00  0.00    -0.504 OA
ATOM     13  H   UNL     1      83.470  61.446  12.975  1.00  0.00     0.293 HD
ENDBRANCH   9  12
BRANCH   8  14
ATOM     14  O   UNL     1      83.086  58.984  10.553  1.00  0.00    -0.504 OA
ATOM     15  H   UNL     1      83.804  58.609  11.163  1.00  0.00     0.293 HD
ENDBRANCH   8  14
TORSDOF 2
ENDMDL
MODEL 9
REMARK VINA RESULT:    -5.880      1.236      5.010
REMARK INTER + INTRA:          -6.224
REMARK INTER:                  -6.224
REMARK INTRA:                   0.000
REMARK UNBOUND:                 0.000
REMARK SMILES O=c1ccc2cc(O)c(O)cc2o1
REMARK SMILES IDX 4 1 3 2 2 3 1 4 13 5 12 6 11 7 9 8 7 9 6 10 5 11 8 12 10 14
REMARK H PARENT 8 13 10 15
REMARK Flexibility Score: inf
ROOT
ATOM      1  C   UNL     1      80.713  63.045  11.642  1.00  0.00     0.019 A 
ATOM      2  C   UNL     1      81.994  63.478  11.298  1.00  0.00     0.094 A 
ATOM      3  C   UNL     1      82.917  62.546  10.812  1.00  0.00     0.336 A 
ATOM      4  O   UNL     1      84.077  62.916  10.496  1.00  0.00    -0.246 OA
ATOM      5  O   UNL     1      82.576  61.266  10.680  1.00  0.00    -0.423 OA
ATOM      6  C   UNL     1      81.367  60.811  10.997  1.00  0.00     0.142 A 
ATOM      7  C   UNL     1      81.066  59.455  10.838  1.00  0.00     0.098 A 
ATOM      8  C   UNL     1      79.792  58.971  11.170  1.00  0.00     0.161 A 
ATOM      9  C   UNL     1      78.815  59.847  11.664  1.00  0.00     0.158 A 
ATOM     10  C   UNL     1      79.111  61.208  11.826  1.00  0.00     0.062 A 
ATOM     11  C   UNL     1      80.383  61.693  11.494  1.00  0.00     0.022 A 
ENDROOT
BRANCH   9  12
ATOM     12  O   UNL     1      77.552  59.357  11.992  1.00  0.00    -0.504 OA
ATOM     13  H   UNL     1      77.305  58.384  11.844  1.00  0.00     0.293 HD
ENDBRANCH   9  12
BRANCH   8  14
ATOM     14  O   UNL     1      79.490  57.619  11.013  1.00  0.00    -0.504 OA
ATOM     15  H   UNL     1      79.392  57.001  11.810  1.00  0.00     0.293 HD
ENDBRANCH   8  14
TORSDOF 2
ENDMDL
