MODEL 1
REMARK VINA RESULT:    -7.156      0.000      0.000
REMARK INTER + INTRA:          -8.887
REMARK INTER:                  -8.620
REMARK INTRA:                  -0.267
REMARK UNBOUND:                -0.267
REMARK SMILES O=c1c(O)c(-c2ccc(O)c(O)c2)oc2cc(O)cc(O)c12
REMARK SMILES IDX 5 1 3 2 2 3 1 4 22 5 20 6 19 7 17 8 16 9 15 10 14 11 6 12
REMARK SMILES IDX 7 13 8 14 9 15 13 16 11 17 10 18 12 20 4 22 21 24 18 26
REMARK H PARENT 10 19 12 21 4 23 21 25 18 27
REMARK Flexibility Score: inf
ROOT
ATOM      1  C   UNL     1      46.106 -29.323  17.973  1.00  0.00     0.180 A 
ATOM      2  C   UNL     1      46.662 -29.650  19.225  1.00  0.00     0.208 A 
ATOM      3  C   UNL     1      46.049 -30.647  19.999  1.00  0.00     0.238 A 
ATOM      4  O   UNL     1      46.544 -30.956  21.117  1.00  0.00    -0.285 OA
ATOM      5  C   UNL     1      44.886 -31.285  19.522  1.00  0.00     0.111 A 
ATOM      6  C   UNL     1      44.206 -32.297  20.241  1.00  0.00     0.134 A 
ATOM      7  C   UNL     1      43.049 -32.877  19.701  1.00  0.00     0.093 A 
ATOM      8  C   UNL     1      42.559 -32.465  18.460  1.00  0.00     0.123 A 
ATOM      9  C   UNL     1      43.226 -31.467  17.744  1.00  0.00     0.094 A 
ATOM     10  C   UNL     1      44.382 -30.877  18.264  1.00  0.00     0.146 A 
ATOM     11  O   UNL     1      45.000 -29.935  17.562  1.00  0.00    -0.452 OA
ENDROOT
BRANCH   1  12
ATOM     12  C   UNL     1      46.705 -28.295  17.091  1.00  0.00     0.025 A 
ATOM     13  C   UNL     1      46.040 -27.074  16.904  1.00  0.00     0.016 A 
ATOM     14  C   UNL     1      46.576 -26.098  16.059  1.00  0.00     0.051 A 
ATOM     15  C   UNL     1      47.775 -26.336  15.377  1.00  0.00     0.157 A 
ATOM     16  C   UNL     1      47.899 -28.539  16.388  1.00  0.00     0.062 A 
ATOM     17  C   UNL     1      48.437 -27.564  15.539  1.00  0.00     0.158 A 
BRANCH  15  18
ATOM     18  O   UNL     1      48.309 -25.359  14.537  1.00  0.00    -0.504 OA
ATOM     19  H   UNL     1      48.195 -24.372  14.731  1.00  0.00     0.293 HD
ENDBRANCH  15  18
BRANCH  17  20
ATOM     20  O   UNL     1      49.626 -27.838  14.864  1.00  0.00    -0.504 OA
ATOM     21  H   UNL     1      49.907 -27.321  14.038  1.00  0.00     0.293 HD
ENDBRANCH  17  20
ENDBRANCH   1  12
BRANCH   2  22
ATOM     22  O   UNL     1      47.786 -28.968  19.698  1.00  0.00    -0.502 OA
ATOM     23  H   UNL     1      48.684 -29.421  19.821  1.00  0.00     0.293 HD
ENDBRANCH   2  22
BRANCH   6  24
ATOM     24  O   UNL     1      44.670 -32.729  21.485  1.00  0.00    -0.507 OA
ATOM     25  H   UNL     1      44.828 -32.083  22.249  1.00  0.00     0.293 HD
ENDBRANCH   6  24
BRANCH   8  26
ATOM     26  O   UNL     1      41.406 -33.056  17.947  1.00  0.00    -0.508 OA
ATOM     27  H   UNL     1      40.513 -32.578  17.965  1.00  0.00     0.293 HD
ENDBRANCH   8  26
TORSDOF 6
ENDMDL
MODEL 2
REMARK VINA RESULT:    -6.708      1.701      6.842
REMARK INTER + INTRA:          -8.347
REMARK INTER:                  -8.420
REMARK INTRA:                   0.073
REMARK UNBOUND:                -0.267
REMARK SMILES O=c1c(O)c(-c2ccc(O)c(O)c2)oc2cc(O)cc(O)c12
REMARK SMILES IDX 5 1 3 2 2 3 1 4 22 5 20 6 19 7 17 8 16 9 15 10 14 11 6 12
REMARK SMILES IDX 7 13 8 14 9 15 13 16 11 17 10 18 12 20 4 22 21 24 18 26
REMARK H PARENT 10 19 12 21 4 23 21 25 18 27
REMARK Flexibility Score: inf
ROOT
ATOM      1  C   UNL     1      45.592 -28.606  18.451  1.00  0.00     0.180 A 
ATOM      2  C   UNL     1      46.165 -27.712  19.376  1.00  0.00     0.208 A 
ATOM      3  C   UNL     1      46.864 -26.594  18.895  1.00  0.00     0.238 A 
ATOM      4  O   UNL     1      47.372 -25.781  19.715  1.00  0.00    -0.285 OA
ATOM      5  C   UNL     1      46.996 -26.398  17.506  1.00  0.00     0.111 A 
ATOM      6  C   UNL     1      47.687 -25.300  16.940  1.00  0.00     0.134 A 
ATOM      7  C   UNL     1      47.782 -25.180  15.546  1.00  0.00     0.093 A 
ATOM      8  C   UNL     1      47.201 -26.135  14.708  1.00  0.00     0.123 A 
ATOM      9  C   UNL     1      46.517 -27.222  15.261  1.00  0.00     0.094 A 
ATOM     10  C   UNL     1      46.410 -27.358  16.648  1.00  0.00     0.146 A 
ATOM     11  O   UNL     1      45.750 -28.397  17.147  1.00  0.00    -0.452 OA
ENDROOT
BRANCH   1  12
ATOM     12  C   UNL     1      44.825 -29.798  18.879  1.00  0.00     0.025 A 
ATOM     13  C   UNL     1      43.574 -30.059  18.298  1.00  0.00     0.016 A 
ATOM     14  C   UNL     1      42.823 -31.166  18.702  1.00  0.00     0.051 A 
ATOM     15  C   UNL     1      43.304 -32.018  19.703  1.00  0.00     0.157 A 
ATOM     16  C   UNL     1      45.296 -30.645  19.898  1.00  0.00     0.062 A 
ATOM     17  C   UNL     1      44.544 -31.753  20.307  1.00  0.00     0.158 A 
BRANCH  15  18
ATOM     18  O   UNL     1      42.554 -33.124  20.103  1.00  0.00    -0.504 OA
ATOM     19  H   UNL     1      42.487 -33.955  19.527  1.00  0.00     0.293 HD
ENDBRANCH  15  18
BRANCH  17  20
ATOM     20  O   UNL     1      45.046 -32.574  21.316  1.00  0.00    -0.504 OA
ATOM     21  H   UNL     1      45.991 -32.939  21.293  1.00  0.00     0.293 HD
ENDBRANCH  17  20
ENDBRANCH   1  12
BRANCH   2  22
ATOM     22  O   UNL     1      46.063 -27.956  20.748  1.00  0.00    -0.502 OA
ATOM     23  H   UNL     1      46.545 -27.390  21.437  1.00  0.00     0.293 HD
ENDBRANCH   2  22
BRANCH   6  24
ATOM     24  O   UNL     1      48.279 -24.329  17.750  1.00  0.00    -0.507 OA
ATOM     25  H   UNL     1      48.608 -23.448  17.373  1.00  0.00     0.293 HD
ENDBRANCH   6  24
BRANCH   8  26
ATOM     26  O   UNL     1      47.311 -25.994  13.326  1.00  0.00    -0.508 OA
ATOM     27  H   UNL     1      47.324 -25.081  12.887  1.00  0.00     0.293 HD
ENDBRANCH   8  26
TORSDOF 6
ENDMDL
MODEL 3
REMARK VINA RESULT:    -6.672      3.870      8.039
REMARK INTER + INTRA:          -8.303
REMARK INTER:                  -8.039
REMARK INTRA:                  -0.264
REMARK UNBOUND:                -0.267
REMARK SMILES O=c1c(O)c(-c2ccc(O)c(O)c2)oc2cc(O)cc(O)c12
REMARK SMILES IDX 5 1 3 2 2 3 1 4 22 5 20 6 19 7 17 8 16 9 15 10 14 11 6 12
REMARK SMILES IDX 7 13 8 14 9 15 13 16 11 17 10 18 12 20 4 22 21 24 18 26
REMARK H PARENT 10 19 12 21 4 23 21 25 18 27
REMARK Flexibility Score: inf
ROOT
ATOM      1  C   UNL     1      47.262 -26.587  19.001  1.00  0.00     0.180 A 
ATOM      2  C   UNL     1      48.086 -26.650  17.861  1.00  0.00     0.208 A 
ATOM      3  C   UNL     1      49.088 -25.682  17.694  1.00  0.00     0.238 A 
ATOM      4  O   UNL     1      49.839 -25.735  16.682  1.00  0.00    -0.285 OA
ATOM      5  C   UNL     1      49.237 -24.659  18.653  1.00  0.00     0.111 A 
ATOM      6  C   UNL     1      50.218 -23.643  18.557  1.00  0.00     0.134 A 
ATOM      7  C   UNL     1      50.296 -22.655  19.549  1.00  0.00     0.093 A 
ATOM      8  C   UNL     1      49.414 -22.662  20.632  1.00  0.00     0.123 A 
ATOM      9  C   UNL     1      48.443 -23.663  20.733  1.00  0.00     0.094 A 
ATOM     10  C   UNL     1      48.350 -24.657  19.755  1.00  0.00     0.146 A 
ATOM     11  O   UNL     1      47.422 -25.599  19.877  1.00  0.00    -0.452 OA
ENDROOT
BRANCH   1  12
ATOM     12  C   UNL     1      46.196 -27.582  19.258  1.00  0.00     0.025 A 
ATOM     13  C   UNL     1      46.416 -28.603  20.195  1.00  0.00     0.016 A 
ATOM     14  C   UNL     1      45.431 -29.565  20.438  1.00  0.00     0.051 A 
ATOM     15  C   UNL     1      44.221 -29.530  19.736  1.00  0.00     0.157 A 
ATOM     16  C   UNL     1      44.986 -27.561  18.540  1.00  0.00     0.062 A 
ATOM     17  C   UNL     1      44.000 -28.525  18.779  1.00  0.00     0.158 A 
BRANCH  15  18
ATOM     18  O   UNL     1      43.239 -30.489  19.982  1.00  0.00    -0.504 OA
ATOM     19  H   UNL     1      42.267 -30.234  20.103  1.00  0.00     0.293 HD
ENDBRANCH  15  18
BRANCH  17  20
ATOM     20  O   UNL     1      42.811 -28.470  18.052  1.00  0.00    -0.504 OA
ATOM     21  H   UNL     1      42.622 -29.099  17.281  1.00  0.00     0.293 HD
ENDBRANCH  17  20
ENDBRANCH   1  12
BRANCH   2  22
ATOM     22  O   UNL     1      47.886 -27.645  16.900  1.00  0.00    -0.502 OA
ATOM     23  H   UNL     1      48.354 -27.634  16.002  1.00  0.00     0.293 HD
ENDBRANCH   2  22
BRANCH   6  24
ATOM     24  O   UNL     1      51.114 -23.609  17.487  1.00  0.00    -0.507 OA
ATOM     25  H   UNL     1      51.078 -24.292  16.740  1.00  0.00     0.293 HD
ENDBRANCH   6  24
BRANCH   8  26
ATOM     26  O   UNL     1      49.512 -21.667  21.603  1.00  0.00    -0.508 OA
ATOM     27  H   UNL     1      49.251 -20.708  21.407  1.00  0.00     0.293 HD
ENDBRANCH   8  26
TORSDOF 6
ENDMDL
MODEL 4
REMARK VINA RESULT:    -6.441      5.356      6.695
REMARK INTER + INTRA:          -8.025
REMARK INTER:                  -7.707
REMARK INTRA:                  -0.318
REMARK UNBOUND:                -0.267
REMARK SMILES O=c1c(O)c(-c2ccc(O)c(O)c2)oc2cc(O)cc(O)c12
REMARK SMILES IDX 5 1 3 2 2 3 1 4 22 5 20 6 19 7 17 8 16 9 15 10 14 11 6 12
REMARK SMILES IDX 7 13 8 14 9 15 13 16 11 17 10 18 12 20 4 22 21 24 18 26
REMARK H PARENT 10 19 12 21 4 23 21 25 18 27
REMARK Flexibility Score: inf
ROOT
ATOM      1  C   UNL     1      48.941 -25.522  17.912  1.00  0.00     0.180 A 
ATOM      2  C   UNL     1      49.846 -26.588  17.749  1.00  0.00     0.208 A 
ATOM      3  C   UNL     1      49.629 -27.508  16.712  1.00  0.00     0.238 A 
ATOM      4  O   UNL     1      50.439 -28.461  16.549  1.00  0.00    -0.285 OA
ATOM      5  C   UNL     1      48.507 -27.361  15.872  1.00  0.00     0.111 A 
ATOM      6  C   UNL     1      48.214 -28.247  14.807  1.00  0.00     0.134 A 
ATOM      7  C   UNL     1      47.071 -28.038  14.022  1.00  0.00     0.093 A 
ATOM      8  C   UNL     1      46.217 -26.963  14.279  1.00  0.00     0.123 A 
ATOM      9  C   UNL     1      46.501 -26.084  15.329  1.00  0.00     0.094 A 
ATOM     10  C   UNL     1      47.635 -26.275  16.123  1.00  0.00     0.146 A 
ATOM     11  O   UNL     1      47.885 -25.423  17.110  1.00  0.00    -0.452 OA
ENDROOT
BRANCH   1  12
ATOM     12  C   UNL     1      49.112 -24.500  18.971  1.00  0.00     0.025 A 
ATOM     13  C   UNL     1      48.341 -24.582  20.141  1.00  0.00     0.016 A 
ATOM     14  C   UNL     1      48.471 -23.617  21.143  1.00  0.00     0.051 A 
ATOM     15  C   UNL     1      49.360 -22.547  20.983  1.00  0.00     0.157 A 
ATOM     16  C   UNL     1      49.989 -23.413  18.804  1.00  0.00     0.062 A 
ATOM     17  C   UNL     1      50.119 -22.443  19.806  1.00  0.00     0.158 A 
BRANCH  15  18
ATOM     18  O   UNL     1      49.489 -21.587  21.986  1.00  0.00    -0.504 OA
ATOM     19  H   UNL     1      50.328 -21.028  22.079  1.00  0.00     0.293 HD
ENDBRANCH  15  18
BRANCH  17  20
ATOM     20  O   UNL     1      51.003 -21.382  19.609  1.00  0.00    -0.504 OA
ATOM     21  H   UNL     1      51.428 -20.886  20.383  1.00  0.00     0.293 HD
ENDBRANCH  17  20
ENDBRANCH   1  12
BRANCH   2  22
ATOM     22  O   UNL     1      50.923 -26.740  18.626  1.00  0.00    -0.502 OA
ATOM     23  H   UNL     1      50.814 -26.696  19.632  1.00  0.00     0.293 HD
ENDBRANCH   2  22
BRANCH   6  24
ATOM     24  O   UNL     1      49.047 -29.331  14.525  1.00  0.00    -0.507 OA
ATOM     25  H   UNL     1      49.548 -29.823  15.255  1.00  0.00     0.293 HD
ENDBRANCH   6  24
BRANCH   8  26
ATOM     26  O   UNL     1      45.087 -26.778  13.485  1.00  0.00    -0.508 OA
ATOM     27  H   UNL     1      44.539 -25.927  13.534  1.00  0.00     0.293 HD
ENDBRANCH   8  26
TORSDOF 6
ENDMDL
MODEL 5
REMARK VINA RESULT:    -6.433      3.605      7.855
REMARK INTER + INTRA:          -8.016
REMARK INTER:                  -7.706
REMARK INTRA:                  -0.310
REMARK UNBOUND:                -0.267
REMARK SMILES O=c1c(O)c(-c2ccc(O)c(O)c2)oc2cc(O)cc(O)c12
REMARK SMILES IDX 5 1 3 2 2 3 1 4 22 5 20 6 19 7 17 8 16 9 15 10 14 11 6 12
REMARK SMILES IDX 7 13 8 14 9 15 13 16 11 17 10 18 12 20 4 22 21 24 18 26
REMARK H PARENT 10 19 12 21 4 23 21 25 18 27
REMARK Flexibility Score: inf
ROOT
ATOM      1  C   UNL     1      47.137 -26.878  18.839  1.00  0.00     0.180 A 
ATOM      2  C   UNL     1      47.866 -26.828  17.636  1.00  0.00     0.208 A 
ATOM      3  C   UNL     1      48.843 -25.834  17.475  1.00  0.00     0.238 A 
ATOM      4  O   UNL     1      49.510 -25.787  16.405  1.00  0.00    -0.285 OA
ATOM      5  C   UNL     1      49.061 -24.897  18.506  1.00  0.00     0.111 A 
ATOM      6  C   UNL     1      50.023 -23.862  18.421  1.00  0.00     0.134 A 
ATOM      7  C   UNL     1      50.173 -22.963  19.487  1.00  0.00     0.093 A 
ATOM      8  C   UNL     1      49.382 -23.078  20.633  1.00  0.00     0.123 A 
ATOM      9  C   UNL     1      48.431 -24.098  20.722  1.00  0.00     0.094 A 
ATOM     10  C   UNL     1      48.267 -25.005  19.671  1.00  0.00     0.146 A 
ATOM     11  O   UNL     1      47.360 -25.968  19.784  1.00  0.00    -0.452 OA
ENDROOT
BRANCH   1  12
ATOM     12  C   UNL     1      46.103 -27.908  19.092  1.00  0.00     0.025 A 
ATOM     13  C   UNL     1      44.796 -27.703  18.625  1.00  0.00     0.016 A 
ATOM     14  C   UNL     1      43.800 -28.652  18.870  1.00  0.00     0.051 A 
ATOM     15  C   UNL     1      44.092 -29.811  19.599  1.00  0.00     0.157 A 
ATOM     16  C   UNL     1      46.389 -29.063  19.841  1.00  0.00     0.062 A 
ATOM     17  C   UNL     1      45.392 -30.015  20.091  1.00  0.00     0.158 A 
BRANCH  15  18
ATOM     18  O   UNL     1      43.097 -30.757  19.840  1.00  0.00    -0.504 OA
ATOM     19  H   UNL     1      42.205 -30.497  20.242  1.00  0.00     0.293 HD
ENDBRANCH  15  18
BRANCH  17  20
ATOM     20  O   UNL     1      45.713 -31.151  20.832  1.00  0.00    -0.504 OA
ATOM     21  H   UNL     1      46.671 -31.450  20.971  1.00  0.00     0.293 HD
ENDBRANCH  17  20
ENDBRANCH   1  12
BRANCH   2  22
ATOM     22  O   UNL     1      47.596 -27.738  16.609  1.00  0.00    -0.502 OA
ATOM     23  H   UNL     1      48.320 -28.098  15.999  1.00  0.00     0.293 HD
ENDBRANCH   2  22
BRANCH   6  24
ATOM     24  O   UNL     1      50.828 -23.719  17.290  1.00  0.00    -0.507 OA
ATOM     25  H   UNL     1      50.984 -22.817  16.856  1.00  0.00     0.293 HD
ENDBRANCH   6  24
BRANCH   8  26
ATOM     26  O   UNL     1      49.551 -22.170  21.677  1.00  0.00    -0.508 OA
ATOM     27  H   UNL     1      50.051 -22.422  22.521  1.00  0.00     0.293 HD
ENDBRANCH   8  26
TORSDOF 6
ENDMDL
MODEL 6
REMARK VINA RESULT:    -6.382      4.050      4.850
REMARK INTER + INTRA:          -7.955
REMARK INTER:                  -7.636
REMARK INTRA:                  -0.319
REMARK UNBOUND:                -0.267
REMARK SMILES O=c1c(O)c(-c2ccc(O)c(O)c2)oc2cc(O)cc(O)c12
REMARK SMILES IDX 5 1 3 2 2 3 1 4 22 5 20 6 19 7 17 8 16 9 15 10 14 11 6 12
REMARK SMILES IDX 7 13 8 14 9 15 13 16 11 17 10 18 12 20 4 22 21 24 18 26
REMARK H PARENT 10 19 12 21 4 23 21 25 18 27
REMARK Flexibility Score: inf
ROOT
ATOM      1  C   UNL     1      48.003 -26.234  20.017  1.00  0.00     0.180 A 
ATOM      2  C   UNL     1      48.437 -27.308  20.818  1.00  0.00     0.208 A 
ATOM      3  C   UNL     1      47.644 -28.463  20.891  1.00  0.00     0.238 A 
ATOM      4  O   UNL     1      48.028 -29.435  21.596  1.00  0.00    -0.285 OA
ATOM      5  C   UNL     1      46.427 -28.520  20.181  1.00  0.00     0.111 A 
ATOM      6  C   UNL     1      45.568 -29.645  20.204  1.00  0.00     0.134 A 
ATOM      7  C   UNL     1      44.369 -29.620  19.477  1.00  0.00     0.093 A 
ATOM      8  C   UNL     1      44.011 -28.494  18.731  1.00  0.00     0.123 A 
ATOM      9  C   UNL     1      44.856 -27.380  18.704  1.00  0.00     0.094 A 
ATOM     10  C   UNL     1      46.056 -27.386  19.420  1.00  0.00     0.146 A 
ATOM     11  O   UNL     1      46.842 -26.317  19.374  1.00  0.00    -0.452 OA
ENDROOT
BRANCH   1  12
ATOM     12  C   UNL     1      48.792 -24.989  19.875  1.00  0.00     0.025 A 
ATOM     13  C   UNL     1      49.713 -24.872  18.823  1.00  0.00     0.016 A 
ATOM     14  C   UNL     1      50.484 -23.714  18.682  1.00  0.00     0.051 A 
ATOM     15  C   UNL     1      50.356 -22.665  19.600  1.00  0.00     0.157 A 
ATOM     16  C   UNL     1      48.681 -23.941  20.807  1.00  0.00     0.062 A 
ATOM     17  C   UNL     1      49.454 -22.781  20.670  1.00  0.00     0.158 A 
BRANCH  15  18
ATOM     18  O   UNL     1      51.124 -21.510  19.455  1.00  0.00    -0.504 OA
ATOM     19  H   UNL     1      50.883 -20.794  18.781  1.00  0.00     0.293 HD
ENDBRANCH  15  18
BRANCH  17  20
ATOM     20  O   UNL     1      49.313 -21.760  21.609  1.00  0.00    -0.504 OA
ATOM     21  H   UNL     1      49.138 -21.951  22.589  1.00  0.00     0.293 HD
ENDBRANCH  17  20
ENDBRANCH   1  12
BRANCH   2  22
ATOM     22  O   UNL     1      49.622 -27.207  21.552  1.00  0.00    -0.502 OA
ATOM     23  H   UNL     1      50.429 -27.790  21.362  1.00  0.00     0.293 HD
ENDBRANCH   2  22
BRANCH   6  24
ATOM     24  O   UNL     1      45.896 -30.784  20.940  1.00  0.00    -0.507 OA
ATOM     25  H   UNL     1      45.854 -30.795  21.953  1.00  0.00     0.293 HD
ENDBRANCH   6  24
BRANCH   8  26
ATOM     26  O   UNL     1      42.814 -28.495  18.019  1.00  0.00    -0.508 OA
ATOM     27  H   UNL     1      42.474 -27.661  17.555  1.00  0.00     0.293 HD
ENDBRANCH   8  26
TORSDOF 6
ENDMDL
MODEL 7
REMARK VINA RESULT:    -6.318      2.636      7.547
REMARK INTER + INTRA:          -7.877
REMARK INTER:                  -7.553
REMARK INTRA:                  -0.325
REMARK UNBOUND:                -0.267
REMARK SMILES O=c1c(O)c(-c2ccc(O)c(O)c2)oc2cc(O)cc(O)c12
REMARK SMILES IDX 5 1 3 2 2 3 1 4 22 5 20 6 19 7 17 8 16 9 15 10 14 11 6 12
REMARK SMILES IDX 7 13 8 14 9 15 13 16 11 17 10 18 12 20 4 22 21 24 18 26
REMARK H PARENT 10 19 12 21 4 23 21 25 18 27
REMARK Flexibility Score: inf
ROOT
ATOM      1  C   UNL     1      46.304 -28.190  18.799  1.00  0.00     0.180 A 
ATOM      2  C   UNL     1      46.198 -27.787  17.454  1.00  0.00     0.208 A 
ATOM      3  C   UNL     1      46.789 -26.576  17.060  1.00  0.00     0.238 A 
ATOM      4  O   UNL     1      46.709 -26.210  15.856  1.00  0.00    -0.285 OA
ATOM      5  C   UNL     1      47.458 -25.784  18.015  1.00  0.00     0.111 A 
ATOM      6  C   UNL     1      48.077 -24.550  17.702  1.00  0.00     0.134 A 
ATOM      7  C   UNL     1      48.715 -23.815  18.711  1.00  0.00     0.093 A 
ATOM      8  C   UNL     1      48.745 -24.287  20.026  1.00  0.00     0.123 A 
ATOM      9  C   UNL     1      48.136 -25.505  20.341  1.00  0.00     0.094 A 
ATOM     10  C   UNL     1      47.496 -26.254  19.349  1.00  0.00     0.146 A 
ATOM     11  O   UNL     1      46.929 -27.410  19.675  1.00  0.00    -0.452 OA
ENDROOT
BRANCH   1  12
ATOM     12  C   UNL     1      45.723 -29.462  19.287  1.00  0.00     0.025 A 
ATOM     13  C   UNL     1      46.486 -30.638  19.225  1.00  0.00     0.016 A 
ATOM     14  C   UNL     1      45.950 -31.853  19.661  1.00  0.00     0.051 A 
ATOM     15  C   UNL     1      44.639 -31.912  20.150  1.00  0.00     0.157 A 
ATOM     16  C   UNL     1      44.400 -29.528  19.760  1.00  0.00     0.062 A 
ATOM     17  C   UNL     1      43.859 -30.745  20.194  1.00  0.00     0.158 A 
BRANCH  15  18
ATOM     18  O   UNL     1      44.107 -33.125  20.586  1.00  0.00    -0.504 OA
ATOM     19  H   UNL     1      43.498 -33.680  19.997  1.00  0.00     0.293 HD
ENDBRANCH  15  18
BRANCH  17  20
ATOM     20  O   UNL     1      42.546 -30.772  20.662  1.00  0.00    -0.504 OA
ATOM     21  H   UNL     1      42.155 -30.016  21.213  1.00  0.00     0.293 HD
ENDBRANCH  17  20
ENDBRANCH   1  12
BRANCH   2  22
ATOM     22  O   UNL     1      45.487 -28.566  16.537  1.00  0.00    -0.502 OA
ATOM     23  H   UNL     1      45.804 -29.481  16.241  1.00  0.00     0.293 HD
ENDBRANCH   2  22
BRANCH   6  24
ATOM     24  O   UNL     1      48.063 -24.050  16.398  1.00  0.00    -0.507 OA
ATOM     25  H   UNL     1      47.226 -24.070  15.828  1.00  0.00     0.293 HD
ENDBRANCH   6  24
BRANCH   8  26
ATOM     26  O   UNL     1      49.384 -23.537  21.010  1.00  0.00    -0.508 OA
ATOM     27  H   UNL     1      50.157 -23.915  21.546  1.00  0.00     0.293 HD
ENDBRANCH   8  26
TORSDOF 6
ENDMDL
MODEL 8
REMARK VINA RESULT:    -6.093      5.209      6.806
REMARK INTER + INTRA:          -7.607
REMARK INTER:                  -7.318
REMARK INTRA:                  -0.289
REMARK UNBOUND:                -0.267
REMARK SMILES O=c1c(O)c(-c2ccc(O)c(O)c2)oc2cc(O)cc(O)c12
REMARK SMILES IDX 5 1 3 2 2 3 1 4 22 5 20 6 19 7 17 8 16 9 15 10 14 11 6 12
REMARK SMILES IDX 7 13 8 14 9 15 13 16 11 17 10 18 12 20 4 22 21 24 18 26
REMARK H PARENT 10 19 12 21 4 23 21 25 18 27
REMARK Flexibility Score: inf
ROOT
ATOM      1  C   UNL     1      49.061 -26.130  17.573  1.00  0.00     0.180 A 
ATOM      2  C   UNL     1      48.306 -26.000  16.391  1.00  0.00     0.208 A 
ATOM      3  C   UNL     1      48.240 -27.087  15.506  1.00  0.00     0.238 A 
ATOM      4  O   UNL     1      47.557 -26.987  14.450  1.00  0.00    -0.285 OA
ATOM      5  C   UNL     1      48.941 -28.273  15.804  1.00  0.00     0.111 A 
ATOM      6  C   UNL     1      48.930 -29.413  14.963  1.00  0.00     0.134 A 
ATOM      7  C   UNL     1      49.662 -30.552  15.326  1.00  0.00     0.093 A 
ATOM      8  C   UNL     1      50.405 -30.576  16.509  1.00  0.00     0.123 A 
ATOM      9  C   UNL     1      50.419 -29.454  17.343  1.00  0.00     0.094 A 
ATOM     10  C   UNL     1      49.695 -28.309  17.001  1.00  0.00     0.146 A 
ATOM     11  O   UNL     1      49.722 -27.259  17.813  1.00  0.00    -0.452 OA
ENDROOT
BRANCH   1  12
ATOM     12  C   UNL     1      49.165 -25.036  18.565  1.00  0.00     0.025 A 
ATOM     13  C   UNL     1      50.057 -23.977  18.334  1.00  0.00     0.016 A 
ATOM     14  C   UNL     1      50.187 -22.945  19.267  1.00  0.00     0.051 A 
ATOM     15  C   UNL     1      49.438 -22.964  20.451  1.00  0.00     0.157 A 
ATOM     16  C   UNL     1      48.429 -25.062  19.764  1.00  0.00     0.062 A 
ATOM     17  C   UNL     1      48.559 -24.030  20.702  1.00  0.00     0.158 A 
BRANCH  15  18
ATOM     18  O   UNL     1      49.567 -21.931  21.378  1.00  0.00    -0.504 OA
ATOM     19  H   UNL     1      50.444 -21.439  21.506  1.00  0.00     0.293 HD
ENDBRANCH  15  18
BRANCH  17  20
ATOM     20  O   UNL     1      47.810 -24.086  21.876  1.00  0.00    -0.504 OA
ATOM     21  H   UNL     1      47.328 -23.275  22.246  1.00  0.00     0.293 HD
ENDBRANCH  17  20
ENDBRANCH   1  12
BRANCH   2  22
ATOM     22  O   UNL     1      47.660 -24.797  16.095  1.00  0.00    -0.502 OA
ATOM     23  H   UNL     1      47.344 -24.159  16.815  1.00  0.00     0.293 HD
ENDBRANCH   2  22
BRANCH   6  24
ATOM     24  O   UNL     1      48.199 -29.420  13.774  1.00  0.00    -0.507 OA
ATOM     25  H   UNL     1      48.325 -30.143  13.076  1.00  0.00     0.293 HD
ENDBRANCH   6  24
BRANCH   8  26
ATOM     26  O   UNL     1      51.125 -31.720  16.845  1.00  0.00    -0.508 OA
ATOM     27  H   UNL     1      50.847 -32.637  16.513  1.00  0.00     0.293 HD
ENDBRANCH   8  26
TORSDOF 6
ENDMDL
MODEL 9
REMARK VINA RESULT:    -6.086      1.758      6.981
REMARK INTER + INTRA:          -7.598
REMARK INTER:                  -7.369
REMARK INTRA:                  -0.228
REMARK UNBOUND:                -0.267
REMARK SMILES O=c1c(O)c(-c2ccc(O)c(O)c2)oc2cc(O)cc(O)c12
REMARK SMILES IDX 5 1 3 2 2 3 1 4 22 5 20 6 19 7 17 8 16 9 15 10 14 11 6 12
REMARK SMILES IDX 7 13 8 14 9 15 13 16 11 17 10 18 12 20 4 22 21 24 18 26
REMARK H PARENT 10 19 12 21 4 23 21 25 18 27
REMARK Flexibility Score: inf
ROOT
ATOM      1  C   UNL     1      46.483 -29.734  18.253  1.00  0.00     0.180 A 
ATOM      2  C   UNL     1      47.644 -30.223  17.623  1.00  0.00     0.208 A 
ATOM      3  C   UNL     1      48.575 -29.305  17.111  1.00  0.00     0.238 A 
ATOM      4  O   UNL     1      49.624 -29.731  16.555  1.00  0.00    -0.285 OA
ATOM      5  C   UNL     1      48.323 -27.923  17.218  1.00  0.00     0.111 A 
ATOM      6  C   UNL     1      49.207 -26.933  16.725  1.00  0.00     0.134 A 
ATOM      7  C   UNL     1      48.880 -25.576  16.863  1.00  0.00     0.093 A 
ATOM      8  C   UNL     1      47.688 -25.190  17.481  1.00  0.00     0.123 A 
ATOM      9  C   UNL     1      46.811 -26.163  17.971  1.00  0.00     0.094 A 
ATOM     10  C   UNL     1      47.119 -27.520  17.845  1.00  0.00     0.146 A 
ATOM     11  O   UNL     1      46.272 -28.424  18.322  1.00  0.00    -0.452 OA
ENDROOT
BRANCH   1  12
ATOM     12  C   UNL     1      45.464 -30.638  18.834  1.00  0.00     0.025 A 
ATOM     13  C   UNL     1      44.178 -30.679  18.274  1.00  0.00     0.016 A 
ATOM     14  C   UNL     1      43.194 -31.508  18.819  1.00  0.00     0.051 A 
ATOM     15  C   UNL     1      43.477 -32.296  19.941  1.00  0.00     0.157 A 
ATOM     16  C   UNL     1      45.739 -31.416  19.973  1.00  0.00     0.062 A 
ATOM     17  C   UNL     1      44.755 -32.246  20.524  1.00  0.00     0.158 A 
BRANCH  15  18
ATOM     18  O   UNL     1      42.495 -33.125  20.482  1.00  0.00    -0.504 OA
ATOM     19  H   UNL     1      41.653 -32.747  20.899  1.00  0.00     0.293 HD
ENDBRANCH  15  18
BRANCH  17  20
ATOM     20  O   UNL     1      45.065 -33.007  21.650  1.00  0.00    -0.504 OA
ATOM     21  H   UNL     1      45.153 -34.016  21.609  1.00  0.00     0.293 HD
ENDBRANCH  17  20
ENDBRANCH   1  12
BRANCH   2  22
ATOM     22  O   UNL     1      47.847 -31.599  17.485  1.00  0.00    -0.502 OA
ATOM     23  H   UNL     1      47.956 -32.043  16.581  1.00  0.00     0.293 HD
ENDBRANCH   2  22
BRANCH   6  24
ATOM     24  O   UNL     1      50.405 -27.286  16.102  1.00  0.00    -0.507 OA
ATOM     25  H   UNL     1      50.636 -28.252  15.900  1.00  0.00     0.293 HD
ENDBRANCH   6  24
BRANCH   8  26
ATOM     26  O   UNL     1      47.386 -23.835  17.604  1.00  0.00    -0.508 OA
ATOM     27  H   UNL     1      47.824 -23.257  18.312  1.00  0.00     0.293 HD
ENDBRANCH   8  26
TORSDOF 6
ENDMDL
