MODEL 1
REMARK VINA RESULT:    -4.036      0.000      0.000
REMARK INTER + INTRA:          -5.717
REMARK INTER:                  -5.452
REMARK INTRA:                  -0.265
REMARK UNBOUND:                -0.265
REMARK SMILES CCCCCCC=CC(=O)[O-]
REMARK SMILES IDX 5 1 6 2 7 3 8 4 9 5 10 6 11 7 4 8 3 9 2 10 1 11
REMARK H PARENT
REMARK Flexibility Score: inf
ROOT
ATOM      1  C   UNL     1     -46.358  27.312  -3.283  1.00  0.00     0.004 C 
ENDROOT
BRANCH   1   2
ATOM      2  C   UNL     1     -46.159  25.966  -2.563  1.00  0.00     0.027 C 
BRANCH   2   3
ATOM      3  C   UNL     1     -45.101  26.031  -1.497  1.00  0.00    -0.025 C 
ATOM      4  C   UNL     1     -44.726  27.193  -0.954  1.00  0.00     0.020 C 
BRANCH   4   5
ATOM      5  C   UNL     1     -43.688  27.279   0.085  1.00  0.00     0.064 C 
ATOM      6  O   UNL     1     -42.599  27.877  -0.129  1.00  0.00    -0.545 OA
ATOM      7  O   UNL     1     -43.909  26.687   1.321  1.00  0.00    -0.545 OA
ENDBRANCH   4   5
ENDBRANCH   2   3
ENDBRANCH   1   2
BRANCH   1   8
ATOM      8  C   UNL     1     -46.398  27.214  -4.822  1.00  0.00     0.000 C 
BRANCH   8   9
ATOM      9  C   UNL     1     -45.943  28.483  -5.566  1.00  0.00    -0.000 C 
BRANCH   9  10
ATOM     10  C   UNL     1     -45.495  28.202  -7.007  1.00  0.00    -0.003 C 
ATOM     11  C   UNL     1     -45.455  26.703  -7.289  1.00  0.00     0.004 C 
ENDBRANCH   9  10
ENDBRANCH   8   9
ENDBRANCH   1   8
TORSDOF 6
ENDMDL
MODEL 2
REMARK VINA RESULT:    -3.815      3.181      4.629
REMARK INTER + INTRA:          -5.418
REMARK INTER:                  -5.120
REMARK INTRA:                  -0.298
REMARK UNBOUND:                -0.265
REMARK SMILES CCCCCCC=CC(=O)[O-]
REMARK SMILES IDX 5 1 6 2 7 3 8 4 9 5 10 6 11 7 4 8 3 9 2 10 1 11
REMARK H PARENT
REMARK Flexibility Score: inf
ROOT
ATOM      1  C   UNL     1     -43.307  28.092  -0.322  1.00  0.00     0.004 C 
ENDROOT
BRANCH   1   2
ATOM      2  C   UNL     1     -42.515  27.804   0.966  1.00  0.00     0.027 C 
BRANCH   2   3
ATOM      3  C   UNL     1     -43.357  27.155   2.030  1.00  0.00    -0.025 C 
ATOM      4  C   UNL     1     -43.922  27.871   3.007  1.00  0.00     0.020 C 
BRANCH   4   5
ATOM      5  C   UNL     1     -44.744  27.256   4.061  1.00  0.00     0.064 C 
ATOM      6  O   UNL     1     -45.996  27.175   3.947  1.00  0.00    -0.545 OA
ATOM      7  O   UNL     1     -44.128  26.759   5.202  1.00  0.00    -0.545 OA
ENDBRANCH   4   5
ENDBRANCH   2   3
ENDBRANCH   1   2
BRANCH   1   8
ATOM      8  C   UNL     1     -44.434  27.082  -0.619  1.00  0.00     0.000 C 
BRANCH   8   9
ATOM      9  C   UNL     1     -45.551  27.607  -1.539  1.00  0.00    -0.000 C 
BRANCH   9  10
ATOM     10  C   UNL     1     -46.110  26.527  -2.476  1.00  0.00    -0.003 C 
ATOM     11  C   UNL     1     -45.822  25.129  -1.937  1.00  0.00     0.004 C 
ENDBRANCH   9  10
ENDBRANCH   8   9
ENDBRANCH   1   8
TORSDOF 6
ENDMDL
MODEL 3
REMARK VINA RESULT:    -3.781      3.589      6.061
REMARK INTER + INTRA:          -5.372
REMARK INTER:                  -5.072
REMARK INTRA:                  -0.300
REMARK UNBOUND:                -0.265
REMARK SMILES CCCCCCC=CC(=O)[O-]
REMARK SMILES IDX 5 1 6 2 7 3 8 4 9 5 10 6 11 7 4 8 3 9 2 10 1 11
REMARK H PARENT
REMARK Flexibility Score: inf
ROOT
ATOM      1  C   UNL     1     -45.827  25.963  -2.619  1.00  0.00     0.004 C 
ENDROOT
BRANCH   1   2
ATOM      2  C   UNL     1     -46.625  27.176  -3.130  1.00  0.00     0.027 C 
BRANCH   2   3
ATOM      3  C   UNL     1     -46.405  27.438  -4.594  1.00  0.00    -0.025 C 
ATOM      4  C   UNL     1     -46.025  26.465  -5.429  1.00  0.00     0.020 C 
BRANCH   4   5
ATOM      5  C   UNL     1     -45.799  26.702  -6.863  1.00  0.00     0.064 C 
ATOM      6  O   UNL     1     -46.081  25.823  -7.721  1.00  0.00    -0.545 OA
ATOM      7  O   UNL     1     -45.262  27.913  -7.278  1.00  0.00    -0.545 OA
ENDBRANCH   4   5
ENDBRANCH   2   3
ENDBRANCH   1   2
BRANCH   1   8
ATOM      8  C   UNL     1     -45.047  26.215  -1.312  1.00  0.00     0.000 C 
BRANCH   8   9
ATOM      9  C   UNL     1     -44.847  27.698  -0.951  1.00  0.00    -0.000 C 
BRANCH   9  10
ATOM     10  C   UNL     1     -44.091  27.894   0.370  1.00  0.00    -0.003 C 
ATOM     11  C   UNL     1     -42.582  27.921   0.142  1.00  0.00     0.004 C 
ENDBRANCH   9  10
ENDBRANCH   8   9
ENDBRANCH   1   8
TORSDOF 6
ENDMDL
MODEL 4
REMARK VINA RESULT:    -3.742      1.442      2.106
REMARK INTER + INTRA:          -5.320
REMARK INTER:                  -5.009
REMARK INTRA:                  -0.311
REMARK UNBOUND:                -0.265
REMARK SMILES CCCCCCC=CC(=O)[O-]
REMARK SMILES IDX 5 1 6 2 7 3 8 4 9 5 10 6 11 7 4 8 3 9 2 10 1 11
REMARK H PARENT
REMARK Flexibility Score: inf
ROOT
ATOM      1  C   UNL     1     -45.859  25.794  -1.864  1.00  0.00     0.004 C 
ENDROOT
BRANCH   1   2
ATOM      2  C   UNL     1     -44.751  26.768  -1.427  1.00  0.00     0.027 C 
BRANCH   2   3
ATOM      3  C   UNL     1     -44.809  27.089   0.041  1.00  0.00    -0.025 C 
ATOM      4  C   UNL     1     -43.707  27.094   0.799  1.00  0.00     0.020 C 
BRANCH   4   5
ATOM      5  C   UNL     1     -43.743  27.399   2.238  1.00  0.00     0.064 C 
ATOM      6  O   UNL     1     -43.180  28.428   2.700  1.00  0.00    -0.545 OA
ATOM      7  O   UNL     1     -44.403  26.535   3.102  1.00  0.00    -0.545 OA
ENDBRANCH   4   5
ENDBRANCH   2   3
ENDBRANCH   1   2
BRANCH   1   8
ATOM      8  C   UNL     1     -46.579  26.190  -3.171  1.00  0.00     0.000 C 
BRANCH   8   9
ATOM      9  C   UNL     1     -46.458  27.676  -3.554  1.00  0.00    -0.000 C 
BRANCH   9  10
ATOM     10  C   UNL     1     -46.277  27.890  -5.064  1.00  0.00    -0.003 C 
ATOM     11  C   UNL     1     -46.051  26.564  -5.784  1.00  0.00     0.004 C 
ENDBRANCH   9  10
ENDBRANCH   8   9
ENDBRANCH   1   8
TORSDOF 6
ENDMDL
MODEL 5
REMARK VINA RESULT:    -3.658      4.957      7.262
REMARK INTER + INTRA:          -5.206
REMARK INTER:                  -4.817
REMARK INTRA:                  -0.389
REMARK UNBOUND:                -0.265
REMARK SMILES CCCCCCC=CC(=O)[O-]
REMARK SMILES IDX 5 1 6 2 7 3 8 4 9 5 10 6 11 7 4 8 3 9 2 10 1 11
REMARK H PARENT
REMARK Flexibility Score: inf
ROOT
ATOM      1  C   UNL     1     -44.310  28.218   3.023  1.00  0.00     0.004 C 
ENDROOT
BRANCH   1   2
ATOM      2  C   UNL     1     -43.277  29.258   3.490  1.00  0.00     0.027 C 
BRANCH   2   3
ATOM      3  C   UNL     1     -43.033  29.206   4.973  1.00  0.00    -0.025 C 
ATOM      4  C   UNL     1     -43.283  28.102   5.684  1.00  0.00     0.020 C 
BRANCH   4   5
ATOM      5  C   UNL     1     -43.058  28.033   7.137  1.00  0.00     0.064 C 
ATOM      6  O   UNL     1     -43.879  27.453   7.896  1.00  0.00    -0.545 OA
ATOM      7  O   UNL     1     -41.923  28.620   7.680  1.00  0.00    -0.545 OA
ENDBRANCH   4   5
ENDBRANCH   2   3
ENDBRANCH   1   2
BRANCH   1   8
ATOM      8  C   UNL     1     -43.732  27.096   2.135  1.00  0.00     0.000 C 
BRANCH   8   9
ATOM      9  C   UNL     1     -42.594  27.534   1.195  1.00  0.00    -0.000 C 
BRANCH   9  10
ATOM     10  C   UNL     1     -43.089  27.900  -0.211  1.00  0.00    -0.003 C 
ATOM     11  C   UNL     1     -44.254  27.009  -0.633  1.00  0.00     0.004 C 
ENDBRANCH   9  10
ENDBRANCH   8   9
ENDBRANCH   1   8
TORSDOF 6
ENDMDL
MODEL 6
REMARK VINA RESULT:    -3.640      3.186      5.185
REMARK INTER + INTRA:          -5.182
REMARK INTER:                  -4.849
REMARK INTRA:                  -0.333
REMARK UNBOUND:                -0.265
REMARK SMILES CCCCCCC=CC(=O)[O-]
REMARK SMILES IDX 5 1 6 2 7 3 8 4 9 5 10 6 11 7 4 8 3 9 2 10 1 11
REMARK H PARENT
REMARK Flexibility Score: inf
ROOT
ATOM      1  C   UNL     1     -42.849  27.531   0.826  1.00  0.00     0.004 C 
ENDROOT
BRANCH   1   2
ATOM      2  C   UNL     1     -43.026  28.812   1.661  1.00  0.00     0.027 C 
BRANCH   2   3
ATOM      3  C   UNL     1     -43.823  28.579   2.915  1.00  0.00    -0.025 C 
ATOM      4  C   UNL     1     -44.196  27.351   3.288  1.00  0.00     0.020 C 
BRANCH   4   5
ATOM      5  C   UNL     1     -44.982  27.103   4.507  1.00  0.00     0.064 C 
ATOM      6  O   UNL     1     -46.239  27.200   4.504  1.00  0.00    -0.545 OA
ATOM      7  O   UNL     1     -44.327  26.760   5.683  1.00  0.00    -0.545 OA
ENDBRANCH   4   5
ENDBRANCH   2   3
ENDBRANCH   1   2
BRANCH   1   8
ATOM      8  C   UNL     1     -43.540  27.568  -0.554  1.00  0.00     0.000 C 
BRANCH   8   9
ATOM      9  C   UNL     1     -44.989  27.051  -0.569  1.00  0.00    -0.000 C 
BRANCH   9  10
ATOM     10  C   UNL     1     -45.226  25.968  -1.631  1.00  0.00    -0.003 C 
ATOM     11  C   UNL     1     -46.089  26.498  -2.773  1.00  0.00     0.004 C 
ENDBRANCH   9  10
ENDBRANCH   8   9
ENDBRANCH   1   8
TORSDOF 6
ENDMDL
MODEL 7
REMARK VINA RESULT:    -3.548      4.350      6.601
REMARK INTER + INTRA:          -5.058
REMARK INTER:                  -4.778
REMARK INTRA:                  -0.279
REMARK UNBOUND:                -0.265
REMARK SMILES CCCCCCC=CC(=O)[O-]
REMARK SMILES IDX 5 1 6 2 7 3 8 4 9 5 10 6 11 7 4 8 3 9 2 10 1 11
REMARK H PARENT
REMARK Flexibility Score: inf
ROOT
ATOM      1  C   UNL     1     -43.758  27.372   2.274  1.00  0.00     0.004 C 
ENDROOT
BRANCH   1   2
ATOM      2  C   UNL     1     -44.031  28.631   3.116  1.00  0.00     0.027 C 
BRANCH   2   3
ATOM      3  C   UNL     1     -43.291  28.623   4.425  1.00  0.00    -0.025 C 
ATOM      4  C   UNL     1     -43.829  28.093   5.529  1.00  0.00     0.020 C 
BRANCH   4   5
ATOM      5  C   UNL     1     -43.125  28.081   6.821  1.00  0.00     0.064 C 
ATOM      6  O   UNL     1     -41.876  28.236   6.883  1.00  0.00    -0.545 OA
ATOM      7  O   UNL     1     -43.849  27.890   7.990  1.00  0.00    -0.545 OA
ENDBRANCH   4   5
ENDBRANCH   2   3
ENDBRANCH   1   2
BRANCH   1   8
ATOM      8  C   UNL     1     -42.677  27.552   1.188  1.00  0.00     0.000 C 
BRANCH   8   9
ATOM      9  C   UNL     1     -43.214  27.891  -0.214  1.00  0.00    -0.000 C 
BRANCH   9  10
ATOM     10  C   UNL     1     -44.698  27.536  -0.387  1.00  0.00    -0.003 C 
ATOM     11  C   UNL     1     -44.876  26.374  -1.360  1.00  0.00     0.004 C 
ENDBRANCH   9  10
ENDBRANCH   8   9
ENDBRANCH   1   8
TORSDOF 6
ENDMDL
MODEL 8
REMARK VINA RESULT:    -3.496      3.675      6.647
REMARK INTER + INTRA:          -4.987
REMARK INTER:                  -4.439
REMARK INTRA:                  -0.548
REMARK UNBOUND:                -0.265
REMARK SMILES CCCCCCC=CC(=O)[O-]
REMARK SMILES IDX 5 1 6 2 7 3 8 4 9 5 10 6 11 7 4 8 3 9 2 10 1 11
REMARK H PARENT
REMARK Flexibility Score: inf
ROOT
ATOM      1  C   UNL     1     -42.413  29.367   0.428  1.00  0.00     0.004 C 
ENDROOT
BRANCH   1   2
ATOM      2  C   UNL     1     -42.732  27.881   0.187  1.00  0.00     0.027 C 
BRANCH   2   3
ATOM      3  C   UNL     1     -44.169  27.651  -0.192  1.00  0.00    -0.025 C 
ATOM      4  C   UNL     1     -44.528  26.634  -0.983  1.00  0.00     0.020 C 
BRANCH   4   5
ATOM      5  C   UNL     1     -45.927  26.395  -1.371  1.00  0.00     0.064 C 
ATOM      6  O   UNL     1     -46.424  25.237  -1.336  1.00  0.00    -0.545 OA
ATOM      7  O   UNL     1     -46.711  27.463  -1.787  1.00  0.00    -0.545 OA
ENDBRANCH   4   5
ENDBRANCH   2   3
ENDBRANCH   1   2
BRANCH   1   8
ATOM      8  C   UNL     1     -43.048  29.959   1.704  1.00  0.00     0.000 C 
BRANCH   8   9
ATOM      9  C   UNL     1     -42.918  29.080   2.961  1.00  0.00    -0.000 C 
BRANCH   9  10
ATOM     10  C   UNL     1     -44.276  28.628   3.517  1.00  0.00    -0.003 C 
ATOM     11  C   UNL     1     -44.376  27.106   3.554  1.00  0.00     0.004 C 
ENDBRANCH   9  10
ENDBRANCH   8   9
ENDBRANCH   1   8
TORSDOF 6
ENDMDL
MODEL 9
REMARK VINA RESULT:    -3.423      3.567      7.454
REMARK INTER + INTRA:          -4.889
REMARK INTER:                  -4.672
REMARK INTRA:                  -0.217
REMARK UNBOUND:                -0.265
REMARK SMILES CCCCCCC=CC(=O)[O-]
REMARK SMILES IDX 5 1 6 2 7 3 8 4 9 5 10 6 11 7 4 8 3 9 2 10 1 11
REMARK H PARENT
REMARK Flexibility Score: inf
ROOT
ATOM      1  C   UNL     1     -43.278  27.150   1.708  1.00  0.00     0.004 C 
ENDROOT
BRANCH   1   2
ATOM      2  C   UNL     1     -43.415  27.880   0.360  1.00  0.00     0.027 C 
BRANCH   2   3
ATOM      3  C   UNL     1     -44.072  27.032  -0.693  1.00  0.00    -0.025 C 
ATOM      4  C   UNL     1     -45.403  26.939  -0.785  1.00  0.00     0.020 C 
BRANCH   4   5
ATOM      5  C   UNL     1     -46.066  26.110  -1.804  1.00  0.00     0.064 C 
ATOM      6  O   UNL     1     -45.983  26.393  -3.029  1.00  0.00    -0.545 OA
ATOM      7  O   UNL     1     -46.799  24.999  -1.408  1.00  0.00    -0.545 OA
ENDBRANCH   4   5
ENDBRANCH   2   3
ENDBRANCH   1   2
BRANCH   1   8
ATOM      8  C   UNL     1     -43.782  27.955   2.925  1.00  0.00     0.000 C 
BRANCH   8   9
ATOM      9  C   UNL     1     -44.608  27.146   3.941  1.00  0.00    -0.000 C 
BRANCH   9  10
ATOM     10  C   UNL     1     -44.553  27.734   5.358  1.00  0.00    -0.003 C 
ATOM     11  C   UNL     1     -43.658  26.897   6.267  1.00  0.00     0.004 C 
ENDBRANCH   9  10
ENDBRANCH   8   9
ENDBRANCH   1   8
TORSDOF 6
ENDMDL
