MODEL 1
REMARK VINA RESULT:     6.273      0.000      0.000
REMARK INTER + INTRA:           6.428
REMARK INTER:                   6.640
REMARK INTRA:                  -0.211
REMARK UNBOUND:                -0.211
REMARK SMILES CC1=CC[C@H]2[C@@H]3[C@@H](C(C)C)CC[C@@]2(C)[C@H]13
REMARK SMILES IDX 1 1 2 2 3 3 4 4 5 5 6 6 15 7 13 8 12 9 11 10 7 11 14 12 8 13
REMARK SMILES IDX 9 14 10 15
REMARK H PARENT
REMARK Flexibility Score: inf
ROOT
ATOM      1  C   UNL     1     138.545 136.973 160.815  1.00  0.00     0.039 C 
ATOM      2  C   UNL     1     137.213 137.042 161.497  1.00  0.00    -0.073 C 
ATOM      3  C   UNL     1     136.354 135.989 161.476  1.00  0.00    -0.027 C 
ATOM      4  C   UNL     1     135.000 136.124 162.178  1.00  0.00     0.031 C 
ATOM      5  C   UNL     1     134.875 137.528 162.856  1.00  0.00     0.003 C 
ATOM      6  C   UNL     1     136.192 137.794 163.622  1.00  0.00     0.004 C 
ATOM      7  C   UNL     1     136.767 138.288 162.268  1.00  0.00     0.024 C 
ATOM      8  C   UNL     1     135.311 138.663 161.898  1.00  0.00    -0.022 C 
ATOM      9  C   UNL     1     134.920 140.037 162.526  1.00  0.00     0.008 C 
ATOM     10  C   UNL     1     135.617 140.285 163.891  1.00  0.00     0.005 C 
ATOM     11  C   UNL     1     135.976 138.962 164.633  1.00  0.00    -0.005 C 
ATOM     12  C   UNL     1     134.876 138.590 160.415  1.00  0.00     0.012 C 
ENDROOT
BRANCH  11  13
ATOM     13  C   UNL     1     137.150 139.151 165.641  1.00  0.00    -0.014 C 
ATOM     14  C   UNL     1     137.104 140.539 166.302  1.00  0.00     0.007 C 
ATOM     15  C   UNL     1     137.224 138.060 166.723  1.00  0.00     0.007 C 
ENDBRANCH  11  13
TORSDOF 1
ENDMDL
