MODEL 1
REMARK VINA RESULT:    -2.995      0.000      0.000
REMARK INTER + INTRA:          -3.561
REMARK INTER:                  -3.520
REMARK INTRA:                  -0.042
REMARK UNBOUND:                -0.042
REMARK SMILES CCCCC(=O)[O-]
REMARK SMILES IDX 4 1 5 2 6 3 7 4 3 5 2 6 1 7
REMARK H PARENT
REMARK Flexibility Score: inf
ROOT
ATOM      1  C   UNL     1      14.966  20.182  -0.018  1.00  0.00     0.053 C 
ENDROOT
BRANCH   1   2
ATOM      2  C   UNL     1      14.078  19.047   0.387  1.00  0.00     0.041 C 
ATOM      3  O   UNL     1      12.898  18.980  -0.047  1.00  0.00    -0.550 OA
ATOM      4  O   UNL     1      14.538  18.089   1.281  1.00  0.00    -0.550 OA
ENDBRANCH   1   2
BRANCH   1   5
ATOM      5  C   UNL     1      14.334  20.974  -1.166  1.00  0.00     0.006 C 
BRANCH   5   6
ATOM      6  C   UNL     1      15.323  21.996  -1.738  1.00  0.00    -0.003 C 
ATOM      7  C   UNL     1      16.718  21.799  -1.154  1.00  0.00     0.004 C 
ENDBRANCH   5   6
ENDBRANCH   1   5
TORSDOF 3
ENDMDL
MODEL 2
REMARK VINA RESULT:    -2.852     10.460     12.049
REMARK INTER + INTRA:          -3.394
REMARK INTER:                  -3.333
REMARK INTRA:                  -0.060
REMARK UNBOUND:                -0.042
REMARK SMILES CCCCC(=O)[O-]
REMARK SMILES IDX 4 1 5 2 6 3 7 4 3 5 2 6 1 7
REMARK H PARENT
REMARK Flexibility Score: inf
ROOT
ATOM      1  C   UNL     1      14.837  14.178   8.552  1.00  0.00     0.053 C 
ENDROOT
BRANCH   1   2
ATOM      2  C   UNL     1      14.874  13.292   7.345  1.00  0.00     0.041 C 
ATOM      3  O   UNL     1      15.973  13.019   6.795  1.00  0.00    -0.550 OA
ATOM      4  O   UNL     1      13.691  12.810   6.801  1.00  0.00    -0.550 OA
ENDBRANCH   1   2
BRANCH   1   5
ATOM      5  C   UNL     1      15.246  13.397   9.804  1.00  0.00     0.006 C 
BRANCH   5   6
ATOM      6  C   UNL     1      14.109  12.485  10.278  1.00  0.00    -0.003 C 
ATOM      7  C   UNL     1      13.847  12.661  11.770  1.00  0.00     0.004 C 
ENDBRANCH   5   6
ENDBRANCH   1   5
TORSDOF 3
ENDMDL
MODEL 3
REMARK VINA RESULT:    -2.829     10.730     12.520
REMARK INTER + INTRA:          -3.367
REMARK INTER:                  -3.350
REMARK INTRA:                  -0.017
REMARK UNBOUND:                -0.042
REMARK SMILES CCCCC(=O)[O-]
REMARK SMILES IDX 4 1 5 2 6 3 7 4 3 5 2 6 1 7
REMARK H PARENT
REMARK Flexibility Score: inf
ROOT
ATOM      1  C   UNL     1      14.605  13.477   9.042  1.00  0.00     0.053 C 
ENDROOT
BRANCH   1   2
ATOM      2  C   UNL     1      14.486  13.086   7.602  1.00  0.00     0.041 C 
ATOM      3  O   UNL     1      13.375  12.722   7.135  1.00  0.00    -0.550 OA
ATOM      4  O   UNL     1      15.612  13.076   6.789  1.00  0.00    -0.550 OA
ENDBRANCH   1   2
BRANCH   1   5
ATOM      5  C   UNL     1      14.089  12.355   9.947  1.00  0.00     0.006 C 
BRANCH   5   6
ATOM      6  C   UNL     1      14.699  12.457  11.350  1.00  0.00    -0.003 C 
ATOM      7  C   UNL     1      13.634  12.787  12.391  1.00  0.00     0.004 C 
ENDBRANCH   5   6
ENDBRANCH   1   5
TORSDOF 3
ENDMDL
MODEL 4
REMARK VINA RESULT:    -2.805     11.703     12.798
REMARK INTER + INTRA:          -3.338
REMARK INTER:                  -3.306
REMARK INTRA:                  -0.032
REMARK UNBOUND:                -0.042
REMARK SMILES CCCCC(=O)[O-]
REMARK SMILES IDX 4 1 5 2 6 3 7 4 3 5 2 6 1 7
REMARK H PARENT
REMARK Flexibility Score: inf
ROOT
ATOM      1  C   UNL     1      14.018  12.368   9.730  1.00  0.00     0.053 C 
ENDROOT
BRANCH   1   2
ATOM      2  C   UNL     1      14.377  12.171  11.170  1.00  0.00     0.041 C 
ATOM      3  O   UNL     1      15.177  11.259  11.504  1.00  0.00    -0.550 OA
ATOM      4  O   UNL     1      13.788  12.963  12.147  1.00  0.00    -0.550 OA
ENDBRANCH   1   2
BRANCH   1   5
ATOM      5  C   UNL     1      14.860  13.489   9.115  1.00  0.00     0.006 C 
BRANCH   5   6
ATOM      6  C   UNL     1      14.753  13.482   7.586  1.00  0.00    -0.003 C 
ATOM      7  C   UNL     1      13.509  12.729   7.124  1.00  0.00     0.004 C 
ENDBRANCH   5   6
ENDBRANCH   1   5
TORSDOF 3
ENDMDL
MODEL 5
REMARK VINA RESULT:    -2.725     24.962     25.643
REMARK INTER + INTRA:          -3.245
REMARK INTER:                  -3.215
REMARK INTRA:                  -0.030
REMARK UNBOUND:                -0.042
REMARK SMILES CCCCC(=O)[O-]
REMARK SMILES IDX 4 1 5 2 6 3 7 4 3 5 2 6 1 7
REMARK H PARENT
REMARK Flexibility Score: inf
ROOT
ATOM      1  C   UNL     1      -1.483   5.228  11.827  1.00  0.00     0.053 C 
ENDROOT
BRANCH   1   2
ATOM      2  C   UNL     1      -1.578   3.902  11.137  1.00  0.00     0.041 C 
ATOM      3  O   UNL     1      -2.317   3.766  10.126  1.00  0.00    -0.550 OA
ATOM      4  O   UNL     1      -0.891   2.806  11.641  1.00  0.00    -0.550 OA
ENDBRANCH   1   2
BRANCH   1   5
ATOM      5  C   UNL     1      -2.748   5.499  12.646  1.00  0.00     0.006 C 
BRANCH   5   6
ATOM      6  C   UNL     1      -2.956   7.003  12.854  1.00  0.00    -0.003 C 
ATOM      7  C   UNL     1      -1.631   7.710  13.125  1.00  0.00     0.004 C 
ENDBRANCH   5   6
ENDBRANCH   1   5
TORSDOF 3
ENDMDL
MODEL 6
REMARK VINA RESULT:    -2.716     24.894     26.110
REMARK INTER + INTRA:          -3.234
REMARK INTER:                  -3.126
REMARK INTRA:                  -0.107
REMARK UNBOUND:                -0.042
REMARK SMILES CCCCC(=O)[O-]
REMARK SMILES IDX 4 1 5 2 6 3 7 4 3 5 2 6 1 7
REMARK H PARENT
REMARK Flexibility Score: inf
ROOT
ATOM      1  C   UNL     1      -0.981   5.140  11.709  1.00  0.00     0.053 C 
ENDROOT
BRANCH   1   2
ATOM      2  C   UNL     1      -2.002   5.909  12.489  1.00  0.00     0.041 C 
ATOM      3  O   UNL     1      -3.063   5.347  12.869  1.00  0.00    -0.550 OA
ATOM      4  O   UNL     1      -1.804   7.258  12.753  1.00  0.00    -0.550 OA
ENDBRANCH   1   2
BRANCH   1   5
ATOM      5  C   UNL     1      -1.621   3.916  11.049  1.00  0.00     0.006 C 
BRANCH   5   6
ATOM      6  C   UNL     1      -1.048   2.618  11.628  1.00  0.00    -0.003 C 
ATOM      7  C   UNL     1      -2.093   1.875  12.455  1.00  0.00     0.004 C 
ENDBRANCH   5   6
ENDBRANCH   1   5
TORSDOF 3
ENDMDL
MODEL 7
REMARK VINA RESULT:    -2.625      9.260     10.182
REMARK INTER + INTRA:          -3.126
REMARK INTER:                  -3.009
REMARK INTRA:                  -0.117
REMARK UNBOUND:                -0.042
REMARK SMILES CCCCC(=O)[O-]
REMARK SMILES IDX 4 1 5 2 6 3 7 4 3 5 2 6 1 7
REMARK H PARENT
REMARK Flexibility Score: inf
ROOT
ATOM      1  C   UNL     1      15.738  13.460   7.163  1.00  0.00     0.053 C 
ENDROOT
BRANCH   1   2
ATOM      2  C   UNL     1      14.431  13.139   7.820  1.00  0.00     0.041 C 
ATOM      3  O   UNL     1      14.332  13.159   9.075  1.00  0.00    -0.550 OA
ATOM      4  O   UNL     1      13.338  12.769   7.048  1.00  0.00    -0.550 OA
ENDBRANCH   1   2
BRANCH   1   5
ATOM      5  C   UNL     1      16.349  14.724   7.774  1.00  0.00     0.006 C 
BRANCH   5   6
ATOM      6  C   UNL     1      15.669  15.983   7.225  1.00  0.00    -0.003 C 
ATOM      7  C   UNL     1      15.257  16.924   8.353  1.00  0.00     0.004 C 
ENDBRANCH   5   6
ENDBRANCH   1   5
TORSDOF 3
ENDMDL
MODEL 8
REMARK VINA RESULT:    -2.372     11.887     13.388
REMARK INTER + INTRA:          -2.829
REMARK INTER:                  -2.756
REMARK INTRA:                  -0.073
REMARK UNBOUND:                -0.042
REMARK SMILES CCCCC(=O)[O-]
REMARK SMILES IDX 4 1 5 2 6 3 7 4 3 5 2 6 1 7
REMARK H PARENT
REMARK Flexibility Score: inf
ROOT
ATOM      1  C   UNL     1      14.764  11.855  11.056  1.00  0.00     0.053 C 
ENDROOT
BRANCH   1   2
ATOM      2  C   UNL     1      14.557  12.913  12.095  1.00  0.00     0.041 C 
ATOM      3  O   UNL     1      13.429  13.054  12.637  1.00  0.00    -0.550 OA
ATOM      4  O   UNL     1      15.594  13.773  12.428  1.00  0.00    -0.550 OA
ENDBRANCH   1   2
BRANCH   1   5
ATOM      5  C   UNL     1      13.921  12.152   9.813  1.00  0.00     0.006 C 
BRANCH   5   6
ATOM      6  C   UNL     1      14.582  13.228   8.944  1.00  0.00    -0.003 C 
ATOM      7  C   UNL     1      14.235  13.037   7.471  1.00  0.00     0.004 C 
ENDBRANCH   5   6
ENDBRANCH   1   5
TORSDOF 3
ENDMDL
MODEL 9
REMARK VINA RESULT:    -2.314      9.628     10.569
REMARK INTER + INTRA:          -2.762
REMARK INTER:                  -2.704
REMARK INTRA:                  -0.057
REMARK UNBOUND:                -0.042
REMARK SMILES CCCCC(=O)[O-]
REMARK SMILES IDX 4 1 5 2 6 3 7 4 3 5 2 6 1 7
REMARK H PARENT
REMARK Flexibility Score: inf
ROOT
ATOM      1  C   UNL     1      16.574  14.461   8.491  1.00  0.00     0.053 C 
ENDROOT
BRANCH   1   2
ATOM      2  C   UNL     1      16.478  15.913   8.140  1.00  0.00     0.041 C 
ATOM      3  O   UNL     1      15.926  16.720   8.934  1.00  0.00    -0.550 OA
ATOM      4  O   UNL     1      16.952  16.366   6.916  1.00  0.00    -0.550 OA
ENDBRANCH   1   2
BRANCH   1   5
ATOM      5  C   UNL     1      15.186  13.814   8.487  1.00  0.00     0.006 C 
BRANCH   5   6
ATOM      6  C   UNL     1      14.861  13.221   7.112  1.00  0.00    -0.003 C 
ATOM      7  C   UNL     1      13.450  12.642   7.081  1.00  0.00     0.004 C 
ENDBRANCH   5   6
ENDBRANCH   1   5
TORSDOF 3
ENDMDL
