MODEL 1
REMARK VINA RESULT:    -3.101      0.000      0.000
REMARK INTER + INTRA:          -4.469
REMARK INTER:                  -4.008
REMARK INTRA:                  -0.461
REMARK UNBOUND:                -0.461
REMARK SMILES CCCCCCC(=O)[O-]
REMARK SMILES IDX 5 1 6 2 7 3 8 4 9 5 4 6 3 7 2 8 1 9
REMARK H PARENT
REMARK Flexibility Score: inf
ROOT
ATOM      1  C   UNL     1     182.809 181.351 202.017  1.00  0.00     0.006 C 
ENDROOT
BRANCH   1   2
ATOM      2  C   UNL     1     182.127 180.324 201.103  1.00  0.00     0.053 C 
BRANCH   2   3
ATOM      3  C   UNL     1     181.211 181.011 200.140  1.00  0.00     0.041 C 
ATOM      4  O   UNL     1     180.731 182.142 200.418  1.00  0.00    -0.550 OA
ATOM      5  O   UNL     1     180.926 180.425 198.913  1.00  0.00    -0.550 OA
ENDBRANCH   2   3
ENDBRANCH   1   2
BRANCH   1   6
ATOM      6  C   UNL     1     184.119 181.896 201.425  1.00  0.00     0.000 C 
BRANCH   6   7
ATOM      7  C   UNL     1     184.034 183.393 201.083  1.00  0.00    -0.000 C 
BRANCH   7   8
ATOM      8  C   UNL     1     183.835 183.642 199.580  1.00  0.00    -0.003 C 
ATOM      9  C   UNL     1     184.284 182.462 198.718  1.00  0.00     0.004 C 
ENDBRANCH   7   8
ENDBRANCH   6   7
ENDBRANCH   1   6
TORSDOF 5
ENDMDL
MODEL 2
REMARK VINA RESULT:    -3.069      2.519      3.925
REMARK INTER + INTRA:          -4.426
REMARK INTER:                  -4.018
REMARK INTRA:                  -0.409
REMARK UNBOUND:                -0.461
REMARK SMILES CCCCCCC(=O)[O-]
REMARK SMILES IDX 5 1 6 2 7 3 8 4 9 5 4 6 3 7 2 8 1 9
REMARK H PARENT
REMARK Flexibility Score: inf
ROOT
ATOM      1  C   UNL     1     185.037 183.714 200.989  1.00  0.00     0.006 C 
ENDROOT
BRANCH   1   2
ATOM      2  C   UNL     1     184.433 184.509 199.823  1.00  0.00     0.053 C 
BRANCH   2   3
ATOM      3  C   UNL     1     184.606 183.762 198.538  1.00  0.00     0.041 C 
ATOM      4  O   UNL     1     184.346 182.531 198.481  1.00  0.00    -0.550 OA
ATOM      5  O   UNL     1     185.008 184.435 197.391  1.00  0.00    -0.550 OA
ENDBRANCH   2   3
ENDBRANCH   1   2
BRANCH   1   6
ATOM      6  C   UNL     1     183.978 183.242 201.998  1.00  0.00     0.000 C 
BRANCH   6   7
ATOM      7  C   UNL     1     183.924 181.709 202.123  1.00  0.00    -0.000 C 
BRANCH   7   8
ATOM      8  C   UNL     1     182.754 181.096 201.338  1.00  0.00    -0.003 C 
ATOM      9  C   UNL     1     181.677 182.120 200.980  1.00  0.00     0.004 C 
ENDBRANCH   7   8
ENDBRANCH   6   7
ENDBRANCH   1   6
TORSDOF 5
ENDMDL
MODEL 3
REMARK VINA RESULT:    -3.045     16.877     17.791
REMARK INTER + INTRA:          -4.396
REMARK INTER:                  -4.289
REMARK INTRA:                  -0.107
REMARK UNBOUND:                -0.461
REMARK SMILES CCCCCCC(=O)[O-]
REMARK SMILES IDX 5 1 6 2 7 3 8 4 9 5 4 6 3 7 2 8 1 9
REMARK H PARENT
REMARK Flexibility Score: inf
ROOT
ATOM      1  C   UNL     1     183.821 196.875 191.720  1.00  0.00     0.006 C 
ENDROOT
BRANCH   1   2
ATOM      2  C   UNL     1     184.369 196.177 190.469  1.00  0.00     0.053 C 
BRANCH   2   3
ATOM      3  C   UNL     1     185.724 196.711 190.125  1.00  0.00     0.041 C 
ATOM      4  O   UNL     1     186.048 197.882 190.460  1.00  0.00    -0.550 OA
ATOM      5  O   UNL     1     186.648 195.900 189.479  1.00  0.00    -0.550 OA
ENDBRANCH   2   3
ENDBRANCH   1   2
BRANCH   1   6
ATOM      6  C   UNL     1     182.391 196.431 192.070  1.00  0.00     0.000 C 
BRANCH   6   7
ATOM      7  C   UNL     1     182.086 196.554 193.573  1.00  0.00    -0.000 C 
BRANCH   7   8
ATOM      8  C   UNL     1     180.787 197.328 193.847  1.00  0.00    -0.003 C 
ATOM      9  C   UNL     1     179.634 196.892 192.943  1.00  0.00     0.004 C 
ENDBRANCH   7   8
ENDBRANCH   6   7
ENDBRANCH   1   6
TORSDOF 5
ENDMDL
MODEL 4
REMARK VINA RESULT:    -3.034     16.586     17.524
REMARK INTER + INTRA:          -4.382
REMARK INTER:                  -4.189
REMARK INTRA:                  -0.193
REMARK UNBOUND:                -0.461
REMARK SMILES CCCCCCC(=O)[O-]
REMARK SMILES IDX 5 1 6 2 7 3 8 4 9 5 4 6 3 7 2 8 1 9
REMARK H PARENT
REMARK Flexibility Score: inf
ROOT
ATOM      1  C   UNL     1     185.885 194.175 190.289  1.00  0.00     0.006 C 
ENDROOT
BRANCH   1   2
ATOM      2  C   UNL     1     184.826 195.100 189.676  1.00  0.00     0.053 C 
BRANCH   2   3
ATOM      3  C   UNL     1     184.671 196.336 190.505  1.00  0.00     0.041 C 
ATOM      4  O   UNL     1     183.654 196.486 191.234  1.00  0.00    -0.550 OA
ATOM      5  O   UNL     1     185.671 197.299 190.511  1.00  0.00    -0.550 OA
ENDBRANCH   2   3
ENDBRANCH   1   2
BRANCH   1   6
ATOM      6  C   UNL     1     187.088 193.949 189.357  1.00  0.00     0.000 C 
BRANCH   6   7
ATOM      7  C   UNL     1     188.358 194.662 189.850  1.00  0.00    -0.000 C 
BRANCH   7   8
ATOM      8  C   UNL     1     189.621 194.187 189.115  1.00  0.00    -0.003 C 
ATOM      9  C   UNL     1     189.322 193.160 188.022  1.00  0.00     0.004 C 
ENDBRANCH   7   8
ENDBRANCH   6   7
ENDBRANCH   1   6
TORSDOF 5
ENDMDL
MODEL 5
REMARK VINA RESULT:    -3.014     17.106     18.248
REMARK INTER + INTRA:          -4.356
REMARK INTER:                  -4.058
REMARK INTRA:                  -0.298
REMARK UNBOUND:                -0.461
REMARK SMILES CCCCCCC(=O)[O-]
REMARK SMILES IDX 5 1 6 2 7 3 8 4 9 5 4 6 3 7 2 8 1 9
REMARK H PARENT
REMARK Flexibility Score: inf
ROOT
ATOM      1  C   UNL     1     187.541 194.223 190.123  1.00  0.00     0.006 C 
ENDROOT
BRANCH   1   2
ATOM      2  C   UNL     1     187.864 193.896 188.659  1.00  0.00     0.053 C 
BRANCH   2   3
ATOM      3  C   UNL     1     188.541 195.058 188.003  1.00  0.00     0.041 C 
ATOM      4  O   UNL     1     187.907 196.127 187.795  1.00  0.00    -0.550 OA
ATOM      5  O   UNL     1     189.886 194.979 187.665  1.00  0.00    -0.550 OA
ENDBRANCH   2   3
ENDBRANCH   1   2
BRANCH   1   6
ATOM      6  C   UNL     1     186.055 194.020 190.463  1.00  0.00     0.000 C 
BRANCH   6   7
ATOM      7  C   UNL     1     185.128 194.904 189.611  1.00  0.00    -0.000 C 
BRANCH   7   8
ATOM      8  C   UNL     1     184.668 196.165 190.359  1.00  0.00    -0.003 C 
ATOM      9  C   UNL     1     185.689 197.301 190.291  1.00  0.00     0.004 C 
ENDBRANCH   7   8
ENDBRANCH   6   7
ENDBRANCH   1   6
TORSDOF 5
ENDMDL
MODEL 6
REMARK VINA RESULT:    -3.007     13.570     14.708
REMARK INTER + INTRA:          -4.347
REMARK INTER:                  -4.010
REMARK INTRA:                  -0.337
REMARK UNBOUND:                -0.461
REMARK SMILES CCCCCCC(=O)[O-]
REMARK SMILES IDX 5 1 6 2 7 3 8 4 9 5 4 6 3 7 2 8 1 9
REMARK H PARENT
REMARK Flexibility Score: inf
ROOT
ATOM      1  C   UNL     1     192.632 184.212 189.135  1.00  0.00     0.006 C 
ENDROOT
BRANCH   1   2
ATOM      2  C   UNL     1     192.806 182.716 188.844  1.00  0.00     0.053 C 
BRANCH   2   3
ATOM      3  C   UNL     1     193.343 182.009 190.049  1.00  0.00     0.041 C 
ATOM      4  O   UNL     1     194.383 182.432 190.621  1.00  0.00    -0.550 OA
ATOM      5  O   UNL     1     192.668 180.913 190.571  1.00  0.00    -0.550 OA
ENDBRANCH   2   3
ENDBRANCH   1   2
BRANCH   1   6
ATOM      6  C   UNL     1     191.592 184.486 190.234  1.00  0.00     0.000 C 
BRANCH   6   7
ATOM      7  C   UNL     1     190.164 184.108 189.803  1.00  0.00    -0.000 C 
BRANCH   7   8
ATOM      8  C   UNL     1     189.724 184.838 188.524  1.00  0.00    -0.003 C 
ATOM      9  C   UNL     1     189.273 183.882 187.420  1.00  0.00     0.004 C 
ENDBRANCH   7   8
ENDBRANCH   6   7
ENDBRANCH   1   6
TORSDOF 5
ENDMDL
MODEL 7
REMARK VINA RESULT:    -3.006     16.829     17.812
REMARK INTER + INTRA:          -4.346
REMARK INTER:                  -3.924
REMARK INTRA:                  -0.422
REMARK UNBOUND:                -0.461
REMARK SMILES CCCCCCC(=O)[O-]
REMARK SMILES IDX 5 1 6 2 7 3 8 4 9 5 4 6 3 7 2 8 1 9
REMARK H PARENT
REMARK Flexibility Score: inf
ROOT
ATOM      1  C   UNL     1     185.650 194.250 188.321  1.00  0.00     0.006 C 
ENDROOT
BRANCH   1   2
ATOM      2  C   UNL     1     187.181 194.191 188.406  1.00  0.00     0.053 C 
BRANCH   2   3
ATOM      3  C   UNL     1     187.624 194.190 189.835  1.00  0.00     0.041 C 
ATOM      4  O   UNL     1     188.766 194.625 190.145  1.00  0.00    -0.550 OA
ATOM      5  O   UNL     1     186.759 193.755 190.831  1.00  0.00    -0.550 OA
ENDBRANCH   2   3
ENDBRANCH   1   2
BRANCH   1   6
ATOM      6  C   UNL     1     185.100 195.675 188.497  1.00  0.00     0.000 C 
BRANCH   6   7
ATOM      7  C   UNL     1     184.167 195.802 189.713  1.00  0.00    -0.000 C 
BRANCH   7   8
ATOM      8  C   UNL     1     184.747 196.713 190.806  1.00  0.00    -0.003 C 
ATOM      9  C   UNL     1     185.937 197.541 190.320  1.00  0.00     0.004 C 
ENDBRANCH   7   8
ENDBRANCH   6   7
ENDBRANCH   1   6
TORSDOF 5
ENDMDL
MODEL 8
REMARK VINA RESULT:    -2.963     13.599     14.520
REMARK INTER + INTRA:          -4.290
REMARK INTER:                  -4.027
REMARK INTRA:                  -0.263
REMARK UNBOUND:                -0.461
REMARK SMILES CCCCCCC(=O)[O-]
REMARK SMILES IDX 5 1 6 2 7 3 8 4 9 5 4 6 3 7 2 8 1 9
REMARK H PARENT
REMARK Flexibility Score: inf
ROOT
ATOM      1  C   UNL     1     191.708 184.550 189.983  1.00  0.00     0.006 C 
ENDROOT
BRANCH   1   2
ATOM      2  C   UNL     1     190.258 184.075 189.815  1.00  0.00     0.053 C 
BRANCH   2   3
ATOM      3  C   UNL     1     189.816 184.241 188.395  1.00  0.00     0.041 C 
ATOM      4  O   UNL     1     189.554 183.230 187.690  1.00  0.00    -0.550 OA
ATOM      5  O   UNL     1     189.646 185.513 187.864  1.00  0.00    -0.550 OA
ENDBRANCH   2   3
ENDBRANCH   1   2
BRANCH   1   6
ATOM      6  C   UNL     1     192.730 183.553 189.412  1.00  0.00     0.000 C 
BRANCH   6   7
ATOM      7  C   UNL     1     192.381 182.093 189.751  1.00  0.00    -0.000 C 
BRANCH   7   8
ATOM      8  C   UNL     1     193.481 181.402 190.572  1.00  0.00    -0.003 C 
ATOM      9  C   UNL     1     194.637 182.338 190.924  1.00  0.00     0.004 C 
ENDBRANCH   7   8
ENDBRANCH   6   7
ENDBRANCH   1   6
TORSDOF 5
ENDMDL
MODEL 9
REMARK VINA RESULT:    -2.910      2.691      4.001
REMARK INTER + INTRA:          -4.221
REMARK INTER:                  -3.892
REMARK INTRA:                  -0.329
REMARK UNBOUND:                -0.461
REMARK SMILES CCCCCCC(=O)[O-]
REMARK SMILES IDX 5 1 6 2 7 3 8 4 9 5 4 6 3 7 2 8 1 9
REMARK H PARENT
REMARK Flexibility Score: inf
ROOT
ATOM      1  C   UNL     1     184.428 183.124 201.497  1.00  0.00     0.006 C 
ENDROOT
BRANCH   1   2
ATOM      2  C   UNL     1     185.408 183.422 200.354  1.00  0.00     0.053 C 
BRANCH   2   3
ATOM      3  C   UNL     1     184.676 183.972 199.170  1.00  0.00     0.041 C 
ATOM      4  O   UNL     1     184.877 183.494 198.022  1.00  0.00    -0.550 OA
ATOM      5  O   UNL     1     183.734 184.979 199.341  1.00  0.00    -0.550 OA
ENDBRANCH   2   3
ENDBRANCH   1   2
BRANCH   1   6
ATOM      6  C   UNL     1     183.576 181.871 201.236  1.00  0.00     0.000 C 
BRANCH   6   7
ATOM      7  C   UNL     1     182.156 181.993 201.815  1.00  0.00    -0.000 C 
BRANCH   7   8
ATOM      8  C   UNL     1     181.337 183.102 201.136  1.00  0.00    -0.003 C 
ATOM      9  C   UNL     1     180.810 184.142 202.125  1.00  0.00     0.004 C 
ENDBRANCH   7   8
ENDBRANCH   6   7
ENDBRANCH   1   6
TORSDOF 5
ENDMDL
