MODEL 1
REMARK VINA RESULT:    -7.041      0.000      0.000
REMARK INTER + INTRA:         -10.889
REMARK INTER:                  -9.922
REMARK INTRA:                  -0.968
REMARK UNBOUND:                -0.968
REMARK SMILES OCC1=C[C@H](O)[C@H]2C=CO[C@H](O[C@@H]3O[C@@H](CO)[C@H](O)[C@H](O)[C@H]3O)[C@@H]12
REMARK SMILES IDX 12 1 11 2 8 3 9 4 7 5 10 6 24 7 5 8 3 9 4 10 6 11 2 13 1 14
REMARK SMILES IDX 13 16 22 17 14 18 20 19 15 20 18 21 23 22 21 24 16 26 17 27
REMARK SMILES IDX 19 29
REMARK H PARENT 6 12 1 15 23 23 21 25 17 28 19 30
REMARK Flexibility Score: inf
ROOT
ATOM      1  O   UNL     1       6.963  -0.814  -3.055  1.00  0.00    -0.310 OA
ENDROOT
BRANCH   1   2
ATOM      2  C   UNL     1       8.150  -1.119  -2.342  1.00  0.00     0.316 C 
ATOM      3  C   UNL     1       7.266  -0.015   0.126  1.00  0.00     0.018 C 
ATOM      4  C   UNL     1       8.106   0.667  -0.652  1.00  0.00     0.186 C 
ATOM      5  C   UNL     1       7.026  -1.502  -0.049  1.00  0.00     0.061 C 
ATOM      6  O   UNL     1       8.698   0.064  -1.760  1.00  0.00    -0.472 OA
ATOM      7  C   UNL     1       7.802  -2.137  -1.236  1.00  0.00     0.096 C 
ATOM      8  C   UNL     1       7.550  -2.247   1.195  1.00  0.00     0.145 C 
ATOM      9  C   UNL     1       8.994  -2.770  -0.577  1.00  0.00    -0.036 C 
ATOM     10  C   UNL     1       8.851  -2.817   0.743  1.00  0.00     0.007 C 
BRANCH   8  11
ATOM     11  O   UNL     1       6.671  -3.286   1.536  1.00  0.00    -0.388 OA
ATOM     12  H   UNL     1       7.209  -4.120   1.554  1.00  0.00     0.211 HD
ENDBRANCH   8  11
BRANCH   9  13
ATOM     13  C   UNL     1      10.125  -3.464  -1.295  1.00  0.00     0.187 C 
BRANCH  13  14
ATOM     14  O   UNL     1       9.635  -4.182  -2.395  1.00  0.00    -0.392 OA
ATOM     15  H   UNL     1       9.447  -5.104  -2.079  1.00  0.00     0.211 HD
ENDBRANCH  13  14
ENDBRANCH   9  13
ENDBRANCH   1   2
BRANCH   1  16
ATOM     16  C   UNL     1       6.399  -1.913  -3.769  1.00  0.00     0.286 C 
ATOM     17  C   UNL     1       4.856  -1.866  -3.631  1.00  0.00     0.202 C 
ATOM     18  O   UNL     1       6.785  -1.961  -5.140  1.00  0.00    -0.341 OA
ATOM     19  C   UNL     1       4.145  -2.719  -4.711  1.00  0.00     0.179 C 
ATOM     20  C   UNL     1       6.383  -3.162  -5.795  1.00  0.00     0.178 C 
ATOM     21  C   UNL     1       5.093  -3.817  -5.225  1.00  0.00     0.177 C 
BRANCH  17  22
ATOM     22  O   UNL     1       4.470  -2.266  -2.339  1.00  0.00    -0.385 OA
ATOM     23  H   UNL     1       3.719  -1.682  -2.054  1.00  0.00     0.211 HD
ENDBRANCH  17  22
BRANCH  19  24
ATOM     24  O   UNL     1       3.750  -1.887  -5.775  1.00  0.00    -0.387 OA
ATOM     25  H   UNL     1       3.349  -1.073  -5.373  1.00  0.00     0.211 HD
ENDBRANCH  19  24
BRANCH  20  26
ATOM     26  C   UNL     1       7.557  -4.150  -5.885  1.00  0.00     0.191 C 
BRANCH  26  27
ATOM     27  O   UNL     1       7.646  -4.931  -4.727  1.00  0.00    -0.394 OA
ATOM     28  H   UNL     1       7.930  -5.835  -5.024  1.00  0.00     0.210 HD
ENDBRANCH  26  27
ENDBRANCH  20  26
BRANCH  21  29
ATOM     29  O   UNL     1       4.469  -4.582  -6.224  1.00  0.00    -0.387 OA
ATOM     30  H   UNL     1       5.168  -4.811  -6.890  1.00  0.00     0.211 HD
ENDBRANCH  21  29
ENDBRANCH   1  16
TORSDOF 10
ENDMDL
MODEL 2
REMARK VINA RESULT:    -7.024      2.922      7.363
REMARK INTER + INTRA:         -10.867
REMARK INTER:                 -10.429
REMARK INTRA:                  -0.438
REMARK UNBOUND:                -0.968
REMARK SMILES OCC1=C[C@H](O)[C@H]2C=CO[C@H](O[C@@H]3O[C@@H](CO)[C@H](O)[C@H](O)[C@H]3O)[C@@H]12
REMARK SMILES IDX 12 1 11 2 8 3 9 4 7 5 10 6 24 7 5 8 3 9 4 10 6 11 2 13 1 14
REMARK SMILES IDX 13 16 22 17 14 18 20 19 15 20 18 21 23 22 21 24 16 26 17 27
REMARK SMILES IDX 19 29
REMARK H PARENT 6 12 1 15 23 23 21 25 17 28 19 30
REMARK Flexibility Score: inf
ROOT
ATOM      1  O   UNL     1       8.690  -1.847   1.248  1.00  0.00    -0.310 OA
ENDROOT
BRANCH   1   2
ATOM      2  C   UNL     1       7.407  -1.441   0.798  1.00  0.00     0.316 C 
ATOM      3  C   UNL     1       8.363  -0.016  -1.470  1.00  0.00     0.018 C 
ATOM      4  C   UNL     1       8.001   0.641  -0.369  1.00  0.00     0.186 C 
ATOM      5  C   UNL     1       7.963  -1.457  -1.724  1.00  0.00     0.061 C 
ATOM      6  O   UNL     1       7.351  -0.020   0.672  1.00  0.00    -0.472 OA
ATOM      7  C   UNL     1       7.144  -2.102  -0.571  1.00  0.00     0.096 C 
ATOM      8  C   UNL     1       7.019  -1.510  -2.942  1.00  0.00     0.145 C 
ATOM      9  C   UNL     1       5.724  -1.997  -1.049  1.00  0.00    -0.036 C 
ATOM     10  C   UNL     1       5.668  -1.667  -2.335  1.00  0.00     0.007 C 
BRANCH   8  11
ATOM     11  O   UNL     1       7.318  -2.632  -3.729  1.00  0.00    -0.388 OA
ATOM     12  H   UNL     1       8.229  -2.928  -3.469  1.00  0.00     0.211 HD
ENDBRANCH   8  11
BRANCH   9  13
ATOM     13  C   UNL     1       4.504  -2.412  -0.263  1.00  0.00     0.187 C 
BRANCH  13  14
ATOM     14  O   UNL     1       3.959  -1.309   0.409  1.00  0.00    -0.392 OA
ATOM     15  H   UNL     1       4.157  -1.432   1.374  1.00  0.00     0.211 HD
ENDBRANCH  13  14
ENDBRANCH   9  13
ENDBRANCH   1   2
BRANCH   1  16
ATOM     16  C   UNL     1       8.684  -2.596   2.462  1.00  0.00     0.286 C 
ATOM     17  C   UNL     1       8.421  -4.088   2.133  1.00  0.00     0.202 C 
ATOM     18  O   UNL     1       9.875  -2.448   3.230  1.00  0.00    -0.341 OA
ATOM     19  C   UNL     1       8.836  -5.026   3.293  1.00  0.00     0.179 C 
ATOM     20  C   UNL     1       9.785  -3.036   4.526  1.00  0.00     0.178 C 
ATOM     21  C   UNL     1       8.825  -4.255   4.625  1.00  0.00     0.177 C 
BRANCH  17  22
ATOM     22  O   UNL     1       7.070  -4.280   1.789  1.00  0.00    -0.385 OA
ATOM     23  H   UNL     1       6.931  -5.252   1.646  1.00  0.00     0.211 HD
ENDBRANCH  17  22
BRANCH  19  24
ATOM     24  O   UNL     1      10.125  -5.534   3.042  1.00  0.00    -0.387 OA
ATOM     25  H   UNL     1      10.632  -4.820   2.575  1.00  0.00     0.211 HD
ENDBRANCH  19  24
BRANCH  20  26
ATOM     26  C   UNL     1       9.491  -1.965   5.588  1.00  0.00     0.191 C 
BRANCH  26  27
ATOM     27  O   UNL     1       8.400  -2.334   6.384  1.00  0.00    -0.394 OA
ATOM     28  H   UNL     1       8.297  -3.315   6.277  1.00  0.00     0.210 HD
ENDBRANCH  26  27
ENDBRANCH  20  26
BRANCH  21  29
ATOM     29  O   UNL     1       9.225  -5.089   5.683  1.00  0.00    -0.387 OA
ATOM     30  H   UNL     1       8.417  -5.579   5.983  1.00  0.00     0.211 HD
ENDBRANCH  21  29
ENDBRANCH   1  16
TORSDOF 10
ENDMDL
MODEL 3
REMARK VINA RESULT:    -6.993      1.405      2.225
REMARK INTER + INTRA:         -10.823
REMARK INTER:                 -10.196
REMARK INTRA:                  -0.627
REMARK UNBOUND:                -0.968
REMARK SMILES OCC1=C[C@H](O)[C@H]2C=CO[C@H](O[C@@H]3O[C@@H](CO)[C@H](O)[C@H](O)[C@H]3O)[C@@H]12
REMARK SMILES IDX 12 1 11 2 8 3 9 4 7 5 10 6 24 7 5 8 3 9 4 10 6 11 2 13 1 14
REMARK SMILES IDX 13 16 22 17 14 18 20 19 15 20 18 21 23 22 21 24 16 26 17 27
REMARK SMILES IDX 19 29
REMARK H PARENT 6 12 1 15 23 23 21 25 17 28 19 30
REMARK Flexibility Score: inf
ROOT
ATOM      1  O   UNL     1       6.431  -1.417  -2.435  1.00  0.00    -0.310 OA
ENDROOT
BRANCH   1   2
ATOM      2  C   UNL     1       7.320  -2.051  -1.531  1.00  0.00     0.316 C 
ATOM      3  C   UNL     1       9.269   0.019  -1.584  1.00  0.00     0.018 C 
ATOM      4  C   UNL     1       9.456  -1.096  -2.289  1.00  0.00     0.186 C 
ATOM      5  C   UNL     1       8.248   0.111  -0.467  1.00  0.00     0.061 C 
ATOM      6  O   UNL     1       8.612  -2.193  -2.121  1.00  0.00    -0.472 OA
ATOM      7  C   UNL     1       7.415  -1.184  -0.258  1.00  0.00     0.096 C 
ATOM      8  C   UNL     1       8.983   0.316   0.873  1.00  0.00     0.145 C 
ATOM      9  C   UNL     1       8.095  -1.854   0.902  1.00  0.00    -0.036 C 
ATOM     10  C   UNL     1       8.950  -1.035   1.503  1.00  0.00     0.007 C 
BRANCH   8  11
ATOM     11  O   UNL     1       8.278   1.228   1.671  1.00  0.00    -0.388 OA
ATOM     12  H   UNL     1       7.434   0.778   1.940  1.00  0.00     0.211 HD
ENDBRANCH   8  11
BRANCH   9  13
ATOM     13  C   UNL     1       7.727  -3.203   1.470  1.00  0.00     0.187 C 
BRANCH  13  14
ATOM     14  O   UNL     1       6.428  -3.559   1.080  1.00  0.00    -0.392 OA
ATOM     15  H   UNL     1       5.832  -2.808   1.337  1.00  0.00     0.211 HD
ENDBRANCH  13  14
ENDBRANCH   9  13
ENDBRANCH   1   2
BRANCH   1  16
ATOM     16  C   UNL     1       6.096  -2.196  -3.584  1.00  0.00     0.286 C 
ATOM     17  C   UNL     1       4.553  -2.247  -3.726  1.00  0.00     0.202 C 
ATOM     18  O   UNL     1       6.702  -1.728  -4.786  1.00  0.00    -0.341 OA
ATOM     19  C   UNL     1       4.110  -2.668  -5.150  1.00  0.00     0.179 C 
ATOM     20  C   UNL     1       6.526  -2.618  -5.886  1.00  0.00     0.178 C 
ATOM     21  C   UNL     1       5.229  -3.473  -5.835  1.00  0.00     0.177 C 
BRANCH  17  22
ATOM     22  O   UNL     1       4.003  -3.103  -2.754  1.00  0.00    -0.385 OA
ATOM     23  H   UNL     1       4.755  -3.487  -2.231  1.00  0.00     0.211 HD
ENDBRANCH  17  22
BRANCH  19  24
ATOM     24  O   UNL     1       3.816  -1.516  -5.903  1.00  0.00    -0.387 OA
ATOM     25  H   UNL     1       3.310  -1.814  -6.704  1.00  0.00     0.211 HD
ENDBRANCH  19  24
BRANCH  20  26
ATOM     26  C   UNL     1       7.786  -3.470  -6.102  1.00  0.00     0.191 C 
BRANCH  26  27
ATOM     27  O   UNL     1       7.971  -3.758  -7.460  1.00  0.00    -0.394 OA
ATOM     28  H   UNL     1       7.824  -4.735  -7.558  1.00  0.00     0.210 HD
ENDBRANCH  26  27
ENDBRANCH  20  26
BRANCH  21  29
ATOM     29  O   UNL     1       4.848  -3.838  -7.137  1.00  0.00    -0.387 OA
ATOM     30  H   UNL     1       4.352  -4.694  -7.062  1.00  0.00     0.211 HD
ENDBRANCH  21  29
ENDBRANCH   1  16
TORSDOF 10
ENDMDL
MODEL 4
REMARK VINA RESULT:    -6.777      1.590      6.177
REMARK INTER + INTRA:         -10.518
REMARK INTER:                  -9.765
REMARK INTRA:                  -0.753
REMARK UNBOUND:                -0.968
REMARK SMILES OCC1=C[C@H](O)[C@H]2C=CO[C@H](O[C@@H]3O[C@@H](CO)[C@H](O)[C@H](O)[C@H]3O)[C@@H]12
REMARK SMILES IDX 12 1 11 2 8 3 9 4 7 5 10 6 24 7 5 8 3 9 4 10 6 11 2 13 1 14
REMARK SMILES IDX 13 16 22 17 14 18 20 19 15 20 18 21 23 22 21 24 16 26 17 27
REMARK SMILES IDX 19 29
REMARK H PARENT 6 12 1 15 23 23 21 25 17 28 19 30
REMARK Flexibility Score: inf
ROOT
ATOM      1  O   UNL     1       8.426  -1.167  -2.994  1.00  0.00    -0.310 OA
ENDROOT
BRANCH   1   2
ATOM      2  C   UNL     1       7.407  -1.237  -3.978  1.00  0.00     0.316 C 
ATOM      3  C   UNL     1       8.908  -2.830  -5.795  1.00  0.00     0.018 C 
ATOM      4  C   UNL     1       8.782  -1.519  -5.998  1.00  0.00     0.186 C 
ATOM      5  C   UNL     1       8.003  -3.595  -4.848  1.00  0.00     0.061 C 
ATOM      6  O   UNL     1       7.895  -0.763  -5.233  1.00  0.00    -0.472 OA
ATOM      7  C   UNL     1       6.962  -2.709  -4.109  1.00  0.00     0.096 C 
ATOM      8  C   UNL     1       7.152  -4.591  -5.660  1.00  0.00     0.145 C 
ATOM      9  C   UNL     1       5.703  -2.909  -4.904  1.00  0.00    -0.036 C 
ATOM     10  C   UNL     1       5.820  -3.928  -5.748  1.00  0.00     0.007 C 
BRANCH   8  11
ATOM     11  O   UNL     1       7.032  -5.801  -4.958  1.00  0.00    -0.388 OA
ATOM     12  H   UNL     1       6.253  -5.701  -4.351  1.00  0.00     0.211 HD
ENDBRANCH   8  11
BRANCH   9  13
ATOM     13  C   UNL     1       4.391  -2.207  -4.655  1.00  0.00     0.187 C 
BRANCH  13  14
ATOM     14  O   UNL     1       3.844  -1.752  -5.863  1.00  0.00    -0.392 OA
ATOM     15  H   UNL     1       4.551  -1.228  -6.321  1.00  0.00     0.211 HD
ENDBRANCH  13  14
ENDBRANCH   9  13
ENDBRANCH   1   2
BRANCH   1  16
ATOM     16  C   UNL     1       8.050  -1.671  -1.712  1.00  0.00     0.286 C 
ATOM     17  C   UNL     1       9.262  -2.406  -1.085  1.00  0.00     0.202 C 
ATOM     18  O   UNL     1       7.551  -0.670  -0.830  1.00  0.00    -0.341 OA
ATOM     19  C   UNL     1       9.108  -2.587   0.446  1.00  0.00     0.179 C 
ATOM     20  C   UNL     1       6.995  -1.205   0.370  1.00  0.00     0.178 C 
ATOM     21  C   UNL     1       7.619  -2.551   0.835  1.00  0.00     0.177 C 
BRANCH  17  22
ATOM     22  O   UNL     1       9.462  -3.645  -1.721  1.00  0.00    -0.385 OA
ATOM     23  H   UNL     1      10.438  -3.757  -1.863  1.00  0.00     0.211 HD
ENDBRANCH  17  22
BRANCH  19  24
ATOM     24  O   UNL     1       9.804  -1.558   1.107  1.00  0.00    -0.387 OA
ATOM     25  H   UNL     1       9.478  -1.544   2.045  1.00  0.00     0.211 HD
ENDBRANCH  19  24
BRANCH  20  26
ATOM     26  C   UNL     1       5.463  -1.265   0.278  1.00  0.00     0.191 C 
BRANCH  26  27
ATOM     27  O   UNL     1       4.886  -0.069   0.723  1.00  0.00    -0.394 OA
ATOM     28  H   UNL     1       5.550   0.350   1.330  1.00  0.00     0.210 HD
ENDBRANCH  26  27
ENDBRANCH  20  26
BRANCH  21  29
ATOM     29  O   UNL     1       7.468  -2.688   2.225  1.00  0.00    -0.387 OA
ATOM     30  H   UNL     1       8.296  -3.119   2.563  1.00  0.00     0.211 HD
ENDBRANCH  21  29
ENDBRANCH   1  16
TORSDOF 10
ENDMDL
MODEL 5
REMARK VINA RESULT:    -6.470      1.683      6.067
REMARK INTER + INTRA:         -10.085
REMARK INTER:                  -9.248
REMARK INTRA:                  -0.837
REMARK UNBOUND:                -0.968
REMARK SMILES OCC1=C[C@H](O)[C@H]2C=CO[C@H](O[C@@H]3O[C@@H](CO)[C@H](O)[C@H](O)[C@H]3O)[C@@H]12
REMARK SMILES IDX 12 1 11 2 8 3 9 4 7 5 10 6 24 7 5 8 3 9 4 10 6 11 2 13 1 14
REMARK SMILES IDX 13 16 22 17 14 18 20 19 15 20 18 21 23 22 21 24 16 26 17 27
REMARK SMILES IDX 19 29
REMARK H PARENT 6 12 1 15 23 23 21 25 17 28 19 30
REMARK Flexibility Score: inf
ROOT
ATOM      1  O   UNL     1       8.865  -1.615  -3.449  1.00  0.00    -0.310 OA
ENDROOT
BRANCH   1   2
ATOM      2  C   UNL     1       7.680  -1.500  -4.219  1.00  0.00     0.316 C 
ATOM      3  C   UNL     1       8.826  -2.520  -6.615  1.00  0.00     0.018 C 
ATOM      4  C   UNL     1       8.653  -1.208  -6.459  1.00  0.00     0.186 C 
ATOM      5  C   UNL     1       8.122  -3.540  -5.741  1.00  0.00     0.061 C 
ATOM      6  O   UNL     1       7.920  -0.710  -5.384  1.00  0.00    -0.472 OA
ATOM      7  C   UNL     1       7.231  -2.918  -4.629  1.00  0.00     0.096 C 
ATOM      8  C   UNL     1       7.142  -4.355  -6.607  1.00  0.00     0.145 C 
ATOM      9  C   UNL     1       5.847  -2.989  -5.209  1.00  0.00    -0.036 C 
ATOM     10  C   UNL     1       5.812  -3.764  -6.287  1.00  0.00     0.007 C 
BRANCH   8  11
ATOM     11  O   UNL     1       7.167  -5.703  -6.219  1.00  0.00    -0.388 OA
ATOM     12  H   UNL     1       7.744  -6.177  -6.873  1.00  0.00     0.211 HD
ENDBRANCH   8  11
BRANCH   9  13
ATOM     13  C   UNL     1       4.599  -2.442  -4.561  1.00  0.00     0.187 C 
BRANCH  13  14
ATOM     14  O   UNL     1       3.780  -1.831  -5.520  1.00  0.00    -0.392 OA
ATOM     15  H   UNL     1       3.496  -2.541  -6.153  1.00  0.00     0.211 HD
ENDBRANCH  13  14
ENDBRANCH   9  13
ENDBRANCH   1   2
BRANCH   1  16
ATOM     16  C   UNL     1       8.677  -1.457  -2.043  1.00  0.00     0.286 C 
ATOM     17  C   UNL     1       7.657  -0.316  -1.796  1.00  0.00     0.202 C 
ATOM     18  O   UNL     1       8.271  -2.653  -1.384  1.00  0.00    -0.341 OA
ATOM     19  C   UNL     1       7.055  -0.368  -0.369  1.00  0.00     0.179 C 
ATOM     20  C   UNL     1       8.277  -2.541   0.038  1.00  0.00     0.178 C 
ATOM     21  C   UNL     1       8.013  -1.109   0.582  1.00  0.00     0.177 C 
BRANCH  17  22
ATOM     22  O   UNL     1       8.254   0.933  -2.045  1.00  0.00    -0.385 OA
ATOM     23  H   UNL     1       7.674   1.423  -2.685  1.00  0.00     0.211 HD
ENDBRANCH  17  22
BRANCH  19  24
ATOM     24  O   UNL     1       5.813  -1.029  -0.413  1.00  0.00    -0.387 OA
ATOM     25  H   UNL     1       5.935  -1.839  -0.975  1.00  0.00     0.211 HD
ENDBRANCH  19  24
BRANCH  20  26
ATOM     26  C   UNL     1       9.549  -3.170   0.627  1.00  0.00     0.191 C 
BRANCH  26  27
ATOM     27  O   UNL     1      10.045  -2.402   1.687  1.00  0.00    -0.394 OA
ATOM     28  H   UNL     1       9.474  -1.592   1.733  1.00  0.00     0.210 HD
ENDBRANCH  26  27
ENDBRANCH  20  26
BRANCH  21  29
ATOM     29  O   UNL     1       7.466  -1.185   1.873  1.00  0.00    -0.387 OA
ATOM     30  H   UNL     1       8.229  -1.228   2.506  1.00  0.00     0.211 HD
ENDBRANCH  21  29
ENDBRANCH   1  16
TORSDOF 10
ENDMDL
MODEL 6
REMARK VINA RESULT:    -6.430     11.290     13.383
REMARK INTER + INTRA:         -10.029
REMARK INTER:                  -9.390
REMARK INTRA:                  -0.638
REMARK UNBOUND:                -0.968
REMARK SMILES OCC1=C[C@H](O)[C@H]2C=CO[C@H](O[C@@H]3O[C@@H](CO)[C@H](O)[C@H](O)[C@H]3O)[C@@H]12
REMARK SMILES IDX 12 1 11 2 8 3 9 4 7 5 10 6 24 7 5 8 3 9 4 10 6 11 2 13 1 14
REMARK SMILES IDX 13 16 22 17 14 18 20 19 15 20 18 21 23 22 21 24 16 26 17 27
REMARK SMILES IDX 19 29
REMARK H PARENT 6 12 1 15 23 23 21 25 17 28 19 30
REMARK Flexibility Score: inf
ROOT
ATOM      1  O   UNL     1      -2.274  -3.902   4.694  1.00  0.00    -0.310 OA
ENDROOT
BRANCH   1   2
ATOM      2  C   UNL     1      -2.121  -4.677   5.871  1.00  0.00     0.316 C 
ATOM      3  C   UNL     1      -1.139  -6.990   4.537  1.00  0.00     0.018 C 
ATOM      4  C   UNL     1      -2.409  -6.935   4.938  1.00  0.00     0.186 C 
ATOM      5  C   UNL     1      -0.081  -6.039   5.062  1.00  0.00     0.061 C 
ATOM      6  O   UNL     1      -2.851  -5.899   5.760  1.00  0.00    -0.472 OA
ATOM      7  C   UNL     1      -0.619  -4.977   6.061  1.00  0.00     0.096 C 
ATOM      8  C   UNL     1       0.956  -6.839   5.875  1.00  0.00     0.145 C 
ATOM      9  C   UNL     1      -0.264  -5.548   7.404  1.00  0.00    -0.036 C 
ATOM     10  C   UNL     1       0.584  -6.563   7.291  1.00  0.00     0.007 C 
BRANCH   8  11
ATOM     11  O   UNL     1       2.246  -6.349   5.620  1.00  0.00    -0.388 OA
ATOM     12  H   UNL     1       2.756  -6.437   6.467  1.00  0.00     0.211 HD
ENDBRANCH   8  11
BRANCH   9  13
ATOM     13  C   UNL     1      -0.632  -4.941   8.736  1.00  0.00     0.187 C 
BRANCH  13  14
ATOM     14  O   UNL     1       0.349  -4.028   9.144  1.00  0.00    -0.392 OA
ATOM     15  H   UNL     1       0.414  -3.336   8.435  1.00  0.00     0.211 HD
ENDBRANCH  13  14
ENDBRANCH   9  13
ENDBRANCH   1   2
BRANCH   1  16
ATOM     16  C   UNL     1      -3.088  -2.740   4.849  1.00  0.00     0.286 C 
ATOM     17  C   UNL     1      -4.569  -3.175   4.980  1.00  0.00     0.202 C 
ATOM     18  O   UNL     1      -2.701  -1.916   5.946  1.00  0.00    -0.341 OA
ATOM     19  C   UNL     1      -5.455  -2.061   5.592  1.00  0.00     0.179 C 
ATOM     20  C   UNL     1      -3.386  -0.665   5.977  1.00  0.00     0.178 C 
ATOM     21  C   UNL     1      -4.811  -0.684   5.355  1.00  0.00     0.177 C 
BRANCH  17  22
ATOM     22  O   UNL     1      -5.068  -3.586   3.730  1.00  0.00    -0.385 OA
ATOM     23  H   UNL     1      -4.360  -4.119   3.283  1.00  0.00     0.211 HD
ENDBRANCH  17  22
BRANCH  19  24
ATOM     24  O   UNL     1      -5.604  -2.292   6.973  1.00  0.00    -0.387 OA
ATOM     25  H   UNL     1      -4.970  -3.017   7.216  1.00  0.00     0.211 HD
ENDBRANCH  19  24
BRANCH  20  26
ATOM     26  C   UNL     1      -2.503   0.451   5.397  1.00  0.00     0.191 C 
BRANCH  26  27
ATOM     27  O   UNL     1      -1.145   0.144   5.542  1.00  0.00    -0.394 OA
ATOM     28  H   UNL     1      -1.066  -0.835   5.397  1.00  0.00     0.210 HD
ENDBRANCH  26  27
ENDBRANCH  20  26
BRANCH  21  29
ATOM     29  O   UNL     1      -5.592   0.333   5.928  1.00  0.00    -0.387 OA
ATOM     30  H   UNL     1      -5.093   0.668   6.718  1.00  0.00     0.211 HD
ENDBRANCH  21  29
ENDBRANCH   1  16
TORSDOF 10
ENDMDL
MODEL 7
REMARK VINA RESULT:    -6.347      2.212      6.520
REMARK INTER + INTRA:          -9.913
REMARK INTER:                  -9.290
REMARK INTRA:                  -0.622
REMARK UNBOUND:                -0.968
REMARK SMILES OCC1=C[C@H](O)[C@H]2C=CO[C@H](O[C@@H]3O[C@@H](CO)[C@H](O)[C@H](O)[C@H]3O)[C@@H]12
REMARK SMILES IDX 12 1 11 2 8 3 9 4 7 5 10 6 24 7 5 8 3 9 4 10 6 11 2 13 1 14
REMARK SMILES IDX 13 16 22 17 14 18 20 19 15 20 18 21 23 22 21 24 16 26 17 27
REMARK SMILES IDX 19 29
REMARK H PARENT 6 12 1 15 23 23 21 25 17 28 19 30
REMARK Flexibility Score: inf
ROOT
ATOM      1  O   UNL     1       7.906  -2.691  -1.761  1.00  0.00    -0.310 OA
ENDROOT
BRANCH   1   2
ATOM      2  C   UNL     1       8.890  -2.310  -2.707  1.00  0.00     0.316 C 
ATOM      3  C   UNL     1       8.893  -4.791  -4.098  1.00  0.00     0.018 C 
ATOM      4  C   UNL     1       9.861  -4.509  -3.226  1.00  0.00     0.186 C 
ATOM      5  C   UNL     1       7.978  -3.724  -4.666  1.00  0.00     0.061 C 
ATOM      6  O   UNL     1       9.982  -3.229  -2.687  1.00  0.00    -0.472 OA
ATOM      7  C   UNL     1       8.238  -2.298  -4.105  1.00  0.00     0.096 C 
ATOM      8  C   UNL     1       8.234  -3.594  -6.181  1.00  0.00     0.145 C 
ATOM      9  C   UNL     1       9.070  -1.648  -5.174  1.00  0.00    -0.036 C 
ATOM     10  C   UNL     1       9.068  -2.364  -6.293  1.00  0.00     0.007 C 
BRANCH   8  11
ATOM     11  O   UNL     1       7.020  -3.406  -6.857  1.00  0.00    -0.388 OA
ATOM     12  H   UNL     1       6.361  -3.102  -6.180  1.00  0.00     0.211 HD
ENDBRANCH   8  11
BRANCH   9  13
ATOM     13  C   UNL     1       9.666  -0.264  -5.097  1.00  0.00     0.187 C 
BRANCH  13  14
ATOM     14  O   UNL     1       8.682   0.672  -4.750  1.00  0.00    -0.392 OA
ATOM     15  H   UNL     1       7.817   0.187  -4.722  1.00  0.00     0.211 HD
ENDBRANCH  13  14
ENDBRANCH   9  13
ENDBRANCH   1   2
BRANCH   1  16
ATOM     16  C   UNL     1       7.927  -1.942  -0.546  1.00  0.00     0.286 C 
ATOM     17  C   UNL     1       8.149  -2.913   0.641  1.00  0.00     0.202 C 
ATOM     18  O   UNL     1       8.898  -0.899  -0.537  1.00  0.00    -0.341 OA
ATOM     19  C   UNL     1       8.631  -2.178   1.917  1.00  0.00     0.179 C 
ATOM     20  C   UNL     1       8.781  -0.033   0.591  1.00  0.00     0.178 C 
ATOM     21  C   UNL     1       8.201  -0.701   1.869  1.00  0.00     0.177 C 
BRANCH  17  22
ATOM     22  O   UNL     1       6.975  -3.646   0.896  1.00  0.00    -0.385 OA
ATOM     23  H   UNL     1       6.282  -3.338   0.255  1.00  0.00     0.211 HD
ENDBRANCH  17  22
BRANCH  19  24
ATOM     24  O   UNL     1      10.033  -2.269   2.004  1.00  0.00    -0.387 OA
ATOM     25  H   UNL     1      10.244  -2.663   2.890  1.00  0.00     0.211 HD
ENDBRANCH  19  24
BRANCH  20  26
ATOM     26  C   UNL     1       8.041   1.258   0.210  1.00  0.00     0.191 C 
BRANCH  26  27
ATOM     27  O   UNL     1       6.663   1.032   0.098  1.00  0.00    -0.394 OA
ATOM     28  H   UNL     1       6.272   1.875  -0.251  1.00  0.00     0.210 HD
ENDBRANCH  26  27
ENDBRANCH  20  26
BRANCH  21  29
ATOM     29  O   UNL     1       8.655  -0.017   3.009  1.00  0.00    -0.387 OA
ATOM     30  H   UNL     1       8.039  -0.254   3.751  1.00  0.00     0.211 HD
ENDBRANCH  21  29
ENDBRANCH   1  16
TORSDOF 10
ENDMDL
MODEL 8
REMARK VINA RESULT:    -6.296      2.230      3.845
REMARK INTER + INTRA:          -9.841
REMARK INTER:                  -9.060
REMARK INTRA:                  -0.780
REMARK UNBOUND:                -0.968
REMARK SMILES OCC1=C[C@H](O)[C@H]2C=CO[C@H](O[C@@H]3O[C@@H](CO)[C@H](O)[C@H](O)[C@H]3O)[C@@H]12
REMARK SMILES IDX 12 1 11 2 8 3 9 4 7 5 10 6 24 7 5 8 3 9 4 10 6 11 2 13 1 14
REMARK SMILES IDX 13 16 22 17 14 18 20 19 15 20 18 21 23 22 21 24 16 26 17 27
REMARK SMILES IDX 19 29
REMARK H PARENT 6 12 1 15 23 23 21 25 17 28 19 30
REMARK Flexibility Score: inf
ROOT
ATOM      1  O   UNL     1       8.296  -2.557  -2.735  1.00  0.00    -0.310 OA
ENDROOT
BRANCH   1   2
ATOM      2  C   UNL     1       7.745  -1.304  -2.362  1.00  0.00     0.316 C 
ATOM      3  C   UNL     1       7.063  -2.094   0.284  1.00  0.00     0.018 C 
ATOM      4  C   UNL     1       6.126  -2.038  -0.662  1.00  0.00     0.186 C 
ATOM      5  C   UNL     1       8.412  -1.419   0.130  1.00  0.00     0.061 C 
ATOM      6  O   UNL     1       6.403  -1.469  -1.904  1.00  0.00    -0.472 OA
ATOM      7  C   UNL     1       8.615  -0.708  -1.237  1.00  0.00     0.096 C 
ATOM      8  C   UNL     1       8.533  -0.290   1.172  1.00  0.00     0.145 C 
ATOM      9  C   UNL     1       8.329   0.734  -0.928  1.00  0.00    -0.036 C 
ATOM     10  C   UNL     1       8.278   0.948   0.382  1.00  0.00     0.007 C 
BRANCH   8  11
ATOM     11  O   UNL     1       9.834  -0.258   1.695  1.00  0.00    -0.388 OA
ATOM     12  H   UNL     1      10.031  -1.174   2.024  1.00  0.00     0.211 HD
ENDBRANCH   8  11
BRANCH   9  13
ATOM     13  C   UNL     1       8.309   1.857  -1.935  1.00  0.00     0.187 C 
BRANCH  13  14
ATOM     14  O   UNL     1       7.957   3.063  -1.314  1.00  0.00    -0.392 OA
ATOM     15  H   UNL     1       7.180   3.429  -1.811  1.00  0.00     0.211 HD
ENDBRANCH  13  14
ENDBRANCH   9  13
ENDBRANCH   1   2
BRANCH   1  16
ATOM     16  C   UNL     1       8.545  -2.705  -4.132  1.00  0.00     0.286 C 
ATOM     17  C   UNL     1       8.090  -4.118  -4.579  1.00  0.00     0.202 C 
ATOM     18  O   UNL     1       7.930  -1.697  -4.930  1.00  0.00    -0.341 OA
ATOM     19  C   UNL     1       7.898  -4.213  -6.113  1.00  0.00     0.179 C 
ATOM     20  C   UNL     1       8.341  -1.733  -6.296  1.00  0.00     0.178 C 
ATOM     21  C   UNL     1       8.745  -3.140  -6.819  1.00  0.00     0.177 C 
BRANCH  17  22
ATOM     22  O   UNL     1       9.002  -5.088  -4.124  1.00  0.00    -0.385 OA
ATOM     23  H   UNL     1       8.520  -5.678  -3.486  1.00  0.00     0.211 HD
ENDBRANCH  17  22
BRANCH  19  24
ATOM     24  O   UNL     1       6.537  -4.033  -6.422  1.00  0.00    -0.387 OA
ATOM     25  H   UNL     1       6.498  -3.538  -7.282  1.00  0.00     0.211 HD
ENDBRANCH  19  24
BRANCH  20  26
ATOM     26  C   UNL     1       9.417  -0.671  -6.567  1.00  0.00     0.191 C 
BRANCH  26  27
ATOM     27  O   UNL     1       9.435  -0.307  -7.919  1.00  0.00    -0.394 OA
ATOM     28  H   UNL     1      10.330  -0.564  -8.263  1.00  0.00     0.210 HD
ENDBRANCH  26  27
ENDBRANCH  20  26
BRANCH  21  29
ATOM     29  O   UNL     1       8.560  -3.200  -8.210  1.00  0.00    -0.387 OA
ATOM     30  H   UNL     1       7.738  -3.734  -8.368  1.00  0.00     0.211 HD
ENDBRANCH  21  29
ENDBRANCH   1  16
TORSDOF 10
ENDMDL
MODEL 9
REMARK VINA RESULT:    -6.271      2.132      6.322
REMARK INTER + INTRA:          -9.805
REMARK INTER:                  -9.442
REMARK INTRA:                  -0.363
REMARK UNBOUND:                -0.968
REMARK SMILES OCC1=C[C@H](O)[C@H]2C=CO[C@H](O[C@@H]3O[C@@H](CO)[C@H](O)[C@H](O)[C@H]3O)[C@@H]12
REMARK SMILES IDX 12 1 11 2 8 3 9 4 7 5 10 6 24 7 5 8 3 9 4 10 6 11 2 13 1 14
REMARK SMILES IDX 13 16 22 17 14 18 20 19 15 20 18 21 23 22 21 24 16 26 17 27
REMARK SMILES IDX 19 29
REMARK H PARENT 6 12 1 15 23 23 21 25 17 28 19 30
REMARK Flexibility Score: inf
ROOT
ATOM      1  O   UNL     1       7.219  -1.884  -2.919  1.00  0.00    -0.310 OA
ENDROOT
BRANCH   1   2
ATOM      2  C   UNL     1       8.257  -1.746  -3.876  1.00  0.00     0.316 C 
ATOM      3  C   UNL     1       8.495  -4.529  -4.410  1.00  0.00     0.018 C 
ATOM      4  C   UNL     1       9.374  -3.921  -3.614  1.00  0.00     0.186 C 
ATOM      5  C   UNL     1       7.577  -3.761  -5.341  1.00  0.00     0.061 C 
ATOM      6  O   UNL     1       9.387  -2.532  -3.499  1.00  0.00    -0.472 OA
ATOM      7  C   UNL     1       7.720  -2.216  -5.244  1.00  0.00     0.096 C 
ATOM      8  C   UNL     1       7.949  -4.090  -6.800  1.00  0.00     0.145 C 
ATOM      9  C   UNL     1       8.603  -1.873  -6.409  1.00  0.00    -0.036 C 
ATOM     10  C   UNL     1       8.728  -2.899  -7.243  1.00  0.00     0.007 C 
BRANCH   8  11
ATOM     11  O   UNL     1       6.786  -4.211  -7.575  1.00  0.00    -0.388 OA
ATOM     12  H   UNL     1       7.070  -4.552  -8.463  1.00  0.00     0.211 HD
ENDBRANCH   8  11
BRANCH   9  13
ATOM     13  C   UNL     1       9.122  -0.494  -6.736  1.00  0.00     0.187 C 
BRANCH  13  14
ATOM     14  O   UNL     1       9.526  -0.429  -8.076  1.00  0.00    -0.392 OA
ATOM     15  H   UNL     1       9.258   0.463  -8.417  1.00  0.00     0.211 HD
ENDBRANCH  13  14
ENDBRANCH   9  13
ENDBRANCH   1   2
BRANCH   1  16
ATOM     16  C   UNL     1       7.615  -1.634  -1.571  1.00  0.00     0.286 C 
ATOM     17  C   UNL     1       7.938  -0.126  -1.413  1.00  0.00     0.202 C 
ATOM     18  O   UNL     1       6.652  -2.051  -0.608  1.00  0.00    -0.341 OA
ATOM     19  C   UNL     1       7.936   0.320   0.071  1.00  0.00     0.179 C 
ATOM     20  C   UNL     1       7.133  -1.982   0.733  1.00  0.00     0.178 C 
ATOM     21  C   UNL     1       8.208  -0.887   0.986  1.00  0.00     0.177 C 
BRANCH  17  22
ATOM     22  O   UNL     1       9.168   0.175  -2.027  1.00  0.00    -0.385 OA
ATOM     23  H   UNL     1       8.978   0.748  -2.815  1.00  0.00     0.211 HD
ENDBRANCH  17  22
BRANCH  19  24
ATOM     24  O   UNL     1       6.686   0.889   0.382  1.00  0.00    -0.387 OA
ATOM     25  H   UNL     1       6.023   0.149   0.383  1.00  0.00     0.211 HD
ENDBRANCH  19  24
BRANCH  20  26
ATOM     26  C   UNL     1       7.576  -3.368   1.224  1.00  0.00     0.191 C 
BRANCH  26  27
ATOM     27  O   UNL     1       7.526  -3.447   2.621  1.00  0.00    -0.394 OA
ATOM     28  H   UNL     1       8.469  -3.464   2.931  1.00  0.00     0.210 HD
ENDBRANCH  26  27
ENDBRANCH  20  26
BRANCH  21  29
ATOM     29  O   UNL     1       8.182  -0.499   2.336  1.00  0.00    -0.387 OA
ATOM     30  H   UNL     1       7.312  -0.801   2.705  1.00  0.00     0.211 HD
ENDBRANCH  21  29
ENDBRANCH   1  16
TORSDOF 10
ENDMDL
