MODEL 1
REMARK VINA RESULT:    -4.523      0.000      0.000
REMARK INTER + INTRA:          -7.694
REMARK INTER:                  -6.903
REMARK INTRA:                  -0.790
REMARK UNBOUND:                -0.790
REMARK SMILES O=C([O-])CCCCCCCCC(=O)[O-]
REMARK SMILES IDX 7 1 6 2 5 3 4 4 2 5 1 6 3 7 8 8 9 9 10 10 11 11 12 12 13 13
REMARK SMILES IDX 14 14
REMARK H PARENT
REMARK Flexibility Score: inf
ROOT
ATOM      1  C   UNL     1      36.726   6.554  11.405  1.00  0.00     0.000 C 
ENDROOT
BRANCH   1   2
ATOM      2  C   UNL     1      35.348   6.661  12.081  1.00  0.00     0.000 C 
BRANCH   2   3
ATOM      3  C   UNL     1      34.663   8.012  11.831  1.00  0.00     0.006 C 
BRANCH   3   4
ATOM      4  C   UNL     1      33.210   7.818  11.390  1.00  0.00     0.053 C 
BRANCH   4   5
ATOM      5  C   UNL     1      32.292   8.652  12.226  1.00  0.00     0.041 C 
ATOM      6  O   UNL     1      31.926   8.246  13.362  1.00  0.00    -0.550 OA
ATOM      7  O   UNL     1      31.881   9.899  11.776  1.00  0.00    -0.550 OA
ENDBRANCH   4   5
ENDBRANCH   3   4
ENDBRANCH   2   3
ENDBRANCH   1   2
BRANCH   1   8
ATOM      8  C   UNL     1      36.652   6.197   9.906  1.00  0.00     0.000 C 
BRANCH   8   9
ATOM      9  C   UNL     1      36.210   4.741   9.678  1.00  0.00     0.000 C 
BRANCH   9  10
ATOM     10  C   UNL     1      35.273   4.592   8.469  1.00  0.00     0.006 C 
BRANCH  10  11
ATOM     11  C   UNL     1      33.891   5.211   8.717  1.00  0.00     0.053 C 
BRANCH  11  12
ATOM     12  C   UNL     1      33.527   6.138   7.601  1.00  0.00     0.041 C 
ATOM     13  O   UNL     1      33.023   5.684   6.540  1.00  0.00    -0.550 OA
ATOM     14  O   UNL     1      33.787   7.497   7.713  1.00  0.00    -0.550 OA
ENDBRANCH  11  12
ENDBRANCH  10  11
ENDBRANCH   9  10
ENDBRANCH   8   9
ENDBRANCH   1   8
TORSDOF 9
ENDMDL
MODEL 2
REMARK VINA RESULT:    -4.513      1.861      5.032
REMARK INTER + INTRA:          -7.678
REMARK INTER:                  -6.837
REMARK INTRA:                  -0.842
REMARK UNBOUND:                -0.790
REMARK SMILES O=C([O-])CCCCCCCCC(=O)[O-]
REMARK SMILES IDX 7 1 6 2 5 3 4 4 2 5 1 6 3 7 8 8 9 9 10 10 11 11 12 12 13 13
REMARK SMILES IDX 14 14
REMARK H PARENT
REMARK Flexibility Score: inf
ROOT
ATOM      1  C   UNL     1      36.879   6.405  10.010  1.00  0.00     0.000 C 
ENDROOT
BRANCH   1   2
ATOM      2  C   UNL     1      36.319   4.972   9.971  1.00  0.00     0.000 C 
BRANCH   2   3
ATOM      3  C   UNL     1      35.484   4.691   8.715  1.00  0.00     0.006 C 
BRANCH   3   4
ATOM      4  C   UNL     1      34.030   5.129   8.911  1.00  0.00     0.053 C 
BRANCH   4   5
ATOM      5  C   UNL     1      33.609   6.056   7.816  1.00  0.00     0.041 C 
ATOM      6  O   UNL     1      33.802   7.297   7.927  1.00  0.00    -0.550 OA
ATOM      7  O   UNL     1      33.051   5.548   6.650  1.00  0.00    -0.550 OA
ENDBRANCH   4   5
ENDBRANCH   3   4
ENDBRANCH   2   3
ENDBRANCH   1   2
BRANCH   1   8
ATOM      8  C   UNL     1      36.507   7.180  11.291  1.00  0.00     0.000 C 
BRANCH   8   9
ATOM      9  C   UNL     1      35.052   7.680  11.263  1.00  0.00     0.000 C 
BRANCH   9  10
ATOM     10  C   UNL     1      34.221   7.144  12.440  1.00  0.00     0.006 C 
BRANCH  10  11
ATOM     11  C   UNL     1      34.925   5.999  13.182  1.00  0.00     0.053 C 
BRANCH  11  12
ATOM     12  C   UNL     1      33.933   4.962  13.600  1.00  0.00     0.041 C 
ATOM     13  O   UNL     1      34.271   4.047  14.397  1.00  0.00    -0.550 OA
ATOM     14  O   UNL     1      32.648   4.975  13.073  1.00  0.00    -0.550 OA
ENDBRANCH  11  12
ENDBRANCH  10  11
ENDBRANCH   9  10
ENDBRANCH   8   9
ENDBRANCH   1   8
TORSDOF 9
ENDMDL
MODEL 3
REMARK VINA RESULT:    -4.508      1.839      2.660
REMARK INTER + INTRA:          -7.669
REMARK INTER:                  -6.772
REMARK INTRA:                  -0.897
REMARK UNBOUND:                -0.790
REMARK SMILES O=C([O-])CCCCCCCCC(=O)[O-]
REMARK SMILES IDX 7 1 6 2 5 3 4 4 2 5 1 6 3 7 8 8 9 9 10 10 11 11 12 12 13 13
REMARK SMILES IDX 14 14
REMARK H PARENT
REMARK Flexibility Score: inf
ROOT
ATOM      1  C   UNL     1      36.507   7.111  11.365  1.00  0.00     0.000 C 
ENDROOT
BRANCH   1   2
ATOM      2  C   UNL     1      35.157   7.844  11.441  1.00  0.00     0.000 C 
BRANCH   2   3
ATOM      3  C   UNL     1      34.180   7.197  12.433  1.00  0.00     0.006 C 
BRANCH   3   4
ATOM      4  C   UNL     1      34.819   5.989  13.124  1.00  0.00     0.053 C 
BRANCH   4   5
ATOM      5  C   UNL     1      33.775   4.988  13.502  1.00  0.00     0.041 C 
ATOM      6  O   UNL     1      32.590   5.124  13.094  1.00  0.00    -0.550 OA
ATOM      7  O   UNL     1      34.117   3.878  14.263  1.00  0.00    -0.550 OA
ENDBRANCH   4   5
ENDBRANCH   3   4
ENDBRANCH   2   3
ENDBRANCH   1   2
BRANCH   1   8
ATOM      8  C   UNL     1      36.800   6.497   9.981  1.00  0.00     0.000 C 
BRANCH   8   9
ATOM      9  C   UNL     1      36.459   4.998   9.928  1.00  0.00     0.000 C 
BRANCH   9  10
ATOM     10  C   UNL     1      35.423   4.666   8.842  1.00  0.00     0.006 C 
BRANCH  10  11
ATOM     11  C   UNL     1      34.058   5.309   9.119  1.00  0.00     0.053 C 
BRANCH  11  12
ATOM     12  C   UNL     1      33.699   6.262   8.024  1.00  0.00     0.041 C 
ATOM     13  O   UNL     1      33.816   7.504   8.200  1.00  0.00    -0.550 OA
ATOM     14  O   UNL     1      33.189   5.783   6.824  1.00  0.00    -0.550 OA
ENDBRANCH  11  12
ENDBRANCH  10  11
ENDBRANCH   9  10
ENDBRANCH   8   9
ENDBRANCH   1   8
TORSDOF 9
ENDMDL
MODEL 4
REMARK VINA RESULT:    -4.478      2.984      4.127
REMARK INTER + INTRA:          -7.624
REMARK INTER:                  -6.792
REMARK INTRA:                  -0.832
REMARK UNBOUND:                -0.790
REMARK SMILES O=C([O-])CCCCCCCCC(=O)[O-]
REMARK SMILES IDX 7 1 6 2 5 3 4 4 2 5 1 6 3 7 8 8 9 9 10 10 11 11 12 12 13 13
REMARK SMILES IDX 14 14
REMARK H PARENT
REMARK Flexibility Score: inf
ROOT
ATOM      1  C   UNL     1      32.514   7.360  12.855  1.00  0.00     0.000 C 
ENDROOT
BRANCH   1   2
ATOM      2  C   UNL     1      32.092   6.052  12.161  1.00  0.00     0.000 C 
BRANCH   2   3
ATOM      3  C   UNL     1      31.965   4.873  13.135  1.00  0.00     0.006 C 
BRANCH   3   4
ATOM      4  C   UNL     1      33.109   3.873  12.940  1.00  0.00     0.053 C 
BRANCH   4   5
ATOM      5  C   UNL     1      33.954   3.797  14.172  1.00  0.00     0.041 C 
ATOM      6  O   UNL     1      34.004   2.730  14.841  1.00  0.00    -0.550 OA
ATOM      7  O   UNL     1      34.727   4.885  14.554  1.00  0.00    -0.550 OA
ENDBRANCH   4   5
ENDBRANCH   3   4
ENDBRANCH   2   3
ENDBRANCH   1   2
BRANCH   1   8
ATOM      8  C   UNL     1      33.479   8.221  12.015  1.00  0.00     0.000 C 
BRANCH   8   9
ATOM      9  C   UNL     1      34.887   7.605  11.938  1.00  0.00     0.000 C 
BRANCH   9  10
ATOM     10  C   UNL     1      35.295   7.243  10.501  1.00  0.00     0.006 C 
BRANCH  10  11
ATOM     11  C   UNL     1      34.199   7.574   9.479  1.00  0.00     0.053 C 
BRANCH  11  12
ATOM     12  C   UNL     1      33.872   6.369   8.657  1.00  0.00     0.041 C 
ATOM     13  O   UNL     1      33.557   6.496   7.444  1.00  0.00    -0.550 OA
ATOM     14  O   UNL     1      33.868   5.109   9.241  1.00  0.00    -0.550 OA
ENDBRANCH  11  12
ENDBRANCH  10  11
ENDBRANCH   9  10
ENDBRANCH   8   9
ENDBRANCH   1   8
TORSDOF 9
ENDMDL
MODEL 5
REMARK VINA RESULT:    -4.447      0.815      4.718
REMARK INTER + INTRA:          -7.577
REMARK INTER:                  -6.782
REMARK INTRA:                  -0.795
REMARK UNBOUND:                -0.790
REMARK SMILES O=C([O-])CCCCCCCCC(=O)[O-]
REMARK SMILES IDX 7 1 6 2 5 3 4 4 2 5 1 6 3 7 8 8 9 9 10 10 11 11 12 12 13 13
REMARK SMILES IDX 14 14
REMARK H PARENT
REMARK Flexibility Score: inf
ROOT
ATOM      1  C   UNL     1      36.957   6.021   9.910  1.00  0.00     0.000 C 
ENDROOT
BRANCH   1   2
ATOM      2  C   UNL     1      35.958   4.851   9.883  1.00  0.00     0.000 C 
BRANCH   2   3
ATOM      3  C   UNL     1      35.319   4.642   8.503  1.00  0.00     0.006 C 
BRANCH   3   4
ATOM      4  C   UNL     1      33.823   4.968   8.535  1.00  0.00     0.053 C 
BRANCH   4   5
ATOM      5  C   UNL     1      33.475   5.941   7.453  1.00  0.00     0.041 C 
ATOM      6  O   UNL     1      33.728   7.167   7.599  1.00  0.00    -0.550 OA
ATOM      7  O   UNL     1      32.919   5.489   6.264  1.00  0.00    -0.550 OA
ENDBRANCH   4   5
ENDBRANCH   3   4
ENDBRANCH   2   3
ENDBRANCH   1   2
BRANCH   1   8
ATOM      8  C   UNL     1      36.851   6.895  11.177  1.00  0.00     0.000 C 
BRANCH   8   9
ATOM      9  C   UNL     1      35.535   6.656  11.937  1.00  0.00     0.000 C 
BRANCH   9  10
ATOM     10  C   UNL     1      34.631   7.899  11.957  1.00  0.00     0.006 C 
BRANCH  10  11
ATOM     11  C   UNL     1      33.363   7.716  11.113  1.00  0.00     0.053 C 
BRANCH  11  12
ATOM     12  C   UNL     1      32.193   7.406  11.991  1.00  0.00     0.041 C 
ATOM     13  O   UNL     1      31.453   8.335  12.412  1.00  0.00    -0.550 OA
ATOM     14  O   UNL     1      31.945   6.097  12.385  1.00  0.00    -0.550 OA
ENDBRANCH  11  12
ENDBRANCH  10  11
ENDBRANCH   9  10
ENDBRANCH   8   9
ENDBRANCH   1   8
TORSDOF 9
ENDMDL
MODEL 6
REMARK VINA RESULT:    -4.374      3.013      4.149
REMARK INTER + INTRA:          -7.466
REMARK INTER:                  -6.524
REMARK INTRA:                  -0.942
REMARK UNBOUND:                -0.790
REMARK SMILES O=C([O-])CCCCCCCCC(=O)[O-]
REMARK SMILES IDX 7 1 6 2 5 3 4 4 2 5 1 6 3 7 8 8 9 9 10 10 11 11 12 12 13 13
REMARK SMILES IDX 14 14
REMARK H PARENT
REMARK Flexibility Score: inf
ROOT
ATOM      1  C   UNL     1      34.017   3.896  10.282  1.00  0.00     0.000 C 
ENDROOT
BRANCH   1   2
ATOM      2  C   UNL     1      32.588   4.095  10.817  1.00  0.00     0.000 C 
BRANCH   2   3
ATOM      3  C   UNL     1      32.516   5.108  11.968  1.00  0.00     0.006 C 
BRANCH   3   4
ATOM      4  C   UNL     1      32.447   4.397  13.322  1.00  0.00     0.053 C 
BRANCH   4   5
ATOM      5  C   UNL     1      33.805   4.321  13.944  1.00  0.00     0.041 C 
ATOM      6  O   UNL     1      34.138   3.308  14.616  1.00  0.00    -0.550 OA
ATOM      7  O   UNL     1      34.723   5.343  13.740  1.00  0.00    -0.550 OA
ENDBRANCH   4   5
ENDBRANCH   3   4
ENDBRANCH   2   3
ENDBRANCH   1   2
BRANCH   1   8
ATOM      8  C   UNL     1      34.152   4.162   8.768  1.00  0.00     0.000 C 
BRANCH   8   9
ATOM      9  C   UNL     1      33.318   5.374   8.316  1.00  0.00     0.000 C 
BRANCH   9  10
ATOM     10  C   UNL     1      34.138   6.673   8.279  1.00  0.00     0.006 C 
BRANCH  10  11
ATOM     11  C   UNL     1      33.904   7.550   9.517  1.00  0.00     0.053 C 
BRANCH  11  12
ATOM     12  C   UNL     1      35.060   7.440  10.459  1.00  0.00     0.041 C 
ATOM     13  O   UNL     1      34.995   7.960  11.604  1.00  0.00    -0.550 OA
ATOM     14  O   UNL     1      36.227   6.804  10.057  1.00  0.00    -0.550 OA
ENDBRANCH  11  12
ENDBRANCH  10  11
ENDBRANCH   9  10
ENDBRANCH   8   9
ENDBRANCH   1   8
TORSDOF 9
ENDMDL
MODEL 7
REMARK VINA RESULT:    -4.352      2.546      5.046
REMARK INTER + INTRA:          -7.431
REMARK INTER:                  -6.218
REMARK INTRA:                  -1.214
REMARK UNBOUND:                -0.790
REMARK SMILES O=C([O-])CCCCCCCCC(=O)[O-]
REMARK SMILES IDX 7 1 6 2 5 3 4 4 2 5 1 6 3 7 8 8 9 9 10 10 11 11 12 12 13 13
REMARK SMILES IDX 14 14
REMARK H PARENT
REMARK Flexibility Score: inf
ROOT
ATOM      1  C   UNL     1      31.856   5.339  11.946  1.00  0.00     0.000 C 
ENDROOT
BRANCH   1   2
ATOM      2  C   UNL     1      32.913   4.252  12.212  1.00  0.00     0.000 C 
BRANCH   2   3
ATOM      3  C   UNL     1      33.628   3.788  10.935  1.00  0.00     0.006 C 
BRANCH   3   4
ATOM      4  C   UNL     1      32.925   4.327   9.685  1.00  0.00     0.053 C 
BRANCH   4   5
ATOM      5  C   UNL     1      33.906   5.011   8.787  1.00  0.00     0.041 C 
ATOM      6  O   UNL     1      34.985   4.440   8.476  1.00  0.00    -0.550 OA
ATOM      7  O   UNL     1      33.607   6.257   8.250  1.00  0.00    -0.550 OA
ENDBRANCH   4   5
ENDBRANCH   3   4
ENDBRANCH   2   3
ENDBRANCH   1   2
BRANCH   1   8
ATOM      8  C   UNL     1      32.218   6.712  12.547  1.00  0.00     0.000 C 
BRANCH   8   9
ATOM      9  C   UNL     1      32.900   7.633  11.521  1.00  0.00     0.000 C 
BRANCH   9  10
ATOM     10  C   UNL     1      34.302   8.078  11.966  1.00  0.00     0.006 C 
BRANCH  10  11
ATOM     11  C   UNL     1      35.397   7.639  10.984  1.00  0.00     0.053 C 
BRANCH  11  12
ATOM     12  C   UNL     1      36.148   6.467  11.531  1.00  0.00     0.041 C 
ATOM     13  O   UNL     1      35.913   6.052  12.696  1.00  0.00    -0.550 OA
ATOM     14  O   UNL     1      37.141   5.862  10.771  1.00  0.00    -0.550 OA
ENDBRANCH  11  12
ENDBRANCH  10  11
ENDBRANCH   9  10
ENDBRANCH   8   9
ENDBRANCH   1   8
TORSDOF 9
ENDMDL
MODEL 8
REMARK VINA RESULT:    -4.240      3.036      4.593
REMARK INTER + INTRA:          -7.261
REMARK INTER:                  -6.349
REMARK INTRA:                  -0.913
REMARK UNBOUND:                -0.790
REMARK SMILES O=C([O-])CCCCCCCCC(=O)[O-]
REMARK SMILES IDX 7 1 6 2 5 3 4 4 2 5 1 6 3 7 8 8 9 9 10 10 11 11 12 12 13 13
REMARK SMILES IDX 14 14
REMARK H PARENT
REMARK Flexibility Score: inf
ROOT
ATOM      1  C   UNL     1      34.837   5.152   8.347  1.00  0.00     0.000 C 
ENDROOT
BRANCH   1   2
ATOM      2  C   UNL     1      33.666   6.150   8.337  1.00  0.00     0.000 C 
BRANCH   2   3
ATOM      3  C   UNL     1      34.025   7.499   8.976  1.00  0.00     0.006 C 
BRANCH   3   4
ATOM      4  C   UNL     1      33.636   7.527  10.457  1.00  0.00     0.053 C 
BRANCH   4   5
ATOM      5  C   UNL     1      34.855   7.457  11.320  1.00  0.00     0.041 C 
ATOM      6  O   UNL     1      34.741   7.322  12.568  1.00  0.00    -0.550 OA
ATOM      7  O   UNL     1      36.119   7.490  10.745  1.00  0.00    -0.550 OA
ENDBRANCH   4   5
ENDBRANCH   3   4
ENDBRANCH   2   3
ENDBRANCH   1   2
BRANCH   1   8
ATOM      8  C   UNL     1      34.762   4.123   9.493  1.00  0.00     0.000 C 
BRANCH   8   9
ATOM      9  C   UNL     1      33.311   3.755   9.848  1.00  0.00     0.000 C 
BRANCH   9  10
ATOM     10  C   UNL     1      33.182   3.155  11.258  1.00  0.00     0.006 C 
BRANCH  10  11
ATOM     11  C   UNL     1      33.109   4.232  12.349  1.00  0.00     0.053 C 
BRANCH  11  12
ATOM     12  C   UNL     1      33.597   3.687  13.653  1.00  0.00     0.041 C 
ATOM     13  O   UNL     1      33.264   2.529  14.019  1.00  0.00    -0.550 OA
ATOM     14  O   UNL     1      34.379   4.474  14.488  1.00  0.00    -0.550 OA
ENDBRANCH  11  12
ENDBRANCH  10  11
ENDBRANCH   9  10
ENDBRANCH   8   9
ENDBRANCH   1   8
TORSDOF 9
ENDMDL
MODEL 9
REMARK VINA RESULT:    -4.240      2.475      4.511
REMARK INTER + INTRA:          -7.261
REMARK INTER:                  -6.230
REMARK INTRA:                  -1.030
REMARK UNBOUND:                -0.790
REMARK SMILES O=C([O-])CCCCCCCCC(=O)[O-]
REMARK SMILES IDX 7 1 6 2 5 3 4 4 2 5 1 6 3 7 8 8 9 9 10 10 11 11 12 12 13 13
REMARK SMILES IDX 14 14
REMARK H PARENT
REMARK Flexibility Score: inf
ROOT
ATOM      1  C   UNL     1      35.560   4.811   9.357  1.00  0.00     0.000 C 
ENDROOT
BRANCH   1   2
ATOM      2  C   UNL     1      34.141   4.226   9.245  1.00  0.00     0.000 C 
BRANCH   2   3
ATOM      3  C   UNL     1      33.759   3.350  10.445  1.00  0.00     0.006 C 
BRANCH   3   4
ATOM      4  C   UNL     1      32.870   4.119  11.427  1.00  0.00     0.053 C 
BRANCH   4   5
ATOM      5  C   UNL     1      33.271   3.825  12.838  1.00  0.00     0.041 C 
ATOM      6  O   UNL     1      33.538   4.768  13.630  1.00  0.00    -0.550 OA
ATOM      7  O   UNL     1      33.301   2.514  13.294  1.00  0.00    -0.550 OA
ENDBRANCH   4   5
ENDBRANCH   3   4
ENDBRANCH   2   3
ENDBRANCH   1   2
BRANCH   1   8
ATOM      8  C   UNL     1      35.584   6.299   9.762  1.00  0.00     0.000 C 
BRANCH   8   9
ATOM      9  C   UNL     1      35.809   6.485  11.273  1.00  0.00     0.000 C 
BRANCH   9  10
ATOM     10  C   UNL     1      34.823   7.486  11.897  1.00  0.00     0.006 C 
BRANCH  10  11
ATOM     11  C   UNL     1      33.625   7.777  10.984  1.00  0.00     0.053 C 
BRANCH  11  12
ATOM     12  C   UNL     1      32.431   8.162  11.797  1.00  0.00     0.041 C 
ATOM     13  O   UNL     1      31.709   7.274  12.323  1.00  0.00    -0.550 OA
ATOM     14  O   UNL     1      32.086   9.500  11.936  1.00  0.00    -0.550 OA
ENDBRANCH  11  12
ENDBRANCH  10  11
ENDBRANCH   9  10
ENDBRANCH   8   9
ENDBRANCH   1   8
TORSDOF 9
ENDMDL
