MODEL 1
REMARK VINA RESULT:    -4.041      0.000      0.000
REMARK INTER + INTRA:          -5.713
REMARK INTER:                  -5.341
REMARK INTRA:                  -0.372
REMARK UNBOUND:                -0.372
REMARK SMILES C=C[C@@H](O)CCCCC
REMARK SMILES IDX 6 1 7 2 8 3 9 4 5 5 3 6 2 7 1 8 4 9
REMARK H PARENT 4 10
REMARK Flexibility Score: inf
ROOT
ATOM      1  C   UNL     1       0.978  46.307  47.881  1.00  0.00     0.003 C 
ENDROOT
BRANCH   1   2
ATOM      2  C   UNL     1       1.773  47.611  47.724  1.00  0.00    -0.000 C 
BRANCH   2   3
ATOM      3  C   UNL     1       3.268  47.432  48.034  1.00  0.00    -0.003 C 
ATOM      4  C   UNL     1       4.171  48.007  46.942  1.00  0.00     0.004 C 
ENDBRANCH   2   3
ENDBRANCH   1   2
BRANCH   1   5
ATOM      5  C   UNL     1       1.895  45.084  47.744  1.00  0.00     0.036 C 
BRANCH   5   6
ATOM      6  C   UNL     1       1.539  43.986  48.765  1.00  0.00     0.136 C 
BRANCH   6   7
ATOM      7  C   UNL     1       1.949  44.390  50.162  1.00  0.00    -0.004 C 
ATOM      8  C   UNL     1       1.048  44.493  51.144  1.00  0.00     0.007 C 
ENDBRANCH   6   7
BRANCH   6   9
ATOM      9  O   UNL     1       0.165  43.690  48.726  1.00  0.00    -0.389 OA
ATOM     10  H   UNL     1      -0.035  43.090  49.492  1.00  0.00     0.211 HD
ENDBRANCH   6   9
ENDBRANCH   5   6
ENDBRANCH   1   5
TORSDOF 6
ENDMDL
MODEL 2
REMARK VINA RESULT:    -3.952      1.712      4.171
REMARK INTER + INTRA:          -5.595
REMARK INTER:                  -5.123
REMARK INTRA:                  -0.472
REMARK UNBOUND:                -0.372
REMARK SMILES C=C[C@@H](O)CCCCC
REMARK SMILES IDX 6 1 7 2 8 3 9 4 5 5 3 6 2 7 1 8 4 9
REMARK H PARENT 4 10
REMARK Flexibility Score: inf
ROOT
ATOM      1  C   UNL     1       1.482  44.306  48.485  1.00  0.00     0.003 C 
ENDROOT
BRANCH   1   2
ATOM      2  C   UNL     1       1.866  43.967  49.932  1.00  0.00    -0.000 C 
BRANCH   2   3
ATOM      3  C   UNL     1       0.884  44.557  50.957  1.00  0.00    -0.003 C 
ATOM      4  C   UNL     1       0.002  43.492  51.611  1.00  0.00     0.004 C 
ENDBRANCH   2   3
ENDBRANCH   1   2
BRANCH   1   5
ATOM      5  C   UNL     1       0.984  45.754  48.373  1.00  0.00     0.036 C 
BRANCH   5   6
ATOM      6  C   UNL     1       2.068  46.687  47.797  1.00  0.00     0.136 C 
BRANCH   6   7
ATOM      7  C   UNL     1       2.850  47.358  48.903  1.00  0.00    -0.004 C 
ATOM      8  C   UNL     1       2.233  47.880  49.967  1.00  0.00     0.007 C 
ENDBRANCH   6   7
BRANCH   6   9
ATOM      9  O   UNL     1       2.935  45.983  46.943  1.00  0.00    -0.389 OA
ATOM     10  H   UNL     1       3.420  46.652  46.391  1.00  0.00     0.211 HD
ENDBRANCH   6   9
ENDBRANCH   5   6
ENDBRANCH   1   5
TORSDOF 6
ENDMDL
MODEL 3
REMARK VINA RESULT:    -3.916      1.668      2.222
REMARK INTER + INTRA:          -5.547
REMARK INTER:                  -5.165
REMARK INTRA:                  -0.382
REMARK UNBOUND:                -0.372
REMARK SMILES C=C[C@@H](O)CCCCC
REMARK SMILES IDX 6 1 7 2 8 3 9 4 5 5 3 6 2 7 1 8 4 9
REMARK H PARENT 4 10
REMARK Flexibility Score: inf
ROOT
ATOM      1  C   UNL     1       2.508  47.001  50.076  1.00  0.00     0.003 C 
ENDROOT
BRANCH   1   2
ATOM      2  C   UNL     1       2.706  48.088  49.011  1.00  0.00    -0.000 C 
BRANCH   2   3
ATOM      3  C   UNL     1       2.865  47.508  47.597  1.00  0.00    -0.003 C 
ATOM      4  C   UNL     1       4.145  47.978  46.905  1.00  0.00     0.004 C 
ENDBRANCH   2   3
ENDBRANCH   1   2
BRANCH   1   5
ATOM      5  C   UNL     1       1.025  46.625  50.207  1.00  0.00     0.036 C 
BRANCH   5   6
ATOM      6  C   UNL     1       0.836  45.108  50.407  1.00  0.00     0.136 C 
BRANCH   6   7
ATOM      7  C   UNL     1       1.804  44.324  49.550  1.00  0.00    -0.004 C 
ATOM      8  C   UNL     1       1.505  44.004  48.288  1.00  0.00     0.007 C 
ENDBRANCH   6   7
BRANCH   6   9
ATOM      9  O   UNL     1       0.987  44.756  51.760  1.00  0.00    -0.389 OA
ATOM     10  H   UNL     1       0.491  45.426  52.301  1.00  0.00     0.211 HD
ENDBRANCH   6   9
ENDBRANCH   5   6
ENDBRANCH   1   5
TORSDOF 6
ENDMDL
MODEL 4
REMARK VINA RESULT:    -3.852      1.122      1.442
REMARK INTER + INTRA:          -5.462
REMARK INTER:                  -5.287
REMARK INTRA:                  -0.175
REMARK UNBOUND:                -0.372
REMARK SMILES C=C[C@@H](O)CCCCC
REMARK SMILES IDX 6 1 7 2 8 3 9 4 5 5 3 6 2 7 1 8 4 9
REMARK H PARENT 4 10
REMARK Flexibility Score: inf
ROOT
ATOM      1  C   UNL     1       1.975  45.326  47.659  1.00  0.00     0.003 C 
ENDROOT
BRANCH   1   2
ATOM      2  C   UNL     1       2.617  46.441  48.497  1.00  0.00    -0.000 C 
BRANCH   2   3
ATOM      3  C   UNL     1       2.798  47.746  47.706  1.00  0.00    -0.003 C 
ATOM      4  C   UNL     1       4.195  47.881  47.101  1.00  0.00     0.004 C 
ENDBRANCH   2   3
ENDBRANCH   1   2
BRANCH   1   5
ATOM      5  C   UNL     1       1.129  44.395  48.539  1.00  0.00     0.036 C 
BRANCH   5   6
ATOM      6  C   UNL     1       1.808  44.120  49.895  1.00  0.00     0.136 C 
BRANCH   6   7
ATOM      7  C   UNL     1       0.892  44.482  51.043  1.00  0.00    -0.004 C 
ATOM      8  C   UNL     1       0.102  43.567  51.610  1.00  0.00     0.007 C 
ENDBRANCH   6   7
BRANCH   6   9
ATOM      9  O   UNL     1       2.207  42.776  49.995  1.00  0.00    -0.389 OA
ATOM     10  H   UNL     1       2.266  42.411  49.072  1.00  0.00     0.211 HD
ENDBRANCH   6   9
ENDBRANCH   5   6
ENDBRANCH   1   5
TORSDOF 6
ENDMDL
MODEL 5
REMARK VINA RESULT:    -3.761      1.999      4.745
REMARK INTER + INTRA:          -5.342
REMARK INTER:                  -5.081
REMARK INTRA:                  -0.261
REMARK UNBOUND:                -0.372
REMARK SMILES C=C[C@@H](O)CCCCC
REMARK SMILES IDX 6 1 7 2 8 3 9 4 5 5 3 6 2 7 1 8 4 9
REMARK H PARENT 4 10
REMARK Flexibility Score: inf
ROOT
ATOM      1  C   UNL     1       1.835  44.838  48.869  1.00  0.00     0.003 C 
ENDROOT
BRANCH   1   2
ATOM      2  C   UNL     1       1.798  43.987  50.146  1.00  0.00    -0.000 C 
BRANCH   2   3
ATOM      3  C   UNL     1       0.852  44.561  51.212  1.00  0.00    -0.003 C 
ATOM      4  C   UNL     1      -0.144  43.526  51.737  1.00  0.00     0.004 C 
ENDBRANCH   2   3
ENDBRANCH   1   2
BRANCH   1   5
ATOM      5  C   UNL     1       1.462  46.296  49.170  1.00  0.00     0.036 C 
BRANCH   5   6
ATOM      6  C   UNL     1       2.708  47.155  49.462  1.00  0.00     0.136 C 
BRANCH   6   7
ATOM      7  C   UNL     1       2.974  48.125  48.333  1.00  0.00    -0.004 C 
ATOM      8  C   UNL     1       3.792  47.806  47.327  1.00  0.00     0.007 C 
ENDBRANCH   6   7
BRANCH   6   9
ATOM      9  O   UNL     1       2.568  47.847  50.678  1.00  0.00    -0.389 OA
ATOM     10  H   UNL     1       1.695  47.586  51.073  1.00  0.00     0.211 HD
ENDBRANCH   6   9
ENDBRANCH   5   6
ENDBRANCH   1   5
TORSDOF 6
ENDMDL
MODEL 6
REMARK VINA RESULT:    -3.670     23.614     24.419
REMARK INTER + INTRA:          -5.222
REMARK INTER:                  -5.013
REMARK INTRA:                  -0.209
REMARK UNBOUND:                -0.372
REMARK SMILES C=C[C@@H](O)CCCCC
REMARK SMILES IDX 6 1 7 2 8 3 9 4 5 5 3 6 2 7 1 8 4 9
REMARK H PARENT 4 10
REMARK Flexibility Score: inf
ROOT
ATOM      1  C   UNL     1      15.225  28.487  36.071  1.00  0.00     0.003 C 
ENDROOT
BRANCH   1   2
ATOM      2  C   UNL     1      16.721  28.230  35.847  1.00  0.00    -0.000 C 
BRANCH   2   3
ATOM      3  C   UNL     1      17.612  29.150  36.697  1.00  0.00    -0.003 C 
ATOM      4  C   UNL     1      19.104  28.878  36.496  1.00  0.00     0.004 C 
ENDBRANCH   2   3
ENDBRANCH   1   2
BRANCH   1   5
ATOM      5  C   UNL     1      14.772  27.941  37.433  1.00  0.00     0.036 C 
BRANCH   5   6
ATOM      6  C   UNL     1      14.311  29.070  38.375  1.00  0.00     0.136 C 
BRANCH   6   7
ATOM      7  C   UNL     1      12.949  29.589  37.973  1.00  0.00    -0.004 C 
ATOM      8  C   UNL     1      11.921  28.757  37.782  1.00  0.00     0.007 C 
ENDBRANCH   6   7
BRANCH   6   9
ATOM      9  O   UNL     1      14.292  28.634  39.711  1.00  0.00    -0.389 OA
ATOM     10  H   UNL     1      14.996  27.939  39.810  1.00  0.00     0.211 HD
ENDBRANCH   6   9
ENDBRANCH   5   6
ENDBRANCH   1   5
TORSDOF 6
ENDMDL
MODEL 7
REMARK VINA RESULT:    -3.627      1.890      3.011
REMARK INTER + INTRA:          -5.165
REMARK INTER:                  -4.593
REMARK INTRA:                  -0.572
REMARK UNBOUND:                -0.372
REMARK SMILES C=C[C@@H](O)CCCCC
REMARK SMILES IDX 6 1 7 2 8 3 9 4 5 5 3 6 2 7 1 8 4 9
REMARK H PARENT 4 10
REMARK Flexibility Score: inf
ROOT
ATOM      1  C   UNL     1       1.622  45.424  48.290  1.00  0.00     0.003 C 
ENDROOT
BRANCH   1   2
ATOM      2  C   UNL     1       0.588  46.506  47.946  1.00  0.00    -0.000 C 
BRANCH   2   3
ATOM      3  C   UNL     1      -0.852  46.068  48.255  1.00  0.00    -0.003 C 
ATOM      4  C   UNL     1      -1.034  44.551  48.191  1.00  0.00     0.004 C 
ENDBRANCH   2   3
ENDBRANCH   1   2
BRANCH   1   5
ATOM      5  C   UNL     1       2.192  45.637  49.699  1.00  0.00     0.036 C 
BRANCH   5   6
ATOM      6  C   UNL     1       1.924  44.424  50.612  1.00  0.00     0.136 C 
BRANCH   6   7
ATOM      7  C   UNL     1       0.668  44.628  51.428  1.00  0.00    -0.004 C 
ATOM      8  C   UNL     1      -0.114  43.597  51.761  1.00  0.00     0.007 C 
ENDBRANCH   6   7
BRANCH   6   9
ATOM      9  O   UNL     1       1.831  43.240  49.861  1.00  0.00    -0.389 OA
ATOM     10  H   UNL     1       1.023  42.751  50.170  1.00  0.00     0.211 HD
ENDBRANCH   6   9
ENDBRANCH   5   6
ENDBRANCH   1   5
TORSDOF 6
ENDMDL
MODEL 8
REMARK VINA RESULT:    -3.559      1.580      2.488
REMARK INTER + INTRA:          -5.075
REMARK INTER:                  -4.594
REMARK INTRA:                  -0.481
REMARK UNBOUND:                -0.372
REMARK SMILES C=C[C@@H](O)CCCCC
REMARK SMILES IDX 6 1 7 2 8 3 9 4 5 5 3 6 2 7 1 8 4 9
REMARK H PARENT 4 10
REMARK Flexibility Score: inf
ROOT
ATOM      1  C   UNL     1       2.255  45.579  50.228  1.00  0.00     0.003 C 
ENDROOT
BRANCH   1   2
ATOM      2  C   UNL     1       2.485  47.089  50.079  1.00  0.00    -0.000 C 
BRANCH   2   3
ATOM      3  C   UNL     1       3.228  47.449  48.783  1.00  0.00    -0.003 C 
ATOM      4  C   UNL     1       2.679  46.709  47.562  1.00  0.00     0.004 C 
ENDBRANCH   2   3
ENDBRANCH   1   2
BRANCH   1   5
ATOM      5  C   UNL     1       0.759  45.261  50.364  1.00  0.00     0.036 C 
BRANCH   5   6
ATOM      6  C   UNL     1       0.347  44.067  49.482  1.00  0.00     0.136 C 
BRANCH   6   7
ATOM      7  C   UNL     1      -0.806  44.435  48.576  1.00  0.00    -0.004 C 
ATOM      8  C   UNL     1      -0.846  45.616  47.954  1.00  0.00     0.007 C 
ENDBRANCH   6   7
BRANCH   6   9
ATOM      9  O   UNL     1       1.436  43.603  48.722  1.00  0.00    -0.389 OA
ATOM     10  H   UNL     1       1.675  44.317  48.074  1.00  0.00     0.211 HD
ENDBRANCH   6   9
ENDBRANCH   5   6
ENDBRANCH   1   5
TORSDOF 6
ENDMDL
