MODEL 1
REMARK VINA RESULT:    -3.721      0.000      0.000
REMARK INTER + INTRA:          -4.984
REMARK INTER:                  -4.809
REMARK INTRA:                  -0.175
REMARK UNBOUND:                -0.175
REMARK SMILES CCCCCCC(=O)[O-]
REMARK SMILES IDX 5 1 6 2 7 3 8 4 9 5 4 6 3 7 2 8 1 9
REMARK H PARENT
REMARK Flexibility Score: inf
ROOT
ATOM      1  C   UNL     1       1.721   4.337  29.054  1.00  0.00     0.006 C 
ENDROOT
BRANCH   1   2
ATOM      2  C   UNL     1       2.605   3.475  28.144  1.00  0.00     0.053 C 
BRANCH   2   3
ATOM      3  C   UNL     1       3.939   4.112  27.902  1.00  0.00     0.041 C 
ATOM      4  O   UNL     1       4.081   4.953  26.976  1.00  0.00    -0.550 OA
ATOM      5  O   UNL     1       5.016   3.802  28.721  1.00  0.00    -0.550 OA
ENDBRANCH   2   3
ENDBRANCH   1   2
BRANCH   1   6
ATOM      6  C   UNL     1       1.995   4.078  30.545  1.00  0.00     0.000 C 
BRANCH   6   7
ATOM      7  C   UNL     1       2.417   5.347  31.307  1.00  0.00    -0.000 C 
BRANCH   7   8
ATOM      8  C   UNL     1       1.324   5.952  32.207  1.00  0.00    -0.003 C 
ATOM      9  C   UNL     1       1.473   7.461  32.397  1.00  0.00     0.004 C 
ENDBRANCH   7   8
ENDBRANCH   6   7
ENDBRANCH   1   6
TORSDOF 5
ENDMDL
MODEL 2
REMARK VINA RESULT:    -3.592      1.179      2.116
REMARK INTER + INTRA:          -4.816
REMARK INTER:                  -4.371
REMARK INTRA:                  -0.444
REMARK UNBOUND:                -0.175
REMARK SMILES CCCCCCC(=O)[O-]
REMARK SMILES IDX 5 1 6 2 7 3 8 4 9 5 4 6 3 7 2 8 1 9
REMARK H PARENT
REMARK Flexibility Score: inf
ROOT
ATOM      1  C   UNL     1       1.473   4.283  29.070  1.00  0.00     0.006 C 
ENDROOT
BRANCH   1   2
ATOM      2  C   UNL     1       2.090   3.344  28.026  1.00  0.00     0.053 C 
BRANCH   2   3
ATOM      3  C   UNL     1       3.492   3.744  27.682  1.00  0.00     0.041 C 
ATOM      4  O   UNL     1       4.435   2.917  27.799  1.00  0.00    -0.550 OA
ATOM      5  O   UNL     1       3.752   5.019  27.199  1.00  0.00    -0.550 OA
ENDBRANCH   2   3
ENDBRANCH   1   2
BRANCH   1   6
ATOM      6  C   UNL     1       2.057   4.054  30.475  1.00  0.00     0.000 C 
BRANCH   6   7
ATOM      7  C   UNL     1       2.468   5.363  31.174  1.00  0.00    -0.000 C 
BRANCH   7   8
ATOM      8  C   UNL     1       3.778   5.986  30.658  1.00  0.00    -0.003 C 
ATOM      9  C   UNL     1       4.974   5.041  30.769  1.00  0.00     0.004 C 
ENDBRANCH   7   8
ENDBRANCH   6   7
ENDBRANCH   1   6
TORSDOF 5
ENDMDL
MODEL 3
REMARK VINA RESULT:    -3.576      3.119      4.957
REMARK INTER + INTRA:          -4.796
REMARK INTER:                  -4.624
REMARK INTRA:                  -0.171
REMARK UNBOUND:                -0.175
REMARK SMILES CCCCCCC(=O)[O-]
REMARK SMILES IDX 5 1 6 2 7 3 8 4 9 5 4 6 3 7 2 8 1 9
REMARK H PARENT
REMARK Flexibility Score: inf
ROOT
ATOM      1  C   UNL     1       2.403   5.290  31.212  1.00  0.00     0.006 C 
ENDROOT
BRANCH   1   2
ATOM      2  C   UNL     1       1.301   5.766  32.168  1.00  0.00     0.053 C 
BRANCH   2   3
ATOM      3  C   UNL     1       0.905   7.184  31.893  1.00  0.00     0.041 C 
ATOM      4  O   UNL     1      -0.073   7.435  31.140  1.00  0.00    -0.550 OA
ATOM      5  O   UNL     1       1.593   8.228  32.496  1.00  0.00    -0.550 OA
ENDBRANCH   2   3
ENDBRANCH   1   2
BRANCH   1   6
ATOM      6  C   UNL     1       2.049   3.955  30.536  1.00  0.00     0.000 C 
BRANCH   6   7
ATOM      7  C   UNL     1       1.466   4.133  29.123  1.00  0.00    -0.000 C 
BRANCH   7   8
ATOM      8  C   UNL     1       2.211   3.365  28.016  1.00  0.00    -0.003 C 
ATOM      9  C   UNL     1       3.705   3.682  27.969  1.00  0.00     0.004 C 
ENDBRANCH   7   8
ENDBRANCH   6   7
ENDBRANCH   1   6
TORSDOF 5
ENDMDL
MODEL 4
REMARK VINA RESULT:    -3.568      1.432      2.118
REMARK INTER + INTRA:          -4.786
REMARK INTER:                  -4.617
REMARK INTRA:                  -0.169
REMARK UNBOUND:                -0.175
REMARK SMILES CCCCCCC(=O)[O-]
REMARK SMILES IDX 5 1 6 2 7 3 8 4 9 5 4 6 3 7 2 8 1 9
REMARK H PARENT
REMARK Flexibility Score: inf
ROOT
ATOM      1  C   UNL     1       1.999   4.081  30.425  1.00  0.00     0.006 C 
ENDROOT
BRANCH   1   2
ATOM      2  C   UNL     1       1.294   4.237  29.072  1.00  0.00     0.053 C 
BRANCH   2   3
ATOM      3  C   UNL     1       1.994   3.469  27.992  1.00  0.00     0.041 C 
ATOM      4  O   UNL     1       3.238   3.281  28.051  1.00  0.00    -0.550 OA
ATOM      5  O   UNL     1       1.267   2.931  26.939  1.00  0.00    -0.550 OA
ENDBRANCH   2   3
ENDBRANCH   1   2
BRANCH   1   6
ATOM      6  C   UNL     1       2.341   5.439  31.062  1.00  0.00     0.000 C 
BRANCH   6   7
ATOM      7  C   UNL     1       1.322   5.875  32.130  1.00  0.00    -0.000 C 
BRANCH   7   8
ATOM      8  C   UNL     1       1.341   7.377  32.464  1.00  0.00    -0.003 C 
ATOM      9  C   UNL     1       2.393   8.153  31.673  1.00  0.00     0.004 C 
ENDBRANCH   7   8
ENDBRANCH   6   7
ENDBRANCH   1   6
TORSDOF 5
ENDMDL
MODEL 5
REMARK VINA RESULT:    -3.564      1.212      1.819
REMARK INTER + INTRA:          -4.781
REMARK INTER:                  -4.599
REMARK INTRA:                  -0.182
REMARK UNBOUND:                -0.175
REMARK SMILES CCCCCCC(=O)[O-]
REMARK SMILES IDX 5 1 6 2 7 3 8 4 9 5 4 6 3 7 2 8 1 9
REMARK H PARENT
REMARK Flexibility Score: inf
ROOT
ATOM      1  C   UNL     1       2.480   3.354  28.111  1.00  0.00     0.006 C 
ENDROOT
BRANCH   1   2
ATOM      2  C   UNL     1       3.903   3.896  27.920  1.00  0.00     0.053 C 
BRANCH   2   3
ATOM      3  C   UNL     1       3.942   5.004  26.913  1.00  0.00     0.041 C 
ATOM      4  O   UNL     1       4.011   6.203  27.292  1.00  0.00    -0.550 OA
ATOM      5  O   UNL     1       3.938   4.711  25.556  1.00  0.00    -0.550 OA
ENDBRANCH   2   3
ENDBRANCH   1   2
BRANCH   1   6
ATOM      6  C   UNL     1       1.647   4.232  29.059  1.00  0.00     0.000 C 
BRANCH   6   7
ATOM      7  C   UNL     1       1.999   4.016  30.542  1.00  0.00    -0.000 C 
BRANCH   7   8
ATOM      8  C   UNL     1       2.423   5.289  31.296  1.00  0.00    -0.003 C 
ATOM      9  C   UNL     1       1.307   5.871  32.163  1.00  0.00     0.004 C 
ENDBRANCH   7   8
ENDBRANCH   6   7
ENDBRANCH   1   6
TORSDOF 5
ENDMDL
MODEL 6
REMARK VINA RESULT:    -3.558     10.197     11.621
REMARK INTER + INTRA:          -4.773
REMARK INTER:                  -4.536
REMARK INTRA:                  -0.237
REMARK UNBOUND:                -0.175
REMARK SMILES CCCCCCC(=O)[O-]
REMARK SMILES IDX 5 1 6 2 7 3 8 4 9 5 4 6 3 7 2 8 1 9
REMARK H PARENT
REMARK Flexibility Score: inf
ROOT
ATOM      1  C   UNL     1      -6.638   3.862  23.112  1.00  0.00     0.006 C 
ENDROOT
BRANCH   1   2
ATOM      2  C   UNL     1      -6.020   2.623  23.773  1.00  0.00     0.053 C 
BRANCH   2   3
ATOM      3  C   UNL     1      -4.742   2.954  24.481  1.00  0.00     0.041 C 
ATOM      4  O   UNL     1      -4.642   4.019  25.145  1.00  0.00    -0.550 OA
ATOM      5  O   UNL     1      -3.674   2.068  24.437  1.00  0.00    -0.550 OA
ENDBRANCH   2   3
ENDBRANCH   1   2
BRANCH   1   6
ATOM      6  C   UNL     1      -7.513   3.498  21.901  1.00  0.00     0.000 C 
BRANCH   6   7
ATOM      7  C   UNL     1      -6.942   4.020  20.570  1.00  0.00    -0.000 C 
BRANCH   7   8
ATOM      8  C   UNL     1      -5.518   4.599  20.662  1.00  0.00    -0.003 C 
ATOM      9  C   UNL     1      -4.441   3.612  20.215  1.00  0.00     0.004 C 
ENDBRANCH   7   8
ENDBRANCH   6   7
ENDBRANCH   1   6
TORSDOF 5
ENDMDL
MODEL 7
REMARK VINA RESULT:    -3.525      9.966     11.425
REMARK INTER + INTRA:          -4.730
REMARK INTER:                  -4.470
REMARK INTRA:                  -0.260
REMARK UNBOUND:                -0.175
REMARK SMILES CCCCCCC(=O)[O-]
REMARK SMILES IDX 5 1 6 2 7 3 8 4 9 5 4 6 3 7 2 8 1 9
REMARK H PARENT
REMARK Flexibility Score: inf
ROOT
ATOM      1  C   UNL     1      -4.345   3.352  20.932  1.00  0.00     0.006 C 
ENDROOT
BRANCH   1   2
ATOM      2  C   UNL     1      -3.706   3.650  22.294  1.00  0.00     0.053 C 
BRANCH   2   3
ATOM      3  C   UNL     1      -4.339   2.847  23.389  1.00  0.00     0.041 C 
ATOM      4  O   UNL     1      -3.642   2.420  24.347  1.00  0.00    -0.550 OA
ATOM      5  O   UNL     1      -5.705   2.601  23.369  1.00  0.00    -0.550 OA
ENDBRANCH   2   3
ENDBRANCH   1   2
BRANCH   1   6
ATOM      6  C   UNL     1      -4.771   4.635  20.198  1.00  0.00     0.000 C 
BRANCH   6   7
ATOM      7  C   UNL     1      -3.786   5.047  19.088  1.00  0.00    -0.000 C 
BRANCH   7   8
ATOM      8  C   UNL     1      -3.233   6.478  19.217  1.00  0.00    -0.003 C 
ATOM      9  C   UNL     1      -2.390   6.683  20.475  1.00  0.00     0.004 C 
ENDBRANCH   7   8
ENDBRANCH   6   7
ENDBRANCH   1   6
TORSDOF 5
ENDMDL
MODEL 8
REMARK VINA RESULT:    -3.511      1.792      2.639
REMARK INTER + INTRA:          -4.711
REMARK INTER:                  -4.445
REMARK INTRA:                  -0.266
REMARK UNBOUND:                -0.175
REMARK SMILES CCCCCCC(=O)[O-]
REMARK SMILES IDX 5 1 6 2 7 3 8 4 9 5 4 6 3 7 2 8 1 9
REMARK H PARENT
REMARK Flexibility Score: inf
ROOT
ATOM      1  C   UNL     1       2.095   4.442  31.096  1.00  0.00     0.006 C 
ENDROOT
BRANCH   1   2
ATOM      2  C   UNL     1       3.564   4.845  30.921  1.00  0.00     0.053 C 
BRANCH   2   3
ATOM      3  C   UNL     1       4.075   4.495  29.556  1.00  0.00     0.041 C 
ATOM      4  O   UNL     1       3.324   4.603  28.551  1.00  0.00    -0.550 OA
ATOM      5  O   UNL     1       5.391   4.083  29.392  1.00  0.00    -0.550 OA
ENDBRANCH   2   3
ENDBRANCH   1   2
BRANCH   1   6
ATOM      6  C   UNL     1       1.253   5.570  31.715  1.00  0.00     0.000 C 
BRANCH   6   7
ATOM      7  C   UNL     1       0.494   6.399  30.663  1.00  0.00    -0.000 C 
BRANCH   7   8
ATOM      8  C   UNL     1       0.066   5.614  29.410  1.00  0.00    -0.003 C 
ATOM      9  C   UNL     1      -1.433   5.709  29.127  1.00  0.00     0.004 C 
ENDBRANCH   7   8
ENDBRANCH   6   7
ENDBRANCH   1   6
TORSDOF 5
ENDMDL
MODEL 9
REMARK VINA RESULT:    -3.455      2.442      4.471
REMARK INTER + INTRA:          -4.639
REMARK INTER:                  -4.374
REMARK INTRA:                  -0.265
REMARK UNBOUND:                -0.175
REMARK SMILES CCCCCCC(=O)[O-]
REMARK SMILES IDX 5 1 6 2 7 3 8 4 9 5 4 6 3 7 2 8 1 9
REMARK H PARENT
REMARK Flexibility Score: inf
ROOT
ATOM      1  C   UNL     1       1.622   4.261  29.096  1.00  0.00     0.006 C 
ENDROOT
BRANCH   1   2
ATOM      2  C   UNL     1       1.952   4.046  30.579  1.00  0.00     0.053 C 
BRANCH   2   3
ATOM      3  C   UNL     1       2.116   5.347  31.304  1.00  0.00     0.041 C 
ATOM      4  O   UNL     1       2.984   6.178  30.927  1.00  0.00    -0.550 OA
ATOM      5  O   UNL     1       1.287   5.655  32.374  1.00  0.00    -0.550 OA
ENDBRANCH   2   3
ENDBRANCH   1   2
BRANCH   1   6
ATOM      6  C   UNL     1       2.510   3.409  28.174  1.00  0.00     0.000 C 
BRANCH   6   7
ATOM      7  C   UNL     1       3.903   4.024  27.947  1.00  0.00    -0.000 C 
BRANCH   7   8
ATOM      8  C   UNL     1       3.894   5.406  27.269  1.00  0.00    -0.003 C 
ATOM      9  C   UNL     1       3.950   5.326  25.744  1.00  0.00     0.004 C 
ENDBRANCH   7   8
ENDBRANCH   6   7
ENDBRANCH   1   6
TORSDOF 5
ENDMDL
