MODEL 1
REMARK VINA RESULT:    -3.963      0.000      0.000
REMARK INTER + INTRA:          -5.540
REMARK INTER:                  -5.353
REMARK INTRA:                  -0.187
REMARK UNBOUND:                -0.187
REMARK SMILES CCCCCCCC(=O)[O-]
REMARK SMILES IDX 5 1 6 2 7 3 8 4 9 5 10 6 4 7 3 8 2 9 1 10
REMARK H PARENT
REMARK Flexibility Score: inf
ROOT
ATOM      1  C   UNL     1      11.028   9.157  -7.785  1.00  0.00     0.000 C 
ENDROOT
BRANCH   1   2
ATOM      2  C   UNL     1      11.052   8.075  -6.695  1.00  0.00     0.006 C 
BRANCH   2   3
ATOM      3  C   UNL     1      10.267   6.836  -7.135  1.00  0.00     0.053 C 
BRANCH   3   4
ATOM      4  C   UNL     1      11.008   5.588  -6.775  1.00  0.00     0.041 C 
ATOM      5  O   UNL     1      10.541   4.461  -7.087  1.00  0.00    -0.550 OA
ATOM      6  O   UNL     1      12.240   5.670  -6.139  1.00  0.00    -0.550 OA
ENDBRANCH   3   4
ENDBRANCH   2   3
ENDBRANCH   1   2
BRANCH   1   7
ATOM      7  C   UNL     1      12.003  10.309  -7.498  1.00  0.00     0.000 C 
BRANCH   7   8
ATOM      8  C   UNL     1      12.848  10.689  -8.723  1.00  0.00    -0.000 C 
BRANCH   8   9
ATOM      9  C   UNL     1      11.959  10.932  -9.948  1.00  0.00    -0.003 C 
ATOM     10  C   UNL     1      12.780  10.938 -11.234  1.00  0.00     0.004 C 
ENDBRANCH   8   9
ENDBRANCH   7   8
ENDBRANCH   1   7
TORSDOF 6
ENDMDL
MODEL 2
REMARK VINA RESULT:    -3.879      3.279      5.637
REMARK INTER + INTRA:          -5.427
REMARK INTER:                  -5.259
REMARK INTRA:                  -0.167
REMARK UNBOUND:                -0.187
REMARK SMILES CCCCCCCC(=O)[O-]
REMARK SMILES IDX 5 1 6 2 7 3 8 4 9 5 10 6 4 7 3 8 2 9 1 10
REMARK H PARENT
REMARK Flexibility Score: inf
ROOT
ATOM      1  C   UNL     1      10.399   8.319  -7.390  1.00  0.00     0.000 C 
ENDROOT
BRANCH   1   2
ATOM      2  C   UNL     1      11.530   9.352  -7.508  1.00  0.00     0.006 C 
BRANCH   2   3
ATOM      3  C   UNL     1      11.299  10.282  -8.703  1.00  0.00     0.053 C 
BRANCH   3   4
ATOM      4  C   UNL     1      12.590  10.892  -9.150  1.00  0.00     0.041 C 
ATOM      5  O   UNL     1      12.930  10.837 -10.362  1.00  0.00    -0.550 OA
ATOM      6  O   UNL     1      13.394  11.565  -8.240  1.00  0.00    -0.550 OA
ENDBRANCH   3   4
ENDBRANCH   2   3
ENDBRANCH   1   2
BRANCH   1   7
ATOM      7  C   UNL     1      10.866   6.999  -6.756  1.00  0.00     0.000 C 
BRANCH   7   8
ATOM      8  C   UNL     1      10.015   5.798  -7.195  1.00  0.00    -0.000 C 
BRANCH   8   9
ATOM      9  C   UNL     1      10.614   4.484  -6.677  1.00  0.00    -0.003 C 
ATOM     10  C   UNL     1      12.109   4.627  -6.410  1.00  0.00     0.004 C 
ENDBRANCH   8   9
ENDBRANCH   7   8
ENDBRANCH   1   7
TORSDOF 6
ENDMDL
MODEL 3
REMARK VINA RESULT:    -3.830      1.054      1.503
REMARK INTER + INTRA:          -5.360
REMARK INTER:                  -5.163
REMARK INTRA:                  -0.197
REMARK UNBOUND:                -0.187
REMARK SMILES CCCCCCCC(=O)[O-]
REMARK SMILES IDX 5 1 6 2 7 3 8 4 9 5 10 6 4 7 3 8 2 9 1 10
REMARK H PARENT
REMARK Flexibility Score: inf
ROOT
ATOM      1  C   UNL     1      11.353   7.805  -6.773  1.00  0.00     0.000 C 
ENDROOT
BRANCH   1   2
ATOM      2  C   UNL     1      10.055   7.012  -6.554  1.00  0.00     0.006 C 
BRANCH   2   3
ATOM      3  C   UNL     1      10.132   5.640  -7.229  1.00  0.00     0.053 C 
BRANCH   3   4
ATOM      4  C   UNL     1      10.960   4.698  -6.414  1.00  0.00     0.041 C 
ATOM      5  O   UNL     1      10.493   4.197  -5.356  1.00  0.00    -0.550 OA
ATOM      6  O   UNL     1      12.227   4.332  -6.848  1.00  0.00    -0.550 OA
ENDBRANCH   3   4
ENDBRANCH   2   3
ENDBRANCH   1   2
BRANCH   1   7
ATOM      7  C   UNL     1      11.112   9.321  -6.862  1.00  0.00     0.000 C 
BRANCH   7   8
ATOM      8  C   UNL     1      11.191   9.850  -8.301  1.00  0.00    -0.000 C 
BRANCH   8   9
ATOM      9  C   UNL     1      12.520  10.575  -8.546  1.00  0.00    -0.003 C 
ATOM     10  C   UNL     1      12.651  11.010 -10.003  1.00  0.00     0.004 C 
ENDBRANCH   8   9
ENDBRANCH   7   8
ENDBRANCH   1   7
TORSDOF 6
ENDMDL
MODEL 4
REMARK VINA RESULT:    -3.783     16.232     16.789
REMARK INTER + INTRA:          -5.297
REMARK INTER:                  -4.938
REMARK INTRA:                  -0.359
REMARK UNBOUND:                -0.187
REMARK SMILES CCCCCCCC(=O)[O-]
REMARK SMILES IDX 5 1 6 2 7 3 8 4 9 5 10 6 4 7 3 8 2 9 1 10
REMARK H PARENT
REMARK Flexibility Score: inf
ROOT
ATOM      1  C   UNL     1      25.493  -0.641  -9.724  1.00  0.00     0.000 C 
ENDROOT
BRANCH   1   2
ATOM      2  C   UNL     1      24.322  -1.480  -9.189  1.00  0.00     0.006 C 
BRANCH   2   3
ATOM      3  C   UNL     1      24.820  -2.804  -8.604  1.00  0.00     0.053 C 
BRANCH   3   4
ATOM      4  C   UNL     1      24.354  -3.955  -9.437  1.00  0.00     0.041 C 
ATOM      5  O   UNL     1      24.537  -3.950 -10.684  1.00  0.00    -0.550 OA
ATOM      6  O   UNL     1      23.764  -5.058  -8.833  1.00  0.00    -0.550 OA
ENDBRANCH   3   4
ENDBRANCH   2   3
ENDBRANCH   1   2
BRANCH   1   7
ATOM      7  C   UNL     1      25.572  -0.644 -11.259  1.00  0.00     0.000 C 
BRANCH   7   8
ATOM      8  C   UNL     1      24.187  -0.675 -11.923  1.00  0.00    -0.000 C 
BRANCH   8   9
ATOM      9  C   UNL     1      24.279  -0.273 -13.400  1.00  0.00    -0.003 C 
ATOM     10  C   UNL     1      24.711   1.183 -13.550  1.00  0.00     0.004 C 
ENDBRANCH   8   9
ENDBRANCH   7   8
ENDBRANCH   1   7
TORSDOF 6
ENDMDL
MODEL 5
REMARK VINA RESULT:    -3.740     16.435     16.903
REMARK INTER + INTRA:          -5.239
REMARK INTER:                  -5.009
REMARK INTRA:                  -0.230
REMARK UNBOUND:                -0.187
REMARK SMILES CCCCCCCC(=O)[O-]
REMARK SMILES IDX 5 1 6 2 7 3 8 4 9 5 10 6 4 7 3 8 2 9 1 10
REMARK H PARENT
REMARK Flexibility Score: inf
ROOT
ATOM      1  C   UNL     1      24.110  -1.433 -10.695  1.00  0.00     0.000 C 
ENDROOT
BRANCH   1   2
ATOM      2  C   UNL     1      24.552  -1.403  -9.224  1.00  0.00     0.006 C 
BRANCH   2   3
ATOM      3  C   UNL     1      25.673  -0.382  -9.010  1.00  0.00     0.053 C 
BRANCH   3   4
ATOM      4  C   UNL     1      26.812  -1.001  -8.264  1.00  0.00     0.041 C 
ATOM      5  O   UNL     1      27.588  -0.282  -7.581  1.00  0.00    -0.550 OA
ATOM      6  O   UNL     1      26.986  -2.379  -8.280  1.00  0.00    -0.550 OA
ENDBRANCH   3   4
ENDBRANCH   2   3
ENDBRANCH   1   2
BRANCH   1   7
ATOM      7  C   UNL     1      24.911  -0.460 -11.575  1.00  0.00     0.000 C 
BRANCH   7   8
ATOM      8  C   UNL     1      24.129  -0.000 -12.813  1.00  0.00    -0.000 C 
BRANCH   8   9
ATOM      9  C   UNL     1      24.802   1.212 -13.468  1.00  0.00    -0.003 C 
ATOM     10  C   UNL     1      25.230   0.900 -14.899  1.00  0.00     0.004 C 
ENDBRANCH   8   9
ENDBRANCH   7   8
ENDBRANCH   1   7
TORSDOF 6
ENDMDL
MODEL 6
REMARK VINA RESULT:    -3.601     16.373     17.301
REMARK INTER + INTRA:          -5.051
REMARK INTER:                  -4.781
REMARK INTRA:                  -0.270
REMARK UNBOUND:                -0.187
REMARK SMILES CCCCCCCC(=O)[O-]
REMARK SMILES IDX 5 1 6 2 7 3 8 4 9 5 10 6 4 7 3 8 2 9 1 10
REMARK H PARENT
REMARK Flexibility Score: inf
ROOT
ATOM      1  C   UNL     1      25.102  -0.572 -11.587  1.00  0.00     0.000 C 
ENDROOT
BRANCH   1   2
ATOM      2  C   UNL     1      24.100  -0.006 -12.605  1.00  0.00     0.006 C 
BRANCH   2   3
ATOM      3  C   UNL     1      24.743   1.092 -13.455  1.00  0.00     0.053 C 
BRANCH   3   4
ATOM      4  C   UNL     1      25.193   0.543 -14.772  1.00  0.00     0.041 C 
ATOM      5  O   UNL     1      24.864  -0.623 -15.117  1.00  0.00    -0.550 OA
ATOM      6  O   UNL     1      25.933   1.335 -15.640  1.00  0.00    -0.550 OA
ENDBRANCH   3   4
ENDBRANCH   2   3
ENDBRANCH   1   2
BRANCH   1   7
ATOM      7  C   UNL     1      24.491  -1.669 -10.701  1.00  0.00     0.000 C 
BRANCH   7   8
ATOM      8  C   UNL     1      24.588  -1.343  -9.204  1.00  0.00    -0.000 C 
BRANCH   8   9
ATOM      9  C   UNL     1      25.640  -0.257  -8.947  1.00  0.00    -0.003 C 
ATOM     10  C   UNL     1      26.822  -0.810  -8.157  1.00  0.00     0.004 C 
ENDBRANCH   8   9
ENDBRANCH   7   8
ENDBRANCH   1   7
TORSDOF 6
ENDMDL
MODEL 7
REMARK VINA RESULT:    -3.600     14.152     15.296
REMARK INTER + INTRA:          -5.050
REMARK INTER:                  -4.826
REMARK INTRA:                  -0.224
REMARK UNBOUND:                -0.187
REMARK SMILES CCCCCCCC(=O)[O-]
REMARK SMILES IDX 5 1 6 2 7 3 8 4 9 5 10 6 4 7 3 8 2 9 1 10
REMARK H PARENT
REMARK Flexibility Score: inf
ROOT
ATOM      1  C   UNL     1      21.911   9.145   3.061  1.00  0.00     0.000 C 
ENDROOT
BRANCH   1   2
ATOM      2  C   UNL     1      23.202   9.927   3.346  1.00  0.00     0.006 C 
BRANCH   2   3
ATOM      3  C   UNL     1      24.316   9.517   2.379  1.00  0.00     0.053 C 
BRANCH   3   4
ATOM      4  C   UNL     1      24.374  10.456   1.216  1.00  0.00     0.041 C 
ATOM      5  O   UNL     1      24.927  10.101   0.141  1.00  0.00    -0.550 OA
ATOM      6  O   UNL     1      23.774  11.706   1.301  1.00  0.00    -0.550 OA
ENDBRANCH   3   4
ENDBRANCH   2   3
ENDBRANCH   1   2
BRANCH   1   7
ATOM      7  C   UNL     1      20.695  10.063   2.861  1.00  0.00     0.000 C 
BRANCH   7   8
ATOM      8  C   UNL     1      19.391   9.440   3.383  1.00  0.00    -0.000 C 
BRANCH   8   9
ATOM      9  C   UNL     1      18.190  10.342   3.072  1.00  0.00    -0.003 C 
ATOM     10  C   UNL     1      18.069  10.601   1.573  1.00  0.00     0.004 C 
ENDBRANCH   8   9
ENDBRANCH   7   8
ENDBRANCH   1   7
TORSDOF 6
ENDMDL
MODEL 8
REMARK VINA RESULT:    -3.576     16.731     18.184
REMARK INTER + INTRA:          -5.017
REMARK INTER:                  -4.742
REMARK INTRA:                  -0.275
REMARK UNBOUND:                -0.187
REMARK SMILES CCCCCCCC(=O)[O-]
REMARK SMILES IDX 5 1 6 2 7 3 8 4 9 5 10 6 4 7 3 8 2 9 1 10
REMARK H PARENT
REMARK Flexibility Score: inf
ROOT
ATOM      1  C   UNL     1      24.917  -2.848  -7.875  1.00  0.00     0.000 C 
ENDROOT
BRANCH   1   2
ATOM      2  C   UNL     1      24.430  -1.787  -8.874  1.00  0.00     0.006 C 
BRANCH   2   3
ATOM      3  C   UNL     1      25.555  -0.809  -9.225  1.00  0.00     0.053 C 
BRANCH   3   4
ATOM      4  C   UNL     1      25.863  -0.865 -10.687  1.00  0.00     0.041 C 
ATOM      5  O   UNL     1      26.641  -1.747 -11.137  1.00  0.00    -0.550 OA
ATOM      6  O   UNL     1      25.251   0.025 -11.562  1.00  0.00    -0.550 OA
ENDBRANCH   3   4
ENDBRANCH   2   3
ENDBRANCH   1   2
BRANCH   1   7
ATOM      7  C   UNL     1      24.836  -4.275  -8.440  1.00  0.00     0.000 C 
BRANCH   7   8
ATOM      8  C   UNL     1      23.757  -4.423  -9.522  1.00  0.00    -0.000 C 
BRANCH   8   9
ATOM      9  C   UNL     1      22.994  -5.743  -9.358  1.00  0.00    -0.003 C 
ATOM     10  C   UNL     1      23.834  -6.928  -9.826  1.00  0.00     0.004 C 
ENDBRANCH   8   9
ENDBRANCH   7   8
ENDBRANCH   1   7
TORSDOF 6
ENDMDL
MODEL 9
REMARK VINA RESULT:    -3.566     13.600     14.519
REMARK INTER + INTRA:          -5.003
REMARK INTER:                  -4.787
REMARK INTRA:                  -0.217
REMARK UNBOUND:                -0.187
REMARK SMILES CCCCCCCC(=O)[O-]
REMARK SMILES IDX 5 1 6 2 7 3 8 4 9 5 10 6 4 7 3 8 2 9 1 10
REMARK H PARENT
REMARK Flexibility Score: inf
ROOT
ATOM      1  C   UNL     1      21.500   9.200   2.920  1.00  0.00     0.000 C 
ENDROOT
BRANCH   1   2
ATOM      2  C   UNL     1      20.558  10.319   2.451  1.00  0.00     0.006 C 
BRANCH   2   3
ATOM      3  C   UNL     1      19.107  10.007   2.826  1.00  0.00     0.053 C 
BRANCH   3   4
ATOM      4  C   UNL     1      18.164  10.836   2.013  1.00  0.00     0.041 C 
ATOM      5  O   UNL     1      17.958  12.042   2.316  1.00  0.00    -0.550 OA
ATOM      6  O   UNL     1      17.551  10.294   0.891  1.00  0.00    -0.550 OA
ENDBRANCH   3   4
ENDBRANCH   2   3
ENDBRANCH   1   2
BRANCH   1   7
ATOM      7  C   UNL     1      22.789   9.739   3.560  1.00  0.00     0.000 C 
BRANCH   7   8
ATOM      8  C   UNL     1      24.026   9.520   2.676  1.00  0.00    -0.000 C 
BRANCH   8   9
ATOM      9  C   UNL     1      24.182  10.659   1.661  1.00  0.00    -0.003 C 
ATOM     10  C   UNL     1      24.875  10.176   0.391  1.00  0.00     0.004 C 
ENDBRANCH   8   9
ENDBRANCH   7   8
ENDBRANCH   1   7
TORSDOF 6
ENDMDL
