MODEL 1
REMARK VINA RESULT:    -1.915      0.000      0.000
REMARK INTER + INTRA:          -4.991
REMARK INTER:                  -3.371
REMARK INTRA:                  -1.620
REMARK UNBOUND:                -1.620
REMARK SMILES CCCCCCCCCCCCCCC(=O)[O-]
REMARK SMILES IDX 9 1 10 2 11 3 12 4 13 5 14 6 15 7 16 8 17 9 8 10 7 11 6 12
REMARK SMILES IDX 5 13 4 14 3 15 2 16 1 17
REMARK H PARENT
REMARK Flexibility Score: inf
ROOT
ATOM      1  C   UNL     1     -16.609 -11.421  -9.881  1.00  0.00     0.000 C 
ENDROOT
BRANCH   1   2
ATOM      2  C   UNL     1     -16.075 -12.860  -9.994  1.00  0.00     0.000 C 
BRANCH   2   3
ATOM      3  C   UNL     1     -14.844 -12.961 -10.908  1.00  0.00     0.000 C 
BRANCH   3   4
ATOM      4  C   UNL     1     -13.589 -12.329 -10.279  1.00  0.00     0.000 C 
BRANCH   4   5
ATOM      5  C   UNL     1     -12.867 -11.370 -11.239  1.00  0.00     0.006 C 
BRANCH   5   6
ATOM      6  C   UNL     1     -13.639 -10.063 -11.458  1.00  0.00     0.053 C 
BRANCH   6   7
ATOM      7  C   UNL     1     -12.717  -8.889 -11.363  1.00  0.00     0.041 C 
ATOM      8  O   UNL     1     -11.473  -9.065 -11.290  1.00  0.00    -0.550 OA
ATOM      9  O   UNL     1     -13.229  -7.599 -11.404  1.00  0.00    -0.550 OA
ENDBRANCH   6   7
ENDBRANCH   5   6
ENDBRANCH   4   5
ENDBRANCH   3   4
ENDBRANCH   2   3
ENDBRANCH   1   2
BRANCH   1  10
ATOM     10  C   UNL     1     -17.462 -11.008 -11.091  1.00  0.00     0.000 C 
BRANCH  10  11
ATOM     11  C   UNL     1     -18.394 -12.136 -11.567  1.00  0.00    -0.000 C 
BRANCH  11  12
ATOM     12  C   UNL     1     -19.885 -11.786 -11.412  1.00  0.00    -0.000 C 
BRANCH  12  13
ATOM     13  C   UNL     1     -20.752 -12.884 -10.764  1.00  0.00    -0.000 C 
BRANCH  13  14
ATOM     14  C   UNL     1     -21.125 -12.638  -9.290  1.00  0.00    -0.000 C 
BRANCH  14  15
ATOM     15  C   UNL     1     -20.692 -11.269  -8.728  1.00  0.00    -0.000 C 
BRANCH  15  16
ATOM     16  C   UNL     1     -19.623 -11.332  -7.624  1.00  0.00    -0.003 C 
ATOM     17  C   UNL     1     -19.108 -12.748  -7.372  1.00  0.00     0.004 C 
ENDBRANCH  15  16
ENDBRANCH  14  15
ENDBRANCH  13  14
ENDBRANCH  12  13
ENDBRANCH  11  12
ENDBRANCH  10  11
ENDBRANCH   1  10
TORSDOF 13
ENDMDL
MODEL 2
REMARK VINA RESULT:    -1.864      2.650      4.867
REMARK INTER + INTRA:          -4.900
REMARK INTER:                  -4.177
REMARK INTRA:                  -0.723
REMARK UNBOUND:                -1.620
REMARK SMILES CCCCCCCCCCCCCCC(=O)[O-]
REMARK SMILES IDX 9 1 10 2 11 3 12 4 13 5 14 6 15 7 16 8 17 9 8 10 7 11 6 12
REMARK SMILES IDX 5 13 4 14 3 15 2 16 1 17
REMARK H PARENT
REMARK Flexibility Score: inf
ROOT
ATOM      1  C   UNL     1     -12.573  -9.700  -9.988  1.00  0.00     0.000 C 
ENDROOT
BRANCH   1   2
ATOM      2  C   UNL     1     -11.699  -8.972 -11.025  1.00  0.00     0.000 C 
BRANCH   2   3
ATOM      3  C   UNL     1     -12.533  -8.266 -12.105  1.00  0.00     0.000 C 
BRANCH   3   4
ATOM      4  C   UNL     1     -13.771  -7.559 -11.526  1.00  0.00     0.000 C 
BRANCH   4   5
ATOM      5  C   UNL     1     -13.970  -6.149 -12.104  1.00  0.00     0.006 C 
BRANCH   5   6
ATOM      6  C   UNL     1     -15.330  -5.545 -11.732  1.00  0.00     0.053 C 
BRANCH   6   7
ATOM      7  C   UNL     1     -15.276  -4.052 -11.806  1.00  0.00     0.041 C 
ATOM      8  O   UNL     1     -16.304  -3.395 -12.117  1.00  0.00    -0.550 OA
ATOM      9  O   UNL     1     -14.102  -3.383 -11.483  1.00  0.00    -0.550 OA
ENDBRANCH   6   7
ENDBRANCH   5   6
ENDBRANCH   4   5
ENDBRANCH   3   4
ENDBRANCH   2   3
ENDBRANCH   1   2
BRANCH   1  10
ATOM     10  C   UNL     1     -12.553 -11.227 -10.163  1.00  0.00     0.000 C 
BRANCH  10  11
ATOM     11  C   UNL     1     -13.221 -11.678 -11.473  1.00  0.00    -0.000 C 
BRANCH  11  12
ATOM     12  C   UNL     1     -14.620 -12.284 -11.253  1.00  0.00    -0.000 C 
BRANCH  12  13
ATOM     13  C   UNL     1     -15.678 -11.307 -10.703  1.00  0.00    -0.000 C 
BRANCH  13  14
ATOM     14  C   UNL     1     -16.736 -11.941  -9.779  1.00  0.00    -0.000 C 
BRANCH  14  15
ATOM     15  C   UNL     1     -18.124 -11.270  -9.821  1.00  0.00    -0.000 C 
BRANCH  15  16
ATOM     16  C   UNL     1     -18.853 -11.206  -8.469  1.00  0.00    -0.003 C 
ATOM     17  C   UNL     1     -18.934 -12.564  -7.771  1.00  0.00     0.004 C 
ENDBRANCH  15  16
ENDBRANCH  14  15
ENDBRANCH  13  14
ENDBRANCH  12  13
ENDBRANCH  11  12
ENDBRANCH  10  11
ENDBRANCH   1  10
TORSDOF 13
ENDMDL
MODEL 3
REMARK VINA RESULT:    -1.852      3.577      7.312
REMARK INTER + INTRA:          -4.879
REMARK INTER:                  -3.715
REMARK INTRA:                  -1.165
REMARK UNBOUND:                -1.620
REMARK SMILES CCCCCCCCCCCCCCC(=O)[O-]
REMARK SMILES IDX 9 1 10 2 11 3 12 4 13 5 14 6 15 7 16 8 17 9 8 10 7 11 6 12
REMARK SMILES IDX 5 13 4 14 3 15 2 16 1 17
REMARK H PARENT
REMARK Flexibility Score: inf
ROOT
ATOM      1  C   UNL     1     -16.813 -10.921 -10.254  1.00  0.00     0.000 C 
ENDROOT
BRANCH   1   2
ATOM      2  C   UNL     1     -18.104 -11.342  -9.529  1.00  0.00     0.000 C 
BRANCH   2   3
ATOM      3  C   UNL     1     -18.530 -12.778  -9.873  1.00  0.00     0.000 C 
BRANCH   3   4
ATOM      4  C   UNL     1     -20.035 -12.890 -10.178  1.00  0.00     0.000 C 
BRANCH   4   5
ATOM      5  C   UNL     1     -20.906 -12.231  -9.098  1.00  0.00     0.006 C 
BRANCH   5   6
ATOM      6  C   UNL     1     -20.957 -13.048  -7.800  1.00  0.00     0.053 C 
BRANCH   6   7
ATOM      7  C   UNL     1     -20.554 -12.203  -6.634  1.00  0.00     0.041 C 
ATOM      8  O   UNL     1     -20.329 -12.732  -5.515  1.00  0.00    -0.550 OA
ATOM      9  O   UNL     1     -20.379 -10.834  -6.797  1.00  0.00    -0.550 OA
ENDBRANCH   6   7
ENDBRANCH   5   6
ENDBRANCH   4   5
ENDBRANCH   3   4
ENDBRANCH   2   3
ENDBRANCH   1   2
BRANCH   1  10
ATOM     10  C   UNL     1     -16.061 -12.113 -10.867  1.00  0.00     0.000 C 
BRANCH  10  11
ATOM     11  C   UNL     1     -15.006 -12.699  -9.912  1.00  0.00    -0.000 C 
BRANCH  11  12
ATOM     12  C   UNL     1     -13.615 -12.819 -10.561  1.00  0.00    -0.000 C 
BRANCH  12  13
ATOM     13  C   UNL     1     -13.498 -12.220 -11.977  1.00  0.00    -0.000 C 
BRANCH  13  14
ATOM     14  C   UNL     1     -12.565 -11.000 -12.096  1.00  0.00    -0.000 C 
BRANCH  14  15
ATOM     15  C   UNL     1     -12.975  -9.780 -11.246  1.00  0.00    -0.000 C 
BRANCH  15  16
ATOM     16  C   UNL     1     -14.089  -8.913 -11.854  1.00  0.00    -0.003 C 
ATOM     17  C   UNL     1     -13.755  -7.422 -11.846  1.00  0.00     0.004 C 
ENDBRANCH  15  16
ENDBRANCH  14  15
ENDBRANCH  13  14
ENDBRANCH  12  13
ENDBRANCH  11  12
ENDBRANCH  10  11
ENDBRANCH   1  10
TORSDOF 13
ENDMDL
MODEL 4
REMARK VINA RESULT:    -1.762      2.181      3.144
REMARK INTER + INTRA:          -4.721
REMARK INTER:                  -3.820
REMARK INTRA:                  -0.901
REMARK UNBOUND:                -1.620
REMARK SMILES CCCCCCCCCCCCCCC(=O)[O-]
REMARK SMILES IDX 9 1 10 2 11 3 12 4 13 5 14 6 15 7 16 8 17 9 8 10 7 11 6 12
REMARK SMILES IDX 5 13 4 14 3 15 2 16 1 17
REMARK H PARENT
REMARK Flexibility Score: inf
ROOT
ATOM      1  C   UNL     1     -15.326 -11.440 -10.241  1.00  0.00     0.000 C 
ENDROOT
BRANCH   1   2
ATOM      2  C   UNL     1     -14.772 -10.786 -11.519  1.00  0.00     0.000 C 
BRANCH   2   3
ATOM      3  C   UNL     1     -13.557  -9.888 -11.241  1.00  0.00     0.000 C 
BRANCH   3   4
ATOM      4  C   UNL     1     -13.539  -8.628 -12.125  1.00  0.00     0.000 C 
BRANCH   4   5
ATOM      5  C   UNL     1     -14.690  -7.663 -11.799  1.00  0.00     0.006 C 
BRANCH   5   6
ATOM      6  C   UNL     1     -14.228  -6.202 -11.713  1.00  0.00     0.053 C 
BRANCH   6   7
ATOM      7  C   UNL     1     -15.402  -5.279 -11.790  1.00  0.00     0.041 C 
ATOM      8  O   UNL     1     -15.239  -4.036 -11.678  1.00  0.00    -0.550 OA
ATOM      9  O   UNL     1     -16.671  -5.788 -12.035  1.00  0.00    -0.550 OA
ENDBRANCH   6   7
ENDBRANCH   5   6
ENDBRANCH   4   5
ENDBRANCH   3   4
ENDBRANCH   2   3
ENDBRANCH   1   2
BRANCH   1  10
ATOM     10  C   UNL     1     -16.259 -12.625 -10.537  1.00  0.00     0.000 C 
BRANCH  10  11
ATOM     11  C   UNL     1     -17.204 -12.350 -11.720  1.00  0.00    -0.000 C 
BRANCH  11  12
ATOM     12  C   UNL     1     -18.492 -11.619 -11.298  1.00  0.00    -0.000 C 
BRANCH  12  13
ATOM     13  C   UNL     1     -19.681 -12.536 -10.946  1.00  0.00    -0.000 C 
BRANCH  13  14
ATOM     14  C   UNL     1     -20.173 -12.439  -9.489  1.00  0.00    -0.000 C 
BRANCH  14  15
ATOM     15  C   UNL     1     -19.076 -12.130  -8.450  1.00  0.00    -0.000 C 
BRANCH  15  16
ATOM     16  C   UNL     1     -19.271 -10.816  -7.675  1.00  0.00    -0.003 C 
ATOM     17  C   UNL     1     -20.728 -10.563  -7.288  1.00  0.00     0.004 C 
ENDBRANCH  15  16
ENDBRANCH  14  15
ENDBRANCH  13  14
ENDBRANCH  12  13
ENDBRANCH  11  12
ENDBRANCH  10  11
ENDBRANCH   1  10
TORSDOF 13
ENDMDL
MODEL 5
REMARK VINA RESULT:    -1.745      3.332      7.215
REMARK INTER + INTRA:          -4.691
REMARK INTER:                  -3.507
REMARK INTRA:                  -1.184
REMARK UNBOUND:                -1.620
REMARK SMILES CCCCCCCCCCCCCCC(=O)[O-]
REMARK SMILES IDX 9 1 10 2 11 3 12 4 13 5 14 6 15 7 16 8 17 9 8 10 7 11 6 12
REMARK SMILES IDX 5 13 4 14 3 15 2 16 1 17
REMARK H PARENT
REMARK Flexibility Score: inf
ROOT
ATOM      1  C   UNL     1     -17.135 -10.311 -11.857  1.00  0.00     0.000 C 
ENDROOT
BRANCH   1   2
ATOM      2  C   UNL     1     -18.002 -11.065 -10.832  1.00  0.00     0.000 C 
BRANCH   2   3
ATOM      3  C   UNL     1     -18.466 -12.436 -11.349  1.00  0.00     0.000 C 
BRANCH   3   4
ATOM      4  C   UNL     1     -19.454 -13.125 -10.390  1.00  0.00     0.000 C 
BRANCH   4   5
ATOM      5  C   UNL     1     -19.156 -12.816  -8.915  1.00  0.00     0.006 C 
BRANCH   5   6
ATOM      6  C   UNL     1     -20.431 -12.643  -8.079  1.00  0.00     0.053 C 
BRANCH   6   7
ATOM      7  C   UNL     1     -20.335 -11.416  -7.229  1.00  0.00     0.041 C 
ATOM      8  O   UNL     1     -19.664 -10.426  -7.619  1.00  0.00    -0.550 OA
ATOM      9  O   UNL     1     -21.027 -11.349  -6.026  1.00  0.00    -0.550 OA
ENDBRANCH   6   7
ENDBRANCH   5   6
ENDBRANCH   4   5
ENDBRANCH   3   4
ENDBRANCH   2   3
ENDBRANCH   1   2
BRANCH   1  10
ATOM     10  C   UNL     1     -15.701 -10.857 -11.936  1.00  0.00     0.000 C 
BRANCH  10  11
ATOM     11  C   UNL     1     -15.143 -11.251 -10.557  1.00  0.00    -0.000 C 
BRANCH  11  12
ATOM     12  C   UNL     1     -14.112 -12.392 -10.634  1.00  0.00    -0.000 C 
BRANCH  12  13
ATOM     13  C   UNL     1     -12.637 -11.944 -10.631  1.00  0.00    -0.000 C 
BRANCH  13  14
ATOM     14  C   UNL     1     -12.145 -11.307 -11.945  1.00  0.00    -0.000 C 
BRANCH  14  15
ATOM     15  C   UNL     1     -11.605  -9.869 -11.809  1.00  0.00    -0.000 C 
BRANCH  15  16
ATOM     16  C   UNL     1     -12.447  -8.943 -10.916  1.00  0.00    -0.003 C 
ATOM     17  C   UNL     1     -13.304  -7.962 -11.714  1.00  0.00     0.004 C 
ENDBRANCH  15  16
ENDBRANCH  14  15
ENDBRANCH  13  14
ENDBRANCH  12  13
ENDBRANCH  11  12
ENDBRANCH  10  11
ENDBRANCH   1  10
TORSDOF 13
ENDMDL
MODEL 6
REMARK VINA RESULT:    -1.690      3.572      6.976
REMARK INTER + INTRA:          -4.594
REMARK INTER:                  -3.818
REMARK INTRA:                  -0.776
REMARK UNBOUND:                -1.620
REMARK SMILES CCCCCCCCCCCCCCC(=O)[O-]
REMARK SMILES IDX 9 1 10 2 11 3 12 4 13 5 14 6 15 7 16 8 17 9 8 10 7 11 6 12
REMARK SMILES IDX 5 13 4 14 3 15 2 16 1 17
REMARK H PARENT
REMARK Flexibility Score: inf
ROOT
ATOM      1  C   UNL     1     -12.813  -9.754  -9.793  1.00  0.00     0.000 C 
ENDROOT
BRANCH   1   2
ATOM      2  C   UNL     1     -12.765 -11.293  -9.822  1.00  0.00     0.000 C 
BRANCH   2   3
ATOM      3  C   UNL     1     -13.271 -11.871 -11.153  1.00  0.00     0.000 C 
BRANCH   3   4
ATOM      4  C   UNL     1     -14.800 -11.761 -11.300  1.00  0.00     0.000 C 
BRANCH   4   5
ATOM      5  C   UNL     1     -15.511 -11.589  -9.949  1.00  0.00     0.006 C 
BRANCH   5   6
ATOM      6  C   UNL     1     -16.728 -12.512  -9.801  1.00  0.00     0.053 C 
BRANCH   6   7
ATOM      7  C   UNL     1     -17.996 -11.727  -9.911  1.00  0.00     0.041 C 
ATOM      8  O   UNL     1     -18.233 -10.790  -9.105  1.00  0.00    -0.550 OA
ATOM      9  O   UNL     1     -18.894 -11.999 -10.935  1.00  0.00    -0.550 OA
ENDBRANCH   6   7
ENDBRANCH   5   6
ENDBRANCH   4   5
ENDBRANCH   3   4
ENDBRANCH   2   3
ENDBRANCH   1   2
BRANCH   1  10
ATOM     10  C   UNL     1     -11.701  -9.109 -10.634  1.00  0.00     0.000 C 
BRANCH  10  11
ATOM     11  C   UNL     1     -12.178  -8.721 -12.044  1.00  0.00    -0.000 C 
BRANCH  11  12
ATOM     12  C   UNL     1     -13.651  -8.274 -12.075  1.00  0.00    -0.000 C 
BRANCH  12  13
ATOM     13  C   UNL     1     -13.874  -6.750 -11.997  1.00  0.00    -0.000 C 
BRANCH  13  14
ATOM     14  C   UNL     1     -15.341  -6.296 -12.125  1.00  0.00    -0.000 C 
BRANCH  14  15
ATOM     15  C   UNL     1     -15.629  -4.870 -11.614  1.00  0.00    -0.000 C 
BRANCH  15  16
ATOM     16  C   UNL     1     -14.385  -4.072 -11.189  1.00  0.00    -0.003 C 
ATOM     17  C   UNL     1     -14.078  -2.903 -12.125  1.00  0.00     0.004 C 
ENDBRANCH  15  16
ENDBRANCH  14  15
ENDBRANCH  13  14
ENDBRANCH  12  13
ENDBRANCH  11  12
ENDBRANCH  10  11
ENDBRANCH   1  10
TORSDOF 13
ENDMDL
MODEL 7
REMARK VINA RESULT:    -1.647      3.834      7.429
REMARK INTER + INTRA:          -4.519
REMARK INTER:                  -3.924
REMARK INTRA:                  -0.594
REMARK UNBOUND:                -1.620
REMARK SMILES CCCCCCCCCCCCCCC(=O)[O-]
REMARK SMILES IDX 9 1 10 2 11 3 12 4 13 5 14 6 15 7 16 8 17 9 8 10 7 11 6 12
REMARK SMILES IDX 5 13 4 14 3 15 2 16 1 17
REMARK H PARENT
REMARK Flexibility Score: inf
ROOT
ATOM      1  C   UNL     1     -16.527 -10.937 -10.460  1.00  0.00     0.000 C 
ENDROOT
BRANCH   1   2
ATOM      2  C   UNL     1     -17.388 -12.166 -10.808  1.00  0.00     0.000 C 
BRANCH   2   3
ATOM      3  C   UNL     1     -18.584 -12.334  -9.858  1.00  0.00     0.000 C 
BRANCH   3   4
ATOM      4  C   UNL     1     -18.195 -13.020  -8.536  1.00  0.00     0.000 C 
BRANCH   4   5
ATOM      5  C   UNL     1     -19.030 -12.523  -7.346  1.00  0.00     0.006 C 
BRANCH   5   6
ATOM      6  C   UNL     1     -20.413 -12.008  -7.769  1.00  0.00     0.053 C 
BRANCH   6   7
ATOM      7  C   UNL     1     -20.820 -10.847  -6.919  1.00  0.00     0.041 C 
ATOM      8  O   UNL     1     -20.956  -9.704  -7.429  1.00  0.00    -0.550 OA
ATOM      9  O   UNL     1     -21.096 -11.036  -5.570  1.00  0.00    -0.550 OA
ENDBRANCH   6   7
ENDBRANCH   5   6
ENDBRANCH   4   5
ENDBRANCH   3   4
ENDBRANCH   2   3
ENDBRANCH   1   2
BRANCH   1  10
ATOM     10  C   UNL     1     -16.501  -9.893 -11.586  1.00  0.00     0.000 C 
BRANCH  10  11
ATOM     11  C   UNL     1     -15.082  -9.641 -12.125  1.00  0.00    -0.000 C 
BRANCH  11  12
ATOM     12  C   UNL     1     -13.989  -9.892 -11.070  1.00  0.00    -0.000 C 
BRANCH  12  13
ATOM     13  C   UNL     1     -12.714  -9.040 -11.233  1.00  0.00    -0.000 C 
BRANCH  13  14
ATOM     14  C   UNL     1     -12.920  -7.681 -11.928  1.00  0.00    -0.000 C 
BRANCH  14  15
ATOM     15  C   UNL     1     -13.916  -6.735 -11.228  1.00  0.00    -0.000 C 
BRANCH  15  16
ATOM     16  C   UNL     1     -14.500  -5.631 -12.125  1.00  0.00    -0.003 C 
ATOM     17  C   UNL     1     -15.907  -5.206 -11.708  1.00  0.00     0.004 C 
ENDBRANCH  15  16
ENDBRANCH  14  15
ENDBRANCH  13  14
ENDBRANCH  12  13
ENDBRANCH  11  12
ENDBRANCH  10  11
ENDBRANCH   1  10
TORSDOF 13
ENDMDL
MODEL 8
REMARK VINA RESULT:    -1.452      1.501      2.149
REMARK INTER + INTRA:          -4.176
REMARK INTER:                  -3.877
REMARK INTRA:                  -0.298
REMARK UNBOUND:                -1.620
REMARK SMILES CCCCCCCCCCCCCCC(=O)[O-]
REMARK SMILES IDX 9 1 10 2 11 3 12 4 13 5 14 6 15 7 16 8 17 9 8 10 7 11 6 12
REMARK SMILES IDX 5 13 4 14 3 15 2 16 1 17
REMARK H PARENT
REMARK Flexibility Score: inf
ROOT
ATOM      1  C   UNL     1     -15.405 -11.422 -10.955  1.00  0.00     0.000 C 
ENDROOT
BRANCH   1   2
ATOM      2  C   UNL     1     -14.522 -12.591 -10.483  1.00  0.00     0.000 C 
BRANCH   2   3
ATOM      3  C   UNL     1     -13.023 -12.262 -10.554  1.00  0.00     0.000 C 
BRANCH   3   4
ATOM      4  C   UNL     1     -12.717 -11.115 -11.535  1.00  0.00     0.000 C 
BRANCH   4   5
ATOM      5  C   UNL     1     -12.474  -9.777 -10.820  1.00  0.00     0.006 C 
BRANCH   5   6
ATOM      6  C   UNL     1     -12.405  -8.592 -11.793  1.00  0.00     0.053 C 
BRANCH   6   7
ATOM      7  C   UNL     1     -13.751  -7.954 -11.933  1.00  0.00     0.041 C 
ATOM      8  O   UNL     1     -14.788  -8.665 -11.971  1.00  0.00    -0.550 OA
ATOM      9  O   UNL     1     -13.861  -6.570 -11.975  1.00  0.00    -0.550 OA
ENDBRANCH   6   7
ENDBRANCH   5   6
ENDBRANCH   4   5
ENDBRANCH   3   4
ENDBRANCH   2   3
ENDBRANCH   1   2
BRANCH   1  10
ATOM     10  C   UNL     1     -16.654 -11.892 -11.717  1.00  0.00     0.000 C 
BRANCH  10  11
ATOM     11  C   UNL     1     -17.950 -11.669 -10.919  1.00  0.00    -0.000 C 
BRANCH  11  12
ATOM     12  C   UNL     1     -17.727 -11.696  -9.396  1.00  0.00    -0.000 C 
BRANCH  12  13
ATOM     13  C   UNL     1     -18.356 -10.520  -8.621  1.00  0.00    -0.000 C 
BRANCH  13  14
ATOM     14  C   UNL     1     -19.668 -10.851  -7.883  1.00  0.00    -0.000 C 
BRANCH  14  15
ATOM     15  C   UNL     1     -20.432 -12.073  -8.430  1.00  0.00    -0.000 C 
BRANCH  15  16
ATOM     16  C   UNL     1     -20.813 -13.123  -7.373  1.00  0.00    -0.003 C 
ATOM     17  C   UNL     1     -20.183 -12.850  -6.007  1.00  0.00     0.004 C 
ENDBRANCH  15  16
ENDBRANCH  14  15
ENDBRANCH  13  14
ENDBRANCH  12  13
ENDBRANCH  11  12
ENDBRANCH  10  11
ENDBRANCH   1  10
TORSDOF 13
ENDMDL
MODEL 9
REMARK VINA RESULT:    -1.418      3.765      7.275
REMARK INTER + INTRA:          -4.116
REMARK INTER:                  -3.378
REMARK INTRA:                  -0.738
REMARK UNBOUND:                -1.620
REMARK SMILES CCCCCCCCCCCCCCC(=O)[O-]
REMARK SMILES IDX 9 1 10 2 11 3 12 4 13 5 14 6 15 7 16 8 17 9 8 10 7 11 6 12
REMARK SMILES IDX 5 13 4 14 3 15 2 16 1 17
REMARK H PARENT
REMARK Flexibility Score: inf
ROOT
ATOM      1  C   UNL     1     -16.321 -10.915  -9.916  1.00  0.00     0.000 C 
ENDROOT
BRANCH   1   2
ATOM      2  C   UNL     1     -17.806 -11.040  -9.531  1.00  0.00     0.000 C 
BRANCH   2   3
ATOM      3  C   UNL     1     -18.593 -11.930 -10.506  1.00  0.00     0.000 C 
BRANCH   3   4
ATOM      4  C   UNL     1     -19.594 -12.852  -9.786  1.00  0.00     0.000 C 
BRANCH   4   5
ATOM      5  C   UNL     1     -19.559 -12.683  -8.260  1.00  0.00     0.006 C 
BRANCH   5   6
ATOM      6  C   UNL     1     -20.960 -12.559  -7.647  1.00  0.00     0.053 C 
BRANCH   6   7
ATOM      7  C   UNL     1     -20.911 -11.751  -6.390  1.00  0.00     0.041 C 
ATOM      8  O   UNL     1     -20.730 -12.317  -5.280  1.00  0.00    -0.550 OA
ATOM      9  O   UNL     1     -21.016 -10.367  -6.449  1.00  0.00    -0.550 OA
ENDBRANCH   6   7
ENDBRANCH   5   6
ENDBRANCH   4   5
ENDBRANCH   3   4
ENDBRANCH   2   3
ENDBRANCH   1   2
BRANCH   1  10
ATOM     10  C   UNL     1     -15.963 -11.728 -11.170  1.00  0.00     0.000 C 
BRANCH  10  11
ATOM     11  C   UNL     1     -15.355 -13.100 -10.829  1.00  0.00    -0.000 C 
BRANCH  11  12
ATOM     12  C   UNL     1     -13.821 -13.125 -10.969  1.00  0.00    -0.000 C 
BRANCH  12  13
ATOM     13  C   UNL     1     -13.254 -12.269 -12.120  1.00  0.00    -0.000 C 
BRANCH  13  14
ATOM     14  C   UNL     1     -12.883 -10.823 -11.739  1.00  0.00    -0.000 C 
BRANCH  14  15
ATOM     15  C   UNL     1     -12.479 -10.622 -10.265  1.00  0.00    -0.000 C 
BRANCH  15  16
ATOM     16  C   UNL     1     -12.218  -9.162  -9.859  1.00  0.00    -0.003 C 
ATOM     17  C   UNL     1     -12.176  -8.963  -8.344  1.00  0.00     0.004 C 
ENDBRANCH  15  16
ENDBRANCH  14  15
ENDBRANCH  13  14
ENDBRANCH  12  13
ENDBRANCH  11  12
ENDBRANCH  10  11
ENDBRANCH   1  10
TORSDOF 13
ENDMDL
