MODEL 1
REMARK VINA RESULT:    -4.403      0.000      0.000
REMARK INTER + INTRA:          -5.769
REMARK INTER:                  -5.689
REMARK INTRA:                  -0.079
REMARK UNBOUND:                -0.079
REMARK SMILES CCCCCCC(=O)[O-]
REMARK SMILES IDX 5 1 6 2 7 3 8 4 9 5 4 6 3 7 2 8 1 9
REMARK H PARENT
REMARK Flexibility Score: inf
ROOT
ATOM      1  C   UNL     1       1.110   7.803  20.418  1.00  0.00     0.006 C 
ENDROOT
BRANCH   1   2
ATOM      2  C   UNL     1      -0.038   6.980  21.018  1.00  0.00     0.053 C 
BRANCH   2   3
ATOM      3  C   UNL     1       0.104   6.826  22.501  1.00  0.00     0.041 C 
ATOM      4  O   UNL     1       1.232   6.596  23.011  1.00  0.00    -0.550 OA
ATOM      5  O   UNL     1      -1.016   6.908  23.318  1.00  0.00    -0.550 OA
ENDBRANCH   2   3
ENDBRANCH   1   2
BRANCH   1   6
ATOM      6  C   UNL     1       0.696   8.520  19.122  1.00  0.00     0.000 C 
BRANCH   6   7
ATOM      7  C   UNL     1       1.903   8.993  18.296  1.00  0.00    -0.000 C 
BRANCH   7   8
ATOM      8  C   UNL     1       1.721   8.754  16.791  1.00  0.00    -0.003 C 
ATOM      9  C   UNL     1       1.228  10.017  16.090  1.00  0.00     0.004 C 
ENDBRANCH   7   8
ENDBRANCH   6   7
ENDBRANCH   1   6
TORSDOF 5
ENDMDL
MODEL 2
REMARK VINA RESULT:    -4.377      3.377      5.486
REMARK INTER + INTRA:          -5.736
REMARK INTER:                  -5.590
REMARK INTRA:                  -0.146
REMARK UNBOUND:                -0.079
REMARK SMILES CCCCCCC(=O)[O-]
REMARK SMILES IDX 5 1 6 2 7 3 8 4 9 5 4 6 3 7 2 8 1 9
REMARK H PARENT
REMARK Flexibility Score: inf
ROOT
ATOM      1  C   UNL     1       0.365   7.221  19.108  1.00  0.00     0.006 C 
ENDROOT
BRANCH   1   2
ATOM      2  C   UNL     1       1.091   8.544  18.830  1.00  0.00     0.053 C 
BRANCH   2   3
ATOM      3  C   UNL     1       1.480   8.672  17.389  1.00  0.00     0.041 C 
ATOM      4  O   UNL     1       1.681   9.807  16.883  1.00  0.00    -0.550 OA
ATOM      5  O   UNL     1       1.591   7.536  16.595  1.00  0.00    -0.550 OA
ENDBRANCH   2   3
ENDBRANCH   1   2
BRANCH   1   6
ATOM      6  C   UNL     1      -0.053   7.088  20.583  1.00  0.00     0.000 C 
BRANCH   6   7
ATOM      7  C   UNL     1       1.152   7.034  21.536  1.00  0.00    -0.000 C 
BRANCH   7   8
ATOM      8  C   UNL     1       0.756   6.669  22.973  1.00  0.00    -0.003 C 
ATOM      9  C   UNL     1      -0.758   6.734  23.159  1.00  0.00     0.004 C 
ENDBRANCH   7   8
ENDBRANCH   6   7
ENDBRANCH   1   6
TORSDOF 5
ENDMDL
MODEL 3
REMARK VINA RESULT:    -4.367      1.094      1.458
REMARK INTER + INTRA:          -5.723
REMARK INTER:                  -5.598
REMARK INTRA:                  -0.124
REMARK UNBOUND:                -0.079
REMARK SMILES CCCCCCC(=O)[O-]
REMARK SMILES IDX 5 1 6 2 7 3 8 4 9 5 4 6 3 7 2 8 1 9
REMARK H PARENT
REMARK Flexibility Score: inf
ROOT
ATOM      1  C   UNL     1       1.061   8.485  19.169  1.00  0.00     0.006 C 
ENDROOT
BRANCH   1   2
ATOM      2  C   UNL     1       0.179   7.394  19.791  1.00  0.00     0.053 C 
BRANCH   2   3
ATOM      3  C   UNL     1       0.582   7.090  21.201  1.00  0.00     0.041 C 
ATOM      4  O   UNL     1       1.797   7.110  21.533  1.00  0.00    -0.550 OA
ATOM      5  O   UNL     1      -0.383   6.753  22.142  1.00  0.00    -0.550 OA
ENDBRANCH   2   3
ENDBRANCH   1   2
BRANCH   1   6
ATOM      6  C   UNL     1       1.138   8.367  17.637  1.00  0.00     0.000 C 
BRANCH   6   7
ATOM      7  C   UNL     1       2.170   9.326  17.022  1.00  0.00    -0.000 C 
BRANCH   7   8
ATOM      8  C   UNL     1       1.522  10.417  16.158  1.00  0.00    -0.003 C 
ATOM      9  C   UNL     1       0.555   9.813  15.143  1.00  0.00     0.004 C 
ENDBRANCH   7   8
ENDBRANCH   6   7
ENDBRANCH   1   6
TORSDOF 5
ENDMDL
MODEL 4
REMARK VINA RESULT:    -4.130      4.202      5.637
REMARK INTER + INTRA:          -5.417
REMARK INTER:                  -5.304
REMARK INTRA:                  -0.113
REMARK UNBOUND:                -0.079
REMARK SMILES CCCCCCC(=O)[O-]
REMARK SMILES IDX 5 1 6 2 7 3 8 4 9 5 4 6 3 7 2 8 1 9
REMARK H PARENT
REMARK Flexibility Score: inf
ROOT
ATOM      1  C   UNL     1      -0.117   5.850  18.737  1.00  0.00     0.006 C 
ENDROOT
BRANCH   1   2
ATOM      2  C   UNL     1       0.042   5.757  17.214  1.00  0.00     0.053 C 
BRANCH   2   3
ATOM      3  C   UNL     1      -0.867   4.724  16.622  1.00  0.00     0.041 C 
ATOM      4  O   UNL     1      -1.010   3.606  17.183  1.00  0.00    -0.550 OA
ATOM      5  O   UNL     1      -1.535   4.986  15.432  1.00  0.00    -0.550 OA
ENDBRANCH   2   3
ENDBRANCH   1   2
BRANCH   1   6
ATOM      6  C   UNL     1       0.377   7.197  19.292  1.00  0.00     0.000 C 
BRANCH   6   7
ATOM      7  C   UNL     1       0.756   7.120  20.779  1.00  0.00    -0.000 C 
BRANCH   7   8
ATOM      8  C   UNL     1      -0.463   6.919  21.691  1.00  0.00    -0.003 C 
ATOM      9  C   UNL     1      -0.033   6.566  23.113  1.00  0.00     0.004 C 
ENDBRANCH   7   8
ENDBRANCH   6   7
ENDBRANCH   1   6
TORSDOF 5
ENDMDL
MODEL 5
REMARK VINA RESULT:    -3.968      0.797      1.469
REMARK INTER + INTRA:          -5.208
REMARK INTER:                  -5.021
REMARK INTRA:                  -0.187
REMARK UNBOUND:                -0.079
REMARK SMILES CCCCCCC(=O)[O-]
REMARK SMILES IDX 5 1 6 2 7 3 8 4 9 5 4 6 3 7 2 8 1 9
REMARK H PARENT
REMARK Flexibility Score: inf
ROOT
ATOM      1  C   UNL     1       1.004   6.999  20.560  1.00  0.00     0.006 C 
ENDROOT
BRANCH   1   2
ATOM      2  C   UNL     1      -0.361   7.006  21.259  1.00  0.00     0.053 C 
BRANCH   2   3
ATOM      3  C   UNL     1      -0.231   6.786  22.735  1.00  0.00     0.041 C 
ATOM      4  O   UNL     1      -1.229   6.932  23.490  1.00  0.00    -0.550 OA
ATOM      5  O   UNL     1       1.001   6.450  23.282  1.00  0.00    -0.550 OA
ENDBRANCH   2   3
ENDBRANCH   1   2
BRANCH   1   6
ATOM      6  C   UNL     1       1.469   8.415  20.177  1.00  0.00     0.000 C 
BRANCH   6   7
ATOM      7  C   UNL     1       0.886   8.885  18.835  1.00  0.00    -0.000 C 
BRANCH   7   8
ATOM      8  C   UNL     1       1.179   7.909  17.687  1.00  0.00    -0.003 C 
ATOM      9  C   UNL     1       1.988   8.586  16.584  1.00  0.00     0.004 C 
ENDBRANCH   7   8
ENDBRANCH   6   7
ENDBRANCH   1   6
TORSDOF 5
ENDMDL
MODEL 6
REMARK VINA RESULT:    -3.923      3.038      3.555
REMARK INTER + INTRA:          -5.149
REMARK INTER:                  -5.037
REMARK INTRA:                  -0.112
REMARK UNBOUND:                -0.079
REMARK SMILES CCCCCCC(=O)[O-]
REMARK SMILES IDX 5 1 6 2 7 3 8 4 9 5 4 6 3 7 2 8 1 9
REMARK H PARENT
REMARK Flexibility Score: inf
ROOT
ATOM      1  C   UNL     1       0.193   7.054  19.389  1.00  0.00     0.006 C 
ENDROOT
BRANCH   1   2
ATOM      2  C   UNL     1      -0.069   7.008  20.900  1.00  0.00     0.053 C 
BRANCH   2   3
ATOM      3  C   UNL     1       1.198   7.141  21.688  1.00  0.00     0.041 C 
ATOM      4  O   UNL     1       1.310   6.578  22.809  1.00  0.00    -0.550 OA
ATOM      5  O   UNL     1       2.244   7.912  21.198  1.00  0.00    -0.550 OA
ENDBRANCH   2   3
ENDBRANCH   1   2
BRANCH   1   6
ATOM      6  C   UNL     1       0.021   5.676  18.727  1.00  0.00     0.000 C 
BRANCH   6   7
ATOM      7  C   UNL     1       0.017   5.754  17.192  1.00  0.00    -0.000 C 
BRANCH   7   8
ATOM      8  C   UNL     1      -1.238   5.128  16.570  1.00  0.00    -0.003 C 
ATOM      9  C   UNL     1      -1.177   3.603  16.626  1.00  0.00     0.004 C 
ENDBRANCH   7   8
ENDBRANCH   6   7
ENDBRANCH   1   6
TORSDOF 5
ENDMDL
MODEL 7
REMARK VINA RESULT:    -3.710      6.904      7.705
REMARK INTER + INTRA:          -4.874
REMARK INTER:                  -4.540
REMARK INTRA:                  -0.334
REMARK UNBOUND:                -0.079
REMARK SMILES CCCCCCC(=O)[O-]
REMARK SMILES IDX 5 1 6 2 7 3 8 4 9 5 4 6 3 7 2 8 1 9
REMARK H PARENT
REMARK Flexibility Score: inf
ROOT
ATOM      1  C   UNL     1      -2.614   5.442  15.354  1.00  0.00     0.006 C 
ENDROOT
BRANCH   1   2
ATOM      2  C   UNL     1      -2.084   4.002  15.378  1.00  0.00     0.053 C 
BRANCH   2   3
ATOM      3  C   UNL     1      -1.296   3.720  16.620  1.00  0.00     0.041 C 
ATOM      4  O   UNL     1      -0.543   4.603  17.109  1.00  0.00    -0.550 OA
ATOM      5  O   UNL     1      -1.371   2.470  17.222  1.00  0.00    -0.550 OA
ENDBRANCH   2   3
ENDBRANCH   1   2
BRANCH   1   6
ATOM      6  C   UNL     1      -4.149   5.497  15.439  1.00  0.00     0.000 C 
BRANCH   6   7
ATOM      7  C   UNL     1      -4.794   4.103  15.400  1.00  0.00    -0.000 C 
BRANCH   7   8
ATOM      8  C   UNL     1      -5.521   3.749  16.705  1.00  0.00    -0.003 C 
ATOM      9  C   UNL     1      -5.032   2.415  17.262  1.00  0.00     0.004 C 
ENDBRANCH   7   8
ENDBRANCH   6   7
ENDBRANCH   1   6
TORSDOF 5
ENDMDL
MODEL 8
REMARK VINA RESULT:    -3.637      7.404      8.062
REMARK INTER + INTRA:          -4.780
REMARK INTER:                  -4.529
REMARK INTRA:                  -0.251
REMARK UNBOUND:                -0.079
REMARK SMILES CCCCCCC(=O)[O-]
REMARK SMILES IDX 5 1 6 2 7 3 8 4 9 5 4 6 3 7 2 8 1 9
REMARK H PARENT
REMARK Flexibility Score: inf
ROOT
ATOM      1  C   UNL     1      -4.241   3.098  16.496  1.00  0.00     0.006 C 
ENDROOT
BRANCH   1   2
ATOM      2  C   UNL     1      -3.216   3.995  15.789  1.00  0.00     0.053 C 
BRANCH   2   3
ATOM      3  C   UNL     1      -1.811   3.624  16.151  1.00  0.00     0.041 C 
ATOM      4  O   UNL     1      -1.584   2.609  16.861  1.00  0.00    -0.550 OA
ATOM      5  O   UNL     1      -0.751   4.417  15.727  1.00  0.00    -0.550 OA
ENDBRANCH   2   3
ENDBRANCH   1   2
BRANCH   1   6
ATOM      6  C   UNL     1      -5.458   3.893  17.000  1.00  0.00     0.000 C 
BRANCH   6   7
ATOM      7  C   UNL     1      -6.138   4.704  15.885  1.00  0.00    -0.000 C 
BRANCH   7   8
ATOM      8  C   UNL     1      -6.353   6.174  16.269  1.00  0.00    -0.003 C 
ATOM      9  C   UNL     1      -6.000   6.418  17.734  1.00  0.00     0.004 C 
ENDBRANCH   7   8
ENDBRANCH   6   7
ENDBRANCH   1   6
TORSDOF 5
ENDMDL
MODEL 9
REMARK VINA RESULT:    -3.514      7.029      7.730
REMARK INTER + INTRA:          -4.620
REMARK INTER:                  -4.317
REMARK INTRA:                  -0.303
REMARK UNBOUND:                -0.079
REMARK SMILES CCCCCCC(=O)[O-]
REMARK SMILES IDX 5 1 6 2 7 3 8 4 9 5 4 6 3 7 2 8 1 9
REMARK H PARENT
REMARK Flexibility Score: inf
ROOT
ATOM      1  C   UNL     1      -4.170   5.344  14.930  1.00  0.00     0.006 C 
ENDROOT
BRANCH   1   2
ATOM      2  C   UNL     1      -4.747   3.946  15.187  1.00  0.00     0.053 C 
BRANCH   2   3
ATOM      3  C   UNL     1      -5.258   3.805  16.588  1.00  0.00     0.041 C 
ATOM      4  O   UNL     1      -5.698   4.809  17.208  1.00  0.00    -0.550 OA
ATOM      5  O   UNL     1      -5.221   2.568  17.221  1.00  0.00    -0.550 OA
ENDBRANCH   2   3
ENDBRANCH   1   2
BRANCH   1   6
ATOM      6  C   UNL     1      -2.748   5.498  15.497  1.00  0.00     0.000 C 
BRANCH   6   7
ATOM      7  C   UNL     1      -1.914   4.215  15.359  1.00  0.00    -0.000 C 
BRANCH   7   8
ATOM      8  C   UNL     1      -1.117   3.886  16.629  1.00  0.00    -0.003 C 
ATOM      9  C   UNL     1      -1.471   2.498  17.157  1.00  0.00     0.004 C 
ENDBRANCH   7   8
ENDBRANCH   6   7
ENDBRANCH   1   6
TORSDOF 5
ENDMDL
