MODEL 1
REMARK VINA RESULT:    -5.027      0.000      0.000
REMARK INTER + INTRA:         -10.430
REMARK INTER:                  -9.141
REMARK INTRA:                  -1.289
REMARK UNBOUND:                -1.289
REMARK SMILES CCCCCCCCCCCCCC[C@H](C)C(=O)[O-]
REMARK SMILES IDX 9 1 10 2 11 3 12 4 13 5 14 6 15 7 16 8 17 9 18 10 19 11 8 12
REMARK SMILES IDX 7 13 6 14 5 15 4 16 3 17 2 18 1 19
REMARK H PARENT
REMARK Flexibility Score: inf
ROOT
ATOM      1  C   UNL     1       4.547  46.728  66.007  1.00  0.00     0.000 C 
ENDROOT
BRANCH   1   2
ATOM      2  C   UNL     1       4.885  47.326  64.628  1.00  0.00     0.000 C 
BRANCH   2   3
ATOM      3  C   UNL     1       5.312  48.809  64.682  1.00  0.00     0.000 C 
BRANCH   3   4
ATOM      4  C   UNL     1       5.380  49.347  66.122  1.00  0.00     0.000 C 
BRANCH   4   5
ATOM      5  C   UNL     1       6.822  49.442  66.648  1.00  0.00     0.001 C 
BRANCH   5   6
ATOM      6  C   UNL     1       6.937  49.067  68.136  1.00  0.00     0.009 C 
BRANCH   6   7
ATOM      7  C   UNL     1       7.259  47.571  68.334  1.00  0.00     0.032 C 
ATOM      8  C   UNL     1       6.392  46.974  69.448  1.00  0.00     0.014 C 
BRANCH   7   9
ATOM      9  C   UNL     1       8.716  47.358  68.649  1.00  0.00     0.044 C 
ATOM     10  O   UNL     1       9.480  46.807  67.811  1.00  0.00    -0.550 OA
ATOM     11  O   UNL     1       9.228  47.776  69.872  1.00  0.00    -0.550 OA
ENDBRANCH   7   9
ENDBRANCH   6   7
ENDBRANCH   5   6
ENDBRANCH   4   5
ENDBRANCH   3   4
ENDBRANCH   2   3
ENDBRANCH   1   2
BRANCH   1  12
ATOM     12  C   UNL     1       3.339  45.771  66.022  1.00  0.00     0.000 C 
BRANCH  12  13
ATOM     13  C   UNL     1       3.590  44.403  65.361  1.00  0.00    -0.000 C 
BRANCH  13  14
ATOM     14  C   UNL     1       3.191  43.224  66.265  1.00  0.00    -0.000 C 
BRANCH  14  15
ATOM     15  C   UNL     1       2.496  43.678  67.558  1.00  0.00    -0.000 C 
BRANCH  15  16
ATOM     16  C   UNL     1       3.122  43.050  68.814  1.00  0.00    -0.000 C 
BRANCH  16  17
ATOM     17  C   UNL     1       2.314  43.328  70.094  1.00  0.00    -0.000 C 
BRANCH  17  18
ATOM     18  C   UNL     1       3.158  43.664  71.336  1.00  0.00    -0.003 C 
ATOM     19  C   UNL     1       4.663  43.645  71.063  1.00  0.00     0.004 C 
ENDBRANCH  17  18
ENDBRANCH  16  17
ENDBRANCH  15  16
ENDBRANCH  14  15
ENDBRANCH  13  14
ENDBRANCH  12  13
ENDBRANCH   1  12
TORSDOF 14
ENDMDL
MODEL 2
REMARK VINA RESULT:    -4.995      2.180      5.920
REMARK INTER + INTRA:         -10.372
REMARK INTER:                  -8.987
REMARK INTRA:                  -1.385
REMARK UNBOUND:                -1.289
REMARK SMILES CCCCCCCCCCCCCC[C@H](C)C(=O)[O-]
REMARK SMILES IDX 9 1 10 2 11 3 12 4 13 5 14 6 15 7 16 8 17 9 18 10 19 11 8 12
REMARK SMILES IDX 7 13 6 14 5 15 4 16 3 17 2 18 1 19
REMARK H PARENT
REMARK Flexibility Score: inf
ROOT
ATOM      1  C   UNL     1       3.916  46.681  65.377  1.00  0.00     0.000 C 
ENDROOT
BRANCH   1   2
ATOM      2  C   UNL     1       3.663  45.279  64.793  1.00  0.00     0.000 C 
BRANCH   2   3
ATOM      3  C   UNL     1       3.264  44.227  65.851  1.00  0.00     0.000 C 
BRANCH   3   4
ATOM      4  C   UNL     1       3.277  44.798  67.279  1.00  0.00     0.000 C 
BRANCH   4   5
ATOM      5  C   UNL     1       2.451  43.950  68.260  1.00  0.00     0.001 C 
BRANCH   5   6
ATOM      6  C   UNL     1       3.314  42.952  69.054  1.00  0.00     0.009 C 
BRANCH   6   7
ATOM      7  C   UNL     1       3.023  43.010  70.568  1.00  0.00     0.032 C 
ATOM      8  C   UNL     1       1.553  43.363  70.823  1.00  0.00     0.014 C 
BRANCH   7   9
ATOM      9  C   UNL     1       3.917  44.004  71.263  1.00  0.00     0.044 C 
ATOM     10  O   UNL     1       3.629  44.430  72.414  1.00  0.00    -0.550 OA
ATOM     11  O   UNL     1       5.071  44.454  70.635  1.00  0.00    -0.550 OA
ENDBRANCH   7   9
ENDBRANCH   6   7
ENDBRANCH   5   6
ENDBRANCH   4   5
ENDBRANCH   3   4
ENDBRANCH   2   3
ENDBRANCH   1   2
BRANCH   1  12
ATOM     12  C   UNL     1       5.075  47.459  64.725  1.00  0.00     0.000 C 
BRANCH  12  13
ATOM     13  C   UNL     1       4.801  48.958  64.501  1.00  0.00    -0.000 C 
BRANCH  13  14
ATOM     14  C   UNL     1       5.265  49.829  65.681  1.00  0.00    -0.000 C 
BRANCH  14  15
ATOM     15  C   UNL     1       6.781  49.744  65.921  1.00  0.00    -0.000 C 
BRANCH  15  16
ATOM     16  C   UNL     1       7.125  49.265  67.341  1.00  0.00    -0.000 C 
BRANCH  16  17
ATOM     17  C   UNL     1       5.894  48.789  68.132  1.00  0.00    -0.000 C 
BRANCH  17  18
ATOM     18  C   UNL     1       6.054  47.426  68.828  1.00  0.00    -0.003 C 
ATOM     19  C   UNL     1       7.035  47.461  70.000  1.00  0.00     0.004 C 
ENDBRANCH  17  18
ENDBRANCH  16  17
ENDBRANCH  15  16
ENDBRANCH  14  15
ENDBRANCH  13  14
ENDBRANCH  12  13
ENDBRANCH   1  12
TORSDOF 14
ENDMDL
MODEL 3
REMARK VINA RESULT:    -4.911     11.455     13.619
REMARK INTER + INTRA:         -10.220
REMARK INTER:                  -7.977
REMARK INTRA:                  -2.243
REMARK UNBOUND:                -1.289
REMARK SMILES CCCCCCCCCCCCCC[C@H](C)C(=O)[O-]
REMARK SMILES IDX 9 1 10 2 11 3 12 4 13 5 14 6 15 7 16 8 17 9 18 10 19 11 8 12
REMARK SMILES IDX 7 13 6 14 5 15 4 16 3 17 2 18 1 19
REMARK H PARENT
REMARK Flexibility Score: inf
ROOT
ATOM      1  C   UNL     1       2.410  35.656  70.536  1.00  0.00     0.000 C 
ENDROOT
BRANCH   1   2
ATOM      2  C   UNL     1       1.683  34.561  69.733  1.00  0.00     0.000 C 
BRANCH   2   3
ATOM      3  C   UNL     1       2.281  34.320  68.330  1.00  0.00     0.000 C 
BRANCH   3   4
ATOM      4  C   UNL     1       2.429  32.824  68.004  1.00  0.00     0.000 C 
BRANCH   4   5
ATOM      5  C   UNL     1       3.885  32.340  68.106  1.00  0.00     0.001 C 
BRANCH   5   6
ATOM      6  C   UNL     1       4.878  33.300  67.426  1.00  0.00     0.009 C 
BRANCH   6   7
ATOM      7  C   UNL     1       6.195  32.593  67.038  1.00  0.00     0.032 C 
ATOM      8  C   UNL     1       6.307  31.236  67.742  1.00  0.00     0.014 C 
BRANCH   7   9
ATOM      9  C   UNL     1       7.393  33.443  67.369  1.00  0.00     0.044 C 
ATOM     10  O   UNL     1       7.337  34.698  67.269  1.00  0.00    -0.550 OA
ATOM     11  O   UNL     1       8.572  32.841  67.792  1.00  0.00    -0.550 OA
ENDBRANCH   7   9
ENDBRANCH   6   7
ENDBRANCH   5   6
ENDBRANCH   4   5
ENDBRANCH   3   4
ENDBRANCH   2   3
ENDBRANCH   1   2
BRANCH   1  12
ATOM     12  C   UNL     1       3.759  35.228  71.146  1.00  0.00     0.000 C 
BRANCH  12  13
ATOM     13  C   UNL     1       5.000  35.721  70.377  1.00  0.00    -0.000 C 
BRANCH  13  14
ATOM     14  C   UNL     1       6.227  34.819  70.590  1.00  0.00    -0.000 C 
BRANCH  14  15
ATOM     15  C   UNL     1       5.857  33.437  71.151  1.00  0.00    -0.000 C 
BRANCH  15  16
ATOM     16  C   UNL     1       7.022  32.437  71.067  1.00  0.00    -0.000 C 
BRANCH  16  17
ATOM     17  C   UNL     1       7.202  31.611  72.353  1.00  0.00    -0.000 C 
BRANCH  17  18
ATOM     18  C   UNL     1       7.178  32.428  73.658  1.00  0.00    -0.003 C 
ATOM     19  C   UNL     1       8.509  33.118  73.959  1.00  0.00     0.004 C 
ENDBRANCH  17  18
ENDBRANCH  16  17
ENDBRANCH  15  16
ENDBRANCH  14  15
ENDBRANCH  13  14
ENDBRANCH  12  13
ENDBRANCH   1  12
TORSDOF 14
ENDMDL
MODEL 4
REMARK VINA RESULT:    -4.910      2.371      6.014
REMARK INTER + INTRA:         -10.218
REMARK INTER:                  -9.231
REMARK INTRA:                  -0.987
REMARK UNBOUND:                -1.289
REMARK SMILES CCCCCCCCCCCCCC[C@H](C)C(=O)[O-]
REMARK SMILES IDX 9 1 10 2 11 3 12 4 13 5 14 6 15 7 16 8 17 9 18 10 19 11 8 12
REMARK SMILES IDX 7 13 6 14 5 15 4 16 3 17 2 18 1 19
REMARK H PARENT
REMARK Flexibility Score: inf
ROOT
ATOM      1  C   UNL     1       3.342  45.524  64.588  1.00  0.00     0.000 C 
ENDROOT
BRANCH   1   2
ATOM      2  C   UNL     1       3.678  44.118  64.057  1.00  0.00     0.000 C 
BRANCH   2   3
ATOM      3  C   UNL     1       3.375  42.986  65.062  1.00  0.00     0.000 C 
BRANCH   3   4
ATOM      4  C   UNL     1       2.657  43.497  66.323  1.00  0.00     0.000 C 
BRANCH   4   5
ATOM      5  C   UNL     1       3.232  42.893  67.614  1.00  0.00     0.001 C 
BRANCH   5   6
ATOM      6  C   UNL     1       3.120  43.847  68.817  1.00  0.00     0.009 C 
BRANCH   6   7
ATOM      7  C   UNL     1       2.927  43.085  70.146  1.00  0.00     0.032 C 
ATOM      8  C   UNL     1       1.519  43.322  70.704  1.00  0.00     0.014 C 
BRANCH   7   9
ATOM      9  C   UNL     1       3.958  43.489  71.167  1.00  0.00     0.044 C 
ATOM     10  O   UNL     1       3.672  44.317  72.073  1.00  0.00    -0.550 OA
ATOM     11  O   UNL     1       5.234  42.943  71.115  1.00  0.00    -0.550 OA
ENDBRANCH   7   9
ENDBRANCH   6   7
ENDBRANCH   5   6
ENDBRANCH   4   5
ENDBRANCH   3   4
ENDBRANCH   2   3
ENDBRANCH   1   2
BRANCH   1  12
ATOM     12  C   UNL     1       4.070  46.680  63.875  1.00  0.00     0.000 C 
BRANCH  12  13
ATOM     13  C   UNL     1       5.231  47.302  64.674  1.00  0.00    -0.000 C 
BRANCH  13  14
ATOM     14  C   UNL     1       4.747  48.269  65.768  1.00  0.00    -0.000 C 
BRANCH  14  15
ATOM     15  C   UNL     1       5.907  48.946  66.515  1.00  0.00    -0.000 C 
BRANCH  15  16
ATOM     16  C   UNL     1       5.946  48.569  68.006  1.00  0.00    -0.000 C 
BRANCH  16  17
ATOM     17  C   UNL     1       7.072  47.576  68.346  1.00  0.00    -0.000 C 
BRANCH  17  18
ATOM     18  C   UNL     1       8.207  47.499  67.309  1.00  0.00    -0.003 C 
ATOM     19  C   UNL     1       9.412  46.694  67.795  1.00  0.00     0.004 C 
ENDBRANCH  17  18
ENDBRANCH  16  17
ENDBRANCH  15  16
ENDBRANCH  14  15
ENDBRANCH  13  14
ENDBRANCH  12  13
ENDBRANCH   1  12
TORSDOF 14
ENDMDL
MODEL 5
REMARK VINA RESULT:    -4.865     12.117     13.930
REMARK INTER + INTRA:         -10.135
REMARK INTER:                  -7.658
REMARK INTRA:                  -2.477
REMARK UNBOUND:                -1.289
REMARK SMILES CCCCCCCCCCCCCC[C@H](C)C(=O)[O-]
REMARK SMILES IDX 9 1 10 2 11 3 12 4 13 5 14 6 15 7 16 8 17 9 18 10 19 11 8 12
REMARK SMILES IDX 7 13 6 14 5 15 4 16 3 17 2 18 1 19
REMARK H PARENT
REMARK Flexibility Score: inf
ROOT
ATOM      1  C   UNL     1       5.104  32.535  70.957  1.00  0.00     0.000 C 
ENDROOT
BRANCH   1   2
ATOM      2  C   UNL     1       6.592  32.541  71.354  1.00  0.00     0.000 C 
BRANCH   2   3
ATOM      3  C   UNL     1       7.356  33.797  70.883  1.00  0.00     0.000 C 
BRANCH   3   4
ATOM      4  C   UNL     1       6.714  34.444  69.644  1.00  0.00     0.000 C 
BRANCH   4   5
ATOM      5  C   UNL     1       7.700  34.580  68.472  1.00  0.00     0.001 C 
BRANCH   5   6
ATOM      6  C   UNL     1       7.684  33.358  67.537  1.00  0.00     0.009 C 
BRANCH   6   7
ATOM      7  C   UNL     1       8.617  32.234  68.036  1.00  0.00     0.032 C 
ATOM      8  C   UNL     1       9.809  32.061  67.088  1.00  0.00     0.014 C 
BRANCH   7   9
ATOM      9  C   UNL     1       7.880  30.928  68.176  1.00  0.00     0.044 C 
ATOM     10  O   UNL     1       8.131  30.149  69.135  1.00  0.00    -0.550 OA
ATOM     11  O   UNL     1       6.911  30.577  67.244  1.00  0.00    -0.550 OA
ENDBRANCH   7   9
ENDBRANCH   6   7
ENDBRANCH   5   6
ENDBRANCH   4   5
ENDBRANCH   3   4
ENDBRANCH   2   3
ENDBRANCH   1   2
BRANCH   1  12
ATOM     12  C   UNL     1       4.687  31.389  70.015  1.00  0.00     0.000 C 
BRANCH  12  13
ATOM     13  C   UNL     1       3.610  31.763  68.980  1.00  0.00    -0.000 C 
BRANCH  13  14
ATOM     14  C   UNL     1       4.121  32.759  67.925  1.00  0.00    -0.000 C 
BRANCH  14  15
ATOM     15  C   UNL     1       3.217  33.994  67.789  1.00  0.00    -0.000 C 
BRANCH  15  16
ATOM     16  C   UNL     1       2.125  34.045  68.869  1.00  0.00    -0.000 C 
BRANCH  16  17
ATOM     17  C   UNL     1       2.133  35.358  69.673  1.00  0.00    -0.000 C 
BRANCH  17  18
ATOM     18  C   UNL     1       3.469  35.689  70.363  1.00  0.00    -0.003 C 
ATOM     19  C   UNL     1       3.360  35.747  71.887  1.00  0.00     0.004 C 
ENDBRANCH  17  18
ENDBRANCH  16  17
ENDBRANCH  15  16
ENDBRANCH  14  15
ENDBRANCH  13  14
ENDBRANCH  12  13
ENDBRANCH   1  12
TORSDOF 14
ENDMDL
MODEL 6
REMARK VINA RESULT:    -4.841     11.516     13.376
REMARK INTER + INTRA:         -10.091
REMARK INTER:                  -8.173
REMARK INTRA:                  -1.918
REMARK UNBOUND:                -1.289
REMARK SMILES CCCCCCCCCCCCCC[C@H](C)C(=O)[O-]
REMARK SMILES IDX 9 1 10 2 11 3 12 4 13 5 14 6 15 7 16 8 17 9 18 10 19 11 8 12
REMARK SMILES IDX 7 13 6 14 5 15 4 16 3 17 2 18 1 19
REMARK H PARENT
REMARK Flexibility Score: inf
ROOT
ATOM      1  C   UNL     1       3.780  35.804  71.345  1.00  0.00     0.000 C 
ENDROOT
BRANCH   1   2
ATOM      2  C   UNL     1       4.714  34.875  70.546  1.00  0.00     0.000 C 
BRANCH   2   3
ATOM      3  C   UNL     1       4.839  33.457  71.144  1.00  0.00     0.000 C 
BRANCH   3   4
ATOM      4  C   UNL     1       6.250  33.170  71.684  1.00  0.00     0.000 C 
BRANCH   4   5
ATOM      5  C   UNL     1       7.354  33.593  70.702  1.00  0.00     0.001 C 
BRANCH   5   6
ATOM      6  C   UNL     1       7.526  32.600  69.538  1.00  0.00     0.009 C 
BRANCH   6   7
ATOM      7  C   UNL     1       8.129  33.272  68.286  1.00  0.00     0.032 C 
ATOM      8  C   UNL     1       7.139  34.276  67.683  1.00  0.00     0.014 C 
BRANCH   7   9
ATOM      9  C   UNL     1       8.522  32.253  67.249  1.00  0.00     0.044 C 
ATOM     10  O   UNL     1       9.734  32.067  66.960  1.00  0.00    -0.550 OA
ATOM     11  O   UNL     1       7.542  31.508  66.605  1.00  0.00    -0.550 OA
ENDBRANCH   7   9
ENDBRANCH   6   7
ENDBRANCH   5   6
ENDBRANCH   4   5
ENDBRANCH   3   4
ENDBRANCH   2   3
ENDBRANCH   1   2
BRANCH   1  12
ATOM     12  C   UNL     1       2.290  35.714  70.962  1.00  0.00     0.000 C 
BRANCH  12  13
ATOM     13  C   UNL     1       1.942  36.306  69.583  1.00  0.00    -0.000 C 
BRANCH  13  14
ATOM     14  C   UNL     1       0.520  35.943  69.122  1.00  0.00    -0.000 C 
BRANCH  14  15
ATOM     15  C   UNL     1       0.312  34.427  68.982  1.00  0.00    -0.000 C 
BRANCH  15  16
ATOM     16  C   UNL     1       0.708  33.905  67.591  1.00  0.00    -0.000 C 
BRANCH  16  17
ATOM     17  C   UNL     1       1.711  32.739  67.648  1.00  0.00    -0.000 C 
BRANCH  17  18
ATOM     18  C   UNL     1       3.191  33.157  67.712  1.00  0.00    -0.003 C 
ATOM     19  C   UNL     1       4.134  31.990  68.006  1.00  0.00     0.004 C 
ENDBRANCH  17  18
ENDBRANCH  16  17
ENDBRANCH  15  16
ENDBRANCH  14  15
ENDBRANCH  13  14
ENDBRANCH  12  13
ENDBRANCH   1  12
TORSDOF 14
ENDMDL
MODEL 7
REMARK VINA RESULT:    -4.808     11.611     13.561
REMARK INTER + INTRA:         -10.031
REMARK INTER:                  -7.275
REMARK INTRA:                  -2.756
REMARK UNBOUND:                -1.289
REMARK SMILES CCCCCCCCCCCCCC[C@H](C)C(=O)[O-]
REMARK SMILES IDX 9 1 10 2 11 3 12 4 13 5 14 6 15 7 16 8 17 9 18 10 19 11 8 12
REMARK SMILES IDX 7 13 6 14 5 15 4 16 3 17 2 18 1 19
REMARK H PARENT
REMARK Flexibility Score: inf
ROOT
ATOM      1  C   UNL     1       7.540  34.380  68.503  1.00  0.00     0.000 C 
ENDROOT
BRANCH   1   2
ATOM      2  C   UNL     1       7.010  34.369  69.949  1.00  0.00     0.000 C 
BRANCH   2   3
ATOM      3  C   UNL     1       5.765  35.257  70.162  1.00  0.00     0.000 C 
BRANCH   3   4
ATOM      4  C   UNL     1       4.760  34.634  71.145  1.00  0.00     0.000 C 
BRANCH   4   5
ATOM      5  C   UNL     1       3.448  35.430  71.231  1.00  0.00     0.001 C 
BRANCH   5   6
ATOM      6  C   UNL     1       2.861  35.759  69.846  1.00  0.00     0.009 C 
BRANCH   6   7
ATOM      7  C   UNL     1       1.415  35.245  69.691  1.00  0.00     0.032 C 
ATOM      8  C   UNL     1       1.316  33.774  70.113  1.00  0.00     0.014 C 
BRANCH   7   9
ATOM      9  C   UNL     1       0.920  35.408  68.279  1.00  0.00     0.044 C 
ATOM     10  O   UNL     1       0.403  36.494  67.901  1.00  0.00    -0.550 OA
ATOM     11  O   UNL     1       1.035  34.355  67.379  1.00  0.00    -0.550 OA
ENDBRANCH   7   9
ENDBRANCH   6   7
ENDBRANCH   5   6
ENDBRANCH   4   5
ENDBRANCH   3   4
ENDBRANCH   2   3
ENDBRANCH   1   2
BRANCH   1  12
ATOM     12  C   UNL     1       6.456  34.501  67.415  1.00  0.00     0.000 C 
BRANCH  12  13
ATOM     13  C   UNL     1       5.822  33.165  66.984  1.00  0.00    -0.000 C 
BRANCH  13  14
ATOM     14  C   UNL     1       4.362  33.023  67.448  1.00  0.00    -0.000 C 
BRANCH  14  15
ATOM     15  C   UNL     1       4.213  32.085  68.656  1.00  0.00    -0.000 C 
BRANCH  15  16
ATOM     16  C   UNL     1       5.295  30.992  68.689  1.00  0.00    -0.000 C 
BRANCH  16  17
ATOM     17  C   UNL     1       5.924  30.809  70.081  1.00  0.00    -0.000 C 
BRANCH  17  18
ATOM     18  C   UNL     1       7.461  30.730  70.095  1.00  0.00    -0.003 C 
ATOM     19  C   UNL     1       8.074  30.705  68.694  1.00  0.00     0.004 C 
ENDBRANCH  17  18
ENDBRANCH  16  17
ENDBRANCH  15  16
ENDBRANCH  14  15
ENDBRANCH  13  14
ENDBRANCH  12  13
ENDBRANCH   1  12
TORSDOF 14
ENDMDL
MODEL 8
REMARK VINA RESULT:    -4.743     11.190     13.690
REMARK INTER + INTRA:          -9.913
REMARK INTER:                  -8.446
REMARK INTRA:                  -1.466
REMARK UNBOUND:                -1.289
REMARK SMILES CCCCCCCCCCCCCC[C@H](C)C(=O)[O-]
REMARK SMILES IDX 9 1 10 2 11 3 12 4 13 5 14 6 15 7 16 8 17 9 18 10 19 11 8 12
REMARK SMILES IDX 7 13 6 14 5 15 4 16 3 17 2 18 1 19
REMARK H PARENT
REMARK Flexibility Score: inf
ROOT
ATOM      1  C   UNL     1       6.713  33.822  70.923  1.00  0.00     0.000 C 
ENDROOT
BRANCH   1   2
ATOM      2  C   UNL     1       5.208  34.035  71.172  1.00  0.00     0.000 C 
BRANCH   2   3
ATOM      3  C   UNL     1       4.576  35.119  70.272  1.00  0.00     0.000 C 
BRANCH   3   4
ATOM      4  C   UNL     1       3.188  35.558  70.767  1.00  0.00     0.000 C 
BRANCH   4   5
ATOM      5  C   UNL     1       2.056  35.092  69.836  1.00  0.00     0.001 C 
BRANCH   5   6
ATOM      6  C   UNL     1       1.196  36.258  69.318  1.00  0.00     0.009 C 
BRANCH   6   7
ATOM      7  C   UNL     1       0.303  35.838  68.131  1.00  0.00     0.032 C 
ATOM      8  C   UNL     1       0.257  34.311  68.004  1.00  0.00     0.014 C 
BRANCH   7   9
ATOM      9  C   UNL     1       0.781  36.446  66.839  1.00  0.00     0.044 C 
ATOM     10  O   UNL     1       0.001  37.134  66.127  1.00  0.00    -0.550 OA
ATOM     11  O   UNL     1       2.093  36.253  66.427  1.00  0.00    -0.550 OA
ENDBRANCH   7   9
ENDBRANCH   6   7
ENDBRANCH   5   6
ENDBRANCH   4   5
ENDBRANCH   3   4
ENDBRANCH   2   3
ENDBRANCH   1   2
BRANCH   1  12
ATOM     12  C   UNL     1       7.368  32.731  71.792  1.00  0.00     0.000 C 
BRANCH  12  13
ATOM     13  C   UNL     1       7.377  31.325  71.164  1.00  0.00    -0.000 C 
BRANCH  13  14
ATOM     14  C   UNL     1       6.945  31.331  69.687  1.00  0.00    -0.000 C 
BRANCH  14  15
ATOM     15  C   UNL     1       8.124  31.116  68.725  1.00  0.00    -0.000 C 
BRANCH  15  16
ATOM     16  C   UNL     1       8.002  31.963  67.448  1.00  0.00    -0.000 C 
BRANCH  16  17
ATOM     17  C   UNL     1       8.163  33.472  67.708  1.00  0.00    -0.000 C 
BRANCH  17  18
ATOM     18  C   UNL     1       7.015  34.349  67.176  1.00  0.00    -0.003 C 
ATOM     19  C   UNL     1       5.695  33.592  67.036  1.00  0.00     0.004 C 
ENDBRANCH  17  18
ENDBRANCH  16  17
ENDBRANCH  15  16
ENDBRANCH  14  15
ENDBRANCH  13  14
ENDBRANCH  12  13
ENDBRANCH   1  12
TORSDOF 14
ENDMDL
MODEL 9
REMARK VINA RESULT:    -4.711     11.764     13.794
REMARK INTER + INTRA:          -9.856
REMARK INTER:                  -8.067
REMARK INTRA:                  -1.789
REMARK UNBOUND:                -1.289
REMARK SMILES CCCCCCCCCCCCCC[C@H](C)C(=O)[O-]
REMARK SMILES IDX 9 1 10 2 11 3 12 4 13 5 14 6 15 7 16 8 17 9 18 10 19 11 8 12
REMARK SMILES IDX 7 13 6 14 5 15 4 16 3 17 2 18 1 19
REMARK H PARENT
REMARK Flexibility Score: inf
ROOT
ATOM      1  C   UNL     1       8.506  33.236  67.915  1.00  0.00     0.000 C 
ENDROOT
BRANCH   1   2
ATOM      2  C   UNL     1       7.385  34.040  67.230  1.00  0.00     0.000 C 
BRANCH   2   3
ATOM      3  C   UNL     1       6.273  34.503  68.196  1.00  0.00     0.000 C 
BRANCH   3   4
ATOM      4  C   UNL     1       6.747  34.545  69.659  1.00  0.00     0.000 C 
BRANCH   4   5
ATOM      5  C   UNL     1       5.685  35.127  70.606  1.00  0.00     0.001 C 
BRANCH   5   6
ATOM      6  C   UNL     1       4.267  34.614  70.294  1.00  0.00     0.009 C 
BRANCH   6   7
ATOM      7  C   UNL     1       3.189  35.684  70.567  1.00  0.00     0.032 C 
ATOM      8  C   UNL     1       3.008  35.897  72.074  1.00  0.00     0.014 C 
BRANCH   7   9
ATOM      9  C   UNL     1       1.872  35.312  69.939  1.00  0.00     0.044 C 
ATOM     10  O   UNL     1       1.669  34.140  69.522  1.00  0.00    -0.550 OA
ATOM     11  O   UNL     1       0.868  36.265  69.821  1.00  0.00    -0.550 OA
ENDBRANCH   7   9
ENDBRANCH   6   7
ENDBRANCH   5   6
ENDBRANCH   4   5
ENDBRANCH   3   4
ENDBRANCH   2   3
ENDBRANCH   1   2
BRANCH   1  12
ATOM     12  C   UNL     1       8.633  31.772  67.452  1.00  0.00     0.000 C 
BRANCH  12  13
ATOM     13  C   UNL     1       7.315  31.126  66.986  1.00  0.00    -0.000 C 
BRANCH  13  14
ATOM     14  C   UNL     1       6.397  30.737  68.158  1.00  0.00    -0.000 C 
BRANCH  14  15
ATOM     15  C   UNL     1       7.177  30.448  69.450  1.00  0.00    -0.000 C 
BRANCH  15  16
ATOM     16  C   UNL     1       6.427  30.921  70.707  1.00  0.00    -0.000 C 
BRANCH  16  17
ATOM     17  C   UNL     1       7.359  31.161  71.909  1.00  0.00    -0.000 C 
BRANCH  17  18
ATOM     18  C   UNL     1       7.050  32.427  72.727  1.00  0.00    -0.003 C 
ATOM     19  C   UNL     1       8.211  32.863  73.622  1.00  0.00     0.004 C 
ENDBRANCH  17  18
ENDBRANCH  16  17
ENDBRANCH  15  16
ENDBRANCH  14  15
ENDBRANCH  13  14
ENDBRANCH  12  13
ENDBRANCH   1  12
TORSDOF 14
ENDMDL
