MODEL 1
REMARK VINA RESULT:    -3.414      0.000      0.000
REMARK INTER + INTRA:          -5.541
REMARK INTER:                  -5.211
REMARK INTRA:                  -0.330
REMARK UNBOUND:                -0.330
REMARK SMILES O=C([O-])CCCCCCCCC(=O)[O-]
REMARK SMILES IDX 7 1 6 2 5 3 4 4 2 5 1 6 3 7 8 8 9 9 10 10 11 11 12 12 13 13
REMARK SMILES IDX 14 14
REMARK H PARENT
REMARK Flexibility Score: inf
ROOT
ATOM      1  C   UNL     1     -20.982  -1.482   7.544  1.00  0.00     0.000 C 
ENDROOT
BRANCH   1   2
ATOM      2  C   UNL     1     -21.102  -0.288   6.586  1.00  0.00     0.000 C 
BRANCH   2   3
ATOM      3  C   UNL     1     -20.607   1.002   7.250  1.00  0.00     0.006 C 
BRANCH   3   4
ATOM      4  C   UNL     1     -21.635   2.127   7.104  1.00  0.00     0.053 C 
BRANCH   4   5
ATOM      5  C   UNL     1     -22.079   2.611   8.448  1.00  0.00     0.041 C 
ATOM      6  O   UNL     1     -22.098   1.823   9.430  1.00  0.00    -0.550 OA
ATOM      7  O   UNL     1     -22.423   3.944   8.628  1.00  0.00    -0.550 OA
ENDBRANCH   4   5
ENDBRANCH   3   4
ENDBRANCH   2   3
ENDBRANCH   1   2
BRANCH   1   8
ATOM      8  C   UNL     1     -20.979  -1.058   9.021  1.00  0.00     0.000 C 
BRANCH   8   9
ATOM      9  C   UNL     1     -20.585  -2.207   9.966  1.00  0.00     0.000 C 
BRANCH   9  10
ATOM     10  C   UNL     1     -20.154  -1.708  11.355  1.00  0.00     0.006 C 
BRANCH  10  11
ATOM     11  C   UNL     1     -21.272  -1.831  12.398  1.00  0.00     0.053 C 
BRANCH  11  12
ATOM     12  C   UNL     1     -21.342  -0.593  13.236  1.00  0.00     0.041 C 
ATOM     13  O   UNL     1     -20.877  -0.592  14.405  1.00  0.00    -0.550 OA
ATOM     14  O   UNL     1     -21.879   0.573  12.707  1.00  0.00    -0.550 OA
ENDBRANCH  11  12
ENDBRANCH  10  11
ENDBRANCH   9  10
ENDBRANCH   8   9
ENDBRANCH   1   8
TORSDOF 9
ENDMDL
MODEL 2
REMARK VINA RESULT:    -3.357      0.255      5.161
REMARK INTER + INTRA:          -5.453
REMARK INTER:                  -5.098
REMARK INTRA:                  -0.355
REMARK UNBOUND:                -0.330
REMARK SMILES O=C([O-])CCCCCCCCC(=O)[O-]
REMARK SMILES IDX 7 1 6 2 5 3 4 4 2 5 1 6 3 7 8 8 9 9 10 10 11 11 12 12 13 13
REMARK SMILES IDX 14 14
REMARK H PARENT
REMARK Flexibility Score: inf
ROOT
ATOM      1  C   UNL     1     -20.998  -1.083   9.083  1.00  0.00     0.000 C 
ENDROOT
BRANCH   1   2
ATOM      2  C   UNL     1     -20.680  -2.233  10.051  1.00  0.00     0.000 C 
BRANCH   2   3
ATOM      3  C   UNL     1     -20.260  -1.696  11.424  1.00  0.00     0.006 C 
BRANCH   3   4
ATOM      4  C   UNL     1     -21.362  -1.918  12.463  1.00  0.00     0.053 C 
BRANCH   4   5
ATOM      5  C   UNL     1     -21.594  -0.672  13.257  1.00  0.00     0.041 C 
ATOM      6  O   UNL     1     -21.752   0.432  12.672  1.00  0.00    -0.550 OA
ATOM      7  O   UNL     1     -21.686  -0.736  14.642  1.00  0.00    -0.550 OA
ENDBRANCH   4   5
ENDBRANCH   3   4
ENDBRANCH   2   3
ENDBRANCH   1   2
BRANCH   1   8
ATOM      8  C   UNL     1     -20.961  -1.522   7.611  1.00  0.00     0.000 C 
BRANCH   8   9
ATOM      9  C   UNL     1     -21.055  -0.334   6.637  1.00  0.00     0.000 C 
BRANCH   9  10
ATOM     10  C   UNL     1     -20.599   0.989   7.273  1.00  0.00     0.006 C 
BRANCH  10  11
ATOM     11  C   UNL     1     -21.633   2.109   7.109  1.00  0.00     0.053 C 
BRANCH  11  12
ATOM     12  C   UNL     1     -22.072   2.614   8.447  1.00  0.00     0.041 C 
ATOM     13  O   UNL     1     -22.088   1.842   9.441  1.00  0.00    -0.550 OA
ATOM     14  O   UNL     1     -22.417   3.950   8.607  1.00  0.00    -0.550 OA
ENDBRANCH  11  12
ENDBRANCH  10  11
ENDBRANCH   9  10
ENDBRANCH   8   9
ENDBRANCH   1   8
TORSDOF 9
ENDMDL
MODEL 3
REMARK VINA RESULT:    -3.256      2.357      5.208
REMARK INTER + INTRA:          -5.300
REMARK INTER:                  -5.153
REMARK INTRA:                  -0.147
REMARK UNBOUND:                -0.330
REMARK SMILES O=C([O-])CCCCCCCCC(=O)[O-]
REMARK SMILES IDX 7 1 6 2 5 3 4 4 2 5 1 6 3 7 8 8 9 9 10 10 11 11 12 12 13 13
REMARK SMILES IDX 14 14
REMARK H PARENT
REMARK Flexibility Score: inf
ROOT
ATOM      1  C   UNL     1     -21.811   1.023   9.231  1.00  0.00     0.000 C 
ENDROOT
BRANCH   1   2
ATOM      2  C   UNL     1     -21.733   1.885  10.500  1.00  0.00     0.000 C 
BRANCH   2   3
ATOM      3  C   UNL     1     -22.478   1.220  11.663  1.00  0.00     0.006 C 
BRANCH   3   4
ATOM      4  C   UNL     1     -21.563   1.052  12.879  1.00  0.00     0.053 C 
BRANCH   4   5
ATOM      5  C   UNL     1     -21.583  -0.365  13.359  1.00  0.00     0.041 C 
ATOM      6  O   UNL     1     -22.061  -0.644  14.490  1.00  0.00    -0.550 OA
ATOM      7  O   UNL     1     -21.120  -1.384  12.536  1.00  0.00    -0.550 OA
ENDBRANCH   4   5
ENDBRANCH   3   4
ENDBRANCH   2   3
ENDBRANCH   1   2
BRANCH   1   8
ATOM      8  C   UNL     1     -21.488   1.818   7.956  1.00  0.00     0.000 C 
BRANCH   8   9
ATOM      9  C   UNL     1     -21.434   0.928   6.702  1.00  0.00     0.000 C 
BRANCH   9  10
ATOM     10  C   UNL     1     -20.406  -0.209   6.828  1.00  0.00     0.006 C 
BRANCH  10  11
ATOM     11  C   UNL     1     -21.066  -1.587   6.967  1.00  0.00     0.053 C 
BRANCH  11  12
ATOM     12  C   UNL     1     -20.552  -2.291   8.182  1.00  0.00     0.041 C 
ATOM     13  O   UNL     1     -20.595  -1.728   9.307  1.00  0.00    -0.550 OA
ATOM     14  O   UNL     1     -20.070  -3.590   8.081  1.00  0.00    -0.550 OA
ENDBRANCH  11  12
ENDBRANCH  10  11
ENDBRANCH   9  10
ENDBRANCH   8   9
ENDBRANCH   1   8
TORSDOF 9
ENDMDL
MODEL 4
REMARK VINA RESULT:    -3.224      2.217      3.577
REMARK INTER + INTRA:          -5.250
REMARK INTER:                  -4.706
REMARK INTRA:                  -0.543
REMARK UNBOUND:                -0.330
REMARK SMILES O=C([O-])CCCCCCCCC(=O)[O-]
REMARK SMILES IDX 7 1 6 2 5 3 4 4 2 5 1 6 3 7 8 8 9 9 10 10 11 11 12 12 13 13
REMARK SMILES IDX 14 14
REMARK H PARENT
REMARK Flexibility Score: inf
ROOT
ATOM      1  C   UNL     1     -21.337   2.029   7.920  1.00  0.00     0.000 C 
ENDROOT
BRANCH   1   2
ATOM      2  C   UNL     1     -21.465   1.078   6.721  1.00  0.00     0.000 C 
BRANCH   2   3
ATOM      3  C   UNL     1     -20.415  -0.038   6.788  1.00  0.00     0.006 C 
BRANCH   3   4
ATOM      4  C   UNL     1     -21.075  -1.402   7.003  1.00  0.00     0.053 C 
BRANCH   4   5
ATOM      5  C   UNL     1     -20.631  -2.001   8.301  1.00  0.00     0.041 C 
ATOM      6  O   UNL     1     -20.682  -1.323   9.360  1.00  0.00    -0.550 OA
ATOM      7  O   UNL     1     -20.210  -3.324   8.348  1.00  0.00    -0.550 OA
ENDBRANCH   4   5
ENDBRANCH   3   4
ENDBRANCH   2   3
ENDBRANCH   1   2
BRANCH   1   8
ATOM      8  C   UNL     1     -22.324   1.692   9.049  1.00  0.00     0.000 C 
BRANCH   8   9
ATOM      9  C   UNL     1     -21.716   1.900  10.448  1.00  0.00     0.000 C 
BRANCH   9  10
ATOM     10  C   UNL     1     -22.226   0.872  11.471  1.00  0.00     0.006 C 
BRANCH  10  11
ATOM     11  C   UNL     1     -21.696   1.136  12.886  1.00  0.00     0.053 C 
BRANCH  11  12
ATOM     12  C   UNL     1     -21.393  -0.155  13.579  1.00  0.00     0.041 C 
ATOM     13  O   UNL     1     -21.446  -1.241  12.946  1.00  0.00    -0.550 OA
ATOM     14  O   UNL     1     -21.005  -0.153  14.912  1.00  0.00    -0.550 OA
ENDBRANCH  11  12
ENDBRANCH  10  11
ENDBRANCH   9  10
ENDBRANCH   8   9
ENDBRANCH   1   8
TORSDOF 9
ENDMDL
MODEL 5
REMARK VINA RESULT:    -3.154      2.197      4.188
REMARK INTER + INTRA:          -5.143
REMARK INTER:                  -5.056
REMARK INTRA:                  -0.087
REMARK UNBOUND:                -0.330
REMARK SMILES O=C([O-])CCCCCCCCC(=O)[O-]
REMARK SMILES IDX 7 1 6 2 5 3 4 4 2 5 1 6 3 7 8 8 9 9 10 10 11 11 12 12 13 13
REMARK SMILES IDX 14 14
REMARK H PARENT
REMARK Flexibility Score: inf
ROOT
ATOM      1  C   UNL     1     -21.726   2.227   7.305  1.00  0.00     0.000 C 
ENDROOT
BRANCH   1   2
ATOM      2  C   UNL     1     -22.085   2.589   8.755  1.00  0.00     0.000 C 
BRANCH   2   3
ATOM      3  C   UNL     1     -21.732   1.444   9.711  1.00  0.00     0.006 C 
BRANCH   3   4
ATOM      4  C   UNL     1     -22.644   1.453  10.941  1.00  0.00     0.053 C 
BRANCH   4   5
ATOM      5  C   UNL     1     -21.843   1.261  12.190  1.00  0.00     0.041 C 
ATOM      6  O   UNL     1     -21.234   2.234  12.707  1.00  0.00    -0.550 OA
ATOM      7  O   UNL     1     -21.810   0.019  12.811  1.00  0.00    -0.550 OA
ENDBRANCH   4   5
ENDBRANCH   3   4
ENDBRANCH   2   3
ENDBRANCH   1   2
BRANCH   1   8
ATOM      8  C   UNL     1     -20.611   1.173   7.218  1.00  0.00     0.000 C 
BRANCH   8   9
ATOM      9  C   UNL     1     -20.994  -0.020   6.324  1.00  0.00     0.000 C 
BRANCH   9  10
ATOM     10  C   UNL     1     -21.011  -1.351   7.093  1.00  0.00     0.006 C 
BRANCH  10  11
ATOM     11  C   UNL     1     -21.116  -1.154   8.610  1.00  0.00     0.053 C 
BRANCH  11  12
ATOM     12  C   UNL     1     -20.365  -2.229   9.329  1.00  0.00     0.041 C 
ATOM     13  O   UNL     1     -20.114  -2.114  10.557  1.00  0.00    -0.550 OA
ATOM     14  O   UNL     1     -19.984  -3.381   8.654  1.00  0.00    -0.550 OA
ENDBRANCH  11  12
ENDBRANCH  10  11
ENDBRANCH   9  10
ENDBRANCH   8   9
ENDBRANCH   1   8
TORSDOF 9
ENDMDL
MODEL 6
REMARK VINA RESULT:    -3.039      1.398      1.987
REMARK INTER + INTRA:          -4.969
REMARK INTER:                  -4.700
REMARK INTRA:                  -0.268
REMARK UNBOUND:                -0.330
REMARK SMILES O=C([O-])CCCCCCCCC(=O)[O-]
REMARK SMILES IDX 7 1 6 2 5 3 4 4 2 5 1 6 3 7 8 8 9 9 10 10 11 11 12 12 13 13
REMARK SMILES IDX 14 14
REMARK H PARENT
REMARK Flexibility Score: inf
ROOT
ATOM      1  C   UNL     1     -21.521  -1.165   7.022  1.00  0.00     0.000 C 
ENDROOT
BRANCH   1   2
ATOM      2  C   UNL     1     -20.887   0.117   6.459  1.00  0.00     0.000 C 
BRANCH   2   3
ATOM      3  C   UNL     1     -21.143   1.310   7.386  1.00  0.00     0.006 C 
BRANCH   3   4
ATOM      4  C   UNL     1     -21.402   0.847   8.822  1.00  0.00     0.053 C 
BRANCH   4   5
ATOM      5  C   UNL     1     -22.157   1.890   9.582  1.00  0.00     0.041 C 
ATOM      6  O   UNL     1     -22.545   2.939   9.003  1.00  0.00    -0.550 OA
ATOM      7  O   UNL     1     -22.477   1.683  10.918  1.00  0.00    -0.550 OA
ENDBRANCH   4   5
ENDBRANCH   3   4
ENDBRANCH   2   3
ENDBRANCH   1   2
BRANCH   1   8
ATOM      8  C   UNL     1     -20.551  -2.356   7.014  1.00  0.00     0.000 C 
BRANCH   8   9
ATOM      9  C   UNL     1     -20.214  -2.854   8.431  1.00  0.00     0.000 C 
BRANCH   9  10
ATOM     10  C   UNL     1     -20.907  -2.028   9.527  1.00  0.00     0.006 C 
BRANCH  10  11
ATOM     11  C   UNL     1     -20.081  -1.950  10.817  1.00  0.00     0.053 C 
BRANCH  11  12
ATOM     12  C   UNL     1     -20.981  -1.836  12.007  1.00  0.00     0.041 C 
ATOM     13  O   UNL     1     -21.088  -0.741  12.617  1.00  0.00    -0.550 OA
ATOM     14  O   UNL     1     -21.739  -2.927  12.411  1.00  0.00    -0.550 OA
ENDBRANCH  11  12
ENDBRANCH  10  11
ENDBRANCH   9  10
ENDBRANCH   8   9
ENDBRANCH   1   8
TORSDOF 9
ENDMDL
MODEL 7
REMARK VINA RESULT:    -2.556      1.207      5.529
REMARK INTER + INTRA:          -4.231
REMARK INTER:                  -4.159
REMARK INTRA:                  -0.072
REMARK UNBOUND:                -0.330
REMARK SMILES O=C([O-])CCCCCCCCC(=O)[O-]
REMARK SMILES IDX 7 1 6 2 5 3 4 4 2 5 1 6 3 7 8 8 9 9 10 10 11 11 12 12 13 13
REMARK SMILES IDX 14 14
REMARK H PARENT
REMARK Flexibility Score: inf
ROOT
ATOM      1  C   UNL     1     -20.291  -2.179   9.664  1.00  0.00     0.000 C 
ENDROOT
BRANCH   1   2
ATOM      2  C   UNL     1     -21.228  -2.397  10.862  1.00  0.00     0.000 C 
BRANCH   2   3
ATOM      3  C   UNL     1     -20.579  -1.912  12.163  1.00  0.00     0.006 C 
BRANCH   3   4
ATOM      4  C   UNL     1     -21.634  -1.657  13.243  1.00  0.00     0.053 C 
BRANCH   4   5
ATOM      5  C   UNL     1     -21.491  -0.276  13.801  1.00  0.00     0.041 C 
ATOM      6  O   UNL     1     -21.034  -0.106  14.961  1.00  0.00    -0.550 OA
ATOM      7  O   UNL     1     -21.816   0.826  13.020  1.00  0.00    -0.550 OA
ENDBRANCH   4   5
ENDBRANCH   3   4
ENDBRANCH   2   3
ENDBRANCH   1   2
BRANCH   1   8
ATOM      8  C   UNL     1     -20.872  -1.203   8.629  1.00  0.00     0.000 C 
BRANCH   8   9
ATOM      9  C   UNL     1     -20.921  -1.802   7.213  1.00  0.00     0.000 C 
BRANCH   9  10
ATOM     10  C   UNL     1     -20.770  -0.737   6.115  1.00  0.00     0.006 C 
BRANCH  10  11
ATOM     11  C   UNL     1     -21.769   0.416   6.272  1.00  0.00     0.053 C 
BRANCH  11  12
ATOM     12  C   UNL     1     -21.149   1.545   7.033  1.00  0.00     0.041 C 
ATOM     13  O   UNL     1     -19.984   1.931   6.757  1.00  0.00    -0.550 OA
ATOM     14  O   UNL     1     -21.878   2.203   8.016  1.00  0.00    -0.550 OA
ENDBRANCH  11  12
ENDBRANCH  10  11
ENDBRANCH   9  10
ENDBRANCH   8   9
ENDBRANCH   1   8
TORSDOF 9
ENDMDL
MODEL 8
REMARK VINA RESULT:    -2.520      3.467      4.106
REMARK INTER + INTRA:          -4.177
REMARK INTER:                  -4.394
REMARK INTRA:                   0.217
REMARK UNBOUND:                -0.330
REMARK SMILES O=C([O-])CCCCCCCCC(=O)[O-]
REMARK SMILES IDX 7 1 6 2 5 3 4 4 2 5 1 6 3 7 8 8 9 9 10 10 11 11 12 12 13 13
REMARK SMILES IDX 14 14
REMARK H PARENT
REMARK Flexibility Score: inf
ROOT
ATOM      1  C   UNL     1     -21.851  -0.740   6.677  1.00  0.00     0.000 C 
ENDROOT
BRANCH   1   2
ATOM      2  C   UNL     1     -21.160   0.537   6.175  1.00  0.00     0.000 C 
BRANCH   2   3
ATOM      3  C   UNL     1     -21.168   1.626   7.254  1.00  0.00     0.006 C 
BRANCH   3   4
ATOM      4  C   UNL     1     -21.451   1.031   8.636  1.00  0.00     0.053 C 
BRANCH   4   5
ATOM      5  C   UNL     1     -22.285   1.969   9.450  1.00  0.00     0.041 C 
ATOM      6  O   UNL     1     -22.667   1.638  10.603  1.00  0.00    -0.550 OA
ATOM      7  O   UNL     1     -22.597   3.229   8.956  1.00  0.00    -0.550 OA
ENDBRANCH   4   5
ENDBRANCH   3   4
ENDBRANCH   2   3
ENDBRANCH   1   2
BRANCH   1   8
ATOM      8  C   UNL     1     -20.851  -1.830   7.093  1.00  0.00     0.000 C 
BRANCH   8   9
ATOM      9  C   UNL     1     -20.618  -1.870   8.613  1.00  0.00     0.000 C 
BRANCH   9  10
ATOM     10  C   UNL     1     -20.300  -3.284   9.124  1.00  0.00     0.006 C 
BRANCH  10  11
ATOM     11  C   UNL     1     -19.885  -4.239   7.998  1.00  0.00     0.053 C 
BRANCH  11  12
ATOM     12  C   UNL     1     -20.338  -5.632   8.301  1.00  0.00     0.041 C 
ATOM     13  O   UNL     1     -19.523  -6.590   8.239  1.00  0.00    -0.550 OA
ATOM     14  O   UNL     1     -21.647  -5.866   8.700  1.00  0.00    -0.550 OA
ENDBRANCH  11  12
ENDBRANCH  10  11
ENDBRANCH   9  10
ENDBRANCH   8   9
ENDBRANCH   1   8
TORSDOF 9
ENDMDL
MODEL 9
REMARK VINA RESULT:    -2.484      1.474      2.249
REMARK INTER + INTRA:          -4.121
REMARK INTER:                  -3.723
REMARK INTRA:                  -0.397
REMARK UNBOUND:                -0.330
REMARK SMILES O=C([O-])CCCCCCCCC(=O)[O-]
REMARK SMILES IDX 7 1 6 2 5 3 4 4 2 5 1 6 3 7 8 8 9 9 10 10 11 11 12 12 13 13
REMARK SMILES IDX 14 14
REMARK H PARENT
REMARK Flexibility Score: inf
ROOT
ATOM      1  C   UNL     1     -20.980  -1.340   9.314  1.00  0.00     0.000 C 
ENDROOT
BRANCH   1   2
ATOM      2  C   UNL     1     -20.698  -2.134   8.030  1.00  0.00     0.000 C 
BRANCH   2   3
ATOM      3  C   UNL     1     -20.731  -1.221   6.799  1.00  0.00     0.006 C 
BRANCH   3   4
ATOM      4  C   UNL     1     -21.756  -0.097   6.976  1.00  0.00     0.053 C 
BRANCH   4   5
ATOM      5  C   UNL     1     -21.066   1.219   7.154  1.00  0.00     0.041 C 
ATOM      6  O   UNL     1     -19.888   1.376   6.742  1.00  0.00    -0.550 OA
ATOM      7  O   UNL     1     -21.743   2.286   7.731  1.00  0.00    -0.550 OA
ENDBRANCH   4   5
ENDBRANCH   3   4
ENDBRANCH   2   3
ENDBRANCH   1   2
BRANCH   1   8
ATOM      8  C   UNL     1     -20.232  -1.902  10.533  1.00  0.00     0.000 C 
BRANCH   8   9
ATOM      9  C   UNL     1     -21.143  -2.071  11.761  1.00  0.00     0.000 C 
BRANCH   9  10
ATOM     10  C   UNL     1     -20.832  -1.054  12.871  1.00  0.00     0.006 C 
BRANCH  10  11
ATOM     11  C   UNL     1     -22.014  -0.123  13.166  1.00  0.00     0.053 C 
BRANCH  11  12
ATOM     12  C   UNL     1     -21.832   1.188  12.469  1.00  0.00     0.041 C 
ATOM     13  O   UNL     1     -21.242   2.137  13.047  1.00  0.00    -0.550 OA
ATOM     14  O   UNL     1     -22.272   1.346  11.161  1.00  0.00    -0.550 OA
ENDBRANCH  11  12
ENDBRANCH  10  11
ENDBRANCH   9  10
ENDBRANCH   8   9
ENDBRANCH   1   8
TORSDOF 9
ENDMDL
