MODEL 1
REMARK VINA RESULT:    -5.407      0.000      0.000
REMARK INTER + INTRA:          -5.881
REMARK INTER:                  -5.881
REMARK INTRA:                   0.000
REMARK UNBOUND:                 0.000
REMARK SMILES Cc1cc(O)c2c(c1)C(=O)c1cc(O)cc(O)c1C2=O
REMARK SMILES IDX 1 1 2 2 8 3 7 4 6 5 4 6 3 7 19 8 20 9 18 10 11 11 9 12 10 13
REMARK SMILES IDX 12 14 13 15 15 16 16 17 5 18 17 20 14 22
REMARK H PARENT 5 19 17 21 14 23
REMARK Flexibility Score: inf
ROOT
ATOM      1  C   UNL     1      44.029 -42.112  -5.903  1.00  0.00     0.044 C 
ATOM      2  C   UNL     1      43.024 -41.375  -5.067  1.00  0.00    -0.047 A 
ATOM      3  C   UNL     1      41.782 -41.023  -5.605  1.00  0.00     0.016 A 
ATOM      4  C   UNL     1      40.846 -40.308  -4.839  1.00  0.00     0.038 A 
ATOM      5  C   UNL     1      41.159 -39.937  -3.513  1.00  0.00     0.076 A 
ATOM      6  C   UNL     1      42.452 -40.223  -3.002  1.00  0.00     0.127 A 
ATOM      7  C   UNL     1      43.358 -40.953  -3.775  1.00  0.00     0.050 A 
ATOM      8  C   UNL     1      40.093 -39.314  -2.687  1.00  0.00     0.201 C 
ATOM      9  O   UNL     1      40.087 -39.484  -1.438  1.00  0.00    -0.288 OA
ATOM     10  C   UNL     1      38.937 -38.655  -3.349  1.00  0.00     0.076 A 
ATOM     11  C   UNL     1      38.629 -39.025  -4.677  1.00  0.00     0.041 A 
ATOM     12  C   UNL     1      39.535 -39.933  -5.421  1.00  0.00     0.194 C 
ATOM     13  O   UNL     1      39.201 -40.366  -6.558  1.00  0.00    -0.289 OA
ATOM     14  C   UNL     1      37.465 -38.529  -5.290  1.00  0.00     0.059 A 
ATOM     15  C   UNL     1      36.618 -37.657  -4.599  1.00  0.00     0.120 A 
ATOM     16  C   UNL     1      36.940 -37.258  -3.303  1.00  0.00     0.093 A 
ATOM     17  C   UNL     1      38.103 -37.722  -2.679  1.00  0.00     0.131 A 
ENDROOT
BRANCH   6  18
ATOM     18  O   UNL     1      42.886 -39.770  -1.754  1.00  0.00    -0.507 OA
ATOM     19  H   UNL     1      43.832 -39.883  -1.417  1.00  0.00     0.293 HD
ENDBRANCH   6  18
BRANCH  17  20
ATOM     20  O   UNL     1      38.406 -37.207  -1.417  1.00  0.00    -0.507 OA
ATOM     21  H   UNL     1      39.316 -37.289  -0.984  1.00  0.00     0.293 HD
ENDBRANCH  17  20
BRANCH  15  22
ATOM     22  O   UNL     1      35.458 -37.172  -5.198  1.00  0.00    -0.508 OA
ATOM     23  H   UNL     1      34.565 -37.637  -5.079  1.00  0.00     0.293 HD
ENDBRANCH  15  22
TORSDOF 3
ENDMDL
MODEL 2
REMARK VINA RESULT:    -5.261      2.400      5.319
REMARK INTER + INTRA:          -5.722
REMARK INTER:                  -5.722
REMARK INTRA:                   0.000
REMARK UNBOUND:                 0.000
REMARK SMILES Cc1cc(O)c2c(c1)C(=O)c1cc(O)cc(O)c1C2=O
REMARK SMILES IDX 1 1 2 2 8 3 7 4 6 5 4 6 3 7 19 8 20 9 18 10 11 11 9 12 10 13
REMARK SMILES IDX 12 14 13 15 15 16 16 17 5 18 17 20 14 22
REMARK H PARENT 5 19 17 21 14 23
REMARK Flexibility Score: inf
ROOT
ATOM      1  C   UNL     1      38.425 -39.525  -7.875  1.00  0.00     0.044 C 
ATOM      2  C   UNL     1      38.555 -39.713  -6.392  1.00  0.00    -0.047 A 
ATOM      3  C   UNL     1      39.818 -39.734  -5.792  1.00  0.00     0.016 A 
ATOM      4  C   UNL     1      39.951 -39.937  -4.409  1.00  0.00     0.038 A 
ATOM      5  C   UNL     1      38.800 -40.124  -3.611  1.00  0.00     0.076 A 
ATOM      6  C   UNL     1      37.529 -40.186  -4.237  1.00  0.00     0.127 A 
ATOM      7  C   UNL     1      37.420 -39.960  -5.612  1.00  0.00     0.050 A 
ATOM      8  C   UNL     1      38.970 -40.187  -2.136  1.00  0.00     0.201 C 
ATOM      9  O   UNL     1      38.045 -39.785  -1.381  1.00  0.00    -0.288 OA
ATOM     10  C   UNL     1      40.293 -40.545  -1.560  1.00  0.00     0.076 A 
ATOM     11  C   UNL     1      41.441 -40.360  -2.362  1.00  0.00     0.041 A 
ATOM     12  C   UNL     1      41.295 -39.965  -3.783  1.00  0.00     0.194 C 
ATOM     13  O   UNL     1      42.317 -39.676  -4.466  1.00  0.00    -0.289 OA
ATOM     14  C   UNL     1      42.719 -40.555  -1.809  1.00  0.00     0.059 A 
ATOM     15  C   UNL     1      42.860 -40.947  -0.475  1.00  0.00     0.120 A 
ATOM     16  C   UNL     1      41.728 -41.169   0.307  1.00  0.00     0.093 A 
ATOM     17  C   UNL     1      40.446 -41.001  -0.225  1.00  0.00     0.131 A 
ENDROOT
BRANCH   6  18
ATOM     18  O   UNL     1      36.360 -40.504  -3.541  1.00  0.00    -0.507 OA
ATOM     19  H   UNL     1      35.778 -41.300  -3.760  1.00  0.00     0.293 HD
ENDBRANCH   6  18
BRANCH  17  20
ATOM     20  O   UNL     1      39.361 -41.331   0.590  1.00  0.00    -0.507 OA
ATOM     21  H   UNL     1      39.446 -41.542   1.575  1.00  0.00     0.293 HD
ENDBRANCH  17  20
BRANCH  15  22
ATOM     22  O   UNL     1      44.125 -41.130   0.081  1.00  0.00    -0.508 OA
ATOM     23  H   UNL     1      44.719 -40.344   0.318  1.00  0.00     0.293 HD
ENDBRANCH  15  22
TORSDOF 3
ENDMDL
MODEL 3
REMARK VINA RESULT:    -5.230      2.326      4.482
REMARK INTER + INTRA:          -5.689
REMARK INTER:                  -5.689
REMARK INTRA:                   0.000
REMARK UNBOUND:                 0.000
REMARK SMILES Cc1cc(O)c2c(c1)C(=O)c1cc(O)cc(O)c1C2=O
REMARK SMILES IDX 1 1 2 2 8 3 7 4 6 5 4 6 3 7 19 8 20 9 18 10 11 11 9 12 10 13
REMARK SMILES IDX 12 14 13 15 15 16 16 17 5 18 17 20 14 22
REMARK H PARENT 5 19 17 21 14 23
REMARK Flexibility Score: inf
ROOT
ATOM      1  C   UNL     1      43.760 -41.591  -6.001  1.00  0.00     0.044 C 
ATOM      2  C   UNL     1      42.604 -41.177  -5.138  1.00  0.00    -0.047 A 
ATOM      3  C   UNL     1      42.815 -40.820  -3.802  1.00  0.00     0.016 A 
ATOM      4  C   UNL     1      41.735 -40.458  -2.979  1.00  0.00     0.038 A 
ATOM      5  C   UNL     1      40.423 -40.455  -3.500  1.00  0.00     0.076 A 
ATOM      6  C   UNL     1      40.207 -40.899  -4.830  1.00  0.00     0.127 A 
ATOM      7  C   UNL     1      41.298 -41.234  -5.637  1.00  0.00     0.050 A 
ATOM      8  C   UNL     1      39.328 -39.926  -2.646  1.00  0.00     0.201 C 
ATOM      9  O   UNL     1      38.329 -39.374  -3.178  1.00  0.00    -0.288 OA
ATOM     10  C   UNL     1      39.501 -39.879  -1.170  1.00  0.00     0.076 A 
ATOM     11  C   UNL     1      40.815 -39.886  -0.652  1.00  0.00     0.041 A 
ATOM     12  C   UNL     1      41.968 -40.088  -1.562  1.00  0.00     0.194 C 
ATOM     13  O   UNL     1      43.146 -39.969  -1.125  1.00  0.00    -0.289 OA
ATOM     14  C   UNL     1      41.024 -39.705   0.726  1.00  0.00     0.059 A 
ATOM     15  C   UNL     1      39.940 -39.533   1.590  1.00  0.00     0.120 A 
ATOM     16  C   UNL     1      38.640 -39.567   1.088  1.00  0.00     0.093 A 
ATOM     17  C   UNL     1      38.405 -39.766  -0.276  1.00  0.00     0.131 A 
ENDROOT
BRANCH   6  18
ATOM     18  O   UNL     1      38.930 -41.057  -5.374  1.00  0.00    -0.507 OA
ATOM     19  H   UNL     1      38.077 -40.941  -4.843  1.00  0.00     0.293 HD
ENDBRANCH   6  18
BRANCH  17  20
ATOM     20  O   UNL     1      37.076 -39.879  -0.691  1.00  0.00    -0.507 OA
ATOM     21  H   UNL     1      36.748 -39.589  -1.602  1.00  0.00     0.293 HD
ENDBRANCH  17  20
BRANCH  15  22
ATOM     22  O   UNL     1      40.143 -39.341   2.955  1.00  0.00    -0.508 OA
ATOM     23  H   UNL     1      40.191 -40.122   3.600  1.00  0.00     0.293 HD
ENDBRANCH  15  22
TORSDOF 3
ENDMDL
MODEL 4
REMARK VINA RESULT:    -5.099      1.896      2.938
REMARK INTER + INTRA:          -5.546
REMARK INTER:                  -5.546
REMARK INTRA:                   0.000
REMARK UNBOUND:                 0.000
REMARK SMILES Cc1cc(O)c2c(c1)C(=O)c1cc(O)cc(O)c1C2=O
REMARK SMILES IDX 1 1 2 2 8 3 7 4 6 5 4 6 3 7 19 8 20 9 18 10 11 11 9 12 10 13
REMARK SMILES IDX 12 14 13 15 15 16 16 17 5 18 17 20 14 22
REMARK H PARENT 5 19 17 21 14 23
REMARK Flexibility Score: inf
ROOT
ATOM      1  C   UNL     1      42.354 -41.672  -5.616  1.00  0.00     0.044 C 
ATOM      2  C   UNL     1      41.117 -40.884  -5.295  1.00  0.00    -0.047 A 
ATOM      3  C   UNL     1      40.273 -40.449  -6.323  1.00  0.00     0.016 A 
ATOM      4  C   UNL     1      39.129 -39.687  -6.035  1.00  0.00     0.038 A 
ATOM      5  C   UNL     1      38.823 -39.353  -4.697  1.00  0.00     0.076 A 
ATOM      6  C   UNL     1      39.727 -39.725  -3.669  1.00  0.00     0.127 A 
ATOM      7  C   UNL     1      40.849 -40.501  -3.977  1.00  0.00     0.050 A 
ATOM      8  C   UNL     1      37.531 -38.676  -4.419  1.00  0.00     0.201 C 
ATOM      9  O   UNL     1      36.951 -38.861  -3.316  1.00  0.00    -0.288 OA
ATOM     10  C   UNL     1      36.836 -37.938  -5.506  1.00  0.00     0.076 A 
ATOM     11  C   UNL     1      37.145 -38.271  -6.843  1.00  0.00     0.041 A 
ATOM     12  C   UNL     1      38.245 -39.224  -7.131  1.00  0.00     0.194 C 
ATOM     13  O   UNL     1      38.442 -39.621  -8.314  1.00  0.00    -0.289 OA
ATOM     14  C   UNL     1      36.413 -37.695  -7.896  1.00  0.00     0.059 A 
ATOM     15  C   UNL     1      35.389 -36.782  -7.629  1.00  0.00     0.120 A 
ATOM     16  C   UNL     1      35.108 -36.420  -6.313  1.00  0.00     0.093 A 
ATOM     17  C   UNL     1      35.836 -36.964  -5.249  1.00  0.00     0.131 A 
ENDROOT
BRANCH   6  18
ATOM     18  O   UNL     1      39.570 -39.317  -2.342  1.00  0.00    -0.507 OA
ATOM     19  H   UNL     1      39.993 -38.482  -1.960  1.00  0.00     0.293 HD
ENDBRANCH   6  18
BRANCH  17  20
ATOM     20  O   UNL     1      35.558 -36.484  -3.967  1.00  0.00    -0.507 OA
ATOM     21  H   UNL     1      34.783 -36.807  -3.405  1.00  0.00     0.293 HD
ENDBRANCH  17  20
BRANCH  15  22
ATOM     22  O   UNL     1      34.653 -36.218  -8.668  1.00  0.00    -0.508 OA
ATOM     23  H   UNL     1      34.327 -35.259  -8.629  1.00  0.00     0.293 HD
ENDBRANCH  15  22
TORSDOF 3
ENDMDL
MODEL 5
REMARK VINA RESULT:    -5.097      2.719      4.791
REMARK INTER + INTRA:          -5.544
REMARK INTER:                  -5.544
REMARK INTRA:                   0.000
REMARK UNBOUND:                 0.000
REMARK SMILES Cc1cc(O)c2c(c1)C(=O)c1cc(O)cc(O)c1C2=O
REMARK SMILES IDX 1 1 2 2 8 3 7 4 6 5 4 6 3 7 19 8 20 9 18 10 11 11 9 12 10 13
REMARK SMILES IDX 12 14 13 15 15 16 16 17 5 18 17 20 14 22
REMARK H PARENT 5 19 17 21 14 23
REMARK Flexibility Score: inf
ROOT
ATOM      1  C   UNL     1      40.601 -40.847   3.227  1.00  0.00     0.044 C 
ATOM      2  C   UNL     1      40.938 -40.775   1.766  1.00  0.00    -0.047 A 
ATOM      3  C   UNL     1      39.949 -40.456   0.830  1.00  0.00     0.016 A 
ATOM      4  C   UNL     1      40.248 -40.415  -0.542  1.00  0.00     0.038 A 
ATOM      5  C   UNL     1      41.559 -40.699  -0.985  1.00  0.00     0.076 A 
ATOM      6  C   UNL     1      42.535 -41.104  -0.039  1.00  0.00     0.127 A 
ATOM      7  C   UNL     1      42.220 -41.118   1.323  1.00  0.00     0.050 A 
ATOM      8  C   UNL     1      41.873 -40.500  -2.424  1.00  0.00     0.201 C 
ATOM      9  O   UNL     1      43.039 -40.176  -2.772  1.00  0.00    -0.288 OA
ATOM     10  C   UNL     1      40.774 -40.499  -3.425  1.00  0.00     0.076 A 
ATOM     11  C   UNL     1      39.464 -40.218  -2.978  1.00  0.00     0.041 A 
ATOM     12  C   UNL     1      39.191 -40.083  -1.527  1.00  0.00     0.194 C 
ATOM     13  O   UNL     1      38.053 -39.708  -1.131  1.00  0.00    -0.289 OA
ATOM     14  C   UNL     1      38.423 -40.073  -3.911  1.00  0.00     0.059 A 
ATOM     15  C   UNL     1      38.672 -40.219  -5.279  1.00  0.00     0.120 A 
ATOM     16  C   UNL     1      39.955 -40.536  -5.720  1.00  0.00     0.093 A 
ATOM     17  C   UNL     1      41.004 -40.706  -4.811  1.00  0.00     0.131 A 
ENDROOT
BRANCH   6  18
ATOM     18  O   UNL     1      43.812 -41.533  -0.410  1.00  0.00    -0.507 OA
ATOM     19  H   UNL     1      44.105 -42.501  -0.388  1.00  0.00     0.293 HD
ENDBRANCH   6  18
BRANCH  17  20
ATOM     20  O   UNL     1      42.239 -41.113  -5.320  1.00  0.00    -0.507 OA
ATOM     21  H   UNL     1      42.605 -40.806  -6.211  1.00  0.00     0.293 HD
ENDBRANCH  17  20
BRANCH  15  22
ATOM     22  O   UNL     1      37.645 -40.063  -6.208  1.00  0.00    -0.508 OA
ATOM     23  H   UNL     1      36.674 -40.201  -5.954  1.00  0.00     0.293 HD
ENDBRANCH  15  22
TORSDOF 3
ENDMDL
MODEL 6
REMARK VINA RESULT:    -4.943      1.986      3.292
REMARK INTER + INTRA:          -5.376
REMARK INTER:                  -5.376
REMARK INTRA:                   0.000
REMARK UNBOUND:                 0.000
REMARK SMILES Cc1cc(O)c2c(c1)C(=O)c1cc(O)cc(O)c1C2=O
REMARK SMILES IDX 1 1 2 2 8 3 7 4 6 5 4 6 3 7 19 8 20 9 18 10 11 11 9 12 10 13
REMARK SMILES IDX 12 14 13 15 15 16 16 17 5 18 17 20 14 22
REMARK H PARENT 5 19 17 21 14 23
REMARK Flexibility Score: inf
ROOT
ATOM      1  C   UNL     1      43.129 -40.716  -0.861  1.00  0.00     0.044 C 
ATOM      2  C   UNL     1      41.820 -40.335  -1.489  1.00  0.00    -0.047 A 
ATOM      3  C   UNL     1      41.629 -40.487  -2.866  1.00  0.00     0.016 A 
ATOM      4  C   UNL     1      40.418 -40.107  -3.468  1.00  0.00     0.038 A 
ATOM      5  C   UNL     1      39.381 -39.563  -2.678  1.00  0.00     0.076 A 
ATOM      6  C   UNL     1      39.612 -39.333  -1.297  1.00  0.00     0.127 A 
ATOM      7  C   UNL     1      40.817 -39.739  -0.717  1.00  0.00     0.050 A 
ATOM      8  C   UNL     1      38.066 -39.311  -3.322  1.00  0.00     0.201 C 
ATOM      9  O   UNL     1      37.009 -39.390  -2.640  1.00  0.00    -0.288 OA
ATOM     10  C   UNL     1      37.984 -39.155  -4.798  1.00  0.00     0.076 A 
ATOM     11  C   UNL     1      39.025 -39.697  -5.585  1.00  0.00     0.041 A 
ATOM     12  C   UNL     1      40.227 -40.265  -4.929  1.00  0.00     0.194 C 
ATOM     13  O   UNL     1      41.099 -40.863  -5.620  1.00  0.00    -0.289 OA
ATOM     14  C   UNL     1      38.918 -39.691  -6.986  1.00  0.00     0.059 A 
ATOM     15  C   UNL     1      37.795 -39.138  -7.608  1.00  0.00     0.120 A 
ATOM     16  C   UNL     1      36.785 -38.566  -6.836  1.00  0.00     0.093 A 
ATOM     17  C   UNL     1      36.878 -38.541  -5.441  1.00  0.00     0.131 A 
ENDROOT
BRANCH   6  18
ATOM     18  O   UNL     1      38.691 -38.674  -0.479  1.00  0.00    -0.507 OA
ATOM     19  H   UNL     1      37.745 -38.997  -0.328  1.00  0.00     0.293 HD
ENDBRANCH   6  18
BRANCH  17  20
ATOM     20  O   UNL     1      35.873 -37.870  -4.740  1.00  0.00    -0.507 OA
ATOM     21  H   UNL     1      36.055 -37.189  -4.016  1.00  0.00     0.293 HD
ENDBRANCH  17  20
BRANCH  15  22
ATOM     22  O   UNL     1      37.680 -39.141  -8.997  1.00  0.00    -0.508 OA
ATOM     23  H   UNL     1      37.252 -38.369  -9.495  1.00  0.00     0.293 HD
ENDBRANCH  15  22
TORSDOF 3
ENDMDL
MODEL 7
REMARK VINA RESULT:    -4.827      2.806      3.609
REMARK INTER + INTRA:          -5.250
REMARK INTER:                  -5.250
REMARK INTRA:                   0.000
REMARK UNBOUND:                 0.000
REMARK SMILES Cc1cc(O)c2c(c1)C(=O)c1cc(O)cc(O)c1C2=O
REMARK SMILES IDX 1 1 2 2 8 3 7 4 6 5 4 6 3 7 19 8 20 9 18 10 11 11 9 12 10 13
REMARK SMILES IDX 12 14 13 15 15 16 16 17 5 18 17 20 14 22
REMARK H PARENT 5 19 17 21 14 23
REMARK Flexibility Score: inf
ROOT
ATOM      1  C   UNL     1      43.041 -40.506  -1.494  1.00  0.00     0.044 C 
ATOM      2  C   UNL     1      42.296 -39.622  -2.451  1.00  0.00    -0.047 A 
ATOM      3  C   UNL     1      41.285 -40.152  -3.259  1.00  0.00     0.016 A 
ATOM      4  C   UNL     1      40.602 -39.338  -4.178  1.00  0.00     0.038 A 
ATOM      5  C   UNL     1      40.936 -37.970  -4.290  1.00  0.00     0.076 A 
ATOM      6  C   UNL     1      42.018 -37.458  -3.529  1.00  0.00     0.127 A 
ATOM      7  C   UNL     1      42.670 -38.282  -2.607  1.00  0.00     0.050 A 
ATOM      8  C   UNL     1      40.095 -37.110  -5.162  1.00  0.00     0.201 C 
ATOM      9  O   UNL     1      39.951 -35.889  -4.888  1.00  0.00    -0.288 OA
ATOM     10  C   UNL     1      39.277 -37.728  -6.239  1.00  0.00     0.076 A 
ATOM     11  C   UNL     1      38.947 -39.096  -6.125  1.00  0.00     0.041 A 
ATOM     12  C   UNL     1      39.536 -39.910  -5.035  1.00  0.00     0.194 C 
ATOM     13  O   UNL     1      39.148 -41.098  -4.853  1.00  0.00    -0.289 OA
ATOM     14  C   UNL     1      38.065 -39.683  -7.049  1.00  0.00     0.059 A 
ATOM     15  C   UNL     1      37.522 -38.924  -8.089  1.00  0.00     0.120 A 
ATOM     16  C   UNL     1      37.877 -37.583  -8.229  1.00  0.00     0.093 A 
ATOM     17  C   UNL     1      38.769 -36.982  -7.335  1.00  0.00     0.131 A 
ENDROOT
BRANCH   6  18
ATOM     18  O   UNL     1      42.500 -36.156  -3.684  1.00  0.00    -0.507 OA
ATOM     19  H   UNL     1      42.503 -35.469  -2.942  1.00  0.00     0.293 HD
ENDBRANCH   6  18
BRANCH  17  20
ATOM     20  O   UNL     1      39.148 -35.662  -7.592  1.00  0.00    -0.507 OA
ATOM     21  H   UNL     1      39.870 -35.407  -8.252  1.00  0.00     0.293 HD
ENDBRANCH  17  20
BRANCH  15  22
ATOM     22  O   UNL     1      36.637 -39.497  -9.000  1.00  0.00    -0.508 OA
ATOM     23  H   UNL     1      36.944 -40.186  -9.677  1.00  0.00     0.293 HD
ENDBRANCH  15  22
TORSDOF 3
ENDMDL
MODEL 8
REMARK VINA RESULT:    -4.801     13.174     15.866
REMARK INTER + INTRA:          -5.222
REMARK INTER:                  -5.222
REMARK INTRA:                   0.000
REMARK UNBOUND:                 0.000
REMARK SMILES Cc1cc(O)c2c(c1)C(=O)c1cc(O)cc(O)c1C2=O
REMARK SMILES IDX 1 1 2 2 8 3 7 4 6 5 4 6 3 7 19 8 20 9 18 10 11 11 9 12 10 13
REMARK SMILES IDX 12 14 13 15 15 16 16 17 5 18 17 20 14 22
REMARK H PARENT 5 19 17 21 14 23
REMARK Flexibility Score: inf
ROOT
ATOM      1  C   UNL     1      33.209 -30.778   2.270  1.00  0.00     0.044 C 
ATOM      2  C   UNL     1      31.765 -30.886   2.663  1.00  0.00    -0.047 A 
ATOM      3  C   UNL     1      30.876 -31.634   1.883  1.00  0.00     0.016 A 
ATOM      4  C   UNL     1      29.517 -31.718   2.227  1.00  0.00     0.038 A 
ATOM      5  C   UNL     1      29.038 -31.039   3.370  1.00  0.00     0.076 A 
ATOM      6  C   UNL     1      29.925 -30.214   4.106  1.00  0.00     0.127 A 
ATOM      7  C   UNL     1      31.278 -30.163   3.757  1.00  0.00     0.050 A 
ATOM      8  C   UNL     1      27.630 -31.270   3.785  1.00  0.00     0.201 C 
ATOM      9  O   UNL     1      27.315 -31.197   5.003  1.00  0.00    -0.288 OA
ATOM     10  C   UNL     1      26.641 -31.769   2.794  1.00  0.00     0.076 A 
ATOM     11  C   UNL     1      27.123 -32.444   1.651  1.00  0.00     0.041 A 
ATOM     12  C   UNL     1      28.582 -32.508   1.392  1.00  0.00     0.194 C 
ATOM     13  O   UNL     1      29.024 -33.215   0.444  1.00  0.00    -0.289 OA
ATOM     14  C   UNL     1      26.219 -33.050   0.762  1.00  0.00     0.059 A 
ATOM     15  C   UNL     1      24.843 -32.976   0.993  1.00  0.00     0.120 A 
ATOM     16  C   UNL     1      24.361 -32.276   2.098  1.00  0.00     0.093 A 
ATOM     17  C   UNL     1      25.240 -31.647   2.986  1.00  0.00     0.131 A 
ENDROOT
BRANCH   6  18
ATOM     18  O   UNL     1      29.501 -29.404   5.163  1.00  0.00    -0.507 OA
ATOM     19  H   UNL     1      30.045 -28.636   5.532  1.00  0.00     0.293 HD
ENDBRANCH   6  18
BRANCH  17  20
ATOM     20  O   UNL     1      24.680 -30.888   4.017  1.00  0.00    -0.507 OA
ATOM     21  H   UNL     1      24.415 -31.272   4.913  1.00  0.00     0.293 HD
ENDBRANCH  17  20
BRANCH  15  22
ATOM     22  O   UNL     1      23.943 -33.586   0.121  1.00  0.00    -0.508 OA
ATOM     23  H   UNL     1      22.941 -33.516   0.258  1.00  0.00     0.293 HD
ENDBRANCH  15  22
TORSDOF 3
ENDMDL
MODEL 9
REMARK VINA RESULT:    -4.687      3.377      4.810
REMARK INTER + INTRA:          -5.098
REMARK INTER:                  -5.098
REMARK INTRA:                   0.000
REMARK UNBOUND:                 0.000
REMARK SMILES Cc1cc(O)c2c(c1)C(=O)c1cc(O)cc(O)c1C2=O
REMARK SMILES IDX 1 1 2 2 8 3 7 4 6 5 4 6 3 7 19 8 20 9 18 10 11 11 9 12 10 13
REMARK SMILES IDX 12 14 13 15 15 16 16 17 5 18 17 20 14 22
REMARK H PARENT 5 19 17 21 14 23
REMARK Flexibility Score: inf
ROOT
ATOM      1  C   UNL     1      40.005 -32.904  -7.040  1.00  0.00     0.044 C 
ATOM      2  C   UNL     1      40.289 -34.227  -6.390  1.00  0.00    -0.047 A 
ATOM      3  C   UNL     1      39.380 -35.283  -6.516  1.00  0.00     0.016 A 
ATOM      4  C   UNL     1      39.623 -36.516  -5.888  1.00  0.00     0.038 A 
ATOM      5  C   UNL     1      40.795 -36.695  -5.120  1.00  0.00     0.076 A 
ATOM      6  C   UNL     1      41.670 -35.595  -4.927  1.00  0.00     0.127 A 
ATOM      7  C   UNL     1      41.417 -34.384  -5.579  1.00  0.00     0.050 A 
ATOM      8  C   UNL     1      41.091 -38.053  -4.596  1.00  0.00     0.201 C 
ATOM      9  O   UNL     1      42.287 -38.416  -4.433  1.00  0.00    -0.288 OA
ATOM     10  C   UNL     1      39.991 -39.042  -4.445  1.00  0.00     0.076 A 
ATOM     11  C   UNL     1      38.819 -38.858  -5.212  1.00  0.00     0.041 A 
ATOM     12  C   UNL     1      38.651 -37.627  -6.021  1.00  0.00     0.194 C 
ATOM     13  O   UNL     1      37.667 -37.516  -6.804  1.00  0.00    -0.289 OA
ATOM     14  C   UNL     1      37.815 -39.842  -5.202  1.00  0.00     0.059 A 
ATOM     15  C   UNL     1      37.961 -40.995  -4.426  1.00  0.00     0.120 A 
ATOM     16  C   UNL     1      39.098 -41.160  -3.637  1.00  0.00     0.093 A 
ATOM     17  C   UNL     1      40.102 -40.187  -3.614  1.00  0.00     0.131 A 
ENDROOT
BRANCH   6  18
ATOM     18  O   UNL     1      42.773 -35.650  -4.072  1.00  0.00    -0.507 OA
ATOM     19  H   UNL     1      43.289 -34.834  -3.772  1.00  0.00     0.293 HD
ENDBRANCH   6  18
BRANCH  17  20
ATOM     20  O   UNL     1      41.166 -40.379  -2.730  1.00  0.00    -0.507 OA
ATOM     21  H   UNL     1      41.241 -41.174  -2.110  1.00  0.00     0.293 HD
ENDBRANCH  17  20
BRANCH  15  22
ATOM     22  O   UNL     1      36.974 -41.978  -4.423  1.00  0.00    -0.508 OA
ATOM     23  H   UNL     1      36.081 -41.832  -3.967  1.00  0.00     0.293 HD
ENDBRANCH  15  22
TORSDOF 3
ENDMDL
