MODEL 1
REMARK VINA RESULT:     5.930      0.000      0.000
REMARK INTER + INTRA:           8.107
REMARK INTER:                   8.183
REMARK INTRA:                  -0.077
REMARK UNBOUND:                -0.077
REMARK SMILES CC[C@H](CC[C@H](C)[C@@H]1CC[C@H]2C3=CC[C@@H]4C[C@H](O)CC[C@@]4(C)[C@@H]3CC[C@]21C)C(C)C
REMARK SMILES IDX 5 1 4 2 3 3 2 4 1 5 28 6 29 7 30 8 6 9 7 10 8 11 9 12 26 13
REMARK SMILES IDX 10 14 11 15 25 16 27 17 12 18 24 19 23 20 13 21 21 22 14 23
REMARK SMILES IDX 15 24 20 25 22 26 16 27 19 28 17 29 18 30
REMARK H PARENT 18 31
REMARK Flexibility Score: inf
ROOT
ATOM      1  C   UNL     1     138.168 122.466 141.772  1.00  0.00     0.004 C 
ENDROOT
BRANCH   1   2
ATOM      2  C   UNL     1     138.258 123.769 142.623  1.00  0.00     0.004 C 
BRANCH   2   3
ATOM      3  C   UNL     1     137.250 123.854 143.808  1.00  0.00    -0.009 C 
BRANCH   3   4
ATOM      4  C   UNL     1     137.926 124.522 145.040  1.00  0.00     0.000 C 
ATOM      5  C   UNL     1     137.528 123.852 146.353  1.00  0.00     0.004 C 
ENDBRANCH   3   4
BRANCH   3   6
ATOM      6  C   UNL     1     135.924 124.601 143.413  1.00  0.00    -0.014 C 
ATOM      7  C   UNL     1     134.664 123.736 143.660  1.00  0.00     0.007 C 
ATOM      8  C   UNL     1     135.772 125.935 144.184  1.00  0.00     0.007 C 
ENDBRANCH   3   6
ENDBRANCH   2   3
ENDBRANCH   1   2
BRANCH   1   9
ATOM      9  C   UNL     1     138.600 122.571 140.266  1.00  0.00    -0.011 C 
ATOM     10  C   UNL     1     140.140 122.609 140.130  1.00  0.00     0.008 C 
BRANCH   9  11
ATOM     11  C   UNL     1     137.972 123.788 139.480  1.00  0.00    -0.002 C 
ATOM     12  C   UNL     1     138.175 125.141 140.197  1.00  0.00     0.005 C 
ATOM     13  C   UNL     1     136.437 123.741 139.122  1.00  0.00    -0.023 C 
ATOM     14  C   UNL     1     136.790 125.658 140.602  1.00  0.00     0.009 C 
ATOM     15  C   UNL     1     135.780 124.569 140.242  1.00  0.00     0.021 C 
ATOM     16  C   UNL     1     136.221 124.456 137.748  1.00  0.00     0.008 C 
ATOM     17  C   UNL     1     135.840 122.313 139.047  1.00  0.00     0.012 C 
ATOM     18  C   UNL     1     134.405 125.136 139.915  1.00  0.00    -0.067 C 
ATOM     19  C   UNL     1     134.757 124.780 137.431  1.00  0.00     0.009 C 
ATOM     20  C   UNL     1     134.122 125.682 138.519  1.00  0.00     0.021 C 
ATOM     21  C   UNL     1     133.577 125.413 140.954  1.00  0.00    -0.027 C 
ATOM     22  C   UNL     1     132.590 125.986 138.275  1.00  0.00    -0.023 C 
ATOM     23  C   UNL     1     132.226 126.065 140.802  1.00  0.00     0.031 C 
ATOM     24  C   UNL     1     132.087 126.839 139.475  1.00  0.00     0.002 C 
ATOM     25  C   UNL     1     132.423 126.848 136.991  1.00  0.00     0.010 C 
ATOM     26  C   UNL     1     131.778 124.658 138.135  1.00  0.00     0.012 C 
ATOM     27  C   UNL     1     130.636 127.384 139.312  1.00  0.00     0.036 C 
ATOM     28  C   UNL     1     130.958 127.233 136.754  1.00  0.00     0.032 C 
ATOM     29  C   UNL     1     130.319 128.006 137.934  1.00  0.00     0.114 C 
BRANCH  29  30
ATOM     30  O   UNL     1     128.904 127.990 137.773  1.00  0.00    -0.393 OA
ATOM     31  H   UNL     1     128.582 128.932 137.839  1.00  0.00     0.210 HD
ENDBRANCH  29  30
ENDBRANCH   9  11
ENDBRANCH   1   9
TORSDOF 7
ENDMDL
MODEL 2
REMARK VINA RESULT:     6.147      2.986      7.688
REMARK INTER + INTRA:           8.407
REMARK INTER:                   9.676
REMARK INTRA:                  -1.270
REMARK UNBOUND:                -0.077
REMARK SMILES CC[C@H](CC[C@H](C)[C@@H]1CC[C@H]2C3=CC[C@@H]4C[C@H](O)CC[C@@]4(C)[C@@H]3CC[C@]21C)C(C)C
REMARK SMILES IDX 5 1 4 2 3 3 2 4 1 5 28 6 29 7 30 8 6 9 7 10 8 11 9 12 26 13
REMARK SMILES IDX 10 14 11 15 25 16 27 17 12 18 24 19 23 20 13 21 21 22 14 23
REMARK SMILES IDX 15 24 20 25 22 26 16 27 19 28 17 29 18 30
REMARK H PARENT 18 31
REMARK Flexibility Score: inf
ROOT
ATOM      1  C   UNL     1     134.412 124.816 137.702  1.00  0.00     0.004 C 
ENDROOT
BRANCH   1   2
ATOM      2  C   UNL     1     133.778 126.001 138.493  1.00  0.00     0.004 C 
BRANCH   2   3
ATOM      3  C   UNL     1     132.251 126.205 138.262  1.00  0.00    -0.009 C 
BRANCH   3   4
ATOM      4  C   UNL     1     131.584 126.763 139.553  1.00  0.00     0.000 C 
ATOM      5  C   UNL     1     132.062 126.042 140.810  1.00  0.00     0.004 C 
ENDBRANCH   3   4
BRANCH   3   6
ATOM      6  C   UNL     1     131.951 127.126 137.024  1.00  0.00    -0.014 C 
ATOM      7  C   UNL     1     130.602 126.782 136.345  1.00  0.00     0.007 C 
ATOM      8  C   UNL     1     131.943 128.624 137.417  1.00  0.00     0.007 C 
ENDBRANCH   3   6
ENDBRANCH   2   3
ENDBRANCH   1   2
BRANCH   1   9
ATOM      9  C   UNL     1     135.876 124.403 138.095  1.00  0.00    -0.011 C 
ATOM     10  C   UNL     1     136.587 123.692 136.920  1.00  0.00     0.008 C 
BRANCH   9  11
ATOM     11  C   UNL     1     135.987 123.513 139.395  1.00  0.00    -0.002 C 
ATOM     12  C   UNL     1     134.612 123.120 139.978  1.00  0.00     0.005 C 
ATOM     13  C   UNL     1     136.808 124.071 140.620  1.00  0.00    -0.023 C 
ATOM     14  C   UNL     1     134.490 123.787 141.353  1.00  0.00     0.009 C 
ATOM     15  C   UNL     1     135.725 124.668 141.537  1.00  0.00     0.021 C 
ATOM     16  C   UNL     1     137.503 122.872 141.343  1.00  0.00     0.008 C 
ATOM     17  C   UNL     1     137.880 125.125 140.247  1.00  0.00     0.012 C 
ATOM     18  C   UNL     1     136.118 124.820 143.001  1.00  0.00    -0.067 C 
ATOM     19  C   UNL     1     138.058 123.211 142.732  1.00  0.00     0.009 C 
ATOM     20  C   UNL     1     136.949 123.735 143.679  1.00  0.00     0.021 C 
ATOM     21  C   UNL     1     135.468 125.760 143.731  1.00  0.00    -0.027 C 
ATOM     22  C   UNL     1     137.484 124.168 145.102  1.00  0.00    -0.023 C 
ATOM     23  C   UNL     1     135.674 125.966 145.211  1.00  0.00     0.031 C 
ATOM     24  C   UNL     1     136.274 124.726 145.905  1.00  0.00     0.002 C 
ATOM     25  C   UNL     1     138.012 122.921 145.867  1.00  0.00     0.010 C 
ATOM     26  C   UNL     1     138.622 125.231 144.966  1.00  0.00     0.012 C 
ATOM     27  C   UNL     1     136.584 125.036 147.400  1.00  0.00     0.036 C 
ATOM     28  C   UNL     1     138.472 123.278 147.285  1.00  0.00     0.032 C 
ATOM     29  C   UNL     1     137.370 123.938 148.150  1.00  0.00     0.114 C 
BRANCH  29  30
ATOM     30  O   UNL     1     137.984 124.547 149.281  1.00  0.00    -0.393 OA
ATOM     31  H   UNL     1     137.508 125.405 149.457  1.00  0.00     0.210 HD
ENDBRANCH  29  30
ENDBRANCH   9  11
ENDBRANCH   1   9
TORSDOF 7
ENDMDL
MODEL 3
REMARK VINA RESULT:     7.568      1.361      3.887
REMARK INTER + INTRA:          10.368
REMARK INTER:                  11.110
REMARK INTRA:                  -0.742
REMARK UNBOUND:                -0.077
REMARK SMILES CC[C@H](CC[C@H](C)[C@@H]1CC[C@H]2C3=CC[C@@H]4C[C@H](O)CC[C@@]4(C)[C@@H]3CC[C@]21C)C(C)C
REMARK SMILES IDX 5 1 4 2 3 3 2 4 1 5 28 6 29 7 30 8 6 9 7 10 8 11 9 12 26 13
REMARK SMILES IDX 10 14 11 15 25 16 27 17 12 18 24 19 23 20 13 21 21 22 14 23
REMARK SMILES IDX 15 24 20 25 22 26 16 27 19 28 17 29 18 30
REMARK H PARENT 18 31
REMARK Flexibility Score: inf
ROOT
ATOM      1  C   UNL     1     137.596 123.370 143.402  1.00  0.00     0.004 C 
ENDROOT
BRANCH   1   2
ATOM      2  C   UNL     1     137.621 123.209 141.852  1.00  0.00     0.004 C 
BRANCH   2   3
ATOM      3  C   UNL     1     138.626 124.140 141.108  1.00  0.00    -0.009 C 
BRANCH   3   4
ATOM      4  C   UNL     1     140.087 123.769 141.494  1.00  0.00     0.000 C 
ATOM      5  C   UNL     1     140.784 124.888 142.263  1.00  0.00     0.004 C 
ENDBRANCH   3   4
BRANCH   3   6
ATOM      6  C   UNL     1     138.425 124.112 139.549  1.00  0.00    -0.014 C 
ATOM      7  C   UNL     1     137.450 122.995 139.100  1.00  0.00     0.007 C 
ATOM      8  C   UNL     1     137.904 125.470 139.018  1.00  0.00     0.007 C 
ENDBRANCH   3   6
ENDBRANCH   2   3
ENDBRANCH   1   2
BRANCH   1   9
ATOM      9  C   UNL     1     136.477 124.295 144.000  1.00  0.00    -0.011 C 
ATOM     10  C   UNL     1     136.389 124.139 145.537  1.00  0.00     0.008 C 
BRANCH   9  11
ATOM     11  C   UNL     1     135.044 124.096 143.368  1.00  0.00    -0.002 C 
ATOM     12  C   UNL     1     134.912 122.780 142.570  1.00  0.00     0.005 C 
ATOM     13  C   UNL     1     134.484 125.215 142.407  1.00  0.00    -0.023 C 
ATOM     14  C   UNL     1     134.685 123.156 141.101  1.00  0.00     0.009 C 
ATOM     15  C   UNL     1     134.803 124.676 141.002  1.00  0.00     0.021 C 
ATOM     16  C   UNL     1     132.934 125.304 142.595  1.00  0.00     0.008 C 
ATOM     17  C   UNL     1     135.101 126.619 142.631  1.00  0.00     0.012 C 
ATOM     18  C   UNL     1     133.957 125.252 139.873  1.00  0.00    -0.067 C 
ATOM     19  C   UNL     1     132.214 126.105 141.503  1.00  0.00     0.009 C 
ATOM     20  C   UNL     1     132.470 125.510 140.095  1.00  0.00     0.021 C 
ATOM     21  C   UNL     1     134.484 125.235 138.622  1.00  0.00    -0.027 C 
ATOM     22  C   UNL     1     131.808 126.342 138.925  1.00  0.00    -0.023 C 
ATOM     23  C   UNL     1     133.737 125.678 137.389  1.00  0.00     0.031 C 
ATOM     24  C   UNL     1     132.207 125.661 137.585  1.00  0.00     0.002 C 
ATOM     25  C   UNL     1     130.258 126.268 139.039  1.00  0.00     0.010 C 
ATOM     26  C   UNL     1     132.275 127.833 138.974  1.00  0.00     0.012 C 
ATOM     27  C   UNL     1     131.492 126.247 136.330  1.00  0.00     0.036 C 
ATOM     28  C   UNL     1     129.569 126.998 137.881  1.00  0.00     0.032 C 
ATOM     29  C   UNL     1     129.971 126.467 136.484  1.00  0.00     0.114 C 
BRANCH  29  30
ATOM     30  O   UNL     1     129.576 127.423 135.504  1.00  0.00    -0.393 OA
ATOM     31  H   UNL     1     129.327 126.922 134.678  1.00  0.00     0.210 HD
ENDBRANCH  29  30
ENDBRANCH   9  11
ENDBRANCH   1   9
TORSDOF 7
ENDMDL
MODEL 4
REMARK VINA RESULT:     7.615      2.462      3.272
REMARK INTER + INTRA:          10.431
REMARK INTER:                  10.215
REMARK INTRA:                   0.217
REMARK UNBOUND:                -0.077
REMARK SMILES CC[C@H](CC[C@H](C)[C@@H]1CC[C@H]2C3=CC[C@@H]4C[C@H](O)CC[C@@]4(C)[C@@H]3CC[C@]21C)C(C)C
REMARK SMILES IDX 5 1 4 2 3 3 2 4 1 5 28 6 29 7 30 8 6 9 7 10 8 11 9 12 26 13
REMARK SMILES IDX 10 14 11 15 25 16 27 17 12 18 24 19 23 20 13 21 21 22 14 23
REMARK SMILES IDX 15 24 20 25 22 26 16 27 19 28 17 29 18 30
REMARK H PARENT 18 31
REMARK Flexibility Score: inf
ROOT
ATOM      1  C   UNL     1     140.052 123.765 142.121  1.00  0.00     0.004 C 
ENDROOT
BRANCH   1   2
ATOM      2  C   UNL     1     140.962 125.014 141.918  1.00  0.00     0.004 C 
BRANCH   2   3
ATOM      3  C   UNL     1     142.127 125.155 142.943  1.00  0.00    -0.009 C 
BRANCH   3   4
ATOM      4  C   UNL     1     143.490 124.876 142.248  1.00  0.00     0.000 C 
ATOM      5  C   UNL     1     144.584 124.507 143.246  1.00  0.00     0.004 C 
ENDBRANCH   3   4
BRANCH   3   6
ATOM      6  C   UNL     1     142.129 126.556 143.656  1.00  0.00    -0.014 C 
ATOM      7  C   UNL     1     141.988 126.437 145.194  1.00  0.00     0.007 C 
ATOM      8  C   UNL     1     143.417 127.355 143.336  1.00  0.00     0.007 C 
ENDBRANCH   3   6
ENDBRANCH   2   3
ENDBRANCH   1   2
BRANCH   1   9
ATOM      9  C   UNL     1     139.385 123.157 140.835  1.00  0.00    -0.011 C 
ATOM     10  C   UNL     1     140.413 122.359 140.000  1.00  0.00     0.008 C 
BRANCH   9  11
ATOM     11  C   UNL     1     138.654 124.207 139.908  1.00  0.00    -0.002 C 
ATOM     12  C   UNL     1     138.603 125.624 140.522  1.00  0.00     0.005 C 
ATOM     13  C   UNL     1     137.175 123.905 139.451  1.00  0.00    -0.023 C 
ATOM     14  C   UNL     1     137.130 125.956 140.786  1.00  0.00     0.009 C 
ATOM     15  C   UNL     1     136.319 124.705 140.450  1.00  0.00     0.021 C 
ATOM     16  C   UNL     1     136.971 124.477 138.010  1.00  0.00     0.008 C 
ATOM     17  C   UNL     1     136.797 122.402 139.456  1.00  0.00     0.012 C 
ATOM     18  C   UNL     1     134.907 125.036 139.982  1.00  0.00    -0.067 C 
ATOM     19  C   UNL     1     135.505 124.555 137.567  1.00  0.00     0.009 C 
ATOM     20  C   UNL     1     134.662 125.430 138.529  1.00  0.00     0.021 C 
ATOM     21  C   UNL     1     133.968 125.261 140.935  1.00  0.00    -0.027 C 
ATOM     22  C   UNL     1     133.127 125.483 138.156  1.00  0.00    -0.023 C 
ATOM     23  C   UNL     1     132.554 125.692 140.636  1.00  0.00     0.031 C 
ATOM     24  C   UNL     1     132.413 126.338 139.242  1.00  0.00     0.002 C 
ATOM     25  C   UNL     1     132.942 126.214 136.796  1.00  0.00     0.010 C 
ATOM     26  C   UNL     1     132.528 124.043 138.073  1.00  0.00     0.012 C 
ATOM     27  C   UNL     1     130.917 126.646 138.934  1.00  0.00     0.036 C 
ATOM     28  C   UNL     1     131.461 126.359 136.427  1.00  0.00     0.032 C 
ATOM     29  C   UNL     1     130.625 127.111 137.491  1.00  0.00     0.114 C 
BRANCH  29  30
ATOM     30  O   UNL     1     129.244 126.873 137.235  1.00  0.00    -0.393 OA
ATOM     31  H   UNL     1     128.778 126.827 138.115  1.00  0.00     0.210 HD
ENDBRANCH  29  30
ENDBRANCH   9  11
ENDBRANCH   1   9
TORSDOF 7
ENDMDL
MODEL 5
REMARK VINA RESULT:     7.649      3.790      8.375
REMARK INTER + INTRA:          10.479
REMARK INTER:                  10.377
REMARK INTRA:                   0.102
REMARK UNBOUND:                -0.077
REMARK SMILES CC[C@H](CC[C@H](C)[C@@H]1CC[C@H]2C3=CC[C@@H]4C[C@H](O)CC[C@@]4(C)[C@@H]3CC[C@]21C)C(C)C
REMARK SMILES IDX 5 1 4 2 3 3 2 4 1 5 28 6 29 7 30 8 6 9 7 10 8 11 9 12 26 13
REMARK SMILES IDX 10 14 11 15 25 16 27 17 12 18 24 19 23 20 13 21 21 22 14 23
REMARK SMILES IDX 15 24 20 25 22 26 16 27 19 28 17 29 18 30
REMARK H PARENT 18 31
REMARK Flexibility Score: inf
ROOT
ATOM      1  C   UNL     1     131.147 130.828 136.966  1.00  0.00     0.004 C 
ENDROOT
BRANCH   1   2
ATOM      2  C   UNL     1     131.566 131.959 137.953  1.00  0.00     0.004 C 
BRANCH   2   3
ATOM      3  C   UNL     1     132.991 132.544 137.718  1.00  0.00    -0.009 C 
BRANCH   3   4
ATOM      4  C   UNL     1     132.899 133.873 136.915  1.00  0.00     0.000 C 
ATOM      5  C   UNL     1     131.561 134.580 137.116  1.00  0.00     0.004 C 
ENDBRANCH   3   4
BRANCH   3   6
ATOM      6  C   UNL     1     133.783 132.746 139.061  1.00  0.00    -0.014 C 
ATOM      7  C   UNL     1     135.280 132.371 138.926  1.00  0.00     0.007 C 
ATOM      8  C   UNL     1     133.679 134.205 139.569  1.00  0.00     0.007 C 
ENDBRANCH   3   6
ENDBRANCH   2   3
ENDBRANCH   1   2
BRANCH   1   9
ATOM      9  C   UNL     1     130.198 129.710 137.530  1.00  0.00    -0.011 C 
ATOM     10  C   UNL     1     129.990 129.874 139.054  1.00  0.00     0.008 C 
BRANCH   9  11
ATOM     11  C   UNL     1     130.658 128.231 137.218  1.00  0.00    -0.002 C 
ATOM     12  C   UNL     1     129.675 127.167 137.753  1.00  0.00     0.005 C 
ATOM     13  C   UNL     1     132.079 127.765 137.717  1.00  0.00    -0.023 C 
ATOM     14  C   UNL     1     130.410 126.368 138.836  1.00  0.00     0.009 C 
ATOM     15  C   UNL     1     131.774 127.027 139.033  1.00  0.00     0.021 C 
ATOM     16  C   UNL     1     132.667 126.757 136.676  1.00  0.00     0.008 C 
ATOM     17  C   UNL     1     133.093 128.917 137.932  1.00  0.00     0.012 C 
ATOM     18  C   UNL     1     132.838 126.036 139.488  1.00  0.00    -0.067 C 
ATOM     19  C   UNL     1     133.883 125.970 137.181  1.00  0.00     0.009 C 
ATOM     20  C   UNL     1     133.551 125.163 138.461  1.00  0.00     0.021 C 
ATOM     21  C   UNL     1     132.902 125.750 140.813  1.00  0.00    -0.027 C 
ATOM     22  C   UNL     1     134.792 124.391 139.063  1.00  0.00    -0.023 C 
ATOM     23  C   UNL     1     133.833 124.721 141.407  1.00  0.00     0.031 C 
ATOM     24  C   UNL     1     134.316 123.689 140.368  1.00  0.00     0.002 C 
ATOM     25  C   UNL     1     135.247 123.277 138.077  1.00  0.00     0.010 C 
ATOM     26  C   UNL     1     135.974 125.374 139.339  1.00  0.00     0.012 C 
ATOM     27  C   UNL     1     135.369 122.731 141.001  1.00  0.00     0.036 C 
ATOM     28  C   UNL     1     136.402 122.449 138.651  1.00  0.00     0.032 C 
ATOM     29  C   UNL     1     136.074 121.780 140.009  1.00  0.00     0.114 C 
BRANCH  29  30
ATOM     30  O   UNL     1     137.293 121.357 140.613  1.00  0.00    -0.393 OA
ATOM     31  H   UNL     1     137.451 121.936 141.409  1.00  0.00     0.210 HD
ENDBRANCH  29  30
ENDBRANCH   9  11
ENDBRANCH   1   9
TORSDOF 7
ENDMDL
