MODEL 1
REMARK VINA RESULT:    -6.106      0.000      0.000
REMARK INTER + INTRA:         -18.078
REMARK INTER:                 -15.386
REMARK INTRA:                  -2.691
REMARK UNBOUND:                -2.691
REMARK SMILES CCCCCCCCCCCCCCCCCCCCCCCCCCCC(=O)[O-]
REMARK SMILES IDX 15 1 16 2 17 3 18 4 19 5 20 6 21 7 22 8 23 9 24 10 25 11
REMARK SMILES IDX 26 12 27 13 28 14 29 15 30 16 14 17 13 18 12 19 11 20 10 21
REMARK SMILES IDX 9 22 8 23 7 24 6 25 5 26 4 27 3 28 2 29 1 30
REMARK H PARENT
REMARK Flexibility Score: inf
ROOT
ATOM      1  C   UNL     1       7.503  -2.985 -36.782  1.00  0.00     0.000 C 
ENDROOT
BRANCH   1   2
ATOM      2  C   UNL     1       7.778  -1.473 -36.919  1.00  0.00     0.000 C 
BRANCH   2   3
ATOM      3  C   UNL     1       8.484  -1.044 -38.219  1.00  0.00     0.000 C 
BRANCH   3   4
ATOM      4  C   UNL     1       8.934   0.429 -38.198  1.00  0.00     0.000 C 
BRANCH   4   5
ATOM      5  C   UNL     1       7.831   1.371 -37.667  1.00  0.00     0.000 C 
BRANCH   5   6
ATOM      6  C   UNL     1       8.245   2.177 -36.424  1.00  0.00     0.000 C 
BRANCH   6   7
ATOM      7  C   UNL     1       9.603   1.738 -35.856  1.00  0.00     0.000 C 
BRANCH   7   8
ATOM      8  C   UNL     1       9.561   1.506 -34.336  1.00  0.00     0.000 C 
BRANCH   8   9
ATOM      9  C   UNL     1       8.126   1.443 -33.784  1.00  0.00     0.000 C 
BRANCH   9  10
ATOM     10  C   UNL     1       8.079   1.558 -32.252  1.00  0.00     0.000 C 
BRANCH  10  11
ATOM     11  C   UNL     1       6.654   1.805 -31.723  1.00  0.00     0.000 C 
BRANCH  11  12
ATOM     12  C   UNL     1       6.611   1.981 -30.198  1.00  0.00     0.006 C 
BRANCH  12  13
ATOM     13  C   UNL     1       6.869   0.674 -29.439  1.00  0.00     0.053 C 
BRANCH  13  14
ATOM     14  C   UNL     1       7.984   0.853 -28.457  1.00  0.00     0.041 C 
ATOM     15  O   UNL     1       9.168   1.004 -28.862  1.00  0.00    -0.550 OA
ATOM     16  O   UNL     1       7.710   0.898 -27.095  1.00  0.00    -0.550 OA
ENDBRANCH  13  14
ENDBRANCH  12  13
ENDBRANCH  11  12
ENDBRANCH  10  11
ENDBRANCH   9  10
ENDBRANCH   8   9
ENDBRANCH   7   8
ENDBRANCH   6   7
ENDBRANCH   5   6
ENDBRANCH   4   5
ENDBRANCH   3   4
ENDBRANCH   2   3
ENDBRANCH   1   2
BRANCH   1  17
ATOM     17  C   UNL     1       6.159  -3.366 -36.126  1.00  0.00     0.000 C 
BRANCH  17  18
ATOM     18  C   UNL     1       6.003  -4.862 -35.779  1.00  0.00     0.000 C 
BRANCH  18  19
ATOM     19  C   UNL     1       7.171  -5.449 -34.964  1.00  0.00     0.000 C 
BRANCH  19  20
ATOM     20  C   UNL     1       6.965  -5.381 -33.437  1.00  0.00     0.000 C 
BRANCH  20  21
ATOM     21  C   UNL     1       7.720  -6.500 -32.699  1.00  0.00     0.000 C 
BRANCH  21  22
ATOM     22  C   UNL     1       6.955  -7.836 -32.693  1.00  0.00    -0.000 C 
BRANCH  22  23
ATOM     23  C   UNL     1       5.425  -7.709 -32.799  1.00  0.00    -0.000 C 
BRANCH  23  24
ATOM     24  C   UNL     1       4.698  -8.165 -31.522  1.00  0.00    -0.000 C 
BRANCH  24  25
ATOM     25  C   UNL     1       5.497  -9.210 -30.727  1.00  0.00    -0.000 C 
BRANCH  25  26
ATOM     26  C   UNL     1       5.790  -8.759 -29.285  1.00  0.00    -0.000 C 
BRANCH  26  27
ATOM     27  C   UNL     1       7.284  -8.846 -28.935  1.00  0.00    -0.000 C 
BRANCH  27  28
ATOM     28  C   UNL     1       7.976  -7.475 -28.947  1.00  0.00    -0.000 C 
BRANCH  28  29
ATOM     29  C   UNL     1       6.947  -6.341 -29.032  1.00  0.00    -0.003 C 
ATOM     30  C   UNL     1       7.632  -4.987 -29.187  1.00  0.00     0.004 C 
ENDBRANCH  28  29
ENDBRANCH  27  28
ENDBRANCH  26  27
ENDBRANCH  25  26
ENDBRANCH  24  25
ENDBRANCH  23  24
ENDBRANCH  22  23
ENDBRANCH  21  22
ENDBRANCH  20  21
ENDBRANCH  19  20
ENDBRANCH  18  19
ENDBRANCH  17  18
ENDBRANCH   1  17
TORSDOF 26
ENDMDL
MODEL 2
REMARK VINA RESULT:    -6.069      4.178      7.490
REMARK INTER + INTRA:         -17.984
REMARK INTER:                 -15.027
REMARK INTRA:                  -2.957
REMARK UNBOUND:                -2.691
REMARK SMILES CCCCCCCCCCCCCCCCCCCCCCCCCCCC(=O)[O-]
REMARK SMILES IDX 15 1 16 2 17 3 18 4 19 5 20 6 21 7 22 8 23 9 24 10 25 11
REMARK SMILES IDX 26 12 27 13 28 14 29 15 30 16 14 17 13 18 12 19 11 20 10 21
REMARK SMILES IDX 9 22 8 23 7 24 6 25 5 26 4 27 3 28 2 29 1 30
REMARK H PARENT
REMARK Flexibility Score: inf
ROOT
ATOM      1  C   UNL     1      12.948   2.174 -35.518  1.00  0.00     0.000 C 
ENDROOT
BRANCH   1   2
ATOM      2  C   UNL     1      11.478   2.566 -35.260  1.00  0.00     0.000 C 
BRANCH   2   3
ATOM      3  C   UNL     1      10.535   1.403 -34.900  1.00  0.00     0.000 C 
BRANCH   3   4
ATOM      4  C   UNL     1       9.069   1.681 -35.281  1.00  0.00     0.000 C 
BRANCH   4   5
ATOM      5  C   UNL     1       8.932   2.244 -36.712  1.00  0.00     0.000 C 
BRANCH   5   6
ATOM      6  C   UNL     1       8.153   1.327 -37.671  1.00  0.00     0.000 C 
BRANCH   6   7
ATOM      7  C   UNL     1       9.024   0.211 -38.265  1.00  0.00     0.000 C 
BRANCH   7   8
ATOM      8  C   UNL     1       8.388  -1.181 -38.114  1.00  0.00     0.000 C 
BRANCH   8   9
ATOM      9  C   UNL     1       7.886  -1.451 -36.684  1.00  0.00     0.000 C 
BRANCH   9  10
ATOM     10  C   UNL     1       7.082  -2.758 -36.580  1.00  0.00     0.000 C 
BRANCH  10  11
ATOM     11  C   UNL     1       5.829  -2.609 -35.699  1.00  0.00     0.000 C 
BRANCH  11  12
ATOM     12  C   UNL     1       5.566  -1.154 -35.284  1.00  0.00     0.006 C 
BRANCH  12  13
ATOM     13  C   UNL     1       5.287  -1.002 -33.784  1.00  0.00     0.053 C 
BRANCH  13  14
ATOM     14  C   UNL     1       5.458   0.424 -33.363  1.00  0.00     0.041 C 
ATOM     15  O   UNL     1       4.450   1.161 -33.193  1.00  0.00    -0.550 OA
ATOM     16  O   UNL     1       6.729   0.928 -33.115  1.00  0.00    -0.550 OA
ENDBRANCH  13  14
ENDBRANCH  12  13
ENDBRANCH  11  12
ENDBRANCH  10  11
ENDBRANCH   9  10
ENDBRANCH   8   9
ENDBRANCH   7   8
ENDBRANCH   6   7
ENDBRANCH   5   6
ENDBRANCH   4   5
ENDBRANCH   3   4
ENDBRANCH   2   3
ENDBRANCH   1   2
BRANCH   1  17
ATOM     17  C   UNL     1      13.953   2.578 -34.420  1.00  0.00     0.000 C 
BRANCH  17  18
ATOM     18  C   UNL     1      13.660   1.999 -33.020  1.00  0.00     0.000 C 
BRANCH  18  19
ATOM     19  C   UNL     1      13.780   3.019 -31.873  1.00  0.00     0.000 C 
BRANCH  19  20
ATOM     20  C   UNL     1      12.601   2.986 -30.880  1.00  0.00     0.000 C 
BRANCH  20  21
ATOM     21  C   UNL     1      11.239   2.999 -31.594  1.00  0.00     0.000 C 
BRANCH  21  22
ATOM     22  C   UNL     1      10.344   1.810 -31.201  1.00  0.00    -0.000 C 
BRANCH  22  23
ATOM     23  C   UNL     1      10.456   1.371 -29.729  1.00  0.00    -0.000 C 
BRANCH  23  24
ATOM     24  C   UNL     1       9.088   1.088 -29.086  1.00  0.00    -0.000 C 
BRANCH  24  25
ATOM     25  C   UNL     1       7.921   1.269 -30.070  1.00  0.00    -0.000 C 
BRANCH  25  26
ATOM     26  C   UNL     1       6.563   0.883 -29.457  1.00  0.00    -0.000 C 
BRANCH  26  27
ATOM     27  C   UNL     1       6.472  -0.617 -29.132  1.00  0.00    -0.000 C 
BRANCH  27  28
ATOM     28  C   UNL     1       5.380  -0.933 -28.100  1.00  0.00    -0.000 C 
BRANCH  28  29
ATOM     29  C   UNL     1       5.976  -1.062 -26.693  1.00  0.00    -0.003 C 
ATOM     30  C   UNL     1       7.347  -1.731 -26.735  1.00  0.00     0.004 C 
ENDBRANCH  28  29
ENDBRANCH  27  28
ENDBRANCH  26  27
ENDBRANCH  25  26
ENDBRANCH  24  25
ENDBRANCH  23  24
ENDBRANCH  22  23
ENDBRANCH  21  22
ENDBRANCH  20  21
ENDBRANCH  19  20
ENDBRANCH  18  19
ENDBRANCH  17  18
ENDBRANCH   1  17
TORSDOF 26
ENDMDL
MODEL 3
REMARK VINA RESULT:    -5.985      3.356      8.560
REMARK INTER + INTRA:         -17.774
REMARK INTER:                 -14.991
REMARK INTRA:                  -2.783
REMARK UNBOUND:                -2.691
REMARK SMILES CCCCCCCCCCCCCCCCCCCCCCCCCCCC(=O)[O-]
REMARK SMILES IDX 15 1 16 2 17 3 18 4 19 5 20 6 21 7 22 8 23 9 24 10 25 11
REMARK SMILES IDX 26 12 27 13 28 14 29 15 30 16 14 17 13 18 12 19 11 20 10 21
REMARK SMILES IDX 9 22 8 23 7 24 6 25 5 26 4 27 3 28 2 29 1 30
REMARK H PARENT
REMARK Flexibility Score: inf
ROOT
ATOM      1  C   UNL     1      10.202   1.511 -34.646  1.00  0.00     0.000 C 
ENDROOT
BRANCH   1   2
ATOM      2  C   UNL     1       8.685   1.505 -34.931  1.00  0.00     0.000 C 
BRANCH   2   3
ATOM      3  C   UNL     1       8.266   2.077 -36.297  1.00  0.00     0.000 C 
BRANCH   3   4
ATOM      4  C   UNL     1       8.218   1.008 -37.405  1.00  0.00     0.000 C 
BRANCH   4   5
ATOM      5  C   UNL     1       8.117  -0.424 -36.833  1.00  0.00     0.000 C 
BRANCH   5   6
ATOM      6  C   UNL     1       8.136  -1.525 -37.906  1.00  0.00     0.000 C 
BRANCH   6   7
ATOM      7  C   UNL     1       7.920  -2.929 -37.321  1.00  0.00     0.000 C 
BRANCH   7   8
ATOM      8  C   UNL     1       6.720  -2.993 -36.363  1.00  0.00     0.000 C 
BRANCH   8   9
ATOM      9  C   UNL     1       5.874  -4.265 -36.556  1.00  0.00     0.000 C 
BRANCH   9  10
ATOM     10  C   UNL     1       6.277  -5.392 -35.591  1.00  0.00     0.000 C 
BRANCH  10  11
ATOM     11  C   UNL     1       7.402  -4.970 -34.629  1.00  0.00     0.000 C 
BRANCH  11  12
ATOM     12  C   UNL     1       7.473  -5.855 -33.376  1.00  0.00     0.006 C 
BRANCH  12  13
ATOM     13  C   UNL     1       6.588  -7.103 -33.476  1.00  0.00     0.053 C 
BRANCH  13  14
ATOM     14  C   UNL     1       6.382  -7.707 -32.122  1.00  0.00     0.041 C 
ATOM     15  O   UNL     1       5.341  -7.447 -31.463  1.00  0.00    -0.550 OA
ATOM     16  O   UNL     1       7.321  -8.594 -31.607  1.00  0.00    -0.550 OA
ENDBRANCH  13  14
ENDBRANCH  12  13
ENDBRANCH  11  12
ENDBRANCH  10  11
ENDBRANCH   9  10
ENDBRANCH   8   9
ENDBRANCH   7   8
ENDBRANCH   6   7
ENDBRANCH   5   6
ENDBRANCH   4   5
ENDBRANCH   3   4
ENDBRANCH   2   3
ENDBRANCH   1   2
BRANCH   1  17
ATOM     17  C   UNL     1      11.067   2.327 -35.629  1.00  0.00     0.000 C 
BRANCH  17  18
ATOM     18  C   UNL     1      12.583   2.298 -35.343  1.00  0.00     0.000 C 
BRANCH  18  19
ATOM     19  C   UNL     1      12.965   1.618 -34.015  1.00  0.00     0.000 C 
BRANCH  19  20
ATOM     20  C   UNL     1      14.075   2.350 -33.233  1.00  0.00     0.000 C 
BRANCH  20  21
ATOM     21  C   UNL     1      13.591   2.834 -31.856  1.00  0.00     0.000 C 
BRANCH  21  22
ATOM     22  C   UNL     1      12.064   3.017 -31.786  1.00  0.00    -0.000 C 
BRANCH  22  23
ATOM     23  C   UNL     1      11.400   2.452 -30.517  1.00  0.00    -0.000 C 
BRANCH  23  24
ATOM     24  C   UNL     1      10.315   1.406 -30.826  1.00  0.00    -0.000 C 
BRANCH  24  25
ATOM     25  C   UNL     1       9.020   2.037 -31.363  1.00  0.00    -0.000 C 
BRANCH  25  26
ATOM     26  C   UNL     1       7.757   1.430 -30.725  1.00  0.00    -0.000 C 
BRANCH  26  27
ATOM     27  C   UNL     1       6.498   1.671 -31.572  1.00  0.00    -0.000 C 
BRANCH  27  28
ATOM     28  C   UNL     1       5.999   0.395 -32.267  1.00  0.00    -0.000 C 
BRANCH  28  29
ATOM     29  C   UNL     1       5.058   0.734 -33.428  1.00  0.00    -0.003 C 
ATOM     30  C   UNL     1       5.011  -0.400 -34.448  1.00  0.00     0.004 C 
ENDBRANCH  28  29
ENDBRANCH  27  28
ENDBRANCH  26  27
ENDBRANCH  25  26
ENDBRANCH  24  25
ENDBRANCH  23  24
ENDBRANCH  22  23
ENDBRANCH  21  22
ENDBRANCH  20  21
ENDBRANCH  19  20
ENDBRANCH  18  19
ENDBRANCH  17  18
ENDBRANCH   1  17
TORSDOF 26
ENDMDL
MODEL 4
REMARK VINA RESULT:    -5.985      3.570      7.538
REMARK INTER + INTRA:         -17.773
REMARK INTER:                 -12.935
REMARK INTRA:                  -4.838
REMARK UNBOUND:                -2.691
REMARK SMILES CCCCCCCCCCCCCCCCCCCCCCCCCCCC(=O)[O-]
REMARK SMILES IDX 15 1 16 2 17 3 18 4 19 5 20 6 21 7 22 8 23 9 24 10 25 11
REMARK SMILES IDX 26 12 27 13 28 14 29 15 30 16 14 17 13 18 12 19 11 20 10 21
REMARK SMILES IDX 9 22 8 23 7 24 6 25 5 26 4 27 3 28 2 29 1 30
REMARK H PARENT
REMARK Flexibility Score: inf
ROOT
ATOM      1  C   UNL     1       4.324  -8.208 -32.542  1.00  0.00     0.000 C 
ENDROOT
BRANCH   1   2
ATOM      2  C   UNL     1       4.600  -8.656 -31.091  1.00  0.00     0.000 C 
BRANCH   2   3
ATOM      3  C   UNL     1       5.374  -7.648 -30.222  1.00  0.00     0.000 C 
BRANCH   3   4
ATOM      4  C   UNL     1       6.048  -8.302 -29.003  1.00  0.00     0.000 C 
BRANCH   4   5
ATOM      5  C   UNL     1       6.941  -9.499 -29.398  1.00  0.00     0.000 C 
BRANCH   5   6
ATOM      6  C   UNL     1       8.335  -9.478 -28.747  1.00  0.00     0.000 C 
BRANCH   6   7
ATOM      7  C   UNL     1       9.164  -8.252 -29.155  1.00  0.00     0.000 C 
BRANCH   7   8
ATOM      8  C   UNL     1       9.825  -7.557 -27.953  1.00  0.00     0.000 C 
BRANCH   8   9
ATOM      9  C   UNL     1       9.168  -6.208 -27.613  1.00  0.00     0.000 C 
BRANCH   9  10
ATOM     10  C   UNL     1       8.641  -5.478 -28.860  1.00  0.00     0.000 C 
BRANCH  10  11
ATOM     11  C   UNL     1       7.244  -4.871 -28.640  1.00  0.00     0.000 C 
BRANCH  11  12
ATOM     12  C   UNL     1       7.272  -3.632 -27.734  1.00  0.00     0.006 C 
BRANCH  12  13
ATOM     13  C   UNL     1       8.206  -2.532 -28.255  1.00  0.00     0.053 C 
BRANCH  13  14
ATOM     14  C   UNL     1       7.544  -1.194 -28.153  1.00  0.00     0.041 C 
ATOM     15  O   UNL     1       7.777  -0.304 -29.014  1.00  0.00    -0.550 OA
ATOM     16  O   UNL     1       6.634  -0.945 -27.132  1.00  0.00    -0.550 OA
ENDBRANCH  13  14
ENDBRANCH  12  13
ENDBRANCH  11  12
ENDBRANCH  10  11
ENDBRANCH   9  10
ENDBRANCH   8   9
ENDBRANCH   7   8
ENDBRANCH   6   7
ENDBRANCH   5   6
ENDBRANCH   4   5
ENDBRANCH   3   4
ENDBRANCH   2   3
ENDBRANCH   1   2
BRANCH   1  17
ATOM     17  C   UNL     1       4.022  -9.337 -33.548  1.00  0.00     0.000 C 
BRANCH  17  18
ATOM     18  C   UNL     1       4.144  -8.938 -35.034  1.00  0.00     0.000 C 
BRANCH  18  19
ATOM     19  C   UNL     1       4.811  -7.571 -35.270  1.00  0.00     0.000 C 
BRANCH  19  20
ATOM     20  C   UNL     1       5.181  -7.300 -36.743  1.00  0.00     0.000 C 
BRANCH  20  21
ATOM     21  C   UNL     1       5.450  -5.810 -37.009  1.00  0.00     0.000 C 
BRANCH  21  22
ATOM     22  C   UNL     1       5.707  -5.007 -35.721  1.00  0.00    -0.000 C 
BRANCH  22  23
ATOM     23  C   UNL     1       7.162  -4.541 -35.526  1.00  0.00    -0.000 C 
BRANCH  23  24
ATOM     24  C   UNL     1       7.945  -5.427 -34.541  1.00  0.00    -0.000 C 
BRANCH  24  25
ATOM     25  C   UNL     1       7.177  -5.682 -33.234  1.00  0.00    -0.000 C 
BRANCH  25  26
ATOM     26  C   UNL     1       7.823  -6.781 -32.372  1.00  0.00    -0.000 C 
BRANCH  26  27
ATOM     27  C   UNL     1       7.920  -8.124 -33.112  1.00  0.00    -0.000 C 
BRANCH  27  28
ATOM     28  C   UNL     1       9.153  -8.941 -32.696  1.00  0.00    -0.000 C 
BRANCH  28  29
ATOM     29  C   UNL     1       8.796 -10.421 -32.518  1.00  0.00    -0.003 C 
ATOM     30  C   UNL     1       7.339 -10.685 -32.889  1.00  0.00     0.004 C 
ENDBRANCH  28  29
ENDBRANCH  27  28
ENDBRANCH  26  27
ENDBRANCH  25  26
ENDBRANCH  24  25
ENDBRANCH  23  24
ENDBRANCH  22  23
ENDBRANCH  21  22
ENDBRANCH  20  21
ENDBRANCH  19  20
ENDBRANCH  18  19
ENDBRANCH  17  18
ENDBRANCH   1  17
TORSDOF 26
ENDMDL
MODEL 5
REMARK VINA RESULT:    -5.936      5.606     10.745
REMARK INTER + INTRA:         -17.651
REMARK INTER:                 -12.719
REMARK INTRA:                  -4.932
REMARK UNBOUND:                -2.691
REMARK SMILES CCCCCCCCCCCCCCCCCCCCCCCCCCCC(=O)[O-]
REMARK SMILES IDX 15 1 16 2 17 3 18 4 19 5 20 6 21 7 22 8 23 9 24 10 25 11
REMARK SMILES IDX 26 12 27 13 28 14 29 15 30 16 14 17 13 18 12 19 11 20 10 21
REMARK SMILES IDX 9 22 8 23 7 24 6 25 5 26 4 27 3 28 2 29 1 30
REMARK H PARENT
REMARK Flexibility Score: inf
ROOT
ATOM      1  C   UNL     1       9.470  -8.141 -27.869  1.00  0.00     0.000 C 
ENDROOT
BRANCH   1   2
ATOM      2  C   UNL     1      10.405  -8.720 -28.951  1.00  0.00     0.000 C 
BRANCH   2   3
ATOM      3  C   UNL     1      11.877  -8.888 -28.533  1.00  0.00     0.000 C 
BRANCH   3   4
ATOM      4  C   UNL     1      12.432 -10.290 -28.845  1.00  0.00     0.000 C 
BRANCH   4   5
ATOM      5  C   UNL     1      11.983 -10.803 -30.231  1.00  0.00     0.000 C 
BRANCH   5   6
ATOM      6  C   UNL     1      11.413 -12.232 -30.212  1.00  0.00     0.000 C 
BRANCH   6   7
ATOM      7  C   UNL     1      11.065 -12.714 -28.796  1.00  0.00     0.000 C 
BRANCH   7   8
ATOM      8  C   UNL     1       9.551 -12.724 -28.529  1.00  0.00     0.000 C 
BRANCH   8   9
ATOM      9  C   UNL     1       9.212 -12.614 -27.032  1.00  0.00     0.000 C 
BRANCH   9  10
ATOM     10  C   UNL     1       9.948 -11.452 -26.345  1.00  0.00     0.000 C 
BRANCH  10  11
ATOM     11  C   UNL     1      10.047 -11.638 -24.820  1.00  0.00     0.000 C 
BRANCH  11  12
ATOM     12  C   UNL     1      11.402 -11.186 -24.256  1.00  0.00     0.006 C 
BRANCH  12  13
ATOM     13  C   UNL     1      11.973  -9.962 -24.983  1.00  0.00     0.053 C 
BRANCH  13  14
ATOM     14  C   UNL     1      12.343  -8.896 -23.999  1.00  0.00     0.041 C 
ATOM     15  O   UNL     1      11.496  -8.485 -23.160  1.00  0.00    -0.550 OA
ATOM     16  O   UNL     1      13.637  -8.389 -23.977  1.00  0.00    -0.550 OA
ENDBRANCH  13  14
ENDBRANCH  12  13
ENDBRANCH  11  12
ENDBRANCH  10  11
ENDBRANCH   9  10
ENDBRANCH   8   9
ENDBRANCH   7   8
ENDBRANCH   6   7
ENDBRANCH   5   6
ENDBRANCH   4   5
ENDBRANCH   3   4
ENDBRANCH   2   3
ENDBRANCH   1   2
BRANCH   1  17
ATOM     17  C   UNL     1       8.652  -6.900 -28.282  1.00  0.00     0.000 C 
BRANCH  17  18
ATOM     18  C   UNL     1       7.899  -7.031 -29.623  1.00  0.00     0.000 C 
BRANCH  18  19
ATOM     19  C   UNL     1       6.373  -7.181 -29.481  1.00  0.00     0.000 C 
BRANCH  19  20
ATOM     20  C   UNL     1       5.924  -8.567 -28.976  1.00  0.00     0.000 C 
BRANCH  20  21
ATOM     21  C   UNL     1       5.871  -9.608 -30.108  1.00  0.00     0.000 C 
BRANCH  21  22
ATOM     22  C   UNL     1       7.101 -10.534 -30.128  1.00  0.00    -0.000 C 
BRANCH  22  23
ATOM     23  C   UNL     1       7.592 -10.931 -31.533  1.00  0.00    -0.000 C 
BRANCH  23  24
ATOM     24  C   UNL     1       8.847 -10.154 -31.967  1.00  0.00    -0.000 C 
BRANCH  24  25
ATOM     25  C   UNL     1       8.653  -9.413 -33.300  1.00  0.00    -0.000 C 
BRANCH  25  26
ATOM     26  C   UNL     1       7.170  -9.171 -33.633  1.00  0.00    -0.000 C 
BRANCH  26  27
ATOM     27  C   UNL     1       6.706  -7.757 -33.246  1.00  0.00    -0.000 C 
BRANCH  27  28
ATOM     28  C   UNL     1       7.852  -6.734 -33.261  1.00  0.00    -0.000 C 
BRANCH  28  29
ATOM     29  C   UNL     1       7.358  -5.364 -33.741  1.00  0.00    -0.003 C 
ATOM     30  C   UNL     1       6.822  -5.442 -35.168  1.00  0.00     0.004 C 
ENDBRANCH  28  29
ENDBRANCH  27  28
ENDBRANCH  26  27
ENDBRANCH  25  26
ENDBRANCH  24  25
ENDBRANCH  23  24
ENDBRANCH  22  23
ENDBRANCH  21  22
ENDBRANCH  20  21
ENDBRANCH  19  20
ENDBRANCH  18  19
ENDBRANCH  17  18
ENDBRANCH   1  17
TORSDOF 26
ENDMDL
MODEL 6
REMARK VINA RESULT:    -5.913      3.468     10.292
REMARK INTER + INTRA:         -17.591
REMARK INTER:                 -14.365
REMARK INTRA:                  -3.226
REMARK UNBOUND:                -2.691
REMARK SMILES CCCCCCCCCCCCCCCCCCCCCCCCCCCC(=O)[O-]
REMARK SMILES IDX 15 1 16 2 17 3 18 4 19 5 20 6 21 7 22 8 23 9 24 10 25 11
REMARK SMILES IDX 26 12 27 13 28 14 29 15 30 16 14 17 13 18 12 19 11 20 10 21
REMARK SMILES IDX 9 22 8 23 7 24 6 25 5 26 4 27 3 28 2 29 1 30
REMARK H PARENT
REMARK Flexibility Score: inf
ROOT
ATOM      1  C   UNL     1       7.265  -5.739 -32.429  1.00  0.00     0.000 C 
ENDROOT
BRANCH   1   2
ATOM      2  C   UNL     1       8.017  -6.470 -31.296  1.00  0.00     0.000 C 
BRANCH   2   3
ATOM      3  C   UNL     1       7.380  -6.357 -29.899  1.00  0.00     0.000 C 
BRANCH   3   4
ATOM      4  C   UNL     1       8.101  -7.214 -28.842  1.00  0.00     0.000 C 
BRANCH   4   5
ATOM      5  C   UNL     1       7.696  -8.703 -28.920  1.00  0.00     0.000 C 
BRANCH   5   6
ATOM      6  C   UNL     1       6.182  -8.930 -29.063  1.00  0.00     0.000 C 
BRANCH   6   7
ATOM      7  C   UNL     1       5.823  -9.798 -30.278  1.00  0.00     0.000 C 
BRANCH   7   8
ATOM      8  C   UNL     1       5.401  -8.963 -31.498  1.00  0.00     0.000 C 
BRANCH   8   9
ATOM      9  C   UNL     1       5.546  -9.733 -32.823  1.00  0.00     0.000 C 
BRANCH   9  10
ATOM     10  C   UNL     1       6.687 -10.763 -32.785  1.00  0.00     0.000 C 
BRANCH  10  11
ATOM     11  C   UNL     1       8.016 -10.190 -33.308  1.00  0.00     0.000 C 
BRANCH  11  12
ATOM     12  C   UNL     1       9.003  -9.859 -32.179  1.00  0.00     0.006 C 
BRANCH  12  13
ATOM     13  C   UNL     1      10.345 -10.588 -32.327  1.00  0.00     0.053 C 
BRANCH  13  14
ATOM     14  C   UNL     1      11.474  -9.684 -31.942  1.00  0.00     0.041 C 
ATOM     15  O   UNL     1      12.097  -9.036 -32.825  1.00  0.00    -0.550 OA
ATOM     16  O   UNL     1      11.809  -9.523 -30.603  1.00  0.00    -0.550 OA
ENDBRANCH  13  14
ENDBRANCH  12  13
ENDBRANCH  11  12
ENDBRANCH  10  11
ENDBRANCH   9  10
ENDBRANCH   8   9
ENDBRANCH   7   8
ENDBRANCH   6   7
ENDBRANCH   5   6
ENDBRANCH   4   5
ENDBRANCH   3   4
ENDBRANCH   2   3
ENDBRANCH   1   2
BRANCH   1  17
ATOM     17  C   UNL     1       7.745  -6.047 -33.862  1.00  0.00     0.000 C 
BRANCH  17  18
ATOM     18  C   UNL     1       7.520  -4.914 -34.884  1.00  0.00     0.000 C 
BRANCH  18  19
ATOM     19  C   UNL     1       6.293  -5.115 -35.793  1.00  0.00     0.000 C 
BRANCH  19  20
ATOM     20  C   UNL     1       5.701  -3.802 -36.346  1.00  0.00     0.000 C 
BRANCH  20  21
ATOM     21  C   UNL     1       6.387  -2.560 -35.752  1.00  0.00     0.000 C 
BRANCH  21  22
ATOM     22  C   UNL     1       5.500  -1.812 -34.740  1.00  0.00    -0.000 C 
BRANCH  22  23
ATOM     23  C   UNL     1       5.507  -0.279 -34.879  1.00  0.00    -0.000 C 
BRANCH  23  24
ATOM     24  C   UNL     1       6.181   0.425 -33.689  1.00  0.00    -0.000 C 
BRANCH  24  25
ATOM     25  C   UNL     1       7.073   1.600 -34.123  1.00  0.00    -0.000 C 
BRANCH  25  26
ATOM     26  C   UNL     1       8.548   1.195 -34.285  1.00  0.00    -0.000 C 
BRANCH  26  27
ATOM     27  C   UNL     1       9.114   1.580 -35.662  1.00  0.00    -0.000 C 
BRANCH  27  28
ATOM     28  C   UNL     1       8.029   2.077 -36.629  1.00  0.00    -0.000 C 
BRANCH  28  29
ATOM     29  C   UNL     1       7.799   1.070 -37.761  1.00  0.00    -0.003 C 
ATOM     30  C   UNL     1       8.949   0.070 -37.850  1.00  0.00     0.004 C 
ENDBRANCH  28  29
ENDBRANCH  27  28
ENDBRANCH  26  27
ENDBRANCH  25  26
ENDBRANCH  24  25
ENDBRANCH  23  24
ENDBRANCH  22  23
ENDBRANCH  21  22
ENDBRANCH  20  21
ENDBRANCH  19  20
ENDBRANCH  18  19
ENDBRANCH  17  18
ENDBRANCH   1  17
TORSDOF 26
ENDMDL
MODEL 7
REMARK VINA RESULT:    -5.847      6.789      9.599
REMARK INTER + INTRA:         -17.425
REMARK INTER:                 -12.434
REMARK INTRA:                  -4.991
REMARK UNBOUND:                -2.691
REMARK SMILES CCCCCCCCCCCCCCCCCCCCCCCCCCCC(=O)[O-]
REMARK SMILES IDX 15 1 16 2 17 3 18 4 19 5 20 6 21 7 22 8 23 9 24 10 25 11
REMARK SMILES IDX 26 12 27 13 28 14 29 15 30 16 14 17 13 18 12 19 11 20 10 21
REMARK SMILES IDX 9 22 8 23 7 24 6 25 5 26 4 27 3 28 2 29 1 30
REMARK H PARENT
REMARK Flexibility Score: inf
ROOT
ATOM      1  C   UNL     1       8.381  -8.601 -32.846  1.00  0.00     0.000 C 
ENDROOT
BRANCH   1   2
ATOM      2  C   UNL     1       8.515  -7.580 -31.698  1.00  0.00     0.000 C 
BRANCH   2   3
ATOM      3  C   UNL     1       7.632  -6.325 -31.821  1.00  0.00     0.000 C 
BRANCH   3   4
ATOM      4  C   UNL     1       7.266  -5.714 -30.456  1.00  0.00     0.000 C 
BRANCH   4   5
ATOM      5  C   UNL     1       8.492  -5.110 -29.736  1.00  0.00     0.000 C 
BRANCH   5   6
ATOM      6  C   UNL     1       8.532  -5.399 -28.225  1.00  0.00     0.000 C 
BRANCH   6   7
ATOM      7  C   UNL     1       8.927  -6.848 -27.907  1.00  0.00     0.000 C 
BRANCH   7   8
ATOM      8  C   UNL     1      10.336  -7.202 -28.409  1.00  0.00     0.000 C 
BRANCH   8   9
ATOM      9  C   UNL     1      11.135  -8.039 -27.395  1.00  0.00     0.000 C 
BRANCH   9  10
ATOM     10  C   UNL     1      10.381  -9.303 -26.950  1.00  0.00     0.000 C 
BRANCH  10  11
ATOM     11  C   UNL     1      11.031  -9.978 -25.729  1.00  0.00     0.000 C 
BRANCH  11  12
ATOM     12  C   UNL     1      10.344 -11.297 -25.346  1.00  0.00     0.006 C 
BRANCH  12  13
ATOM     13  C   UNL     1       9.749 -12.033 -26.554  1.00  0.00     0.053 C 
BRANCH  13  14
ATOM     14  C   UNL     1       8.867 -13.153 -26.099  1.00  0.00     0.041 C 
ATOM     15  O   UNL     1       8.757 -13.416 -24.871  1.00  0.00    -0.550 OA
ATOM     16  O   UNL     1       8.130 -13.879 -27.028  1.00  0.00    -0.550 OA
ENDBRANCH  13  14
ENDBRANCH  12  13
ENDBRANCH  11  12
ENDBRANCH  10  11
ENDBRANCH   9  10
ENDBRANCH   8   9
ENDBRANCH   7   8
ENDBRANCH   6   7
ENDBRANCH   5   6
ENDBRANCH   4   5
ENDBRANCH   3   4
ENDBRANCH   2   3
ENDBRANCH   1   2
BRANCH   1  17
ATOM     17  C   UNL     1       9.522  -9.633 -32.965  1.00  0.00     0.000 C 
BRANCH  17  18
ATOM     18  C   UNL     1      10.720  -9.393 -32.023  1.00  0.00     0.000 C 
BRANCH  18  19
ATOM     19  C   UNL     1      10.748 -10.311 -30.787  1.00  0.00     0.000 C 
BRANCH  19  20
ATOM     20  C   UNL     1       9.965 -11.627 -30.966  1.00  0.00     0.000 C 
BRANCH  20  21
ATOM     21  C   UNL     1       8.900 -11.822 -29.873  1.00  0.00     0.000 C 
BRANCH  21  22
ATOM     22  C   UNL     1       7.653 -10.945 -30.087  1.00  0.00    -0.000 C 
BRANCH  22  23
ATOM     23  C   UNL     1       7.445  -9.845 -29.030  1.00  0.00    -0.000 C 
BRANCH  23  24
ATOM     24  C   UNL     1       6.177  -9.010 -29.279  1.00  0.00    -0.000 C 
BRANCH  24  25
ATOM     25  C   UNL     1       5.478  -9.375 -30.599  1.00  0.00    -0.000 C 
BRANCH  25  26
ATOM     26  C   UNL     1       4.709  -8.189 -31.209  1.00  0.00    -0.000 C 
BRANCH  26  27
ATOM     27  C   UNL     1       3.951  -8.578 -32.488  1.00  0.00    -0.000 C 
BRANCH  27  28
ATOM     28  C   UNL     1       4.682  -8.139 -33.765  1.00  0.00    -0.000 C 
BRANCH  28  29
ATOM     29  C   UNL     1       5.222  -9.352 -34.533  1.00  0.00    -0.003 C 
ATOM     30  C   UNL     1       5.792  -8.936 -35.886  1.00  0.00     0.004 C 
ENDBRANCH  28  29
ENDBRANCH  27  28
ENDBRANCH  26  27
ENDBRANCH  25  26
ENDBRANCH  24  25
ENDBRANCH  23  24
ENDBRANCH  22  23
ENDBRANCH  21  22
ENDBRANCH  20  21
ENDBRANCH  19  20
ENDBRANCH  18  19
ENDBRANCH  17  18
ENDBRANCH   1  17
TORSDOF 26
ENDMDL
MODEL 8
REMARK VINA RESULT:    -5.838      5.504      7.988
REMARK INTER + INTRA:         -17.404
REMARK INTER:                 -12.354
REMARK INTRA:                  -5.050
REMARK UNBOUND:                -2.691
REMARK SMILES CCCCCCCCCCCCCCCCCCCCCCCCCCCC(=O)[O-]
REMARK SMILES IDX 15 1 16 2 17 3 18 4 19 5 20 6 21 7 22 8 23 9 24 10 25 11
REMARK SMILES IDX 26 12 27 13 28 14 29 15 30 16 14 17 13 18 12 19 11 20 10 21
REMARK SMILES IDX 9 22 8 23 7 24 6 25 5 26 4 27 3 28 2 29 1 30
REMARK H PARENT
REMARK Flexibility Score: inf
ROOT
ATOM      1  C   UNL     1       4.494  -8.311 -31.309  1.00  0.00     0.000 C 
ENDROOT
BRANCH   1   2
ATOM      2  C   UNL     1       4.160  -8.258 -32.815  1.00  0.00     0.000 C 
BRANCH   2   3
ATOM      3  C   UNL     1       4.142  -9.618 -33.538  1.00  0.00     0.000 C 
BRANCH   3   4
ATOM      4  C   UNL     1       5.135  -9.685 -34.712  1.00  0.00     0.000 C 
BRANCH   4   5
ATOM      5  C   UNL     1       6.505 -10.260 -34.289  1.00  0.00     0.000 C 
BRANCH   5   6
ATOM      6  C   UNL     1       7.645  -9.227 -34.303  1.00  0.00     0.000 C 
BRANCH   6   7
ATOM      7  C   UNL     1       8.594  -9.373 -33.104  1.00  0.00     0.000 C 
BRANCH   7   8
ATOM      8  C   UNL     1       8.692  -8.088 -32.266  1.00  0.00     0.000 C 
BRANCH   8   9
ATOM      9  C   UNL     1       7.681  -7.014 -32.706  1.00  0.00     0.000 C 
BRANCH   9  10
ATOM     10  C   UNL     1       7.424  -5.964 -31.613  1.00  0.00     0.000 C 
BRANCH  10  11
ATOM     11  C   UNL     1       7.945  -6.408 -30.234  1.00  0.00     0.000 C 
BRANCH  11  12
ATOM     12  C   UNL     1       7.183  -5.752 -29.074  1.00  0.00     0.006 C 
BRANCH  12  13
ATOM     13  C   UNL     1       8.079  -4.872 -28.193  1.00  0.00     0.053 C 
BRANCH  13  14
ATOM     14  C   UNL     1       7.279  -3.770 -27.572  1.00  0.00     0.041 C 
ATOM     15  O   UNL     1       6.021  -3.783 -27.640  1.00  0.00    -0.550 OA
ATOM     16  O   UNL     1       7.921  -2.751 -26.878  1.00  0.00    -0.550 OA
ENDBRANCH  13  14
ENDBRANCH  12  13
ENDBRANCH  11  12
ENDBRANCH  10  11
ENDBRANCH   9  10
ENDBRANCH   8   9
ENDBRANCH   7   8
ENDBRANCH   6   7
ENDBRANCH   5   6
ENDBRANCH   4   5
ENDBRANCH   3   4
ENDBRANCH   2   3
ENDBRANCH   1   2
BRANCH   1  17
ATOM     17  C   UNL     1       5.507  -9.394 -30.884  1.00  0.00     0.000 C 
BRANCH  17  18
ATOM     18  C   UNL     1       5.932  -9.344 -29.401  1.00  0.00     0.000 C 
BRANCH  18  19
ATOM     19  C   UNL     1       7.383  -9.789 -29.142  1.00  0.00     0.000 C 
BRANCH  19  20
ATOM     20  C   UNL     1       7.778 -11.092 -29.866  1.00  0.00     0.000 C 
BRANCH  20  21
ATOM     21  C   UNL     1       8.534 -12.063 -28.944  1.00  0.00     0.000 C 
BRANCH  21  22
ATOM     22  C   UNL     1       9.968 -12.354 -29.425  1.00  0.00    -0.000 C 
BRANCH  22  23
ATOM     23  C   UNL     1      10.401 -11.577 -30.682  1.00  0.00    -0.000 C 
BRANCH  23  24
ATOM     24  C   UNL     1      11.287 -10.362 -30.357  1.00  0.00    -0.000 C 
BRANCH  24  25
ATOM     25  C   UNL     1      11.641 -10.270 -28.863  1.00  0.00    -0.000 C 
BRANCH  25  26
ATOM     26  C   UNL     1      10.833  -9.185 -28.130  1.00  0.00    -0.000 C 
BRANCH  26  27
ATOM     27  C   UNL     1      10.511  -9.575 -26.678  1.00  0.00    -0.000 C 
BRANCH  27  28
ATOM     28  C   UNL     1      11.178 -10.894 -26.258  1.00  0.00    -0.000 C 
BRANCH  28  29
ATOM     29  C   UNL     1      10.657 -11.362 -24.894  1.00  0.00    -0.003 C 
ATOM     30  C   UNL     1       9.464 -12.300 -25.053  1.00  0.00     0.004 C 
ENDBRANCH  28  29
ENDBRANCH  27  28
ENDBRANCH  26  27
ENDBRANCH  25  26
ENDBRANCH  24  25
ENDBRANCH  23  24
ENDBRANCH  22  23
ENDBRANCH  21  22
ENDBRANCH  20  21
ENDBRANCH  19  20
ENDBRANCH  18  19
ENDBRANCH  17  18
ENDBRANCH   1  17
TORSDOF 26
ENDMDL
MODEL 9
REMARK VINA RESULT:    -5.830      6.202     10.314
REMARK INTER + INTRA:         -17.382
REMARK INTER:                 -11.995
REMARK INTRA:                  -5.386
REMARK UNBOUND:                -2.691
REMARK SMILES CCCCCCCCCCCCCCCCCCCCCCCCCCCC(=O)[O-]
REMARK SMILES IDX 15 1 16 2 17 3 18 4 19 5 20 6 21 7 22 8 23 9 24 10 25 11
REMARK SMILES IDX 26 12 27 13 28 14 29 15 30 16 14 17 13 18 12 19 11 20 10 21
REMARK SMILES IDX 9 22 8 23 7 24 6 25 5 26 4 27 3 28 2 29 1 30
REMARK H PARENT
REMARK Flexibility Score: inf
ROOT
ATOM      1  C   UNL     1       9.283  -5.362 -28.403  1.00  0.00     0.000 C 
ENDROOT
BRANCH   1   2
ATOM      2  C   UNL     1       8.861  -6.746 -27.868  1.00  0.00     0.000 C 
BRANCH   2   3
ATOM      3  C   UNL     1       9.759  -7.922 -28.292  1.00  0.00     0.000 C 
BRANCH   3   4
ATOM      4  C   UNL     1      10.687  -8.405 -27.162  1.00  0.00     0.000 C 
BRANCH   4   5
ATOM      5  C   UNL     1      12.100  -8.761 -27.675  1.00  0.00     0.000 C 
BRANCH   5   6
ATOM      6  C   UNL     1      12.201 -10.161 -28.304  1.00  0.00     0.000 C 
BRANCH   6   7
ATOM      7  C   UNL     1      11.704 -11.271 -27.367  1.00  0.00     0.000 C 
BRANCH   7   8
ATOM      8  C   UNL     1      10.670 -12.192 -28.036  1.00  0.00     0.000 C 
BRANCH   8   9
ATOM      9  C   UNL     1       9.237 -11.637 -27.948  1.00  0.00     0.000 C 
BRANCH   9  10
ATOM     10  C   UNL     1       8.464 -11.792 -29.268  1.00  0.00     0.000 C 
BRANCH  10  11
ATOM     11  C   UNL     1       8.963 -10.828 -30.360  1.00  0.00     0.000 C 
BRANCH  11  12
ATOM     12  C   UNL     1       9.762 -11.543 -31.460  1.00  0.00     0.006 C 
BRANCH  12  13
ATOM     13  C   UNL     1      11.156 -10.939 -31.671  1.00  0.00     0.053 C 
BRANCH  13  14
ATOM     14  C   UNL     1      11.616 -11.169 -33.077  1.00  0.00     0.041 C 
ATOM     15  O   UNL     1      11.698 -10.204 -33.883  1.00  0.00    -0.550 OA
ATOM     16  O   UNL     1      11.997 -12.442 -33.485  1.00  0.00    -0.550 OA
ENDBRANCH  13  14
ENDBRANCH  12  13
ENDBRANCH  11  12
ENDBRANCH  10  11
ENDBRANCH   9  10
ENDBRANCH   8   9
ENDBRANCH   7   8
ENDBRANCH   6   7
ENDBRANCH   5   6
ENDBRANCH   4   5
ENDBRANCH   3   4
ENDBRANCH   2   3
ENDBRANCH   1   2
BRANCH   1  17
ATOM     17  C   UNL     1       8.328  -4.718 -29.429  1.00  0.00     0.000 C 
BRANCH  17  18
ATOM     18  C   UNL     1       7.341  -5.694 -30.103  1.00  0.00     0.000 C 
BRANCH  18  19
ATOM     19  C   UNL     1       7.927  -6.461 -31.303  1.00  0.00     0.000 C 
BRANCH  19  20
ATOM     20  C   UNL     1       7.374  -6.006 -32.669  1.00  0.00     0.000 C 
BRANCH  20  21
ATOM     21  C   UNL     1       7.385  -7.141 -33.707  1.00  0.00     0.000 C 
BRANCH  21  22
ATOM     22  C   UNL     1       8.160  -8.383 -33.229  1.00  0.00    -0.000 C 
BRANCH  22  23
ATOM     23  C   UNL     1       8.070  -9.603 -34.164  1.00  0.00    -0.000 C 
BRANCH  23  24
ATOM     24  C   UNL     1       6.994 -10.613 -33.725  1.00  0.00    -0.000 C 
BRANCH  24  25
ATOM     25  C   UNL     1       5.584 -10.212 -34.185  1.00  0.00    -0.000 C 
BRANCH  25  26
ATOM     26  C   UNL     1       4.594 -10.083 -33.014  1.00  0.00    -0.000 C 
BRANCH  26  27
ATOM     27  C   UNL     1       4.281  -8.618 -32.669  1.00  0.00    -0.000 C 
BRANCH  27  28
ATOM     28  C   UNL     1       4.672  -8.253 -31.229  1.00  0.00    -0.000 C 
BRANCH  28  29
ATOM     29  C   UNL     1       5.542  -9.349 -30.602  1.00  0.00    -0.003 C 
ATOM     30  C   UNL     1       6.000  -8.953 -29.201  1.00  0.00     0.004 C 
ENDBRANCH  28  29
ENDBRANCH  27  28
ENDBRANCH  26  27
ENDBRANCH  25  26
ENDBRANCH  24  25
ENDBRANCH  23  24
ENDBRANCH  22  23
ENDBRANCH  21  22
ENDBRANCH  20  21
ENDBRANCH  19  20
ENDBRANCH  18  19
ENDBRANCH  17  18
ENDBRANCH   1  17
TORSDOF 26
ENDMDL
