MODEL 1
REMARK VINA RESULT:    -3.575      0.000      0.000
REMARK INTER + INTRA:          -4.157
REMARK INTER:                  -4.098
REMARK INTRA:                  -0.060
REMARK UNBOUND:                -0.060
REMARK SMILES CC(C)[C@@H]([NH3+])C(=O)[O-]
REMARK SMILES IDX 4 1 5 2 6 6 7 7 8 8 2 9 1 10 3 11
REMARK H PARENT 5 3 5 4 5 5
REMARK Flexibility Score: inf
ROOT
ATOM      1  C   UNL     1     101.929  52.995  48.091  1.00  0.00     0.230 C 
ENDROOT
BRANCH   1   2
ATOM      2  N   UNL     1     101.989  54.023  47.041  1.00  0.00    -0.350 N 
ATOM      3  H   UNL     1     102.752  54.703  47.261  1.00  0.00     0.345 HD
ATOM      4  H   UNL     1     102.205  53.581  46.118  1.00  0.00     0.345 HD
ATOM      5  H   UNL     1     101.088  54.547  46.967  1.00  0.00     0.345 HD
ENDBRANCH   1   2
BRANCH   1   6
ATOM      6  C   UNL     1     101.211  53.516  49.313  1.00  0.00     0.099 C 
ATOM      7  O   UNL     1     100.284  52.853  49.848  1.00  0.00    -0.544 OA
ATOM      8  O   UNL     1     101.595  54.728  49.875  1.00  0.00    -0.544 OA
ENDBRANCH   1   6
BRANCH   1   9
ATOM      9  C   UNL     1     101.326  51.660  47.559  1.00  0.00     0.047 C 
ATOM     10  C   UNL     1     100.557  51.878  46.246  1.00  0.00     0.014 C 
ATOM     11  C   UNL     1     102.367  50.540  47.379  1.00  0.00     0.014 C 
ENDBRANCH   1   9
TORSDOF 3
ENDMDL
MODEL 2
REMARK VINA RESULT:    -3.554      4.800      5.808
REMARK INTER + INTRA:          -4.133
REMARK INTER:                  -4.081
REMARK INTRA:                  -0.053
REMARK UNBOUND:                -0.060
REMARK SMILES CC(C)[C@@H]([NH3+])C(=O)[O-]
REMARK SMILES IDX 4 1 5 2 6 6 7 7 8 8 2 9 1 10 3 11
REMARK H PARENT 5 3 5 4 5 5
REMARK Flexibility Score: inf
ROOT
ATOM      1  C   UNL     1      99.763  52.223  53.055  1.00  0.00     0.230 C 
ENDROOT
BRANCH   1   2
ATOM      2  N   UNL     1     100.152  52.524  54.441  1.00  0.00    -0.350 N 
ATOM      3  H   UNL     1      99.907  53.516  54.665  1.00  0.00     0.345 HD
ATOM      4  H   UNL     1      99.630  51.904  55.102  1.00  0.00     0.345 HD
ATOM      5  H   UNL     1     101.179  52.395  54.587  1.00  0.00     0.345 HD
ENDBRANCH   1   2
BRANCH   1   6
ATOM      6  C   UNL     1      98.426  51.522  53.012  1.00  0.00     0.099 C 
ATOM      7  O   UNL     1      98.353  50.266  53.070  1.00  0.00    -0.544 OA
ATOM      8  O   UNL     1      97.257  52.270  52.939  1.00  0.00    -0.544 OA
ENDBRANCH   1   6
BRANCH   1   9
ATOM      9  C   UNL     1      99.809  53.493  52.152  1.00  0.00     0.047 C 
ATOM     10  C   UNL     1     100.732  54.568  52.749  1.00  0.00     0.014 C 
ATOM     11  C   UNL     1     100.213  53.202  50.696  1.00  0.00     0.014 C 
ENDBRANCH   1   9
TORSDOF 3
ENDMDL
MODEL 3
REMARK VINA RESULT:    -3.465      3.679      4.546
REMARK INTER + INTRA:          -4.031
REMARK INTER:                  -3.970
REMARK INTRA:                  -0.061
REMARK UNBOUND:                -0.060
REMARK SMILES CC(C)[C@@H]([NH3+])C(=O)[O-]
REMARK SMILES IDX 4 1 5 2 6 6 7 7 8 8 2 9 1 10 3 11
REMARK H PARENT 5 3 5 4 5 5
REMARK Flexibility Score: inf
ROOT
ATOM      1  C   UNL     1     100.836  53.744  52.156  1.00  0.00     0.230 C 
ENDROOT
BRANCH   1   2
ATOM      2  N   UNL     1     101.359  54.842  52.982  1.00  0.00    -0.350 N 
ATOM      3  H   UNL     1     100.699  55.653  52.943  1.00  0.00     0.345 HD
ATOM      4  H   UNL     1     101.437  54.536  53.978  1.00  0.00     0.345 HD
ATOM      5  H   UNL     1     102.296  55.161  52.646  1.00  0.00     0.345 HD
ENDBRANCH   1   2
BRANCH   1   6
ATOM      6  C   UNL     1      99.583  53.162  52.766  1.00  0.00     0.099 C 
ATOM      7  O   UNL     1      98.636  53.908  53.130  1.00  0.00    -0.544 OA
ATOM      8  O   UNL     1      99.456  51.785  52.902  1.00  0.00    -0.544 OA
ENDBRANCH   1   6
BRANCH   1   9
ATOM      9  C   UNL     1     100.639  54.178  50.672  1.00  0.00     0.047 C 
ATOM     10  C   UNL     1     101.775  55.104  50.207  1.00  0.00     0.014 C 
ATOM     11  C   UNL     1     100.490  52.997  49.697  1.00  0.00     0.014 C 
ENDBRANCH   1   9
TORSDOF 3
ENDMDL
MODEL 4
REMARK VINA RESULT:    -3.270      2.137      3.469
REMARK INTER + INTRA:          -3.807
REMARK INTER:                  -3.753
REMARK INTRA:                  -0.054
REMARK UNBOUND:                -0.060
REMARK SMILES CC(C)[C@@H]([NH3+])C(=O)[O-]
REMARK SMILES IDX 4 1 5 2 6 6 7 7 8 8 2 9 1 10 3 11
REMARK H PARENT 5 3 5 4 5 5
REMARK Flexibility Score: inf
ROOT
ATOM      1  C   UNL     1     101.295  53.891  48.173  1.00  0.00     0.230 C 
ENDROOT
BRANCH   1   2
ATOM      2  N   UNL     1     102.023  55.053  47.642  1.00  0.00    -0.350 N 
ATOM      3  H   UNL     1     102.626  55.460  48.394  1.00  0.00     0.345 HD
ATOM      4  H   UNL     1     102.644  54.758  46.854  1.00  0.00     0.345 HD
ATOM      5  H   UNL     1     101.369  55.794  47.305  1.00  0.00     0.345 HD
ENDBRANCH   1   2
BRANCH   1   6
ATOM      6  C   UNL     1     101.682  52.631  47.435  1.00  0.00     0.099 C 
ATOM      7  O   UNL     1     102.823  52.120  47.586  1.00  0.00    -0.544 OA
ATOM      8  O   UNL     1     100.760  52.008  46.602  1.00  0.00    -0.544 OA
ENDBRANCH   1   6
BRANCH   1   9
ATOM      9  C   UNL     1     101.459  53.762  49.717  1.00  0.00     0.047 C 
ATOM     10  C   UNL     1     101.754  55.125  50.364  1.00  0.00     0.014 C 
ATOM     11  C   UNL     1     100.257  53.099  50.413  1.00  0.00     0.014 C 
ENDBRANCH   1   9
TORSDOF 3
ENDMDL
MODEL 5
REMARK VINA RESULT:    -3.169      4.723      5.728
REMARK INTER + INTRA:          -3.692
REMARK INTER:                  -3.647
REMARK INTRA:                  -0.045
REMARK UNBOUND:                -0.060
REMARK SMILES CC(C)[C@@H]([NH3+])C(=O)[O-]
REMARK SMILES IDX 4 1 5 2 6 6 7 7 8 8 2 9 1 10 3 11
REMARK H PARENT 5 3 5 4 5 5
REMARK Flexibility Score: inf
ROOT
ATOM      1  C   UNL     1      99.198  53.143  53.287  1.00  0.00     0.230 C 
ENDROOT
BRANCH   1   2
ATOM      2  N   UNL     1      98.167  54.177  53.118  1.00  0.00    -0.350 N 
ATOM      3  H   UNL     1      97.221  53.730  53.116  1.00  0.00     0.345 HD
ATOM      4  H   UNL     1      98.204  54.854  53.914  1.00  0.00     0.345 HD
ATOM      5  H   UNL     1      98.289  54.696  52.220  1.00  0.00     0.345 HD
ENDBRANCH   1   2
BRANCH   1   6
ATOM      6  C   UNL     1      98.611  51.763  53.103  1.00  0.00     0.099 C 
ATOM      7  O   UNL     1      99.355  50.749  53.038  1.00  0.00    -0.544 OA
ATOM      8  O   UNL     1      97.233  51.603  53.034  1.00  0.00    -0.544 OA
ENDBRANCH   1   6
BRANCH   1   9
ATOM      9  C   UNL     1     100.432  53.401  52.370  1.00  0.00     0.047 C 
ATOM     10  C   UNL     1     100.042  53.362  50.884  1.00  0.00     0.014 C 
ATOM     11  C   UNL     1     101.172  54.714  52.685  1.00  0.00     0.014 C 
ENDBRANCH   1   9
TORSDOF 3
ENDMDL
MODEL 6
REMARK VINA RESULT:    -2.873      2.632      3.566
REMARK INTER + INTRA:          -3.353
REMARK INTER:                  -3.323
REMARK INTRA:                  -0.030
REMARK UNBOUND:                -0.060
REMARK SMILES CC(C)[C@@H]([NH3+])C(=O)[O-]
REMARK SMILES IDX 4 1 5 2 6 6 7 7 8 8 2 9 1 10 3 11
REMARK H PARENT 5 3 5 4 5 5
REMARK Flexibility Score: inf
ROOT
ATOM      1  C   UNL     1     101.246  51.550  47.861  1.00  0.00     0.230 C 
ENDROOT
BRANCH   1   2
ATOM      2  N   UNL     1     100.558  51.738  46.574  1.00  0.00    -0.350 N 
ATOM      3  H   UNL     1     101.214  51.511  45.792  1.00  0.00     0.345 HD
ATOM      4  H   UNL     1      99.739  51.091  46.509  1.00  0.00     0.345 HD
ATOM      5  H   UNL     1     100.229  52.722  46.457  1.00  0.00     0.345 HD
ENDBRANCH   1   2
BRANCH   1   6
ATOM      6  C   UNL     1     102.463  50.671  47.696  1.00  0.00     0.099 C 
ATOM      7  O   UNL     1     103.536  51.135  47.230  1.00  0.00    -0.544 OA
ATOM      8  O   UNL     1     102.411  49.340  48.092  1.00  0.00    -0.544 OA
ENDBRANCH   1   6
BRANCH   1   9
ATOM      9  C   UNL     1     101.573  52.912  48.545  1.00  0.00     0.047 C 
ATOM     10  C   UNL     1     101.663  54.048  47.514  1.00  0.00     0.014 C 
ATOM     11  C   UNL     1     100.587  53.294  49.664  1.00  0.00     0.014 C 
ENDBRANCH   1   9
TORSDOF 3
ENDMDL
MODEL 7
REMARK VINA RESULT:    -2.802      2.999      4.470
REMARK INTER + INTRA:          -3.271
REMARK INTER:                  -3.712
REMARK INTRA:                   0.441
REMARK UNBOUND:                -0.060
REMARK SMILES CC(C)[C@@H]([NH3+])C(=O)[O-]
REMARK SMILES IDX 4 1 5 2 6 6 7 7 8 8 2 9 1 10 3 11
REMARK H PARENT 5 3 5 4 5 5
REMARK Flexibility Score: inf
ROOT
ATOM      1  C   UNL     1     100.929  53.436  50.658  1.00  0.00     0.230 C 
ENDROOT
BRANCH   1   2
ATOM      2  N   UNL     1      99.827  52.592  50.176  1.00  0.00    -0.350 N 
ATOM      3  H   UNL     1      98.913  53.029  50.436  1.00  0.00     0.345 HD
ATOM      4  H   UNL     1      99.863  52.515  49.133  1.00  0.00     0.345 HD
ATOM      5  H   UNL     1      99.867  51.635  50.592  1.00  0.00     0.345 HD
ENDBRANCH   1   2
BRANCH   1   6
ATOM      6  C   UNL     1     101.573  54.184  49.515  1.00  0.00     0.099 C 
ATOM      7  O   UNL     1     102.382  55.124  49.733  1.00  0.00    -0.544 OA
ATOM      8  O   UNL     1     101.297  53.813  48.204  1.00  0.00    -0.544 OA
ENDBRANCH   1   6
BRANCH   1   9
ATOM      9  C   UNL     1     100.474  54.377  51.815  1.00  0.00     0.047 C 
ATOM     10  C   UNL     1      99.654  53.612  52.866  1.00  0.00     0.014 C 
ATOM     11  C   UNL     1     101.634  55.125  52.496  1.00  0.00     0.014 C 
ENDBRANCH   1   9
TORSDOF 3
ENDMDL
MODEL 8
REMARK VINA RESULT:    -2.615     10.917     11.700
REMARK INTER + INTRA:          -3.057
REMARK INTER:                  -3.033
REMARK INTRA:                  -0.024
REMARK UNBOUND:                -0.060
REMARK SMILES CC(C)[C@@H]([NH3+])C(=O)[O-]
REMARK SMILES IDX 4 1 5 2 6 6 7 7 8 8 2 9 1 10 3 11
REMARK H PARENT 5 3 5 4 5 5
REMARK Flexibility Score: inf
ROOT
ATOM      1  C   UNL     1      94.450  53.531  39.575  1.00  0.00     0.230 C 
ENDROOT
BRANCH   1   2
ATOM      2  N   UNL     1      95.148  54.684  38.987  1.00  0.00    -0.350 N 
ATOM      3  H   UNL     1      94.805  55.565  39.434  1.00  0.00     0.345 HD
ATOM      4  H   UNL     1      96.176  54.610  39.164  1.00  0.00     0.345 HD
ATOM      5  H   UNL     1      94.981  54.748  37.958  1.00  0.00     0.345 HD
ENDBRANCH   1   2
BRANCH   1   6
ATOM      6  C   UNL     1      92.971  53.806  39.702  1.00  0.00     0.099 C 
ATOM      7  O   UNL     1      92.432  53.928  40.834  1.00  0.00    -0.544 OA
ATOM      8  O   UNL     1      92.196  53.958  38.558  1.00  0.00    -0.544 OA
ENDBRANCH   1   6
BRANCH   1   9
ATOM      9  C   UNL     1      94.756  52.214  38.801  1.00  0.00     0.047 C 
ATOM     10  C   UNL     1      96.213  51.770  39.007  1.00  0.00     0.014 C 
ATOM     11  C   UNL     1      93.800  51.058  39.146  1.00  0.00     0.014 C 
ENDBRANCH   1   9
TORSDOF 3
ENDMDL
MODEL 9
REMARK VINA RESULT:    -2.567     11.486     12.065
REMARK INTER + INTRA:          -3.001
REMARK INTER:                  -2.946
REMARK INTRA:                  -0.056
REMARK UNBOUND:                -0.060
REMARK SMILES CC(C)[C@@H]([NH3+])C(=O)[O-]
REMARK SMILES IDX 4 1 5 2 6 6 7 7 8 8 2 9 1 10 3 11
REMARK H PARENT 5 3 5 4 5 5
REMARK Flexibility Score: inf
ROOT
ATOM      1  C   UNL     1      93.421  52.898  38.782  1.00  0.00     0.230 C 
ENDROOT
BRANCH   1   2
ATOM      2  N   UNL     1      92.511  54.000  39.127  1.00  0.00    -0.350 N 
ATOM      3  H   UNL     1      92.902  54.901  38.768  1.00  0.00     0.345 HD
ATOM      4  H   UNL     1      91.579  53.850  38.676  1.00  0.00     0.345 HD
ATOM      5  H   UNL     1      92.383  54.083  40.160  1.00  0.00     0.345 HD
ENDBRANCH   1   2
BRANCH   1   6
ATOM      6  C   UNL     1      94.861  53.316  38.955  1.00  0.00     0.099 C 
ATOM      7  O   UNL     1      95.726  52.499  39.366  1.00  0.00    -0.544 OA
ATOM      8  O   UNL     1      95.249  54.611  38.628  1.00  0.00    -0.544 OA
ENDBRANCH   1   6
BRANCH   1   9
ATOM      9  C   UNL     1      93.072  51.595  39.564  1.00  0.00     0.047 C 
ATOM     10  C   UNL     1      91.875  51.811  40.503  1.00  0.00     0.014 C 
ATOM     11  C   UNL     1      92.815  50.379  38.655  1.00  0.00     0.014 C 
ENDBRANCH   1   9
TORSDOF 3
ENDMDL
