MODEL 1
REMARK VINA RESULT:    -2.766      0.000      0.000
REMARK INTER + INTRA:          -3.100
REMARK INTER:                  -3.090
REMARK INTRA:                  -0.010
REMARK UNBOUND:                -0.010
REMARK SMILES CCCC(=O)[O-]
REMARK SMILES IDX 3 1 4 2 5 3 6 4 2 5 1 6
REMARK H PARENT
REMARK Flexibility Score: inf
ROOT
ATOM      1  C   UNL     1       8.610  33.366  -7.464  1.00  0.00     0.052 C 
ENDROOT
BRANCH   1   2
ATOM      2  C   UNL     1       9.658  32.607  -6.708  1.00  0.00     0.041 C 
ATOM      3  O   UNL     1       9.399  32.128  -5.573  1.00  0.00    -0.550 OA
ATOM      4  O   UNL     1      10.931  32.459  -7.245  1.00  0.00    -0.550 OA
ENDBRANCH   1   2
BRANCH   1   5
ATOM      5  C   UNL     1       9.129  33.847  -8.825  1.00  0.00     0.003 C 
ATOM      6  C   UNL     1       7.996  34.204  -9.786  1.00  0.00     0.004 C 
ENDBRANCH   1   5
TORSDOF 2
ENDMDL
MODEL 2
REMARK VINA RESULT:    -2.500     23.270     23.991
REMARK INTER + INTRA:          -2.803
REMARK INTER:                  -2.765
REMARK INTRA:                  -0.037
REMARK UNBOUND:                -0.010
REMARK SMILES CCCC(=O)[O-]
REMARK SMILES IDX 3 1 4 2 5 3 6 4 2 5 1 6
REMARK H PARENT
REMARK Flexibility Score: inf
ROOT
ATOM      1  C   UNL     1      -6.135  50.628  -9.601  1.00  0.00     0.052 C 
ENDROOT
BRANCH   1   2
ATOM      2  C   UNL     1      -7.485  50.621  -8.953  1.00  0.00     0.041 C 
ATOM      3  O   UNL     1      -7.609  50.943  -7.742  1.00  0.00    -0.550 OA
ATOM      4  O   UNL     1      -8.603  50.228  -9.679  1.00  0.00    -0.550 OA
ENDBRANCH   1   2
BRANCH   1   5
ATOM      5  C   UNL     1      -5.222  51.704  -8.999  1.00  0.00     0.003 C 
ATOM      6  C   UNL     1      -4.075  51.104  -8.186  1.00  0.00     0.004 C 
ENDBRANCH   1   5
TORSDOF 2
ENDMDL
MODEL 3
REMARK VINA RESULT:    -2.420     25.217     25.473
REMARK INTER + INTRA:          -2.713
REMARK INTER:                  -2.685
REMARK INTRA:                  -0.028
REMARK UNBOUND:                -0.010
REMARK SMILES CCCC(=O)[O-]
REMARK SMILES IDX 3 1 4 2 5 3 6 4 2 5 1 6
REMARK H PARENT
REMARK Flexibility Score: inf
ROOT
ATOM      1  C   UNL     1      -8.982  51.392  -4.264  1.00  0.00     0.052 C 
ENDROOT
BRANCH   1   2
ATOM      2  C   UNL     1      -7.855  51.571  -5.236  1.00  0.00     0.041 C 
ATOM      3  O   UNL     1      -6.785  52.125  -4.872  1.00  0.00    -0.550 OA
ATOM      4  O   UNL     1      -8.002  51.154  -6.553  1.00  0.00    -0.550 OA
ENDBRANCH   1   2
BRANCH   1   5
ATOM      5  C   UNL     1      -8.883  50.053  -3.522  1.00  0.00     0.003 C 
ATOM      6  C   UNL     1      -8.649  50.235  -2.023  1.00  0.00     0.004 C 
ENDBRANCH   1   5
TORSDOF 2
ENDMDL
MODEL 4
REMARK VINA RESULT:    -2.409     22.148     22.708
REMARK INTER + INTRA:          -2.701
REMARK INTER:                  -2.663
REMARK INTRA:                  -0.038
REMARK UNBOUND:                -0.010
REMARK SMILES CCCC(=O)[O-]
REMARK SMILES IDX 3 1 4 2 5 3 6 4 2 5 1 6
REMARK H PARENT
REMARK Flexibility Score: inf
ROOT
ATOM      1  C   UNL     1      -4.582  51.811  -9.046  1.00  0.00     0.052 C 
ENDROOT
BRANCH   1   2
ATOM      2  C   UNL     1      -3.513  51.301  -8.129  1.00  0.00     0.041 C 
ATOM      3  O   UNL     1      -3.800  50.497  -7.204  1.00  0.00    -0.550 OA
ATOM      4  O   UNL     1      -2.203  51.740  -8.277  1.00  0.00    -0.550 OA
ENDBRANCH   1   2
BRANCH   1   5
ATOM      5  C   UNL     1      -5.446  50.670  -9.600  1.00  0.00     0.003 C 
ATOM      6  C   UNL     1      -6.900  50.767  -9.141  1.00  0.00     0.004 C 
ENDBRANCH   1   5
TORSDOF 2
ENDMDL
MODEL 5
REMARK VINA RESULT:    -2.342     25.159     25.820
REMARK INTER + INTRA:          -2.626
REMARK INTER:                  -2.588
REMARK INTRA:                  -0.038
REMARK UNBOUND:                -0.010
REMARK SMILES CCCC(=O)[O-]
REMARK SMILES IDX 3 1 4 2 5 3 6 4 2 5 1 6
REMARK H PARENT
REMARK Flexibility Score: inf
ROOT
ATOM      1  C   UNL     1      -8.684  52.062  -3.544  1.00  0.00     0.052 C 
ENDROOT
BRANCH   1   2
ATOM      2  C   UNL     1      -8.390  50.929  -4.480  1.00  0.00     0.041 C 
ATOM      3  O   UNL     1      -8.353  49.746  -4.052  1.00  0.00    -0.550 OA
ATOM      4  O   UNL     1      -8.126  51.186  -5.820  1.00  0.00    -0.550 OA
ENDBRANCH   1   2
BRANCH   1   5
ATOM      5  C   UNL     1      -9.042  51.559  -2.140  1.00  0.00     0.003 C 
ATOM      6  C   UNL     1      -7.915  51.792  -1.134  1.00  0.00     0.004 C 
ENDBRANCH   1   5
TORSDOF 2
ENDMDL
MODEL 6
REMARK VINA RESULT:    -2.254     22.446     22.759
REMARK INTER + INTRA:          -2.528
REMARK INTER:                  -2.522
REMARK INTRA:                  -0.006
REMARK UNBOUND:                -0.010
REMARK SMILES CCCC(=O)[O-]
REMARK SMILES IDX 3 1 4 2 5 3 6 4 2 5 1 6
REMARK H PARENT
REMARK Flexibility Score: inf
ROOT
ATOM      1  C   UNL     1      -3.454  51.011  -7.623  1.00  0.00     0.052 C 
ENDROOT
BRANCH   1   2
ATOM      2  C   UNL     1      -4.608  51.331  -8.523  1.00  0.00     0.041 C 
ATOM      3  O   UNL     1      -5.787  51.296  -8.081  1.00  0.00    -0.550 OA
ATOM      4  O   UNL     1      -4.383  51.635  -9.859  1.00  0.00    -0.550 OA
ENDBRANCH   1   2
BRANCH   1   5
ATOM      5  C   UNL     1      -2.287  51.985  -7.829  1.00  0.00     0.003 C 
ATOM      6  C   UNL     1      -1.417  52.122  -6.580  1.00  0.00     0.004 C 
ENDBRANCH   1   5
TORSDOF 2
ENDMDL
MODEL 7
REMARK VINA RESULT:    -2.150      2.222      3.328
REMARK INTER + INTRA:          -2.412
REMARK INTER:                  -2.375
REMARK INTRA:                  -0.036
REMARK UNBOUND:                -0.010
REMARK SMILES CCCC(=O)[O-]
REMARK SMILES IDX 3 1 4 2 5 3 6 4 2 5 1 6
REMARK H PARENT
REMARK Flexibility Score: inf
ROOT
ATOM      1  C   UNL     1       8.640  33.743  -8.896  1.00  0.00     0.052 C 
ENDROOT
BRANCH   1   2
ATOM      2  C   UNL     1       9.908  34.177  -9.567  1.00  0.00     0.041 C 
ATOM      3  O   UNL     1       9.976  35.303 -10.125  1.00  0.00    -0.550 OA
ATOM      4  O   UNL     1      11.002  33.322  -9.603  1.00  0.00    -0.550 OA
ENDBRANCH   1   2
BRANCH   1   5
ATOM      5  C   UNL     1       8.854  32.491  -8.035  1.00  0.00     0.003 C 
ATOM      6  C   UNL     1       9.217  32.833  -6.591  1.00  0.00     0.004 C 
ENDBRANCH   1   5
TORSDOF 2
ENDMDL
MODEL 8
REMARK VINA RESULT:    -2.052      2.664      3.139
REMARK INTER + INTRA:          -2.302
REMARK INTER:                  -2.268
REMARK INTRA:                  -0.034
REMARK UNBOUND:                -0.010
REMARK SMILES CCCC(=O)[O-]
REMARK SMILES IDX 3 1 4 2 5 3 6 4 2 5 1 6
REMARK H PARENT
REMARK Flexibility Score: inf
ROOT
ATOM      1  C   UNL     1       8.751  33.609  -8.318  1.00  0.00     0.052 C 
ENDROOT
BRANCH   1   2
ATOM      2  C   UNL     1       7.489  32.896  -8.698  1.00  0.00     0.041 C 
ATOM      3  O   UNL     1       6.869  33.220  -9.745  1.00  0.00    -0.550 OA
ATOM      4  O   UNL     1       6.983  31.895  -7.879  1.00  0.00    -0.550 OA
ENDBRANCH   1   2
BRANCH   1   5
ATOM      5  C   UNL     1       9.406  34.287  -9.528  1.00  0.00     0.003 C 
ATOM      6  C   UNL     1      10.645  33.537 -10.016  1.00  0.00     0.004 C 
ENDBRANCH   1   5
TORSDOF 2
ENDMDL
MODEL 9
REMARK VINA RESULT:    -1.918     25.230     25.735
REMARK INTER + INTRA:          -2.152
REMARK INTER:                  -2.115
REMARK INTRA:                  -0.037
REMARK UNBOUND:                -0.010
REMARK SMILES CCCC(=O)[O-]
REMARK SMILES IDX 3 1 4 2 5 3 6 4 2 5 1 6
REMARK H PARENT
REMARK Flexibility Score: inf
ROOT
ATOM      1  C   UNL     1      -8.515  50.378  -3.809  1.00  0.00     0.052 C 
ENDROOT
BRANCH   1   2
ATOM      2  C   UNL     1      -8.780  50.732  -2.377  1.00  0.00     0.041 C 
ATOM      3  O   UNL     1      -8.854  49.828  -1.503  1.00  0.00    -0.550 OA
ATOM      4  O   UNL     1      -8.976  52.058  -2.015  1.00  0.00    -0.550 OA
ENDBRANCH   1   2
BRANCH   1   5
ATOM      5  C   UNL     1      -8.579  51.611  -4.719  1.00  0.00     0.003 C 
ATOM      6  C   UNL     1      -7.192  52.124  -5.101  1.00  0.00     0.004 C 
ENDBRANCH   1   5
TORSDOF 2
ENDMDL
