MODEL 1
REMARK VINA RESULT:    -7.030      0.000      0.000
REMARK INTER + INTRA:          -7.164
REMARK INTER:                  -7.646
REMARK INTRA:                   0.482
REMARK UNBOUND:                 0.482
REMARK SMILES CC1(C)CC[C@@]2(C(=O)[O-])CC[C@]3(C)C(=CC[C@@H]4[C@]5(C)CC[C@H](O)C(C)(C)[C@@H]5CC[C@@]43C)[C@@H]2C1
REMARK SMILES IDX 6 1 5 2 10 3 32 4 4 5 11 6 14 7 33 8 2 9 12 10 15 11 1 12
REMARK SMILES IDX 3 13 13 14 30 15 16 16 17 17 29 18 31 19 18 20 28 21 27 22
REMARK SMILES IDX 20 23 19 24 24 25 21 26 22 27 25 28 26 29 7 30 8 31 9 32
REMARK SMILES IDX 23 33
REMARK H PARENT 23 34
REMARK Flexibility Score: inf
ROOT
ATOM      1  C   UNL     1     101.752  87.843  80.850  1.00  0.00     0.017 C 
ATOM      2  C   UNL     1     102.526  89.191  80.854  1.00  0.00     0.014 C 
ATOM      3  C   UNL     1     101.252  87.483  82.299  1.00  0.00     0.014 C 
ATOM      4  C   UNL     1     100.522  88.081  79.931  1.00  0.00     0.028 C 
ATOM      5  C   UNL     1     103.039  89.508  79.431  1.00  0.00     0.007 C 
ATOM      6  C   UNL     1      99.883  86.716  82.413  1.00  0.00     0.013 C 
ATOM      7  C   UNL     1      99.422  87.020  80.036  1.00  0.00    -0.064 C 
ATOM      8  C   UNL     1     100.918  88.345  78.443  1.00  0.00     0.015 C 
ATOM      9  C   UNL     1     101.943  89.506  78.316  1.00  0.00    -0.035 C 
ATOM     10  C   UNL     1      99.435  85.940  81.151  1.00  0.00    -0.006 C 
ATOM     11  C   UNL     1      98.301  87.298  79.405  1.00  0.00    -0.027 C 
ATOM     12  C   UNL     1     101.176  90.844  78.347  1.00  0.00     0.011 C 
ATOM     13  C   UNL     1     102.660  89.359  76.939  1.00  0.00     0.011 C 
ATOM     14  C   UNL     1     100.489  84.852  80.753  1.00  0.00     0.017 C 
ATOM     15  C   UNL     1      97.978  85.212  81.319  1.00  0.00    -0.020 C 
ATOM     16  C   UNL     1      97.368  86.208  79.033  1.00  0.00     0.032 C 
ATOM     17  C   UNL     1      97.492  84.896  79.867  1.00  0.00     0.006 C 
ATOM     18  C   UNL     1      96.834  86.060  81.985  1.00  0.00     0.008 C 
ATOM     19  C   UNL     1      98.138  83.954  82.262  1.00  0.00     0.012 C 
ATOM     20  C   UNL     1      96.188  84.032  79.712  1.00  0.00    -0.025 C 
ATOM     21  C   UNL     1      95.441  85.385  81.946  1.00  0.00     0.005 C 
ATOM     22  C   UNL     1      94.998  84.556  80.649  1.00  0.00     0.003 C 
ATOM     23  C   UNL     1      95.732  84.059  78.219  1.00  0.00     0.010 C 
ATOM     24  C   UNL     1      96.575  82.521  80.009  1.00  0.00     0.012 C 
ATOM     25  C   UNL     1      93.558  84.995  79.965  1.00  0.00    -0.006 C 
ATOM     26  C   UNL     1      94.387  83.371  78.027  1.00  0.00     0.033 C 
ATOM     27  C   UNL     1      93.242  84.267  78.558  1.00  0.00     0.120 C 
ATOM     28  C   UNL     1      93.375  86.572  79.884  1.00  0.00     0.014 C 
ATOM     29  C   UNL     1      92.450  84.529  80.989  1.00  0.00     0.014 C 
ENDROOT
BRANCH   1  30
ATOM     30  C   UNL     1     102.775  86.783  80.364  1.00  0.00     0.048 C 
ATOM     31  O   UNL     1     103.817  86.561  81.036  1.00  0.00    -0.550 OA
ATOM     32  O   UNL     1     102.630  86.125  79.150  1.00  0.00    -0.550 OA
ENDBRANCH   1  30
BRANCH  27  33
ATOM     33  O   UNL     1      92.754  85.140  77.560  1.00  0.00    -0.393 OA
ATOM     34  H   UNL     1      92.363  84.636  76.768  1.00  0.00     0.210 HD
ENDBRANCH  27  33
TORSDOF 2
ENDMDL
MODEL 2
REMARK VINA RESULT:    -7.018      4.263      8.608
REMARK INTER + INTRA:          -7.151
REMARK INTER:                  -7.602
REMARK INTRA:                   0.450
REMARK UNBOUND:                 0.482
REMARK SMILES CC1(C)CC[C@@]2(C(=O)[O-])CC[C@]3(C)C(=CC[C@@H]4[C@]5(C)CC[C@H](O)C(C)(C)[C@@H]5CC[C@@]43C)[C@@H]2C1
REMARK SMILES IDX 6 1 5 2 10 3 32 4 4 5 11 6 14 7 33 8 2 9 12 10 15 11 1 12
REMARK SMILES IDX 3 13 13 14 30 15 16 16 17 17 29 18 31 19 18 20 28 21 27 22
REMARK SMILES IDX 20 23 19 24 24 25 21 26 22 27 25 28 26 29 7 30 8 31 9 32
REMARK SMILES IDX 23 33
REMARK H PARENT 23 34
REMARK Flexibility Score: inf
ROOT
ATOM      1  C   UNL     1      92.392  84.305  77.496  1.00  0.00     0.017 C 
ATOM      2  C   UNL     1      91.088  84.769  76.786  1.00  0.00     0.014 C 
ATOM      3  C   UNL     1      93.636  85.099  76.947  1.00  0.00     0.014 C 
ATOM      4  C   UNL     1      92.187  84.652  78.996  1.00  0.00     0.028 C 
ATOM      5  C   UNL     1      89.884  83.954  77.312  1.00  0.00     0.007 C 
ATOM      6  C   UNL     1      94.796  85.402  77.966  1.00  0.00     0.013 C 
ATOM      7  C   UNL     1      93.459  84.611  79.848  1.00  0.00    -0.064 C 
ATOM      8  C   UNL     1      91.032  83.832  79.656  1.00  0.00     0.015 C 
ATOM      9  C   UNL     1      89.702  83.968  78.865  1.00  0.00    -0.035 C 
ATOM     10  C   UNL     1      94.866  84.478  79.206  1.00  0.00    -0.006 C 
ATOM     11  C   UNL     1      93.338  85.075  81.074  1.00  0.00    -0.027 C 
ATOM     12  C   UNL     1      89.010  85.279  79.289  1.00  0.00     0.011 C 
ATOM     13  C   UNL     1      88.793  82.761  79.252  1.00  0.00     0.011 C 
ATOM     14  C   UNL     1      95.063  82.982  78.786  1.00  0.00     0.017 C 
ATOM     15  C   UNL     1      96.060  84.883  80.252  1.00  0.00    -0.020 C 
ATOM     16  C   UNL     1      94.310  84.674  82.119  1.00  0.00     0.032 C 
ATOM     17  C   UNL     1      95.696  84.182  81.602  1.00  0.00     0.006 C 
ATOM     18  C   UNL     1      96.222  86.410  80.586  1.00  0.00     0.008 C 
ATOM     19  C   UNL     1      97.450  84.463  79.631  1.00  0.00     0.012 C 
ATOM     20  C   UNL     1      96.758  84.246  82.759  1.00  0.00    -0.025 C 
ATOM     21  C   UNL     1      97.239  86.707  81.715  1.00  0.00     0.005 C 
ATOM     22  C   UNL     1      97.327  85.728  82.979  1.00  0.00     0.003 C 
ATOM     23  C   UNL     1      96.104  83.732  84.080  1.00  0.00     0.010 C 
ATOM     24  C   UNL     1      97.902  83.199  82.418  1.00  0.00     0.012 C 
ATOM     25  C   UNL     1      97.180  86.443  84.462  1.00  0.00    -0.006 C 
ATOM     26  C   UNL     1      97.031  83.914  85.276  1.00  0.00     0.033 C 
ATOM     27  C   UNL     1      97.085  85.403  85.695  1.00  0.00     0.120 C 
ATOM     28  C   UNL     1      96.024  87.534  84.503  1.00  0.00     0.014 C 
ATOM     29  C   UNL     1      98.507  87.276  84.658  1.00  0.00     0.014 C 
ENDROOT
BRANCH   1  30
ATOM     30  C   UNL     1      92.531  82.799  77.154  1.00  0.00     0.048 C 
ATOM     31  O   UNL     1      92.716  82.440  75.960  1.00  0.00    -0.550 OA
ATOM     32  O   UNL     1      92.365  81.810  78.113  1.00  0.00    -0.550 OA
ENDBRANCH   1  30
BRANCH  27  33
ATOM     33  O   UNL     1      96.077  85.721  86.634  1.00  0.00    -0.393 OA
ATOM     34  H   UNL     1      95.515  84.910  86.881  1.00  0.00     0.210 HD
ENDBRANCH  27  33
TORSDOF 2
ENDMDL
MODEL 3
REMARK VINA RESULT:    -6.792      2.850      5.345
REMARK INTER + INTRA:          -6.905
REMARK INTER:                  -7.330
REMARK INTRA:                   0.424
REMARK UNBOUND:                 0.482
REMARK SMILES CC1(C)CC[C@@]2(C(=O)[O-])CC[C@]3(C)C(=CC[C@@H]4[C@]5(C)CC[C@H](O)C(C)(C)[C@@H]5CC[C@@]43C)[C@@H]2C1
REMARK SMILES IDX 6 1 5 2 10 3 32 4 4 5 11 6 14 7 33 8 2 9 12 10 15 11 1 12
REMARK SMILES IDX 3 13 13 14 30 15 16 16 17 17 29 18 31 19 18 20 28 21 27 22
REMARK SMILES IDX 20 23 19 24 24 25 21 26 22 27 25 28 26 29 7 30 8 31 9 32
REMARK SMILES IDX 23 33
REMARK H PARENT 23 34
REMARK Flexibility Score: inf
ROOT
ATOM      1  C   UNL     1      99.504  85.174  82.013  1.00  0.00     0.017 C 
ATOM      2  C   UNL     1     100.750  84.349  82.443  1.00  0.00     0.014 C 
ATOM      3  C   UNL     1      99.671  85.707  80.541  1.00  0.00     0.014 C 
ATOM      4  C   UNL     1      98.315  84.176  82.063  1.00  0.00     0.028 C 
ATOM      5  C   UNL     1     100.583  83.866  83.903  1.00  0.00     0.007 C 
ATOM      6  C   UNL     1      98.366  85.819  79.669  1.00  0.00     0.013 C 
ATOM      7  C   UNL     1      97.043  84.651  81.355  1.00  0.00    -0.064 C 
ATOM      8  C   UNL     1      98.007  83.670  83.508  1.00  0.00     0.015 C 
ATOM      9  C   UNL     1      99.268  83.071  84.191  1.00  0.00    -0.035 C 
ATOM     10  C   UNL     1      97.035  85.915  80.454  1.00  0.00    -0.006 C 
ATOM     11  C   UNL     1      96.091  83.751  81.230  1.00  0.00    -0.027 C 
ATOM     12  C   UNL     1      99.436  81.612  83.718  1.00  0.00     0.011 C 
ATOM     13  C   UNL     1      99.027  83.085  85.732  1.00  0.00     0.011 C 
ATOM     14  C   UNL     1      97.019  87.171  81.390  1.00  0.00     0.017 C 
ATOM     15  C   UNL     1      95.713  85.974  79.488  1.00  0.00    -0.020 C 
ATOM     16  C   UNL     1      94.689  84.178  81.010  1.00  0.00     0.032 C 
ATOM     17  C   UNL     1      94.502  85.603  80.405  1.00  0.00     0.006 C 
ATOM     18  C   UNL     1      95.671  84.966  78.283  1.00  0.00     0.008 C 
ATOM     19  C   UNL     1      95.633  87.401  78.814  1.00  0.00     0.012 C 
ATOM     20  C   UNL     1      93.061  85.745  79.791  1.00  0.00    -0.025 C 
ATOM     21  C   UNL     1      94.322  84.944  77.523  1.00  0.00     0.005 C 
ATOM     22  C   UNL     1      92.950  85.076  78.339  1.00  0.00     0.003 C 
ATOM     23  C   UNL     1      92.029  85.081  80.756  1.00  0.00     0.010 C 
ATOM     24  C   UNL     1      92.696  87.290  79.779  1.00  0.00     0.012 C 
ATOM     25  C   UNL     1      91.832  83.889  78.075  1.00  0.00    -0.006 C 
ATOM     26  C   UNL     1      90.632  85.045  80.149  1.00  0.00     0.033 C 
ATOM     27  C   UNL     1      90.548  83.955  79.054  1.00  0.00     0.120 C 
ATOM     28  C   UNL     1      92.480  82.437  78.027  1.00  0.00     0.014 C 
ATOM     29  C   UNL     1      91.308  84.128  76.604  1.00  0.00     0.014 C 
ENDROOT
BRANCH   1  30
ATOM     30  C   UNL     1      99.439  86.366  83.003  1.00  0.00     0.048 C 
ATOM     31  O   UNL     1     100.291  87.292  82.929  1.00  0.00    -0.550 OA
ATOM     32  O   UNL     1      98.520  86.407  84.043  1.00  0.00    -0.550 OA
ENDBRANCH   1  30
BRANCH  27  33
ATOM     33  O   UNL     1      90.172  82.702  79.588  1.00  0.00    -0.393 OA
ATOM     34  H   UNL     1      90.767  82.422  80.363  1.00  0.00     0.210 HD
ENDBRANCH  27  33
TORSDOF 2
ENDMDL
MODEL 4
REMARK VINA RESULT:    -6.761      5.013      9.519
REMARK INTER + INTRA:          -6.872
REMARK INTER:                  -7.333
REMARK INTRA:                   0.461
REMARK UNBOUND:                 0.482
REMARK SMILES CC1(C)CC[C@@]2(C(=O)[O-])CC[C@]3(C)C(=CC[C@@H]4[C@]5(C)CC[C@H](O)C(C)(C)[C@@H]5CC[C@@]43C)[C@@H]2C1
REMARK SMILES IDX 6 1 5 2 10 3 32 4 4 5 11 6 14 7 33 8 2 9 12 10 15 11 1 12
REMARK SMILES IDX 3 13 13 14 30 15 16 16 17 17 29 18 31 19 18 20 28 21 27 22
REMARK SMILES IDX 20 23 19 24 24 25 21 26 22 27 25 28 26 29 7 30 8 31 9 32
REMARK SMILES IDX 23 33
REMARK H PARENT 23 34
REMARK Flexibility Score: inf
ROOT
ATOM      1  C   UNL     1      90.093  84.028  80.652  1.00  0.00     0.017 C 
ATOM      2  C   UNL     1      89.529  83.098  79.540  1.00  0.00     0.014 C 
ATOM      3  C   UNL     1      89.687  83.499  82.079  1.00  0.00     0.014 C 
ATOM      4  C   UNL     1      91.638  83.954  80.502  1.00  0.00     0.028 C 
ATOM      5  C   UNL     1      89.908  83.653  78.148  1.00  0.00     0.007 C 
ATOM      6  C   UNL     1      90.716  83.731  83.246  1.00  0.00     0.013 C 
ATOM      7  C   UNL     1      92.429  84.506  81.691  1.00  0.00    -0.064 C 
ATOM      8  C   UNL     1      92.145  84.555  79.152  1.00  0.00     0.015 C 
ATOM      9  C   UNL     1      91.435  83.910  77.930  1.00  0.00    -0.035 C 
ATOM     10  C   UNL     1      91.737  84.875  83.031  1.00  0.00    -0.006 C 
ATOM     11  C   UNL     1      93.727  84.289  81.661  1.00  0.00    -0.027 C 
ATOM     12  C   UNL     1      92.138  82.577  77.599  1.00  0.00     0.011 C 
ATOM     13  C   UNL     1      91.589  84.884  76.721  1.00  0.00     0.011 C 
ATOM     14  C   UNL     1      91.013  86.250  82.835  1.00  0.00     0.017 C 
ATOM     15  C   UNL     1      92.812  85.026  84.258  1.00  0.00    -0.020 C 
ATOM     16  C   UNL     1      94.641  85.139  82.460  1.00  0.00     0.032 C 
ATOM     17  C   UNL     1      93.998  85.866  83.680  1.00  0.00     0.006 C 
ATOM     18  C   UNL     1      93.448  83.699  84.810  1.00  0.00     0.008 C 
ATOM     19  C   UNL     1      92.082  85.664  85.504  1.00  0.00     0.012 C 
ATOM     20  C   UNL     1      95.115  86.325  84.686  1.00  0.00    -0.025 C 
ATOM     21  C   UNL     1      94.587  83.922  85.835  1.00  0.00     0.005 C 
ATOM     22  C   UNL     1      95.620  85.127  85.622  1.00  0.00     0.003 C 
ATOM     23  C   UNL     1      96.319  86.906  83.880  1.00  0.00     0.010 C 
ATOM     24  C   UNL     1      94.537  87.546  85.520  1.00  0.00     0.012 C 
ATOM     25  C   UNL     1      97.222  84.718  85.626  1.00  0.00    -0.006 C 
ATOM     26  C   UNL     1      97.502  87.227  84.785  1.00  0.00     0.033 C 
ATOM     27  C   UNL     1      98.217  85.925  85.221  1.00  0.00     0.120 C 
ATOM     28  C   UNL     1      97.516  83.390  84.801  1.00  0.00     0.014 C 
ATOM     29  C   UNL     1      97.550  84.327  87.120  1.00  0.00     0.014 C 
ENDROOT
BRANCH   1  30
ATOM     30  C   UNL     1      89.446  85.414  80.396  1.00  0.00     0.048 C 
ATOM     31  O   UNL     1      88.196  85.550  80.489  1.00  0.00    -0.550 OA
ATOM     32  O   UNL     1      90.191  86.505  79.971  1.00  0.00    -0.550 OA
ENDBRANCH   1  30
BRANCH  27  33
ATOM     33  O   UNL     1      99.227  85.550  84.306  1.00  0.00    -0.393 OA
ATOM     34  H   UNL     1      99.676  86.356  83.880  1.00  0.00     0.210 HD
ENDBRANCH  27  33
TORSDOF 2
ENDMDL
MODEL 5
REMARK VINA RESULT:    -6.747      3.246      8.518
REMARK INTER + INTRA:          -6.857
REMARK INTER:                  -7.392
REMARK INTRA:                   0.535
REMARK UNBOUND:                 0.482
REMARK SMILES CC1(C)CC[C@@]2(C(=O)[O-])CC[C@]3(C)C(=CC[C@@H]4[C@]5(C)CC[C@H](O)C(C)(C)[C@@H]5CC[C@@]43C)[C@@H]2C1
REMARK SMILES IDX 6 1 5 2 10 3 32 4 4 5 11 6 14 7 33 8 2 9 12 10 15 11 1 12
REMARK SMILES IDX 3 13 13 14 30 15 16 16 17 17 29 18 31 19 18 20 28 21 27 22
REMARK SMILES IDX 20 23 19 24 24 25 21 26 22 27 25 28 26 29 7 30 8 31 9 32
REMARK SMILES IDX 23 33
REMARK H PARENT 23 34
REMARK Flexibility Score: inf
ROOT
ATOM      1  C   UNL     1      91.620  84.495  80.854  1.00  0.00     0.017 C 
ATOM      2  C   UNL     1      90.614  83.699  79.975  1.00  0.00     0.014 C 
ATOM      3  C   UNL     1      91.487  84.080  82.367  1.00  0.00     0.014 C 
ATOM      4  C   UNL     1      93.027  84.088  80.335  1.00  0.00     0.028 C 
ATOM      5  C   UNL     1      90.735  84.146  78.500  1.00  0.00     0.007 C 
ATOM      6  C   UNL     1      92.802  84.095  83.230  1.00  0.00     0.013 C 
ATOM      7  C   UNL     1      94.189  84.467  81.258  1.00  0.00    -0.064 C 
ATOM      8  C   UNL     1      93.290  84.552  78.867  1.00  0.00     0.015 C 
ATOM      9  C   UNL     1      92.177  84.065  77.899  1.00  0.00    -0.035 C 
ATOM     10  C   UNL     1      93.949  84.988  82.700  1.00  0.00    -0.006 C 
ATOM     11  C   UNL     1      95.363  83.973  80.926  1.00  0.00    -0.027 C 
ATOM     12  C   UNL     1      92.482  82.609  77.492  1.00  0.00     0.011 C 
ATOM     13  C   UNL     1      92.219  84.971  76.631  1.00  0.00     0.011 C 
ATOM     14  C   UNL     1      93.500  86.486  82.601  1.00  0.00     0.017 C 
ATOM     15  C   UNL     1      95.306  84.915  83.615  1.00  0.00    -0.020 C 
ATOM     16  C   UNL     1      96.605  84.614  81.421  1.00  0.00     0.032 C 
ATOM     17  C   UNL     1      96.455  85.474  82.713  1.00  0.00     0.006 C 
ATOM     18  C   UNL     1      95.772  83.487  84.078  1.00  0.00     0.008 C 
ATOM     19  C   UNL     1      95.062  85.707  84.959  1.00  0.00     0.012 C 
ATOM     20  C   UNL     1      97.860  85.690  83.385  1.00  0.00    -0.025 C 
ATOM     21  C   UNL     1      97.153  83.468  84.778  1.00  0.00     0.005 C 
ATOM     22  C   UNL     1      98.326  84.419  84.242  1.00  0.00     0.003 C 
ATOM     23  C   UNL     1      98.915  85.990  82.274  1.00  0.00     0.010 C 
ATOM     24  C   UNL     1      97.776  87.015  84.256  1.00  0.00     0.012 C 
ATOM     25  C   UNL     1      99.756  83.674  83.880  1.00  0.00    -0.006 C 
ATOM     26  C   UNL     1     100.328  86.055  82.840  1.00  0.00     0.033 C 
ATOM     27  C   UNL     1     100.844  84.634  83.169  1.00  0.00     0.120 C 
ATOM     28  C   UNL     1      99.551  82.307  83.095  1.00  0.00     0.014 C 
ATOM     29  C   UNL     1     100.362  83.235  85.271  1.00  0.00     0.014 C 
ENDROOT
BRANCH   1  30
ATOM     30  C   UNL     1      91.230  85.986  80.677  1.00  0.00     0.048 C 
ATOM     31  O   UNL     1      90.069  86.372  80.979  1.00  0.00    -0.550 OA
ATOM     32  O   UNL     1      92.095  86.908  80.103  1.00  0.00    -0.550 OA
ENDBRANCH   1  30
BRANCH  27  33
ATOM     33  O   UNL     1     101.490  84.040  82.061  1.00  0.00    -0.393 OA
ATOM     34  H   UNL     1     102.501  84.145  82.107  1.00  0.00     0.210 HD
ENDBRANCH  27  33
TORSDOF 2
ENDMDL
MODEL 6
REMARK VINA RESULT:    -6.553      3.441      7.257
REMARK INTER + INTRA:          -6.646
REMARK INTER:                  -7.068
REMARK INTRA:                   0.422
REMARK UNBOUND:                 0.482
REMARK SMILES CC1(C)CC[C@@]2(C(=O)[O-])CC[C@]3(C)C(=CC[C@@H]4[C@]5(C)CC[C@H](O)C(C)(C)[C@@H]5CC[C@@]43C)[C@@H]2C1
REMARK SMILES IDX 6 1 5 2 10 3 32 4 4 5 11 6 14 7 33 8 2 9 12 10 15 11 1 12
REMARK SMILES IDX 3 13 13 14 30 15 16 16 17 17 29 18 31 19 18 20 28 21 27 22
REMARK SMILES IDX 20 23 19 24 24 25 21 26 22 27 25 28 26 29 7 30 8 31 9 32
REMARK SMILES IDX 23 33
REMARK H PARENT 23 34
REMARK Flexibility Score: inf
ROOT
ATOM      1  C   UNL     1      94.260  90.383  81.142  1.00  0.00     0.017 C 
ATOM      2  C   UNL     1      93.855  91.545  82.093  1.00  0.00     0.014 C 
ATOM      3  C   UNL     1      95.478  90.804  80.236  1.00  0.00     0.014 C 
ATOM      4  C   UNL     1      94.697  89.222  82.077  1.00  0.00     0.028 C 
ATOM      5  C   UNL     1      92.637  91.126  82.947  1.00  0.00     0.007 C 
ATOM      6  C   UNL     1      96.504  89.676  79.850  1.00  0.00     0.013 C 
ATOM      7  C   UNL     1      95.464  88.091  81.387  1.00  0.00    -0.064 C 
ATOM      8  C   UNL     1      93.522  88.668  82.945  1.00  0.00     0.015 C 
ATOM      9  C   UNL     1      92.815  89.795  83.747  1.00  0.00    -0.035 C 
ATOM     10  C   UNL     1      95.974  88.224  79.927  1.00  0.00    -0.006 C 
ATOM     11  C   UNL     1      95.997  87.193  82.189  1.00  0.00    -0.027 C 
ATOM     12  C   UNL     1      93.628  90.071  85.028  1.00  0.00     0.011 C 
ATOM     13  C   UNL     1      91.397  89.279  84.142  1.00  0.00     0.011 C 
ATOM     14  C   UNL     1      94.750  88.018  78.971  1.00  0.00     0.017 C 
ATOM     15  C   UNL     1      97.107  87.097  79.565  1.00  0.00    -0.020 C 
ATOM     16  C   UNL     1      96.339  85.846  81.672  1.00  0.00     0.032 C 
ATOM     17  C   UNL     1      96.557  85.747  80.131  1.00  0.00     0.006 C 
ATOM     18  C   UNL     1      98.528  87.291  80.208  1.00  0.00     0.008 C 
ATOM     19  C   UNL     1      97.370  87.115  78.008  1.00  0.00     0.012 C 
ATOM     20  C   UNL     1      97.356  84.439  79.782  1.00  0.00    -0.025 C 
ATOM     21  C   UNL     1      99.494  86.103  79.979  1.00  0.00     0.005 C 
ATOM     22  C   UNL     1      98.930  84.603  80.029  1.00  0.00     0.003 C 
ATOM     23  C   UNL     1      96.808  83.261  80.647  1.00  0.00     0.010 C 
ATOM     24  C   UNL     1      97.013  84.054  78.280  1.00  0.00     0.012 C 
ATOM     25  C   UNL     1      99.703  83.572  81.063  1.00  0.00    -0.006 C 
ATOM     26  C   UNL     1      97.641  81.997  80.473  1.00  0.00     0.033 C 
ATOM     27  C   UNL     1      98.989  82.131  81.222  1.00  0.00     0.120 C 
ATOM     28  C   UNL     1     100.027  84.243  82.468  1.00  0.00     0.014 C 
ATOM     29  C   UNL     1     101.122  83.318  80.418  1.00  0.00     0.014 C 
ENDROOT
BRANCH   1  30
ATOM     30  C   UNL     1      93.011  90.120  80.261  1.00  0.00     0.048 C 
ATOM     31  O   UNL     1      92.681  90.952  79.374  1.00  0.00    -0.550 OA
ATOM     32  O   UNL     1      92.177  89.031  80.476  1.00  0.00    -0.550 OA
ENDBRANCH   1  30
BRANCH  27  33
ATOM     33  O   UNL     1      98.892  81.687  82.560  1.00  0.00    -0.393 OA
ATOM     34  H   UNL     1      98.096  81.069  82.701  1.00  0.00     0.210 HD
ENDBRANCH  27  33
TORSDOF 2
ENDMDL
MODEL 7
REMARK VINA RESULT:    -6.545      3.283      6.023
REMARK INTER + INTRA:          -6.637
REMARK INTER:                  -7.061
REMARK INTRA:                   0.423
REMARK UNBOUND:                 0.482
REMARK SMILES CC1(C)CC[C@@]2(C(=O)[O-])CC[C@]3(C)C(=CC[C@@H]4[C@]5(C)CC[C@H](O)C(C)(C)[C@@H]5CC[C@@]43C)[C@@H]2C1
REMARK SMILES IDX 6 1 5 2 10 3 32 4 4 5 11 6 14 7 33 8 2 9 12 10 15 11 1 12
REMARK SMILES IDX 3 13 13 14 30 15 16 16 17 17 29 18 31 19 18 20 28 21 27 22
REMARK SMILES IDX 20 23 19 24 24 25 21 26 22 27 25 28 26 29 7 30 8 31 9 32
REMARK SMILES IDX 23 33
REMARK H PARENT 23 34
REMARK Flexibility Score: inf
ROOT
ATOM      1  C   UNL     1      98.986  83.288  81.702  1.00  0.00     0.017 C 
ATOM      2  C   UNL     1      99.153  82.026  82.596  1.00  0.00     0.014 C 
ATOM      3  C   UNL     1      98.090  82.967  80.448  1.00  0.00     0.014 C 
ATOM      4  C   UNL     1      98.257  84.329  82.596  1.00  0.00     0.028 C 
ATOM      5  C   UNL     1     100.065  82.353  83.802  1.00  0.00     0.007 C 
ATOM      6  C   UNL     1      97.170  84.124  79.912  1.00  0.00     0.013 C 
ATOM      7  C   UNL     1      97.671  85.527  81.845  1.00  0.00    -0.064 C 
ATOM      8  C   UNL     1      99.117  84.788  83.817  1.00  0.00     0.015 C 
ATOM      9  C   UNL     1      99.615  83.580  84.659  1.00  0.00    -0.035 C 
ATOM     10  C   UNL     1      97.598  85.562  80.294  1.00  0.00    -0.006 C 
ATOM     11  C   UNL     1      96.898  86.322  82.555  1.00  0.00    -0.027 C 
ATOM     12  C   UNL     1      98.485  83.151  85.618  1.00  0.00     0.011 C 
ATOM     13  C   UNL     1     100.842  84.057  85.495  1.00  0.00     0.011 C 
ATOM     14  C   UNL     1      99.032  85.887  79.754  1.00  0.00     0.017 C 
ATOM     15  C   UNL     1      96.568  86.714  79.751  1.00  0.00    -0.020 C 
ATOM     16  C   UNL     1      96.661  87.717  82.113  1.00  0.00     0.032 C 
ATOM     17  C   UNL     1      96.882  87.993  80.594  1.00  0.00     0.006 C 
ATOM     18  C   UNL     1      95.032  86.436  79.938  1.00  0.00     0.008 C 
ATOM     19  C   UNL     1      96.755  86.875  78.191  1.00  0.00     0.012 C 
ATOM     20  C   UNL     1      96.162  89.327  80.177  1.00  0.00    -0.025 C 
ATOM     21  C   UNL     1      94.124  87.636  79.576  1.00  0.00     0.005 C 
ATOM     22  C   UNL     1      94.589  89.123  79.947  1.00  0.00     0.003 C 
ATOM     23  C   UNL     1      96.396  90.400  81.287  1.00  0.00     0.010 C 
ATOM     24  C   UNL     1      96.898  89.886  78.886  1.00  0.00     0.012 C 
ATOM     25  C   UNL     1      93.516  90.021  80.826  1.00  0.00    -0.006 C 
ATOM     26  C   UNL     1      95.596  91.669  81.022  1.00  0.00     0.033 C 
ATOM     27  C   UNL     1      94.098  91.439  81.338  1.00  0.00     0.120 C 
ATOM     28  C   UNL     1      92.837  89.189  81.999  1.00  0.00     0.014 C 
ATOM     29  C   UNL     1      92.327  90.338  79.836  1.00  0.00     0.014 C 
ENDROOT
BRANCH   1  30
ATOM     30  C   UNL     1     100.421  83.662  81.247  1.00  0.00     0.048 C 
ATOM     31  O   UNL     1     101.029  82.928  80.422  1.00  0.00    -0.550 OA
ATOM     32  O   UNL     1     101.107  84.739  81.792  1.00  0.00    -0.550 OA
ENDBRANCH   1  30
BRANCH  27  33
ATOM     33  O   UNL     1      93.797  91.726  82.689  1.00  0.00    -0.393 OA
ATOM     34  H   UNL     1      92.906  92.205  82.788  1.00  0.00     0.210 HD
ENDBRANCH  27  33
TORSDOF 2
ENDMDL
MODEL 8
REMARK VINA RESULT:    -6.472      2.741      8.581
REMARK INTER + INTRA:          -6.557
REMARK INTER:                  -6.981
REMARK INTRA:                   0.424
REMARK UNBOUND:                 0.482
REMARK SMILES CC1(C)CC[C@@]2(C(=O)[O-])CC[C@]3(C)C(=CC[C@@H]4[C@]5(C)CC[C@H](O)C(C)(C)[C@@H]5CC[C@@]43C)[C@@H]2C1
REMARK SMILES IDX 6 1 5 2 10 3 32 4 4 5 11 6 14 7 33 8 2 9 12 10 15 11 1 12
REMARK SMILES IDX 3 13 13 14 30 15 16 16 17 17 29 18 31 19 18 20 28 21 27 22
REMARK SMILES IDX 20 23 19 24 24 25 21 26 22 27 25 28 26 29 7 30 8 31 9 32
REMARK SMILES IDX 23 33
REMARK H PARENT 23 34
REMARK Flexibility Score: inf
ROOT
ATOM      1  C   UNL     1      91.561  86.933  81.843  1.00  0.00     0.017 C 
ATOM      2  C   UNL     1      90.647  87.672  82.862  1.00  0.00     0.014 C 
ATOM      3  C   UNL     1      92.139  87.941  80.781  1.00  0.00     0.014 C 
ATOM      4  C   UNL     1      92.731  86.355  82.687  1.00  0.00     0.028 C 
ATOM      5  C   UNL     1      90.061  86.660  83.874  1.00  0.00     0.007 C 
ATOM      6  C   UNL     1      93.585  87.651  80.233  1.00  0.00     0.013 C 
ATOM      7  C   UNL     1      93.940  85.881  81.875  1.00  0.00    -0.064 C 
ATOM      8  C   UNL     1      92.264  85.265  83.704  1.00  0.00     0.015 C 
ATOM      9  C   UNL     1      91.118  85.780  84.618  1.00  0.00    -0.035 C 
ATOM     10  C   UNL     1      94.075  86.188  80.360  1.00  0.00    -0.006 C 
ATOM     11  C   UNL     1      95.006  85.559  82.577  1.00  0.00    -0.027 C 
ATOM     12  C   UNL     1      91.739  86.590  85.774  1.00  0.00     0.011 C 
ATOM     13  C   UNL     1      90.381  84.536  85.202  1.00  0.00     0.011 C 
ATOM     14  C   UNL     1      93.132  85.206  79.585  1.00  0.00     0.017 C 
ATOM     15  C   UNL     1      95.606  85.967  79.821  1.00  0.00    -0.020 C 
ATOM     16  C   UNL     1      96.038  84.669  81.994  1.00  0.00     0.032 C 
ATOM     17  C   UNL     1      96.079  84.609  80.436  1.00  0.00     0.006 C 
ATOM     18  C   UNL     1      96.672  87.037  80.258  1.00  0.00     0.008 C 
ATOM     19  C   UNL     1      95.609  86.026  78.243  1.00  0.00     0.012 C 
ATOM     20  C   UNL     1      97.463  84.041  79.955  1.00  0.00    -0.025 C 
ATOM     21  C   UNL     1      98.128  86.673  79.874  1.00  0.00     0.005 C 
ATOM     22  C   UNL     1      98.618  85.151  79.977  1.00  0.00     0.003 C 
ATOM     23  C   UNL     1      97.869  82.842  80.870  1.00  0.00     0.010 C 
ATOM     24  C   UNL     1      97.249  83.416  78.511  1.00  0.00     0.012 C 
ATOM     25  C   UNL     1      99.982  84.889  80.874  1.00  0.00    -0.006 C 
ATOM     26  C   UNL     1      99.274  82.344  80.557  1.00  0.00     0.033 C 
ATOM     27  C   UNL     1     100.332  83.329  81.108  1.00  0.00     0.120 C 
ATOM     28  C   UNL     1      99.993  85.721  82.229  1.00  0.00     0.014 C 
ATOM     29  C   UNL     1     101.163  85.508  80.029  1.00  0.00     0.014 C 
ENDROOT
BRANCH   1  30
ATOM     30  C   UNL     1      90.643  85.896  81.145  1.00  0.00     0.048 C 
ATOM     31  O   UNL     1      89.748  86.285  80.348  1.00  0.00    -0.550 OA
ATOM     32  O   UNL     1      90.710  84.541  81.439  1.00  0.00    -0.550 OA
ENDBRANCH   1  30
BRANCH  27  33
ATOM     33  O   UNL     1     100.694  83.019  82.439  1.00  0.00    -0.393 OA
ATOM     34  H   UNL     1     101.588  82.537  82.489  1.00  0.00     0.210 HD
ENDBRANCH  27  33
TORSDOF 2
ENDMDL
MODEL 9
REMARK VINA RESULT:    -6.315      3.289      5.988
REMARK INTER + INTRA:          -6.387
REMARK INTER:                  -6.811
REMARK INTRA:                   0.424
REMARK UNBOUND:                 0.482
REMARK SMILES CC1(C)CC[C@@]2(C(=O)[O-])CC[C@]3(C)C(=CC[C@@H]4[C@]5(C)CC[C@H](O)C(C)(C)[C@@H]5CC[C@@]43C)[C@@H]2C1
REMARK SMILES IDX 6 1 5 2 10 3 32 4 4 5 11 6 14 7 33 8 2 9 12 10 15 11 1 12
REMARK SMILES IDX 3 13 13 14 30 15 16 16 17 17 29 18 31 19 18 20 28 21 27 22
REMARK SMILES IDX 20 23 19 24 24 25 21 26 22 27 25 28 26 29 7 30 8 31 9 32
REMARK SMILES IDX 23 33
REMARK H PARENT 23 34
REMARK Flexibility Score: inf
ROOT
ATOM      1  C   UNL     1      98.560  84.026  80.637  1.00  0.00     0.017 C 
ATOM      2  C   UNL     1      99.665  82.939  80.768  1.00  0.00     0.014 C 
ATOM      3  C   UNL     1      97.843  83.926  79.239  1.00  0.00     0.014 C 
ATOM      4  C   UNL     1      97.535  83.704  81.760  1.00  0.00     0.028 C 
ATOM      5  C   UNL     1     100.380  83.078  82.131  1.00  0.00     0.007 C 
ATOM      6  C   UNL     1      96.314  84.292  79.191  1.00  0.00     0.013 C 
ATOM      7  C   UNL     1      96.185  84.416  81.625  1.00  0.00    -0.064 C 
ATOM      8  C   UNL     1      98.131  83.878  83.193  1.00  0.00     0.015 C 
ATOM      9  C   UNL     1      99.437  83.058  83.379  1.00  0.00    -0.035 C 
ATOM     10  C   UNL     1      95.799  85.194  80.339  1.00  0.00    -0.006 C 
ATOM     11  C   UNL     1      95.248  84.020  82.459  1.00  0.00    -0.027 C 
ATOM     12  C   UNL     1      99.060  81.601  83.715  1.00  0.00     0.011 C 
ATOM     13  C   UNL     1     100.219  83.675  84.580  1.00  0.00     0.011 C 
ATOM     14  C   UNL     1      96.554  86.566  80.362  1.00  0.00     0.017 C 
ATOM     15  C   UNL     1      94.190  85.491  80.260  1.00  0.00    -0.020 C 
ATOM     16  C   UNL     1      94.097  84.905  82.758  1.00  0.00     0.032 C 
ATOM     17  C   UNL     1      93.781  85.991  81.684  1.00  0.00     0.006 C 
ATOM     18  C   UNL     1      93.257  84.265  79.946  1.00  0.00     0.008 C 
ATOM     19  C   UNL     1      93.913  86.511  79.086  1.00  0.00     0.012 C 
ATOM     20  C   UNL     1      92.314  86.524  81.870  1.00  0.00    -0.025 C 
ATOM     21  C   UNL     1      91.745  84.573  80.068  1.00  0.00     0.005 C 
ATOM     22  C   UNL     1      91.223  85.533  81.239  1.00  0.00     0.003 C 
ATOM     23  C   UNL     1      92.030  86.716  83.393  1.00  0.00     0.010 C 
ATOM     24  C   UNL     1      92.249  87.980  81.241  1.00  0.00     0.012 C 
ATOM     25  C   UNL     1      90.029  84.920  82.202  1.00  0.00    -0.006 C 
ATOM     26  C   UNL     1      90.574  87.082  83.654  1.00  0.00     0.033 C 
ATOM     27  C   UNL     1      89.667  85.840  83.480  1.00  0.00     0.120 C 
ATOM     28  C   UNL     1      90.286  83.403  82.605  1.00  0.00     0.014 C 
ATOM     29  C   UNL     1      88.742  84.866  81.289  1.00  0.00     0.014 C 
ENDROOT
BRANCH   1  30
ATOM     30  C   UNL     1      99.302  85.383  80.756  1.00  0.00     0.048 C 
ATOM     31  O   UNL     1     100.041  85.779  79.815  1.00  0.00    -0.550 OA
ATOM     32  O   UNL     1      99.256  86.145  81.915  1.00  0.00    -0.550 OA
ENDBRANCH   1  30
BRANCH  27  33
ATOM     33  O   UNL     1      89.531  85.116  84.686  1.00  0.00    -0.393 OA
ATOM     34  H   UNL     1      89.950  84.191  84.625  1.00  0.00     0.210 HD
ENDBRANCH  27  33
TORSDOF 2
ENDMDL
