MODEL 1
REMARK VINA RESULT:    -5.916      0.000      0.000
REMARK INTER + INTRA:          -6.435
REMARK INTER:                  -6.435
REMARK INTRA:                   0.000
REMARK UNBOUND:                 0.000
REMARK SMILES Cc1cc(O)c2c(c1)C(=O)c1cc(O)cc(O)c1C2=O
REMARK SMILES IDX 1 1 2 2 8 3 7 4 6 5 4 6 3 7 19 8 20 9 18 10 11 11 9 12 10 13
REMARK SMILES IDX 12 14 13 15 15 16 16 17 5 18 17 20 14 22
REMARK H PARENT 5 19 17 21 14 23
REMARK Flexibility Score: inf
ROOT
ATOM      1  C   UNL     1     129.751 128.998 120.249  1.00  0.00     0.044 C 
ATOM      2  C   UNL     1     129.822 129.113 118.755  1.00  0.00    -0.047 A 
ATOM      3  C   UNL     1     128.653 129.280 118.004  1.00  0.00     0.016 A 
ATOM      4  C   UNL     1     128.706 129.355 116.601  1.00  0.00     0.038 A 
ATOM      5  C   UNL     1     129.947 129.242 115.939  1.00  0.00     0.076 A 
ATOM      6  C   UNL     1     131.125 129.062 116.700  1.00  0.00     0.127 A 
ATOM      7  C   UNL     1     131.052 128.991 118.097  1.00  0.00     0.050 A 
ATOM      8  C   UNL     1     129.981 129.285 114.453  1.00  0.00     0.201 C 
ATOM      9  O   UNL     1     130.987 128.835 113.842  1.00  0.00    -0.288 OA
ATOM     10  C   UNL     1     128.788 129.748 113.690  1.00  0.00     0.076 A 
ATOM     11  C   UNL     1     127.541 129.794 114.356  1.00  0.00     0.041 A 
ATOM     12  C   UNL     1     127.466 129.548 115.816  1.00  0.00     0.194 C 
ATOM     13  O   UNL     1     126.345 129.520 116.394  1.00  0.00    -0.289 OA
ATOM     14  C   UNL     1     126.372 130.084 113.632  1.00  0.00     0.059 A 
ATOM     15  C   UNL     1     126.430 130.344 112.261  1.00  0.00     0.120 A 
ATOM     16  C   UNL     1     127.662 130.347 111.610  1.00  0.00     0.093 A 
ATOM     17  C   UNL     1     128.844 130.089 112.311  1.00  0.00     0.131 A 
ENDROOT
BRANCH   6  18
ATOM     18  O   UNL     1     132.368 128.958 116.076  1.00  0.00    -0.507 OA
ATOM     19  H   UNL     1     132.838 128.067 115.967  1.00  0.00     0.293 HD
ENDBRANCH   6  18
BRANCH  17  20
ATOM     20  O   UNL     1     130.043 130.218 111.606  1.00  0.00    -0.507 OA
ATOM     21  H   UNL     1     130.300 129.633 110.823  1.00  0.00     0.293 HD
ENDBRANCH  17  20
BRANCH  15  22
ATOM     22  O   UNL     1     125.271 130.615 111.539  1.00  0.00    -0.508 OA
ATOM     23  H   UNL     1     124.385 130.788 112.001  1.00  0.00     0.293 HD
ENDBRANCH  15  22
TORSDOF 3
ENDMDL
MODEL 2
REMARK VINA RESULT:    -5.833      1.384      6.315
REMARK INTER + INTRA:          -6.344
REMARK INTER:                  -6.344
REMARK INTRA:                   0.000
REMARK UNBOUND:                 0.000
REMARK SMILES Cc1cc(O)c2c(c1)C(=O)c1cc(O)cc(O)c1C2=O
REMARK SMILES IDX 1 1 2 2 8 3 7 4 6 5 4 6 3 7 19 8 20 9 18 10 11 11 9 12 10 13
REMARK SMILES IDX 12 14 13 15 15 16 16 17 5 18 17 20 14 22
REMARK H PARENT 5 19 17 21 14 23
REMARK Flexibility Score: inf
ROOT
ATOM      1  C   UNL     1     128.795 130.239 110.460  1.00  0.00     0.044 C 
ATOM      2  C   UNL     1     128.435 130.078 111.908  1.00  0.00    -0.047 A 
ATOM      3  C   UNL     1     129.420 129.747 112.846  1.00  0.00     0.016 A 
ATOM      4  C   UNL     1     129.087 129.560 114.200  1.00  0.00     0.038 A 
ATOM      5  C   UNL     1     127.744 129.688 114.616  1.00  0.00     0.076 A 
ATOM      6  C   UNL     1     126.751 130.012 113.663  1.00  0.00     0.127 A 
ATOM      7  C   UNL     1     127.103 130.195 112.320  1.00  0.00     0.050 A 
ATOM      8  C   UNL     1     127.404 129.450 116.044  1.00  0.00     0.201 C 
ATOM      9  O   UNL     1     126.210 129.204 116.364  1.00  0.00    -0.288 OA
ATOM     10  C   UNL     1     128.482 129.386 117.070  1.00  0.00     0.076 A 
ATOM     11  C   UNL     1     129.814 129.194 116.635  1.00  0.00     0.041 A 
ATOM     12  C   UNL     1     130.137 129.225 115.188  1.00  0.00     0.194 C 
ATOM     13  O   UNL     1     131.313 128.984 114.799  1.00  0.00    -0.289 OA
ATOM     14  C   UNL     1     130.835 128.983 117.577  1.00  0.00     0.059 A 
ATOM     15  C   UNL     1     130.550 128.977 118.944  1.00  0.00     0.120 A 
ATOM     16  C   UNL     1     129.248 129.214 119.380  1.00  0.00     0.093 A 
ATOM     17  C   UNL     1     128.219 129.454 118.466  1.00  0.00     0.131 A 
ENDROOT
BRANCH   6  18
ATOM     18  O   UNL     1     125.418 130.157 114.045  1.00  0.00    -0.507 OA
ATOM     19  H   UNL     1     125.005 129.582 114.770  1.00  0.00     0.293 HD
ENDBRANCH   6  18
BRANCH  17  20
ATOM     20  O   UNL     1     126.967 129.789 118.989  1.00  0.00    -0.507 OA
ATOM     21  H   UNL     1     126.821 130.101 119.938  1.00  0.00     0.293 HD
ENDBRANCH  17  20
BRANCH  15  22
ATOM     22  O   UNL     1     131.558 128.752 119.879  1.00  0.00    -0.508 OA
ATOM     23  H   UNL     1     131.972 127.835 120.004  1.00  0.00     0.293 HD
ENDBRANCH  15  22
TORSDOF 3
ENDMDL
MODEL 3
REMARK VINA RESULT:    -5.713      1.981      4.184
REMARK INTER + INTRA:          -6.214
REMARK INTER:                  -6.214
REMARK INTRA:                   0.000
REMARK UNBOUND:                 0.000
REMARK SMILES Cc1cc(O)c2c(c1)C(=O)c1cc(O)cc(O)c1C2=O
REMARK SMILES IDX 1 1 2 2 8 3 7 4 6 5 4 6 3 7 19 8 20 9 18 10 11 11 9 12 10 13
REMARK SMILES IDX 12 14 13 15 15 16 16 17 5 18 17 20 14 22
REMARK H PARENT 5 19 17 21 14 23
REMARK Flexibility Score: inf
ROOT
ATOM      1  C   UNL     1     128.252 129.954 119.872  1.00  0.00     0.044 C 
ATOM      2  C   UNL     1     128.351 129.695 118.397  1.00  0.00    -0.047 A 
ATOM      3  C   UNL     1     129.598 129.472 117.803  1.00  0.00     0.016 A 
ATOM      4  C   UNL     1     129.705 129.262 116.417  1.00  0.00     0.038 A 
ATOM      5  C   UNL     1     128.547 129.295 115.611  1.00  0.00     0.076 A 
ATOM      6  C   UNL     1     127.290 129.533 116.213  1.00  0.00     0.127 A 
ATOM      7  C   UNL     1     127.204 129.738 117.596  1.00  0.00     0.050 A 
ATOM      8  C   UNL     1     128.683 129.110 114.142  1.00  0.00     0.201 C 
ATOM      9  O   UNL     1     127.752 129.486 113.381  1.00  0.00    -0.288 OA
ATOM     10  C   UNL     1     129.955 128.591 113.567  1.00  0.00     0.076 A 
ATOM     11  C   UNL     1     131.119 128.624 114.370  1.00  0.00     0.041 A 
ATOM     12  C   UNL     1     131.027 129.011 115.799  1.00  0.00     0.194 C 
ATOM     13  O   UNL     1     132.075 129.108 116.494  1.00  0.00    -0.289 OA
ATOM     14  C   UNL     1     132.364 128.282 113.815  1.00  0.00     0.059 A 
ATOM     15  C   UNL     1     132.462 127.891 112.478  1.00  0.00     0.120 A 
ATOM     16  C   UNL     1     131.312 127.810 111.695  1.00  0.00     0.093 A 
ATOM     17  C   UNL     1     130.058 128.119 112.229  1.00  0.00     0.131 A 
ENDROOT
BRANCH   6  18
ATOM     18  O   UNL     1     126.126 129.560 115.446  1.00  0.00    -0.507 OA
ATOM     19  H   UNL     1     125.697 130.431 115.158  1.00  0.00     0.293 HD
ENDBRANCH   6  18
BRANCH  17  20
ATOM     20  O   UNL     1     128.946 127.908 111.409  1.00  0.00    -0.507 OA
ATOM     21  H   UNL     1     128.423 128.652 110.971  1.00  0.00     0.293 HD
ENDBRANCH  17  20
BRANCH  15  22
ATOM     22  O   UNL     1     133.696 127.567 111.920  1.00  0.00    -0.508 OA
ATOM     23  H   UNL     1     134.175 126.705 112.155  1.00  0.00     0.293 HD
ENDBRANCH  15  22
TORSDOF 3
ENDMDL
MODEL 4
REMARK VINA RESULT:    -5.560      5.284      8.386
REMARK INTER + INTRA:          -6.047
REMARK INTER:                  -6.047
REMARK INTRA:                   0.000
REMARK UNBOUND:                 0.000
REMARK SMILES Cc1cc(O)c2c(c1)C(=O)c1cc(O)cc(O)c1C2=O
REMARK SMILES IDX 1 1 2 2 8 3 7 4 6 5 4 6 3 7 19 8 20 9 18 10 11 11 9 12 10 13
REMARK SMILES IDX 12 14 13 15 15 16 16 17 5 18 17 20 14 22
REMARK H PARENT 5 19 17 21 14 23
REMARK Flexibility Score: inf
ROOT
ATOM      1  C   UNL     1     128.327 131.988 111.037  1.00  0.00     0.044 C 
ATOM      2  C   UNL     1     126.863 131.975 111.362  1.00  0.00    -0.047 A 
ATOM      3  C   UNL     1     125.966 132.739 110.607  1.00  0.00     0.016 A 
ATOM      4  C   UNL     1     124.596 132.760 110.926  1.00  0.00     0.038 A 
ATOM      5  C   UNL     1     124.122 132.019 112.029  1.00  0.00     0.076 A 
ATOM      6  C   UNL     1     125.033 131.257 112.796  1.00  0.00     0.127 A 
ATOM      7  C   UNL     1     126.393 131.248 112.462  1.00  0.00     0.050 A 
ATOM      8  C   UNL     1     122.676 132.083 112.375  1.00  0.00     0.201 C 
ATOM      9  O   UNL     1     122.299 131.741 113.527  1.00  0.00    -0.288 OA
ATOM     10  C   UNL     1     121.700 132.656 111.407  1.00  0.00     0.076 A 
ATOM     11  C   UNL     1     122.192 133.448 110.343  1.00  0.00     0.041 A 
ATOM     12  C   UNL     1     123.652 133.558 110.112  1.00  0.00     0.194 C 
ATOM     13  O   UNL     1     124.091 134.321 109.207  1.00  0.00    -0.289 OA
ATOM     14  C   UNL     1     121.294 134.123 109.499  1.00  0.00     0.059 A 
ATOM     15  C   UNL     1     119.916 134.007 109.690  1.00  0.00     0.120 A 
ATOM     16  C   UNL     1     119.424 133.190 110.706  1.00  0.00     0.093 A 
ATOM     17  C   UNL     1     120.294 132.485 111.543  1.00  0.00     0.131 A 
ENDROOT
BRANCH   6  18
ATOM     18  O   UNL     1     124.592 130.505 113.885  1.00  0.00    -0.507 OA
ATOM     19  H   UNL     1     124.886 129.546 114.025  1.00  0.00     0.293 HD
ENDBRANCH   6  18
BRANCH  17  20
ATOM     20  O   UNL     1     119.719 131.606 112.464  1.00  0.00    -0.507 OA
ATOM     21  H   UNL     1     118.726 131.548 112.640  1.00  0.00     0.293 HD
ENDBRANCH  17  20
BRANCH  15  22
ATOM     22  O   UNL     1     119.024 134.689 108.865  1.00  0.00    -0.508 OA
ATOM     23  H   UNL     1     119.348 135.297 108.121  1.00  0.00     0.293 HD
ENDBRANCH  15  22
TORSDOF 3
ENDMDL
MODEL 5
REMARK VINA RESULT:    -5.517      6.249      8.877
REMARK INTER + INTRA:          -6.000
REMARK INTER:                  -6.000
REMARK INTRA:                   0.000
REMARK UNBOUND:                 0.000
REMARK SMILES Cc1cc(O)c2c(c1)C(=O)c1cc(O)cc(O)c1C2=O
REMARK SMILES IDX 1 1 2 2 8 3 7 4 6 5 4 6 3 7 19 8 20 9 18 10 11 11 9 12 10 13
REMARK SMILES IDX 12 14 13 15 15 16 16 17 5 18 17 20 14 22
REMARK H PARENT 5 19 17 21 14 23
REMARK Flexibility Score: inf
ROOT
ATOM      1  C   UNL     1     128.098 130.931 110.273  1.00  0.00     0.044 C 
ATOM      2  C   UNL     1     126.635 131.071 109.974  1.00  0.00    -0.047 A 
ATOM      3  C   UNL     1     125.726 131.329 111.006  1.00  0.00     0.016 A 
ATOM      4  C   UNL     1     124.348 131.427 110.741  1.00  0.00     0.038 A 
ATOM      5  C   UNL     1     123.873 131.246 109.425  1.00  0.00     0.076 A 
ATOM      6  C   UNL     1     124.793 130.975 108.387  1.00  0.00     0.127 A 
ATOM      7  C   UNL     1     126.162 130.882 108.670  1.00  0.00     0.050 A 
ATOM      8  C   UNL     1     122.409 131.316 109.170  1.00  0.00     0.201 C 
ATOM      9  O   UNL     1     121.940 130.813 108.113  1.00  0.00    -0.288 OA
ATOM     10  C   UNL     1     121.493 131.870 110.205  1.00  0.00     0.076 A 
ATOM     11  C   UNL     1     121.970 131.985 111.532  1.00  0.00     0.041 A 
ATOM     12  C   UNL     1     123.396 131.716 111.837  1.00  0.00     0.194 C 
ATOM     13  O   UNL     1     123.802 131.749 113.031  1.00  0.00    -0.289 OA
ATOM     14  C   UNL     1     121.092 132.364 112.561  1.00  0.00     0.059 A 
ATOM     15  C   UNL     1     119.752 132.646 112.284  1.00  0.00     0.120 A 
ATOM     16  C   UNL     1     119.289 132.582 110.971  1.00  0.00     0.093 A 
ATOM     17  C   UNL     1     120.148 132.233 109.925  1.00  0.00     0.131 A 
ENDROOT
BRANCH   6  18
ATOM     18  O   UNL     1     124.355 130.803 107.074  1.00  0.00    -0.507 OA
ATOM     19  H   UNL     1     124.747 131.335 106.307  1.00  0.00     0.293 HD
ENDBRANCH   6  18
BRANCH  17  20
ATOM     20  O   UNL     1     119.630 132.298 108.628  1.00  0.00    -0.507 OA
ATOM     21  H   UNL     1     118.800 132.817 108.381  1.00  0.00     0.293 HD
ENDBRANCH  17  20
BRANCH  15  22
ATOM     22  O   UNL     1     118.875 133.006 113.305  1.00  0.00    -0.508 OA
ATOM     23  H   UNL     1     118.121 133.665 113.149  1.00  0.00     0.293 HD
ENDBRANCH  15  22
TORSDOF 3
ENDMDL
MODEL 6
REMARK VINA RESULT:    -5.465      5.386      7.371
REMARK INTER + INTRA:          -5.944
REMARK INTER:                  -5.944
REMARK INTRA:                   0.000
REMARK UNBOUND:                 0.000
REMARK SMILES Cc1cc(O)c2c(c1)C(=O)c1cc(O)cc(O)c1C2=O
REMARK SMILES IDX 1 1 2 2 8 3 7 4 6 5 4 6 3 7 19 8 20 9 18 10 11 11 9 12 10 13
REMARK SMILES IDX 12 14 13 15 15 16 16 17 5 18 17 20 14 22
REMARK H PARENT 5 19 17 21 14 23
REMARK Flexibility Score: inf
ROOT
ATOM      1  C   UNL     1     121.491 132.060 112.868  1.00  0.00     0.044 C 
ATOM      2  C   UNL     1     122.952 132.261 112.590  1.00  0.00    -0.047 A 
ATOM      3  C   UNL     1     123.394 133.425 111.953  1.00  0.00     0.016 A 
ATOM      4  C   UNL     1     124.757 133.608 111.657  1.00  0.00     0.038 A 
ATOM      5  C   UNL     1     125.687 132.600 111.987  1.00  0.00     0.076 A 
ATOM      6  C   UNL     1     125.235 131.420 112.621  1.00  0.00     0.127 A 
ATOM      7  C   UNL     1     123.874 131.257 112.909  1.00  0.00     0.050 A 
ATOM      8  C   UNL     1     127.119 132.792 111.633  1.00  0.00     0.201 C 
ATOM      9  O   UNL     1     127.885 131.793 111.584  1.00  0.00    -0.288 OA
ATOM     10  C   UNL     1     127.615 134.136 111.225  1.00  0.00     0.076 A 
ATOM     11  C   UNL     1     126.668 135.113 110.837  1.00  0.00     0.041 A 
ATOM     12  C   UNL     1     125.218 134.850 110.996  1.00  0.00     0.194 C 
ATOM     13  O   UNL     1     124.375 135.693 110.584  1.00  0.00    -0.289 OA
ATOM     14  C   UNL     1     127.105 136.340 110.309  1.00  0.00     0.059 A 
ATOM     15  C   UNL     1     128.468 136.612 110.177  1.00  0.00     0.120 A 
ATOM     16  C   UNL     1     129.406 135.673 110.603  1.00  0.00     0.093 A 
ATOM     17  C   UNL     1     128.999 134.456 111.158  1.00  0.00     0.131 A 
ENDROOT
BRANCH   6  18
ATOM     18  O   UNL     1     126.132 130.410 112.971  1.00  0.00    -0.507 OA
ATOM     19  H   UNL     1     127.115 130.464 112.733  1.00  0.00     0.293 HD
ENDBRANCH   6  18
BRANCH  17  20
ATOM     20  O   UNL     1     129.999 133.618 111.657  1.00  0.00    -0.507 OA
ATOM     21  H   UNL     1     130.909 133.943 111.951  1.00  0.00     0.293 HD
ENDBRANCH  17  20
BRANCH  15  22
ATOM     22  O   UNL     1     128.904 137.821 109.639  1.00  0.00    -0.508 OA
ATOM     23  H   UNL     1     128.819 138.691 110.151  1.00  0.00     0.293 HD
ENDBRANCH  15  22
TORSDOF 3
ENDMDL
MODEL 7
REMARK VINA RESULT:    -5.436      6.898      9.147
REMARK INTER + INTRA:          -5.913
REMARK INTER:                  -5.913
REMARK INTRA:                   0.000
REMARK UNBOUND:                 0.000
REMARK SMILES Cc1cc(O)c2c(c1)C(=O)c1cc(O)cc(O)c1C2=O
REMARK SMILES IDX 1 1 2 2 8 3 7 4 6 5 4 6 3 7 19 8 20 9 18 10 11 11 9 12 10 13
REMARK SMILES IDX 12 14 13 15 15 16 16 17 5 18 17 20 14 22
REMARK H PARENT 5 19 17 21 14 23
REMARK Flexibility Score: inf
ROOT
ATOM      1  C   UNL     1     128.123 134.749 111.579  1.00  0.00     0.044 C 
ATOM      2  C   UNL     1     126.730 134.565 111.052  1.00  0.00    -0.047 A 
ATOM      3  C   UNL     1     125.800 133.805 111.770  1.00  0.00     0.016 A 
ATOM      4  C   UNL     1     124.503 133.598 111.268  1.00  0.00     0.038 A 
ATOM      5  C   UNL     1     124.138 134.144 110.019  1.00  0.00     0.076 A 
ATOM      6  C   UNL     1     125.085 134.901 109.291  1.00  0.00     0.127 A 
ATOM      7  C   UNL     1     126.371 135.098 109.808  1.00  0.00     0.050 A 
ATOM      8  C   UNL     1     122.775 133.882 109.486  1.00  0.00     0.201 C 
ATOM      9  O   UNL     1     122.550 134.039 108.256  1.00  0.00    -0.288 OA
ATOM     10  C   UNL     1     121.716 133.328 110.375  1.00  0.00     0.076 A 
ATOM     11  C   UNL     1     122.109 132.729 111.595  1.00  0.00     0.041 A 
ATOM     12  C   UNL     1     123.520 132.806 112.042  1.00  0.00     0.194 C 
ATOM     13  O   UNL     1     123.881 132.210 113.094  1.00  0.00    -0.289 OA
ATOM     14  C   UNL     1     121.156 132.067 112.389  1.00  0.00     0.059 A 
ATOM     15  C   UNL     1     119.818 132.009 111.992  1.00  0.00     0.120 A 
ATOM     16  C   UNL     1     119.417 132.640 110.816  1.00  0.00     0.093 A 
ATOM     17  C   UNL     1     120.339 133.328 110.022  1.00  0.00     0.131 A 
ENDROOT
BRANCH   6  18
ATOM     18  O   UNL     1     124.751 135.463 108.059  1.00  0.00    -0.507 OA
ATOM     19  H   UNL     1     123.793 135.498 107.731  1.00  0.00     0.293 HD
ENDBRANCH   6  18
BRANCH  17  20
ATOM     20  O   UNL     1     119.836 134.022 108.918  1.00  0.00    -0.507 OA
ATOM     21  H   UNL     1     120.132 133.853 107.967  1.00  0.00     0.293 HD
ENDBRANCH  17  20
BRANCH  15  22
ATOM     22  O   UNL     1     118.875 131.340 112.769  1.00  0.00    -0.508 OA
ATOM     23  H   UNL     1     119.072 130.436 113.182  1.00  0.00     0.293 HD
ENDBRANCH  15  22
TORSDOF 3
ENDMDL
MODEL 8
REMARK VINA RESULT:    -5.359      5.712     10.494
REMARK INTER + INTRA:          -5.829
REMARK INTER:                  -5.829
REMARK INTRA:                   0.000
REMARK UNBOUND:                 0.000
REMARK SMILES Cc1cc(O)c2c(c1)C(=O)c1cc(O)cc(O)c1C2=O
REMARK SMILES IDX 1 1 2 2 8 3 7 4 6 5 4 6 3 7 19 8 20 9 18 10 11 11 9 12 10 13
REMARK SMILES IDX 12 14 13 15 15 16 16 17 5 18 17 20 14 22
REMARK H PARENT 5 19 17 21 14 23
REMARK Flexibility Score: inf
ROOT
ATOM      1  C   UNL     1     119.376 133.962 106.431  1.00  0.00     0.044 C 
ATOM      2  C   UNL     1     119.931 133.631 107.785  1.00  0.00    -0.047 A 
ATOM      3  C   UNL     1     121.196 133.043 107.903  1.00  0.00     0.016 A 
ATOM      4  C   UNL     1     121.711 132.697 109.165  1.00  0.00     0.038 A 
ATOM      5  C   UNL     1     120.939 132.925 110.324  1.00  0.00     0.076 A 
ATOM      6  C   UNL     1     119.657 133.508 110.200  1.00  0.00     0.127 A 
ATOM      7  C   UNL     1     119.162 133.848 108.934  1.00  0.00     0.050 A 
ATOM      8  C   UNL     1     121.483 132.518 111.647  1.00  0.00     0.201 C 
ATOM      9  O   UNL     1     120.698 132.376 112.623  1.00  0.00    -0.288 OA
ATOM     10  C   UNL     1     122.924 132.168 111.789  1.00  0.00     0.076 A 
ATOM     11  C   UNL     1     123.665 131.882 110.618  1.00  0.00     0.041 A 
ATOM     12  C   UNL     1     123.056 132.091 109.283  1.00  0.00     0.194 C 
ATOM     13  O   UNL     1     123.693 131.767 108.243  1.00  0.00    -0.289 OA
ATOM     14  C   UNL     1     124.983 131.407 110.723  1.00  0.00     0.059 A 
ATOM     15  C   UNL     1     125.578 131.230 111.974  1.00  0.00     0.120 A 
ATOM     16  C   UNL     1     124.869 131.557 113.129  1.00  0.00     0.093 A 
ATOM     17  C   UNL     1     123.566 132.057 113.053  1.00  0.00     0.131 A 
ENDROOT
BRANCH   6  18
ATOM     18  O   UNL     1     118.875 133.758 111.327  1.00  0.00    -0.507 OA
ATOM     19  H   UNL     1     118.573 133.012 111.942  1.00  0.00     0.293 HD
ENDBRANCH   6  18
BRANCH  17  20
ATOM     20  O   UNL     1     122.968 132.460 114.249  1.00  0.00    -0.507 OA
ATOM     21  H   UNL     1     122.440 133.315 114.352  1.00  0.00     0.293 HD
ENDBRANCH  17  20
BRANCH  15  22
ATOM     22  O   UNL     1     126.879 130.744 112.081  1.00  0.00    -0.508 OA
ATOM     23  H   UNL     1     127.133 130.058 112.781  1.00  0.00     0.293 HD
ENDBRANCH  15  22
TORSDOF 3
ENDMDL
MODEL 9
REMARK VINA RESULT:    -5.335      5.822      9.497
REMARK INTER + INTRA:          -5.803
REMARK INTER:                  -5.803
REMARK INTRA:                   0.000
REMARK UNBOUND:                 0.000
REMARK SMILES Cc1cc(O)c2c(c1)C(=O)c1cc(O)cc(O)c1C2=O
REMARK SMILES IDX 1 1 2 2 8 3 7 4 6 5 4 6 3 7 19 8 20 9 18 10 11 11 9 12 10 13
REMARK SMILES IDX 12 14 13 15 15 16 16 17 5 18 17 20 14 22
REMARK H PARENT 5 19 17 21 14 23
REMARK Flexibility Score: inf
ROOT
ATOM      1  C   UNL     1     125.615 130.938 113.520  1.00  0.00     0.044 C 
ATOM      2  C   UNL     1     124.458 131.398 112.684  1.00  0.00    -0.047 A 
ATOM      3  C   UNL     1     124.636 131.670 111.323  1.00  0.00     0.016 A 
ATOM      4  C   UNL     1     123.565 132.134 110.538  1.00  0.00     0.038 A 
ATOM      5  C   UNL     1     122.302 132.347 111.130  1.00  0.00     0.076 A 
ATOM      6  C   UNL     1     122.129 132.082 112.508  1.00  0.00     0.127 A 
ATOM      7  C   UNL     1     123.207 131.618 113.273  1.00  0.00     0.050 A 
ATOM      8  C   UNL     1     121.191 132.875 110.294  1.00  0.00     0.201 C 
ATOM      9  O   UNL     1     120.193 133.404 110.852  1.00  0.00    -0.288 OA
ATOM     10  C   UNL     1     121.310 132.884 108.810  1.00  0.00     0.076 A 
ATOM     11  C   UNL     1     122.594 132.731 108.237  1.00  0.00     0.041 A 
ATOM     12  C   UNL     1     123.758 132.405 109.095  1.00  0.00     0.194 C 
ATOM     13  O   UNL     1     124.914 132.339 108.592  1.00  0.00    -0.289 OA
ATOM     14  C   UNL     1     122.765 132.881 106.850  1.00  0.00     0.059 A 
ATOM     15  C   UNL     1     121.673 133.163 106.026  1.00  0.00     0.120 A 
ATOM     16  C   UNL     1     120.398 133.266 106.579  1.00  0.00     0.093 A 
ATOM     17  C   UNL     1     120.196 133.095 107.951  1.00  0.00     0.131 A 
ENDROOT
BRANCH   6  18
ATOM     18  O   UNL     1     120.890 132.271 113.120  1.00  0.00    -0.507 OA
ATOM     19  H   UNL     1     120.093 132.634 112.610  1.00  0.00     0.293 HD
ENDBRANCH   6  18
BRANCH  17  20
ATOM     20  O   UNL     1     118.875 133.108 108.407  1.00  0.00    -0.507 OA
ATOM     21  H   UNL     1     118.590 133.508 109.289  1.00  0.00     0.293 HD
ENDBRANCH  17  20
BRANCH  15  22
ATOM     22  O   UNL     1     121.842 133.328 104.653  1.00  0.00    -0.508 OA
ATOM     23  H   UNL     1     121.640 134.209 104.195  1.00  0.00     0.293 HD
ENDBRANCH  15  22
TORSDOF 3
ENDMDL
