MODEL 1
REMARK VINA RESULT:    -4.359      0.000      0.000
REMARK INTER + INTRA:         -12.493
REMARK INTER:                  -9.454
REMARK INTRA:                  -3.038
REMARK UNBOUND:                -3.038
REMARK SMILES CCCCCCCCCCCCCCCCCCCCCC(=O)[O-]
REMARK SMILES IDX 12 1 11 2 10 3 9 4 8 5 7 6 6 7 5 8 4 9 3 10 2 11 1 12 13 13
REMARK SMILES IDX 14 14 15 15 16 16 17 17 18 18 19 19 20 20 21 21 22 22 23 23
REMARK SMILES IDX 24 24
REMARK H PARENT
REMARK Flexibility Score: inf
ROOT
ATOM      1  C   UNL     1     105.612  96.452  91.729  1.00  0.00     0.000 C 
ENDROOT
BRANCH   1   2
ATOM      2  C   UNL     1     104.761  95.188  91.514  1.00  0.00     0.000 C 
BRANCH   2   3
ATOM      3  C   UNL     1     104.764  94.717  90.051  1.00  0.00     0.000 C 
BRANCH   3   4
ATOM      4  C   UNL     1     103.363  94.346  89.542  1.00  0.00    -0.000 C 
BRANCH   4   5
ATOM      5  C   UNL     1     103.074  92.856  89.762  1.00  0.00    -0.000 C 
BRANCH   5   6
ATOM      6  C   UNL     1     101.653  92.496  89.306  1.00  0.00    -0.000 C 
BRANCH   6   7
ATOM      7  C   UNL     1     100.857  93.713  88.800  1.00  0.00    -0.000 C 
BRANCH   7   8
ATOM      8  C   UNL     1      99.327  93.583  88.915  1.00  0.00    -0.000 C 
BRANCH   8   9
ATOM      9  C   UNL     1      98.737  94.420  90.060  1.00  0.00    -0.000 C 
BRANCH   9  10
ATOM     10  C   UNL     1      99.455  95.773  90.176  1.00  0.00    -0.000 C 
BRANCH  10  11
ATOM     11  C   UNL     1      99.901  96.083  91.613  1.00  0.00    -0.003 C 
ATOM     12  C   UNL     1     101.104  97.026  91.668  1.00  0.00     0.004 C 
ENDBRANCH  10  11
ENDBRANCH   9  10
ENDBRANCH   8   9
ENDBRANCH   7   8
ENDBRANCH   6   7
ENDBRANCH   5   6
ENDBRANCH   4   5
ENDBRANCH   3   4
ENDBRANCH   2   3
ENDBRANCH   1   2
BRANCH   1  13
ATOM     13  C   UNL     1     104.769  97.663  92.160  1.00  0.00     0.000 C 
BRANCH  13  14
ATOM     14  C   UNL     1     104.738  98.773  91.095  1.00  0.00     0.000 C 
BRANCH  14  15
ATOM     15  C   UNL     1     104.069  98.323  89.783  1.00  0.00     0.000 C 
BRANCH  15  16
ATOM     16  C   UNL     1     104.847  98.681  88.504  1.00  0.00     0.000 C 
BRANCH  16  17
ATOM     17  C   UNL     1     106.096  97.806  88.300  1.00  0.00     0.000 C 
BRANCH  17  18
ATOM     18  C   UNL     1     107.371  98.640  88.103  1.00  0.00     0.000 C 
BRANCH  18  19
ATOM     19  C   UNL     1     107.254 100.044  88.721  1.00  0.00     0.000 C 
BRANCH  19  20
ATOM     20  C   UNL     1     108.364 100.336  89.744  1.00  0.00     0.006 C 
BRANCH  20  21
ATOM     21  C   UNL     1     109.099  99.072  90.202  1.00  0.00     0.053 C 
BRANCH  21  22
ATOM     22  C   UNL     1     108.657  98.680  91.578  1.00  0.00     0.041 C 
ATOM     23  O   UNL     1     108.914  97.532  92.026  1.00  0.00    -0.550 OA
ATOM     24  O   UNL     1     107.927  99.573  92.353  1.00  0.00    -0.550 OA
ENDBRANCH  21  22
ENDBRANCH  20  21
ENDBRANCH  19  20
ENDBRANCH  18  19
ENDBRANCH  17  18
ENDBRANCH  16  17
ENDBRANCH  15  16
ENDBRANCH  14  15
ENDBRANCH  13  14
ENDBRANCH   1  13
TORSDOF 20
ENDMDL
MODEL 2
REMARK VINA RESULT:    -4.300      8.787     12.453
REMARK INTER + INTRA:         -12.365
REMARK INTER:                  -8.982
REMARK INTRA:                  -3.383
REMARK UNBOUND:                -3.038
REMARK SMILES CCCCCCCCCCCCCCCCCCCCCC(=O)[O-]
REMARK SMILES IDX 12 1 11 2 10 3 9 4 8 5 7 6 6 7 5 8 4 9 3 10 2 11 1 12 13 13
REMARK SMILES IDX 14 14 15 15 16 16 17 17 18 18 19 19 20 20 21 21 22 22 23 23
REMARK SMILES IDX 24 24
REMARK H PARENT
REMARK Flexibility Score: inf
ROOT
ATOM      1  C   UNL     1      89.261  98.688  91.636  1.00  0.00     0.000 C 
ENDROOT
BRANCH   1   2
ATOM      2  C   UNL     1      88.959  98.485  90.141  1.00  0.00     0.000 C 
BRANCH   2   3
ATOM      3  C   UNL     1      89.921  97.489  89.475  1.00  0.00     0.000 C 
BRANCH   3   4
ATOM      4  C   UNL     1      90.655  98.087  88.265  1.00  0.00    -0.000 C 
BRANCH   4   5
ATOM      5  C   UNL     1      92.102  98.445  88.623  1.00  0.00    -0.000 C 
BRANCH   5   6
ATOM      6  C   UNL     1      92.460  99.855  88.131  1.00  0.00    -0.000 C 
BRANCH   6   7
ATOM      7  C   UNL     1      92.102 100.956  89.146  1.00  0.00    -0.000 C 
BRANCH   7   8
ATOM      8  C   UNL     1      92.922 102.252  89.017  1.00  0.00    -0.000 C 
BRANCH   8   9
ATOM      9  C   UNL     1      92.723 103.209  90.203  1.00  0.00    -0.000 C 
BRANCH   9  10
ATOM     10  C   UNL     1      94.075 103.658  90.778  1.00  0.00    -0.000 C 
BRANCH  10  11
ATOM     11  C   UNL     1      95.168 103.760  89.704  1.00  0.00    -0.003 C 
ATOM     12  C   UNL     1      95.604 105.201  89.439  1.00  0.00     0.004 C 
ENDBRANCH  10  11
ENDBRANCH   9  10
ENDBRANCH   8   9
ENDBRANCH   7   8
ENDBRANCH   6   7
ENDBRANCH   5   6
ENDBRANCH   4   5
ENDBRANCH   3   4
ENDBRANCH   2   3
ENDBRANCH   1   2
BRANCH   1  13
ATOM     13  C   UNL     1      89.397 100.172  92.013  1.00  0.00     0.000 C 
BRANCH  13  14
ATOM     14  C   UNL     1      90.765 100.503  92.636  1.00  0.00     0.000 C 
BRANCH  14  15
ATOM     15  C   UNL     1      91.805  99.388  92.418  1.00  0.00     0.000 C 
BRANCH  15  16
ATOM     16  C   UNL     1      93.116  99.563  93.207  1.00  0.00     0.000 C 
BRANCH  16  17
ATOM     17  C   UNL     1      94.170 100.381  92.441  1.00  0.00     0.000 C 
BRANCH  17  18
ATOM     18  C   UNL     1      94.606  99.700  91.134  1.00  0.00     0.000 C 
BRANCH  18  19
ATOM     19  C   UNL     1      96.006 100.145  90.680  1.00  0.00     0.000 C 
BRANCH  19  20
ATOM     20  C   UNL     1      96.688 101.080  91.692  1.00  0.00     0.006 C 
BRANCH  20  21
ATOM     21  C   UNL     1      98.207 101.158  91.502  1.00  0.00     0.053 C 
BRANCH  21  22
ATOM     22  C   UNL     1      98.538 101.928  90.261  1.00  0.00     0.041 C 
ATOM     23  O   UNL     1      98.791 103.160  90.326  1.00  0.00    -0.550 OA
ATOM     24  O   UNL     1      98.534 101.292  89.026  1.00  0.00    -0.550 OA
ENDBRANCH  21  22
ENDBRANCH  20  21
ENDBRANCH  19  20
ENDBRANCH  18  19
ENDBRANCH  17  18
ENDBRANCH  16  17
ENDBRANCH  15  16
ENDBRANCH  14  15
ENDBRANCH  13  14
ENDBRANCH   1  13
TORSDOF 20
ENDMDL
MODEL 3
REMARK VINA RESULT:    -4.291      8.204     10.708
REMARK INTER + INTRA:         -12.347
REMARK INTER:                  -8.883
REMARK INTRA:                  -3.463
REMARK UNBOUND:                -3.038
REMARK SMILES CCCCCCCCCCCCCCCCCCCCCC(=O)[O-]
REMARK SMILES IDX 12 1 11 2 10 3 9 4 8 5 7 6 6 7 5 8 4 9 3 10 2 11 1 12 13 13
REMARK SMILES IDX 14 14 15 15 16 16 17 17 18 18 19 19 20 20 21 21 22 22 23 23
REMARK SMILES IDX 24 24
REMARK H PARENT
REMARK Flexibility Score: inf
ROOT
ATOM      1  C   UNL     1      93.363 103.387  90.180  1.00  0.00     0.000 C 
ENDROOT
BRANCH   1   2
ATOM      2  C   UNL     1      93.252 102.276  89.121  1.00  0.00     0.000 C 
BRANCH   2   3
ATOM      3  C   UNL     1      94.623 101.732  88.691  1.00  0.00     0.000 C 
BRANCH   3   4
ATOM      4  C   UNL     1      94.751 100.214  88.888  1.00  0.00    -0.000 C 
BRANCH   4   5
ATOM      5  C   UNL     1      93.425  99.506  88.582  1.00  0.00    -0.000 C 
BRANCH   5   6
ATOM      6  C   UNL     1      93.231  98.282  89.487  1.00  0.00    -0.000 C 
BRANCH   6   7
ATOM      7  C   UNL     1      91.751  97.896  89.668  1.00  0.00    -0.000 C 
BRANCH   7   8
ATOM      8  C   UNL     1      90.776  99.084  89.764  1.00  0.00    -0.000 C 
BRANCH   8   9
ATOM      9  C   UNL     1      90.393  99.430  91.211  1.00  0.00    -0.000 C 
BRANCH   9  10
ATOM     10  C   UNL     1      91.319 100.517  91.777  1.00  0.00    -0.000 C 
BRANCH  10  11
ATOM     11  C   UNL     1      92.361  99.954  92.755  1.00  0.00    -0.003 C 
ATOM     12  C   UNL     1      93.788 100.384  92.410  1.00  0.00     0.004 C 
ENDBRANCH  10  11
ENDBRANCH   9  10
ENDBRANCH   8   9
ENDBRANCH   7   8
ENDBRANCH   6   7
ENDBRANCH   5   6
ENDBRANCH   4   5
ENDBRANCH   3   4
ENDBRANCH   2   3
ENDBRANCH   1   2
BRANCH   1  13
ATOM     13  C   UNL     1      94.780 103.975  90.270  1.00  0.00     0.000 C 
BRANCH  13  14
ATOM     14  C   UNL     1      94.878 105.382  89.655  1.00  0.00     0.000 C 
BRANCH  14  15
ATOM     15  C   UNL     1      96.291 105.710  89.137  1.00  0.00     0.000 C 
BRANCH  15  16
ATOM     16  C   UNL     1      97.155 104.482  88.791  1.00  0.00     0.000 C 
BRANCH  16  17
ATOM     17  C   UNL     1      98.589 104.590  89.336  1.00  0.00     0.000 C 
BRANCH  17  18
ATOM     18  C   UNL     1      99.068 103.284  89.990  1.00  0.00     0.000 C 
BRANCH  18  19
ATOM     19  C   UNL     1      97.911 102.308  90.264  1.00  0.00     0.000 C 
BRANCH  19  20
ATOM     20  C   UNL     1      98.055 101.579  91.609  1.00  0.00     0.006 C 
BRANCH  20  21
ATOM     21  C   UNL     1      97.456 100.168  91.589  1.00  0.00     0.053 C 
BRANCH  21  22
ATOM     22  C   UNL     1      98.522  99.152  91.321  1.00  0.00     0.041 C 
ATOM     23  O   UNL     1      98.984  99.006  90.159  1.00  0.00    -0.550 OA
ATOM     24  O   UNL     1      98.984  98.341  92.351  1.00  0.00    -0.550 OA
ENDBRANCH  21  22
ENDBRANCH  20  21
ENDBRANCH  19  20
ENDBRANCH  18  19
ENDBRANCH  17  18
ENDBRANCH  16  17
ENDBRANCH  15  16
ENDBRANCH  14  15
ENDBRANCH  13  14
ENDBRANCH   1  13
TORSDOF 20
ENDMDL
MODEL 4
REMARK VINA RESULT:    -4.272      3.096      6.678
REMARK INTER + INTRA:         -12.304
REMARK INTER:                  -9.176
REMARK INTRA:                  -3.129
REMARK UNBOUND:                -3.038
REMARK SMILES CCCCCCCCCCCCCCCCCCCCCC(=O)[O-]
REMARK SMILES IDX 12 1 11 2 10 3 9 4 8 5 7 6 6 7 5 8 4 9 3 10 2 11 1 12 13 13
REMARK SMILES IDX 14 14 15 15 16 16 17 17 18 18 19 19 20 20 21 21 22 22 23 23
REMARK SMILES IDX 24 24
REMARK H PARENT
REMARK Flexibility Score: inf
ROOT
ATOM      1  C   UNL     1     108.221  99.561  91.428  1.00  0.00     0.000 C 
ENDROOT
BRANCH   1   2
ATOM      2  C   UNL     1     109.107  99.891  90.215  1.00  0.00     0.000 C 
BRANCH   2   3
ATOM      3  C   UNL     1     108.349 100.659  89.122  1.00  0.00     0.000 C 
BRANCH   3   4
ATOM      4  C   UNL     1     106.912 100.152  88.925  1.00  0.00    -0.000 C 
BRANCH   4   5
ATOM      5  C   UNL     1     106.888  98.896  88.045  1.00  0.00    -0.000 C 
BRANCH   5   6
ATOM      6  C   UNL     1     105.563  98.137  88.203  1.00  0.00    -0.000 C 
BRANCH   6   7
ATOM      7  C   UNL     1     105.759  96.664  88.608  1.00  0.00    -0.000 C 
BRANCH   7   8
ATOM      8  C   UNL     1     104.461  95.898  88.925  1.00  0.00    -0.000 C 
BRANCH   8   9
ATOM      9  C   UNL     1     104.656  94.797  89.978  1.00  0.00    -0.000 C 
BRANCH   9  10
ATOM     10  C   UNL     1     103.319  94.126  90.325  1.00  0.00    -0.000 C 
BRANCH  10  11
ATOM     11  C   UNL     1     103.071  92.848  89.510  1.00  0.00    -0.003 C 
ATOM     12  C   UNL     1     101.631  92.347  89.620  1.00  0.00     0.004 C 
ENDBRANCH  10  11
ENDBRANCH   9  10
ENDBRANCH   8   9
ENDBRANCH   7   8
ENDBRANCH   6   7
ENDBRANCH   5   6
ENDBRANCH   4   5
ENDBRANCH   3   4
ENDBRANCH   2   3
ENDBRANCH   1   2
BRANCH   1  13
ATOM     13  C   UNL     1     108.302  98.079  91.831  1.00  0.00     0.000 C 
BRANCH  13  14
ATOM     14  C   UNL     1     106.922  97.399  91.870  1.00  0.00     0.000 C 
BRANCH  14  15
ATOM     15  C   UNL     1     105.855  98.255  92.576  1.00  0.00     0.000 C 
BRANCH  15  16
ATOM     16  C   UNL     1     104.593  98.535  91.739  1.00  0.00     0.000 C 
BRANCH  16  17
ATOM     17  C   UNL     1     103.442  97.561  92.049  1.00  0.00     0.000 C 
BRANCH  17  18
ATOM     18  C   UNL     1     102.197  97.832  91.191  1.00  0.00     0.000 C 
BRANCH  18  19
ATOM     19  C   UNL     1     100.978  98.234  92.038  1.00  0.00     0.000 C 
BRANCH  19  20
ATOM     20  C   UNL     1      99.759  97.330  91.790  1.00  0.00     0.006 C 
BRANCH  20  21
ATOM     21  C   UNL     1     100.147  95.925  91.317  1.00  0.00     0.053 C 
BRANCH  21  22
ATOM     22  C   UNL     1      99.451  95.597  90.032  1.00  0.00     0.041 C 
ATOM     23  O   UNL     1      99.504  96.394  89.058  1.00  0.00    -0.550 OA
ATOM     24  O   UNL     1      98.712  94.425  89.921  1.00  0.00    -0.550 OA
ENDBRANCH  21  22
ENDBRANCH  20  21
ENDBRANCH  19  20
ENDBRANCH  18  19
ENDBRANCH  17  18
ENDBRANCH  16  17
ENDBRANCH  15  16
ENDBRANCH  14  15
ENDBRANCH  13  14
ENDBRANCH   1  13
TORSDOF 20
ENDMDL
MODEL 5
REMARK VINA RESULT:    -4.207      9.219     13.547
REMARK INTER + INTRA:         -12.163
REMARK INTER:                  -9.635
REMARK INTRA:                  -2.528
REMARK UNBOUND:                -3.038
REMARK SMILES CCCCCCCCCCCCCCCCCCCCCC(=O)[O-]
REMARK SMILES IDX 12 1 11 2 10 3 9 4 8 5 7 6 6 7 5 8 4 9 3 10 2 11 1 12 13 13
REMARK SMILES IDX 14 14 15 15 16 16 17 17 18 18 19 19 20 20 21 21 22 22 23 23
REMARK SMILES IDX 24 24
REMARK H PARENT
REMARK Flexibility Score: inf
ROOT
ATOM      1  C   UNL     1      94.625 101.987  91.173  1.00  0.00     0.000 C 
ENDROOT
BRANCH   1   2
ATOM      2  C   UNL     1      94.371 103.504  91.229  1.00  0.00     0.000 C 
BRANCH   2   3
ATOM      3  C   UNL     1      94.228 104.130  89.834  1.00  0.00     0.000 C 
BRANCH   3   4
ATOM      4  C   UNL     1      95.293 105.200  89.549  1.00  0.00    -0.000 C 
BRANCH   4   5
ATOM      5  C   UNL     1      96.464 104.611  88.753  1.00  0.00    -0.000 C 
BRANCH   5   6
ATOM      6  C   UNL     1      97.810 105.040  89.353  1.00  0.00    -0.000 C 
BRANCH   6   7
ATOM      7  C   UNL     1      98.910 103.976  89.184  1.00  0.00    -0.000 C 
BRANCH   7   8
ATOM      8  C   UNL     1      99.151 103.087  90.418  1.00  0.00    -0.000 C 
BRANCH   8   9
ATOM      9  C   UNL     1      98.162 101.916  90.517  1.00  0.00    -0.000 C 
BRANCH   9  10
ATOM     10  C   UNL     1      98.184 101.296  91.922  1.00  0.00    -0.000 C 
BRANCH  10  11
ATOM     11  C   UNL     1      97.753  99.822  91.924  1.00  0.00    -0.003 C 
ATOM     12  C   UNL     1      98.941  98.859  91.957  1.00  0.00     0.004 C 
ENDBRANCH  10  11
ENDBRANCH   9  10
ENDBRANCH   8   9
ENDBRANCH   7   8
ENDBRANCH   6   7
ENDBRANCH   5   6
ENDBRANCH   4   5
ENDBRANCH   3   4
ENDBRANCH   2   3
ENDBRANCH   1   2
BRANCH   1  13
ATOM     13  C   UNL     1      94.626 101.443  89.735  1.00  0.00     0.000 C 
BRANCH  13  14
ATOM     14  C   UNL     1      94.637  99.905  89.683  1.00  0.00     0.000 C 
BRANCH  14  15
ATOM     15  C   UNL     1      93.626  99.267  90.654  1.00  0.00     0.000 C 
BRANCH  15  16
ATOM     16  C   UNL     1      92.775  98.136  90.050  1.00  0.00     0.000 C 
BRANCH  16  17
ATOM     17  C   UNL     1      91.447  98.639  89.457  1.00  0.00     0.000 C 
BRANCH  17  18
ATOM     18  C   UNL     1      90.320  97.600  89.575  1.00  0.00     0.000 C 
BRANCH  18  19
ATOM     19  C   UNL     1      89.121  98.127  90.381  1.00  0.00     0.000 C 
BRANCH  19  20
ATOM     20  C   UNL     1      89.438  98.293  91.876  1.00  0.00     0.006 C 
BRANCH  20  21
ATOM     21  C   UNL     1      89.371  99.752  92.341  1.00  0.00     0.053 C 
BRANCH  21  22
ATOM     22  C   UNL     1      90.743 100.261  92.659  1.00  0.00     0.041 C 
ATOM     23  O   UNL     1      91.138 101.361  92.191  1.00  0.00    -0.550 OA
ATOM     24  O   UNL     1      91.600  99.503  93.448  1.00  0.00    -0.550 OA
ENDBRANCH  21  22
ENDBRANCH  20  21
ENDBRANCH  19  20
ENDBRANCH  18  19
ENDBRANCH  17  18
ENDBRANCH  16  17
ENDBRANCH  15  16
ENDBRANCH  14  15
ENDBRANCH  13  14
ENDBRANCH   1  13
TORSDOF 20
ENDMDL
MODEL 6
REMARK VINA RESULT:    -4.182      1.353      3.128
REMARK INTER + INTRA:         -12.109
REMARK INTER:                  -8.849
REMARK INTRA:                  -3.260
REMARK UNBOUND:                -3.038
REMARK SMILES CCCCCCCCCCCCCCCCCCCCCC(=O)[O-]
REMARK SMILES IDX 12 1 11 2 10 3 9 4 8 5 7 6 6 7 5 8 4 9 3 10 2 11 1 12 13 13
REMARK SMILES IDX 14 14 15 15 16 16 17 17 18 18 19 19 20 20 21 21 22 22 23 23
REMARK SMILES IDX 24 24
REMARK H PARENT
REMARK Flexibility Score: inf
ROOT
ATOM      1  C   UNL     1     103.737  96.183  91.929  1.00  0.00     0.000 C 
ENDROOT
BRANCH   1   2
ATOM      2  C   UNL     1     102.232  95.967  91.692  1.00  0.00     0.000 C 
BRANCH   2   3
ATOM      3  C   UNL     1     101.473  97.286  91.480  1.00  0.00     0.000 C 
BRANCH   3   4
ATOM      4  C   UNL     1     101.829  97.971  90.152  1.00  0.00    -0.000 C 
BRANCH   4   5
ATOM      5  C   UNL     1     101.189  97.239  88.967  1.00  0.00    -0.000 C 
BRANCH   5   6
ATOM      6  C   UNL     1      99.663  97.166  89.122  1.00  0.00    -0.000 C 
BRANCH   6   7
ATOM      7  C   UNL     1      99.077  95.814  88.674  1.00  0.00    -0.000 C 
BRANCH   7   8
ATOM      8  C   UNL     1      99.095  94.710  89.747  1.00  0.00    -0.000 C 
BRANCH   8   9
ATOM      9  C   UNL     1      99.746  93.408  89.257  1.00  0.00    -0.000 C 
BRANCH   9  10
ATOM     10  C   UNL     1     101.170  93.666  88.743  1.00  0.00    -0.000 C 
BRANCH  10  11
ATOM     11  C   UNL     1     102.231  92.876  89.524  1.00  0.00    -0.003 C 
ATOM     12  C   UNL     1     102.211  91.381  89.201  1.00  0.00     0.004 C 
ENDBRANCH  10  11
ENDBRANCH   9  10
ENDBRANCH   8   9
ENDBRANCH   7   8
ENDBRANCH   6   7
ENDBRANCH   5   6
ENDBRANCH   4   5
ENDBRANCH   3   4
ENDBRANCH   2   3
ENDBRANCH   1   2
BRANCH   1  13
ATOM     13  C   UNL     1     104.578  94.959  91.532  1.00  0.00     0.000 C 
BRANCH  13  14
ATOM     14  C   UNL     1     105.442  95.213  90.284  1.00  0.00     0.000 C 
BRANCH  14  15
ATOM     15  C   UNL     1     104.603  95.519  89.030  1.00  0.00     0.000 C 
BRANCH  15  16
ATOM     16  C   UNL     1     104.932  96.858  88.343  1.00  0.00     0.000 C 
BRANCH  16  17
ATOM     17  C   UNL     1     105.946  97.702  89.134  1.00  0.00     0.000 C 
BRANCH  17  18
ATOM     18  C   UNL     1     105.717  99.212  88.957  1.00  0.00     0.000 C 
BRANCH  18  19
ATOM     19  C   UNL     1     106.719 100.054  89.765  1.00  0.00     0.000 C 
BRANCH  19  20
ATOM     20  C   UNL     1     107.965  99.256  90.182  1.00  0.00     0.006 C 
BRANCH  20  21
ATOM     21  C   UNL     1     108.233  99.317  91.690  1.00  0.00     0.053 C 
BRANCH  21  22
ATOM     22  C   UNL     1     107.881  98.013  92.336  1.00  0.00     0.041 C 
ATOM     23  O   UNL     1     106.729  97.829  92.810  1.00  0.00    -0.550 OA
ATOM     24  O   UNL     1     108.837  97.011  92.445  1.00  0.00    -0.550 OA
ENDBRANCH  21  22
ENDBRANCH  20  21
ENDBRANCH  19  20
ENDBRANCH  18  19
ENDBRANCH  17  18
ENDBRANCH  16  17
ENDBRANCH  15  16
ENDBRANCH  14  15
ENDBRANCH  13  14
ENDBRANCH   1  13
TORSDOF 20
ENDMDL
MODEL 7
REMARK VINA RESULT:    -4.180      1.316      2.291
REMARK INTER + INTRA:         -12.105
REMARK INTER:                  -9.026
REMARK INTRA:                  -3.079
REMARK UNBOUND:                -3.038
REMARK SMILES CCCCCCCCCCCCCCCCCCCCCC(=O)[O-]
REMARK SMILES IDX 12 1 11 2 10 3 9 4 8 5 7 6 6 7 5 8 4 9 3 10 2 11 1 12 13 13
REMARK SMILES IDX 14 14 15 15 16 16 17 17 18 18 19 19 20 20 21 21 22 22 23 23
REMARK SMILES IDX 24 24
REMARK H PARENT
REMARK Flexibility Score: inf
ROOT
ATOM      1  C   UNL     1     104.538  95.251  90.551  1.00  0.00     0.000 C 
ENDROOT
BRANCH   1   2
ATOM      2  C   UNL     1     103.512  94.141  90.836  1.00  0.00     0.000 C 
BRANCH   2   3
ATOM      3  C   UNL     1     103.337  93.181  89.649  1.00  0.00     0.000 C 
BRANCH   3   4
ATOM      4  C   UNL     1     101.971  92.477  89.648  1.00  0.00    -0.000 C 
BRANCH   4   5
ATOM      5  C   UNL     1     101.043  93.079  88.586  1.00  0.00    -0.000 C 
BRANCH   5   6
ATOM      6  C   UNL     1      99.681  93.449  89.189  1.00  0.00    -0.000 C 
BRANCH   6   7
ATOM      7  C   UNL     1      99.620  94.902  89.693  1.00  0.00    -0.000 C 
BRANCH   7   8
ATOM      8  C   UNL     1     100.182  95.953  88.719  1.00  0.00    -0.000 C 
BRANCH   8   9
ATOM      9  C   UNL     1     101.328  96.779  89.323  1.00  0.00    -0.000 C 
BRANCH   9  10
ATOM     10  C   UNL     1     100.784  98.004  90.073  1.00  0.00    -0.000 C 
BRANCH  10  11
ATOM     11  C   UNL     1     100.987  97.903  91.593  1.00  0.00    -0.003 C 
ATOM     12  C   UNL     1     102.463  97.867  91.991  1.00  0.00     0.004 C 
ENDBRANCH  10  11
ENDBRANCH   9  10
ENDBRANCH   8   9
ENDBRANCH   7   8
ENDBRANCH   6   7
ENDBRANCH   5   6
ENDBRANCH   4   5
ENDBRANCH   3   4
ENDBRANCH   2   3
ENDBRANCH   1   2
BRANCH   1  13
ATOM     13  C   UNL     1     104.646  95.584  89.054  1.00  0.00     0.000 C 
BRANCH  13  14
ATOM     14  C   UNL     1     105.672  96.694  88.766  1.00  0.00     0.000 C 
BRANCH  14  15
ATOM     15  C   UNL     1     105.014  98.050  88.454  1.00  0.00     0.000 C 
BRANCH  15  16
ATOM     16  C   UNL     1     104.818  98.971  89.673  1.00  0.00     0.000 C 
BRANCH  16  17
ATOM     17  C   UNL     1     105.606 100.287  89.559  1.00  0.00     0.000 C 
BRANCH  17  18
ATOM     18  C   UNL     1     106.996 100.087  88.933  1.00  0.00     0.000 C 
BRANCH  18  19
ATOM     19  C   UNL     1     108.132 100.314  89.945  1.00  0.00     0.000 C 
BRANCH  19  20
ATOM     20  C   UNL     1     108.546  99.024  90.671  1.00  0.00     0.006 C 
BRANCH  20  21
ATOM     21  C   UNL     1     108.246  99.063  92.174  1.00  0.00     0.053 C 
BRANCH  21  22
ATOM     22  C   UNL     1     107.078  98.183  92.495  1.00  0.00     0.041 C 
ATOM     23  O   UNL     1     107.106  96.958  92.206  1.00  0.00    -0.550 OA
ATOM     24  O   UNL     1     105.941  98.724  93.084  1.00  0.00    -0.550 OA
ENDBRANCH  21  22
ENDBRANCH  20  21
ENDBRANCH  19  20
ENDBRANCH  18  19
ENDBRANCH  17  18
ENDBRANCH  16  17
ENDBRANCH  15  16
ENDBRANCH  14  15
ENDBRANCH  13  14
ENDBRANCH   1  13
TORSDOF 20
ENDMDL
MODEL 8
REMARK VINA RESULT:    -4.131      9.084     13.082
REMARK INTER + INTRA:         -11.999
REMARK INTER:                  -9.249
REMARK INTRA:                  -2.750
REMARK UNBOUND:                -3.038
REMARK SMILES CCCCCCCCCCCCCCCCCCCCCC(=O)[O-]
REMARK SMILES IDX 12 1 11 2 10 3 9 4 8 5 7 6 6 7 5 8 4 9 3 10 2 11 1 12 13 13
REMARK SMILES IDX 14 14 15 15 16 16 17 17 18 18 19 19 20 20 21 21 22 22 23 23
REMARK SMILES IDX 24 24
REMARK H PARENT
REMARK Flexibility Score: inf
ROOT
ATOM      1  C   UNL     1      94.796 103.698  90.573  1.00  0.00     0.000 C 
ENDROOT
BRANCH   1   2
ATOM      2  C   UNL     1      94.764 104.968  89.704  1.00  0.00     0.000 C 
BRANCH   2   3
ATOM      3  C   UNL     1      96.162 105.394  89.230  1.00  0.00     0.000 C 
BRANCH   3   4
ATOM      4  C   UNL     1      97.072 104.199  88.909  1.00  0.00    -0.000 C 
BRANCH   4   5
ATOM      5  C   UNL     1      98.517 104.477  89.343  1.00  0.00    -0.000 C 
BRANCH   5   6
ATOM      6  C   UNL     1      99.106 103.277  90.099  1.00  0.00    -0.000 C 
BRANCH   6   7
ATOM      7  C   UNL     1      98.142 102.079  90.171  1.00  0.00    -0.000 C 
BRANCH   7   8
ATOM      8  C   UNL     1      97.736 101.655  91.595  1.00  0.00    -0.000 C 
BRANCH   8   9
ATOM      9  C   UNL     1      97.614 100.132  91.756  1.00  0.00    -0.000 C 
BRANCH   9  10
ATOM     10  C   UNL     1      98.984  99.500  92.046  1.00  0.00    -0.000 C 
BRANCH  10  11
ATOM     11  C   UNL     1      99.300  98.322  91.112  1.00  0.00    -0.003 C 
ATOM     12  C   UNL     1      98.703  98.500  89.716  1.00  0.00     0.004 C 
ENDBRANCH  10  11
ENDBRANCH   9  10
ENDBRANCH   8   9
ENDBRANCH   7   8
ENDBRANCH   6   7
ENDBRANCH   5   6
ENDBRANCH   4   5
ENDBRANCH   3   4
ENDBRANCH   2   3
ENDBRANCH   1   2
BRANCH   1  13
ATOM     13  C   UNL     1      93.538 102.832  90.400  1.00  0.00     0.000 C 
BRANCH  13  14
ATOM     14  C   UNL     1      93.615 101.915  89.167  1.00  0.00     0.000 C 
BRANCH  14  15
ATOM     15  C   UNL     1      94.886 101.047  89.148  1.00  0.00     0.000 C 
BRANCH  15  16
ATOM     16  C   UNL     1      94.657  99.555  89.453  1.00  0.00     0.000 C 
BRANCH  16  17
ATOM     17  C   UNL     1      93.744  99.329  90.671  1.00  0.00     0.000 C 
BRANCH  17  18
ATOM     18  C   UNL     1      92.572  98.384  90.359  1.00  0.00     0.000 C 
BRANCH  18  19
ATOM     19  C   UNL     1      91.256  99.144  90.120  1.00  0.00     0.000 C 
BRANCH  19  20
ATOM     20  C   UNL     1      90.020  98.336  90.545  1.00  0.00     0.006 C 
BRANCH  20  21
ATOM     21  C   UNL     1      89.777  98.371  92.058  1.00  0.00     0.053 C 
BRANCH  21  22
ATOM     22  C   UNL     1      89.875  99.775  92.569  1.00  0.00     0.041 C 
ATOM     23  O   UNL     1      90.756 100.085  93.414  1.00  0.00    -0.550 OA
ATOM     24  O   UNL     1      88.969 100.737  92.137  1.00  0.00    -0.550 OA
ENDBRANCH  21  22
ENDBRANCH  20  21
ENDBRANCH  19  20
ENDBRANCH  18  19
ENDBRANCH  17  18
ENDBRANCH  16  17
ENDBRANCH  15  16
ENDBRANCH  14  15
ENDBRANCH  13  14
ENDBRANCH   1  13
TORSDOF 20
ENDMDL
MODEL 9
REMARK VINA RESULT:    -4.126      3.745      6.718
REMARK INTER + INTRA:         -11.987
REMARK INTER:                  -8.066
REMARK INTRA:                  -3.921
REMARK UNBOUND:                -3.038
REMARK SMILES CCCCCCCCCCCCCCCCCCCCCC(=O)[O-]
REMARK SMILES IDX 12 1 11 2 10 3 9 4 8 5 7 6 6 7 5 8 4 9 3 10 2 11 1 12 13 13
REMARK SMILES IDX 14 14 15 15 16 16 17 17 18 18 19 19 20 20 21 21 22 22 23 23
REMARK SMILES IDX 24 24
REMARK H PARENT
REMARK Flexibility Score: inf
ROOT
ATOM      1  C   UNL     1      99.681  96.271  91.606  1.00  0.00     0.000 C 
ENDROOT
BRANCH   1   2
ATOM      2  C   UNL     1      99.040  95.188  90.719  1.00  0.00     0.000 C 
BRANCH   2   3
ATOM      3  C   UNL     1      99.921  94.812  89.518  1.00  0.00     0.000 C 
BRANCH   3   4
ATOM      4  C   UNL     1     100.022  93.294  89.305  1.00  0.00    -0.000 C 
BRANCH   4   5
ATOM      5  C   UNL     1     101.485  92.836  89.298  1.00  0.00    -0.000 C 
BRANCH   5   6
ATOM      6  C   UNL     1     102.433  94.019  89.055  1.00  0.00    -0.000 C 
BRANCH   6   7
ATOM      7  C   UNL     1     103.698  93.966  89.931  1.00  0.00    -0.000 C 
BRANCH   7   8
ATOM      8  C   UNL     1     104.799  94.971  89.545  1.00  0.00    -0.000 C 
BRANCH   8   9
ATOM      9  C   UNL     1     105.705  95.351  90.726  1.00  0.00    -0.000 C 
BRANCH   9  10
ATOM     10  C   UNL     1     104.875  95.869  91.909  1.00  0.00    -0.000 C 
BRANCH  10  11
ATOM     11  C   UNL     1     105.272  97.292  92.330  1.00  0.00    -0.003 C 
ATOM     12  C   UNL     1     106.702  97.651  91.925  1.00  0.00     0.004 C 
ENDBRANCH  10  11
ENDBRANCH   9  10
ENDBRANCH   8   9
ENDBRANCH   7   8
ENDBRANCH   6   7
ENDBRANCH   5   6
ENDBRANCH   4   5
ENDBRANCH   3   4
ENDBRANCH   2   3
ENDBRANCH   1   2
BRANCH   1  13
ATOM     13  C   UNL     1     101.202  96.375  91.402  1.00  0.00     0.000 C 
BRANCH  13  14
ATOM     14  C   UNL     1     101.686  97.830  91.284  1.00  0.00     0.000 C 
BRANCH  14  15
ATOM     15  C   UNL     1     102.561  98.069  90.041  1.00  0.00     0.000 C 
BRANCH  15  16
ATOM     16  C   UNL     1     101.901  97.694  88.701  1.00  0.00     0.000 C 
BRANCH  16  17
ATOM     17  C   UNL     1     100.840  98.714  88.252  1.00  0.00     0.000 C 
BRANCH  17  18
ATOM     18  C   UNL     1      99.434  98.099  88.164  1.00  0.00     0.000 C 
BRANCH  18  19
ATOM     19  C   UNL     1      98.386  98.920  88.935  1.00  0.00     0.000 C 
BRANCH  19  20
ATOM     20  C   UNL     1      99.020  99.974  89.857  1.00  0.00     0.006 C 
BRANCH  20  21
ATOM     21  C   UNL     1      98.607  99.809  91.323  1.00  0.00     0.053 C 
BRANCH  21  22
ATOM     22  C   UNL     1      97.948 101.057  91.824  1.00  0.00     0.041 C 
ATOM     23  O   UNL     1      98.610 101.908  92.474  1.00  0.00    -0.550 OA
ATOM     24  O   UNL     1      96.592 101.265  91.602  1.00  0.00    -0.550 OA
ENDBRANCH  21  22
ENDBRANCH  20  21
ENDBRANCH  19  20
ENDBRANCH  18  19
ENDBRANCH  17  18
ENDBRANCH  16  17
ENDBRANCH  15  16
ENDBRANCH  14  15
ENDBRANCH  13  14
ENDBRANCH   1  13
TORSDOF 20
ENDMDL
