MODEL 1
REMARK VINA RESULT:    76.279      0.000      0.000
REMARK INTER + INTRA:          82.907
REMARK INTER:                  82.968
REMARK INTRA:                  -0.061
REMARK UNBOUND:                -0.061
REMARK SMILES C[C@H]1[C@H](C)CC[C@@]2(C(=O)[O-])CC[C@]3(C)C(=CC[C@H]4[C@]5(C)CC[C@@H](O)C(C)(C)[C@@H]5CC[C@]43C)[C@@H]12
REMARK SMILES IDX 7 1 6 2 11 3 33 4 5 5 12 6 15 7 2 8 3 9 13 10 16 11 1 12
REMARK SMILES IDX 4 13 14 14 31 15 17 16 18 17 30 18 32 19 19 20 29 21 28 22
REMARK SMILES IDX 21 23 20 24 25 25 22 26 23 27 26 28 27 29 8 30 9 31 10 32
REMARK SMILES IDX 24 33
REMARK H PARENT 24 34
REMARK Flexibility Score: inf
ROOT
ATOM      1  C   UNL     1      24.854  12.603 122.891  1.00  0.00     0.017 C 
ATOM      2  C   UNL     1      26.184  12.930 122.149  1.00  0.00     0.014 C 
ATOM      3  C   UNL     1      23.892  11.886 121.876  1.00  0.00     0.014 C 
ATOM      4  C   UNL     1      25.108  11.692 124.167  1.00  0.00     0.030 C 
ATOM      5  C   UNL     1      27.154  11.742 122.142  1.00  0.00     0.004 C 
ATOM      6  C   UNL     1      22.615  11.290 122.521  1.00  0.00     0.013 C 
ATOM      7  C   UNL     1      24.369  10.345 124.021  1.00  0.00    -0.063 C 
ATOM      8  C   UNL     1      26.598  11.693 124.661  1.00  0.00    -0.003 C 
ATOM      9  C   UNL     1      27.673  11.419 123.560  1.00  0.00    -0.011 C 
ATOM     10  C   UNL     1      22.846  10.443 123.840  1.00  0.00    -0.006 C 
ATOM     11  C   UNL     1      25.028   9.272 123.566  1.00  0.00    -0.027 C 
ATOM     12  C   UNL     1      26.802  10.822 125.915  1.00  0.00     0.008 C 
ATOM     13  C   UNL     1      28.966  12.205 123.848  1.00  0.00     0.008 C 
ATOM     14  C   UNL     1      22.274  11.260 125.055  1.00  0.00     0.017 C 
ATOM     15  C   UNL     1      22.109   9.005 123.777  1.00  0.00    -0.020 C 
ATOM     16  C   UNL     1      24.398   7.995 123.133  1.00  0.00     0.032 C 
ATOM     17  C   UNL     1      22.865   8.010 122.810  1.00  0.00     0.006 C 
ATOM     18  C   UNL     1      22.096   8.326 125.178  1.00  0.00     0.008 C 
ATOM     19  C   UNL     1      20.632   9.264 123.299  1.00  0.00     0.012 C 
ATOM     20  C   UNL     1      22.320   6.488 122.763  1.00  0.00    -0.025 C 
ATOM     21  C   UNL     1      21.526   6.898 125.194  1.00  0.00     0.005 C 
ATOM     22  C   UNL     1      22.217   5.888 124.228  1.00  0.00     0.003 C 
ATOM     23  C   UNL     1      20.930   6.361 122.059  1.00  0.00     0.010 C 
ATOM     24  C   UNL     1      23.334   5.684 121.878  1.00  0.00     0.012 C 
ATOM     25  C   UNL     1      21.542   4.440 124.312  1.00  0.00    -0.006 C 
ATOM     26  C   UNL     1      20.329   4.945 122.085  1.00  0.00     0.033 C 
ATOM     27  C   UNL     1      20.198   4.406 123.517  1.00  0.00     0.120 C 
ATOM     28  C   UNL     1      21.226   4.063 125.789  1.00  0.00     0.014 C 
ATOM     29  C   UNL     1      22.512   3.330 123.806  1.00  0.00     0.014 C 
ENDROOT
BRANCH   1  30
ATOM     30  C   UNL     1      24.249  13.937 123.318  1.00  0.00     0.048 C 
ATOM     31  O   UNL     1      24.665  14.548 124.341  1.00  0.00    -0.550 OA
ATOM     32  O   UNL     1      23.153  14.455 122.635  1.00  0.00    -0.550 OA
ENDBRANCH   1  30
BRANCH  27  33
ATOM     33  O   UNL     1      19.704   3.089 123.461  1.00  0.00    -0.393 OA
ATOM     34  H   UNL     1      19.035   3.048 122.725  1.00  0.00     0.210 HD
ENDBRANCH  27  33
TORSDOF 2
ENDMDL
