MODEL 1
REMARK VINA RESULT:    -4.565      0.000      0.000
REMARK INTER + INTRA:          -6.258
REMARK INTER:                  -6.032
REMARK INTRA:                  -0.226
REMARK UNBOUND:                -0.226
REMARK SMILES C=CCC[C@H](O)CCC
REMARK SMILES IDX 4 1 5 2 7 3 8 4 9 5 6 6 3 8 2 9 1 10
REMARK H PARENT 6 7
REMARK Flexibility Score: inf
ROOT
ATOM      1  C   UNL     1     135.772 128.495 133.980  1.00  0.00     0.036 C 
ENDROOT
BRANCH   1   2
ATOM      2  C   UNL     1     135.155 127.098 134.200  1.00  0.00     0.114 C 
BRANCH   2   3
ATOM      3  C   UNL     1     136.242 126.004 134.132  1.00  0.00     0.031 C 
BRANCH   3   4
ATOM      4  C   UNL     1     137.097 125.910 135.407  1.00  0.00    -0.001 C 
ATOM      5  C   UNL     1     136.959 124.564 136.117  1.00  0.00     0.004 C 
ENDBRANCH   3   4
ENDBRANCH   2   3
BRANCH   2   6
ATOM      6  O   UNL     1     134.463 127.045 135.424  1.00  0.00    -0.393 OA
ATOM      7  H   UNL     1     133.978 127.905 135.531  1.00  0.00     0.210 HD
ENDBRANCH   2   6
ENDBRANCH   1   2
BRANCH   1   8
ATOM      8  C   UNL     1     135.548 129.411 135.192  1.00  0.00     0.029 C 
BRANCH   8   9
ATOM      9  C   UNL     1     136.449 130.613 135.140  1.00  0.00    -0.035 C 
ATOM     10  C   UNL     1     136.026 131.826 135.509  1.00  0.00     0.004 C 
ENDBRANCH   8   9
ENDBRANCH   1   8
TORSDOF 6
ENDMDL
MODEL 2
REMARK VINA RESULT:    -4.545      1.883      2.791
REMARK INTER + INTRA:          -6.233
REMARK INTER:                  -5.727
REMARK INTRA:                  -0.505
REMARK UNBOUND:                -0.226
REMARK SMILES C=CCC[C@H](O)CCC
REMARK SMILES IDX 4 1 5 2 7 3 8 4 9 5 6 6 3 8 2 9 1 10
REMARK H PARENT 6 7
REMARK Flexibility Score: inf
ROOT
ATOM      1  C   UNL     1     136.195 125.950 134.034  1.00  0.00     0.036 C 
ENDROOT
BRANCH   1   2
ATOM      2  C   UNL     1     137.020 125.998 135.338  1.00  0.00     0.114 C 
BRANCH   2   3
ATOM      3  C   UNL     1     136.594 124.864 136.296  1.00  0.00     0.031 C 
BRANCH   3   4
ATOM      4  C   UNL     1     135.509 125.287 137.301  1.00  0.00    -0.001 C 
ATOM      5  C   UNL     1     135.889 126.538 138.092  1.00  0.00     0.004 C 
ENDBRANCH   3   4
ENDBRANCH   2   3
BRANCH   2   6
ATOM      6  O   UNL     1     138.397 125.930 135.059  1.00  0.00    -0.393 OA
ATOM      7  H   UNL     1     138.598 126.618 134.371  1.00  0.00     0.210 HD
ENDBRANCH   2   6
ENDBRANCH   1   2
BRANCH   1   8
ATOM      8  C   UNL     1     135.646 127.335 133.659  1.00  0.00     0.029 C 
BRANCH   8   9
ATOM      9  C   UNL     1     135.563 128.232 134.863  1.00  0.00    -0.035 C 
ATOM     10  C   UNL     1     135.947 129.512 134.814  1.00  0.00     0.004 C 
ENDBRANCH   8   9
ENDBRANCH   1   8
TORSDOF 6
ENDMDL
MODEL 3
REMARK VINA RESULT:    -4.526      0.650      4.347
REMARK INTER + INTRA:          -6.208
REMARK INTER:                  -5.910
REMARK INTRA:                  -0.298
REMARK UNBOUND:                -0.226
REMARK SMILES C=CCC[C@H](O)CCC
REMARK SMILES IDX 4 1 5 2 7 3 8 4 9 5 6 6 3 8 2 9 1 10
REMARK H PARENT 6 7
REMARK Flexibility Score: inf
ROOT
ATOM      1  C   UNL     1     135.428 127.150 133.968  1.00  0.00     0.036 C 
ENDROOT
BRANCH   1   2
ATOM      2  C   UNL     1     135.148 127.839 135.319  1.00  0.00     0.114 C 
BRANCH   2   3
ATOM      3  C   UNL     1     135.059 129.371 135.143  1.00  0.00     0.031 C 
BRANCH   3   4
ATOM      4  C   UNL     1     136.433 130.057 135.045  1.00  0.00    -0.001 C 
ATOM      5  C   UNL     1     136.377 131.547 135.380  1.00  0.00     0.004 C 
ENDBRANCH   3   4
ENDBRANCH   2   3
BRANCH   2   6
ATOM      6  O   UNL     1     133.972 127.332 135.903  1.00  0.00    -0.393 OA
ATOM      7  H   UNL     1     133.218 127.904 135.603  1.00  0.00     0.210 HD
ENDBRANCH   2   6
ENDBRANCH   1   2
BRANCH   1   8
ATOM      8  C   UNL     1     136.245 125.862 134.147  1.00  0.00     0.029 C 
BRANCH   8   9
ATOM      9  C   UNL     1     137.212 125.984 135.291  1.00  0.00    -0.035 C 
ATOM     10  C   UNL     1     137.332 125.027 136.217  1.00  0.00     0.004 C 
ENDBRANCH   8   9
ENDBRANCH   1   8
TORSDOF 6
ENDMDL
MODEL 4
REMARK VINA RESULT:    -4.400      0.922      1.165
REMARK INTER + INTRA:          -6.041
REMARK INTER:                  -5.768
REMARK INTRA:                  -0.273
REMARK UNBOUND:                -0.226
REMARK SMILES C=CCC[C@H](O)CCC
REMARK SMILES IDX 4 1 5 2 7 3 8 4 9 5 6 6 3 8 2 9 1 10
REMARK H PARENT 6 7
REMARK Flexibility Score: inf
ROOT
ATOM      1  C   UNL     1     135.388 128.857 135.766  1.00  0.00     0.036 C 
ENDROOT
BRANCH   1   2
ATOM      2  C   UNL     1     134.777 127.543 135.235  1.00  0.00     0.114 C 
BRANCH   2   3
ATOM      3  C   UNL     1     135.671 126.931 134.134  1.00  0.00     0.031 C 
BRANCH   3   4
ATOM      4  C   UNL     1     136.363 125.626 134.562  1.00  0.00    -0.001 C 
ATOM      5  C   UNL     1     137.685 125.866 135.288  1.00  0.00     0.004 C 
ENDBRANCH   3   4
ENDBRANCH   2   3
BRANCH   2   6
ATOM      6  O   UNL     1     134.574 126.627 136.284  1.00  0.00    -0.393 OA
ATOM      7  H   UNL     1     133.899 125.966 135.977  1.00  0.00     0.210 HD
ENDBRANCH   2   6
ENDBRANCH   1   2
BRANCH   1   8
ATOM      8  C   UNL     1     136.178 129.596 134.676  1.00  0.00     0.029 C 
BRANCH   8   9
ATOM      9  C   UNL     1     136.651 130.938 135.162  1.00  0.00    -0.035 C 
ATOM     10  C   UNL     1     135.846 131.766 135.836  1.00  0.00     0.004 C 
ENDBRANCH   8   9
ENDBRANCH   1   8
TORSDOF 6
ENDMDL
MODEL 5
REMARK VINA RESULT:    -4.395      2.766      4.226
REMARK INTER + INTRA:          -6.034
REMARK INTER:                  -5.809
REMARK INTRA:                  -0.225
REMARK UNBOUND:                -0.226
REMARK SMILES C=CCC[C@H](O)CCC
REMARK SMILES IDX 4 1 5 2 7 3 8 4 9 5 6 6 3 8 2 9 1 10
REMARK H PARENT 6 7
REMARK Flexibility Score: inf
ROOT
ATOM      1  C   UNL     1     136.547 125.001 136.113  1.00  0.00     0.036 C 
ENDROOT
BRANCH   1   2
ATOM      2  C   UNL     1     135.896 126.027 137.064  1.00  0.00     0.114 C 
BRANCH   2   3
ATOM      3  C   UNL     1     134.979 125.320 138.086  1.00  0.00     0.031 C 
BRANCH   3   4
ATOM      4  C   UNL     1     134.982 125.984 139.474  1.00  0.00    -0.001 C 
ATOM      5  C   UNL     1     134.666 125.002 140.601  1.00  0.00     0.004 C 
ENDBRANCH   3   4
ENDBRANCH   2   3
BRANCH   2   6
ATOM      6  O   UNL     1     136.878 126.795 137.717  1.00  0.00    -0.393 OA
ATOM      7  H   UNL     1     137.406 127.263 137.018  1.00  0.00     0.210 HD
ENDBRANCH   2   6
ENDBRANCH   1   2
BRANCH   1   8
ATOM      8  C   UNL     1     136.610 125.524 134.671  1.00  0.00     0.029 C 
BRANCH   8   9
ATOM      9  C   UNL     1     135.505 126.507 134.400  1.00  0.00    -0.035 C 
ATOM     10  C   UNL     1     135.631 127.472 133.483  1.00  0.00     0.004 C 
ENDBRANCH   8   9
ENDBRANCH   1   8
TORSDOF 6
ENDMDL
MODEL 6
REMARK VINA RESULT:    -4.343      2.460      5.037
REMARK INTER + INTRA:          -5.965
REMARK INTER:                  -5.758
REMARK INTRA:                  -0.207
REMARK UNBOUND:                -0.226
REMARK SMILES C=CCC[C@H](O)CCC
REMARK SMILES IDX 4 1 5 2 7 3 8 4 9 5 6 6 3 8 2 9 1 10
REMARK H PARENT 6 7
REMARK Flexibility Score: inf
ROOT
ATOM      1  C   UNL     1     136.061 129.391 134.785  1.00  0.00     0.036 C 
ENDROOT
BRANCH   1   2
ATOM      2  C   UNL     1     135.510 130.540 135.655  1.00  0.00     0.114 C 
BRANCH   2   3
ATOM      3  C   UNL     1     134.077 130.223 136.134  1.00  0.00     0.031 C 
BRANCH   3   4
ATOM      4  C   UNL     1     133.082 131.371 135.892  1.00  0.00    -0.001 C 
ATOM      5  C   UNL     1     131.713 131.113 136.519  1.00  0.00     0.004 C 
ENDBRANCH   3   4
ENDBRANCH   2   3
BRANCH   2   6
ATOM      6  O   UNL     1     136.361 130.790 136.748  1.00  0.00    -0.393 OA
ATOM      7  H   UNL     1     137.290 130.591 136.455  1.00  0.00     0.210 HD
ENDBRANCH   2   6
ENDBRANCH   1   2
BRANCH   1   8
ATOM      8  C   UNL     1     134.986 128.335 134.493  1.00  0.00     0.029 C 
BRANCH   8   9
ATOM      9  C   UNL     1     135.533 127.222 133.641  1.00  0.00    -0.035 C 
ATOM     10  C   UNL     1     136.200 126.193 134.172  1.00  0.00     0.004 C 
ENDBRANCH   8   9
ENDBRANCH   1   8
TORSDOF 6
ENDMDL
MODEL 7
REMARK VINA RESULT:    -4.290      1.576      4.741
REMARK INTER + INTRA:          -5.895
REMARK INTER:                  -5.593
REMARK INTRA:                  -0.302
REMARK UNBOUND:                -0.226
REMARK SMILES C=CCC[C@H](O)CCC
REMARK SMILES IDX 4 1 5 2 7 3 8 4 9 5 6 6 3 8 2 9 1 10
REMARK H PARENT 6 7
REMARK Flexibility Score: inf
ROOT
ATOM      1  C   UNL     1     135.672 128.750 134.266  1.00  0.00     0.036 C 
ENDROOT
BRANCH   1   2
ATOM      2  C   UNL     1     136.280 129.442 135.504  1.00  0.00     0.114 C 
BRANCH   2   3
ATOM      3  C   UNL     1     135.726 130.875 135.656  1.00  0.00     0.031 C 
BRANCH   3   4
ATOM      4  C   UNL     1     134.446 130.951 136.505  1.00  0.00    -0.001 C 
ATOM      5  C   UNL     1     133.194 131.214 135.669  1.00  0.00     0.004 C 
ENDBRANCH   3   4
ENDBRANCH   2   3
BRANCH   2   6
ATOM      6  O   UNL     1     136.040 128.685 136.666  1.00  0.00    -0.393 OA
ATOM      7  H   UNL     1     135.882 129.322 137.411  1.00  0.00     0.210 HD
ENDBRANCH   2   6
ENDBRANCH   1   2
BRANCH   1   8
ATOM      8  C   UNL     1     135.187 127.329 134.590  1.00  0.00     0.029 C 
BRANCH   8   9
ATOM      9  C   UNL     1     136.100 126.293 133.995  1.00  0.00    -0.035 C 
ATOM     10  C   UNL     1     136.622 125.308 134.733  1.00  0.00     0.004 C 
ENDBRANCH   8   9
ENDBRANCH   1   8
TORSDOF 6
ENDMDL
MODEL 8
REMARK VINA RESULT:    -4.287      1.668      2.432
REMARK INTER + INTRA:          -5.892
REMARK INTER:                  -5.488
REMARK INTRA:                  -0.404
REMARK UNBOUND:                -0.226
REMARK SMILES C=CCC[C@H](O)CCC
REMARK SMILES IDX 4 1 5 2 7 3 8 4 9 5 6 6 3 8 2 9 1 10
REMARK H PARENT 6 7
REMARK Flexibility Score: inf
ROOT
ATOM      1  C   UNL     1     134.841 129.086 136.617  1.00  0.00     0.036 C 
ENDROOT
BRANCH   1   2
ATOM      2  C   UNL     1     135.947 128.372 135.812  1.00  0.00     0.114 C 
BRANCH   2   3
ATOM      3  C   UNL     1     135.729 128.563 134.295  1.00  0.00     0.031 C 
BRANCH   3   4
ATOM      4  C   UNL     1     135.523 127.242 133.535  1.00  0.00    -0.001 C 
ATOM      5  C   UNL     1     136.210 126.056 134.209  1.00  0.00     0.004 C 
ENDBRANCH   3   4
ENDBRANCH   2   3
BRANCH   2   6
ATOM      6  O   UNL     1     137.220 128.831 136.199  1.00  0.00    -0.393 OA
ATOM      7  H   UNL     1     137.698 129.114 135.376  1.00  0.00     0.210 HD
ENDBRANCH   2   6
ENDBRANCH   1   2
BRANCH   1   8
ATOM      8  C   UNL     1     134.163 130.191 135.793  1.00  0.00     0.029 C 
BRANCH   8   9
ATOM      9  C   UNL     1     134.724 131.544 136.131  1.00  0.00    -0.035 C 
ATOM     10  C   UNL     1     135.791 132.041 135.497  1.00  0.00     0.004 C 
ENDBRANCH   8   9
ENDBRANCH   1   8
TORSDOF 6
ENDMDL
MODEL 9
REMARK VINA RESULT:    -4.278      6.348      7.834
REMARK INTER + INTRA:          -5.879
REMARK INTER:                  -5.320
REMARK INTRA:                  -0.559
REMARK UNBOUND:                -0.226
REMARK SMILES C=CCC[C@H](O)CCC
REMARK SMILES IDX 4 1 5 2 7 3 8 4 9 5 6 6 3 8 2 9 1 10
REMARK H PARENT 6 7
REMARK Flexibility Score: inf
ROOT
ATOM      1  C   UNL     1     131.088 127.566 140.047  1.00  0.00     0.036 C 
ENDROOT
BRANCH   1   2
ATOM      2  C   UNL     1     131.858 128.851 140.416  1.00  0.00     0.114 C 
BRANCH   2   3
ATOM      3  C   UNL     1     131.058 130.106 140.000  1.00  0.00     0.031 C 
BRANCH   3   4
ATOM      4  C   UNL     1     131.801 130.998 138.991  1.00  0.00    -0.001 C 
ATOM      5  C   UNL     1     131.288 130.830 137.561  1.00  0.00     0.004 C 
ENDBRANCH   3   4
ENDBRANCH   2   3
BRANCH   2   6
ATOM      6  O   UNL     1     132.153 128.877 141.792  1.00  0.00    -0.393 OA
ATOM      7  H   UNL     1     132.608 128.023 142.016  1.00  0.00     0.210 HD
ENDBRANCH   2   6
ENDBRANCH   1   2
BRANCH   1   8
ATOM      8  C   UNL     1     129.787 127.881 139.294  1.00  0.00     0.029 C 
BRANCH   8   9
ATOM      9  C   UNL     1     129.695 127.095 138.014  1.00  0.00    -0.035 C 
ATOM     10  C   UNL     1     130.714 127.035 137.151  1.00  0.00     0.004 C 
ENDBRANCH   8   9
ENDBRANCH   1   8
TORSDOF 6
ENDMDL
