MODEL 1
REMARK VINA RESULT:    -3.449      0.000      0.000
REMARK INTER + INTRA:          -6.277
REMARK INTER:                  -5.263
REMARK INTRA:                  -1.013
REMARK UNBOUND:                -1.013
REMARK SMILES CCCCCCCCCC=CC(=O)[O-]
REMARK SMILES IDX 7 1 8 2 9 3 10 4 11 5 12 6 13 7 14 8 6 9 5 10 4 11 3 12 2 13
REMARK SMILES IDX 1 14
REMARK H PARENT
REMARK Flexibility Score: inf
ROOT
ATOM      1  C   UNL     1      -0.834  32.098 -13.783  1.00  0.00     0.000 C 
ENDROOT
BRANCH   1   2
ATOM      2  C   UNL     1      -2.023  33.030 -13.497  1.00  0.00     0.004 C 
BRANCH   2   3
ATOM      3  C   UNL     1      -2.882  33.289 -14.744  1.00  0.00     0.027 C 
BRANCH   3   4
ATOM      4  C   UNL     1      -2.455  32.415 -15.887  1.00  0.00    -0.025 C 
ATOM      5  C   UNL     1      -3.348  31.860 -16.715  1.00  0.00     0.020 C 
BRANCH   5   6
ATOM      6  C   UNL     1      -2.952  31.012 -17.849  1.00  0.00     0.064 C 
ATOM      7  O   UNL     1      -2.137  31.422 -18.718  1.00  0.00    -0.545 OA
ATOM      8  O   UNL     1      -3.485  29.735 -17.965  1.00  0.00    -0.545 OA
ENDBRANCH   5   6
ENDBRANCH   3   4
ENDBRANCH   2   3
ENDBRANCH   1   2
BRANCH   1   9
ATOM      9  C   UNL     1      -0.853  30.832 -12.906  1.00  0.00     0.000 C 
BRANCH   9  10
ATOM     10  C   UNL     1      -2.145  30.016 -13.072  1.00  0.00     0.000 C 
BRANCH  10  11
ATOM     11  C   UNL     1      -2.909  29.845 -11.748  1.00  0.00    -0.000 C 
BRANCH  11  12
ATOM     12  C   UNL     1      -4.320  30.460 -11.788  1.00  0.00    -0.000 C 
BRANCH  12  13
ATOM     13  C   UNL     1      -4.462  31.812 -11.066  1.00  0.00    -0.003 C 
ATOM     14  C   UNL     1      -4.474  31.681  -9.544  1.00  0.00     0.004 C 
ENDBRANCH  12  13
ENDBRANCH  11  12
ENDBRANCH  10  11
ENDBRANCH   9  10
ENDBRANCH   1   9
TORSDOF 9
ENDMDL
MODEL 2
REMARK VINA RESULT:    -3.439      3.206      5.120
REMARK INTER + INTRA:          -6.261
REMARK INTER:                  -4.592
REMARK INTRA:                  -1.670
REMARK UNBOUND:                -1.013
REMARK SMILES CCCCCCCCCC=CC(=O)[O-]
REMARK SMILES IDX 7 1 8 2 9 3 10 4 11 5 12 6 13 7 14 8 6 9 5 10 4 11 3 12 2 13
REMARK SMILES IDX 1 14
REMARK H PARENT
REMARK Flexibility Score: inf
ROOT
ATOM      1  C   UNL     1      -2.276  32.451 -15.883  1.00  0.00     0.000 C 
ENDROOT
BRANCH   1   2
ATOM      2  C   UNL     1      -2.562  33.162 -14.550  1.00  0.00     0.004 C 
BRANCH   2   3
ATOM      3  C   UNL     1      -1.551  32.790 -13.454  1.00  0.00     0.027 C 
BRANCH   3   4
ATOM      4  C   UNL     1      -2.144  31.815 -12.478  1.00  0.00    -0.025 C 
ATOM      5  C   UNL     1      -3.425  31.895 -12.101  1.00  0.00     0.020 C 
BRANCH   5   6
ATOM      6  C   UNL     1      -4.031  30.943 -11.158  1.00  0.00     0.064 C 
ATOM      7  O   UNL     1      -4.645  29.922 -11.566  1.00  0.00    -0.545 OA
ATOM      8  O   UNL     1      -3.923  31.172  -9.792  1.00  0.00    -0.545 OA
ENDBRANCH   5   6
ENDBRANCH   3   4
ENDBRANCH   2   3
ENDBRANCH   1   2
BRANCH   1   9
ATOM      9  C   UNL     1      -3.542  31.836 -16.507  1.00  0.00     0.000 C 
BRANCH   9  10
ATOM     10  C   UNL     1      -3.506  30.300 -16.527  1.00  0.00     0.000 C 
BRANCH  10  11
ATOM     11  C   UNL     1      -3.840  29.685 -15.157  1.00  0.00    -0.000 C 
BRANCH  11  12
ATOM     12  C   UNL     1      -2.683  28.851 -14.576  1.00  0.00    -0.000 C 
BRANCH  12  13
ATOM     13  C   UNL     1      -1.392  28.857 -15.414  1.00  0.00    -0.003 C 
ATOM     14  C   UNL     1      -0.203  29.471 -14.678  1.00  0.00     0.004 C 
ENDBRANCH  12  13
ENDBRANCH  11  12
ENDBRANCH  10  11
ENDBRANCH   9  10
ENDBRANCH   1   9
TORSDOF 9
ENDMDL
MODEL 3
REMARK VINA RESULT:    -3.391      1.213      1.895
REMARK INTER + INTRA:          -6.189
REMARK INTER:                  -5.498
REMARK INTRA:                  -0.691
REMARK UNBOUND:                -1.013
REMARK SMILES CCCCCCCCCC=CC(=O)[O-]
REMARK SMILES IDX 7 1 8 2 9 3 10 4 11 5 12 6 13 7 14 8 6 9 5 10 4 11 3 12 2 13
REMARK SMILES IDX 1 14
REMARK H PARENT
REMARK Flexibility Score: inf
ROOT
ATOM      1  C   UNL     1      -1.860  31.687 -12.434  1.00  0.00     0.000 C 
ENDROOT
BRANCH   1   2
ATOM      2  C   UNL     1      -1.504  32.622 -13.601  1.00  0.00     0.004 C 
BRANCH   2   3
ATOM      3  C   UNL     1      -2.742  33.281 -14.228  1.00  0.00     0.027 C 
BRANCH   3   4
ATOM      4  C   UNL     1      -2.960  32.799 -15.633  1.00  0.00    -0.025 C 
ATOM      5  C   UNL     1      -2.955  31.495 -15.934  1.00  0.00     0.020 C 
BRANCH   5   6
ATOM      6  C   UNL     1      -3.179  30.999 -17.300  1.00  0.00     0.064 C 
ATOM      7  O   UNL     1      -2.914  31.712 -18.304  1.00  0.00    -0.545 OA
ATOM      8  O   UNL     1      -3.691  29.722 -17.487  1.00  0.00    -0.545 OA
ENDBRANCH   5   6
ENDBRANCH   3   4
ENDBRANCH   2   3
ENDBRANCH   1   2
BRANCH   1   9
ATOM      9  C   UNL     1      -3.351  31.759 -12.056  1.00  0.00     0.000 C 
BRANCH   9  10
ATOM     10  C   UNL     1      -3.816  30.539 -11.245  1.00  0.00     0.000 C 
BRANCH  10  11
ATOM     11  C   UNL     1      -4.055  30.873  -9.762  1.00  0.00    -0.000 C 
BRANCH  11  12
ATOM     12  C   UNL     1      -4.721  32.246  -9.557  1.00  0.00    -0.000 C 
BRANCH  12  13
ATOM     13  C   UNL     1      -6.173  32.196  -9.048  1.00  0.00    -0.003 C 
ATOM     14  C   UNL     1      -7.172  31.776 -10.124  1.00  0.00     0.004 C 
ENDBRANCH  12  13
ENDBRANCH  11  12
ENDBRANCH  10  11
ENDBRANCH   9  10
ENDBRANCH   1   9
TORSDOF 9
ENDMDL
MODEL 4
REMARK VINA RESULT:    -3.383      2.750      4.256
REMARK INTER + INTRA:          -6.176
REMARK INTER:                  -4.679
REMARK INTRA:                  -1.497
REMARK UNBOUND:                -1.013
REMARK SMILES CCCCCCCCCC=CC(=O)[O-]
REMARK SMILES IDX 7 1 8 2 9 3 10 4 11 5 12 6 13 7 14 8 6 9 5 10 4 11 3 12 2 13
REMARK SMILES IDX 1 14
REMARK H PARENT
REMARK Flexibility Score: inf
ROOT
ATOM      1  C   UNL     1      -2.503  32.633 -15.916  1.00  0.00     0.000 C 
ENDROOT
BRANCH   1   2
ATOM      2  C   UNL     1      -2.887  33.323 -14.597  1.00  0.00     0.004 C 
BRANCH   2   3
ATOM      3  C   UNL     1      -1.945  32.954 -13.441  1.00  0.00     0.027 C 
BRANCH   3   4
ATOM      4  C   UNL     1      -0.714  32.258 -13.948  1.00  0.00    -0.025 C 
ATOM      5  C   UNL     1       0.257  31.863 -13.117  1.00  0.00     0.020 C 
BRANCH   5   6
ATOM      6  C   UNL     1       1.465  31.168 -13.589  1.00  0.00     0.064 C 
ATOM      7  O   UNL     1       1.483  29.916 -13.732  1.00  0.00    -0.545 OA
ATOM      8  O   UNL     1       2.605  31.903 -13.883  1.00  0.00    -0.545 OA
ENDBRANCH   5   6
ENDBRANCH   3   4
ENDBRANCH   2   3
ENDBRANCH   1   2
BRANCH   1   9
ATOM      9  C   UNL     1      -3.579  31.644 -16.399  1.00  0.00     0.000 C 
BRANCH   9  10
ATOM     10  C   UNL     1      -3.202  30.179 -16.127  1.00  0.00     0.000 C 
BRANCH  10  11
ATOM     11  C   UNL     1      -3.611  29.717 -14.717  1.00  0.00    -0.000 C 
BRANCH  11  12
ATOM     12  C   UNL     1      -2.474  28.997 -13.969  1.00  0.00    -0.000 C 
BRANCH  12  13
ATOM     13  C   UNL     1      -2.371  29.327 -12.469  1.00  0.00    -0.003 C 
ATOM     14  C   UNL     1      -3.625  30.001 -11.916  1.00  0.00     0.004 C 
ENDBRANCH  12  13
ENDBRANCH  11  12
ENDBRANCH  10  11
ENDBRANCH   9  10
ENDBRANCH   1   9
TORSDOF 9
ENDMDL
MODEL 5
REMARK VINA RESULT:    -3.364      1.641      4.201
REMARK INTER + INTRA:          -6.147
REMARK INTER:                  -4.719
REMARK INTRA:                  -1.428
REMARK UNBOUND:                -1.013
REMARK SMILES CCCCCCCCCC=CC(=O)[O-]
REMARK SMILES IDX 7 1 8 2 9 3 10 4 11 5 12 6 13 7 14 8 6 9 5 10 4 11 3 12 2 13
REMARK SMILES IDX 1 14
REMARK H PARENT
REMARK Flexibility Score: inf
ROOT
ATOM      1  C   UNL     1      -3.079  31.585 -12.050  1.00  0.00     0.000 C 
ENDROOT
BRANCH   1   2
ATOM      2  C   UNL     1      -3.755  30.238 -12.353  1.00  0.00     0.004 C 
BRANCH   2   3
ATOM      3  C   UNL     1      -2.981  29.410 -13.390  1.00  0.00     0.027 C 
BRANCH   3   4
ATOM      4  C   UNL     1      -3.706  29.374 -14.704  1.00  0.00    -0.025 C 
ATOM      5  C   UNL     1      -3.186  28.758 -15.772  1.00  0.00     0.020 C 
BRANCH   5   6
ATOM      6  C   UNL     1      -3.883  28.698 -17.066  1.00  0.00     0.064 C 
ATOM      7  O   UNL     1      -5.140  28.745 -17.132  1.00  0.00    -0.545 OA
ATOM      8  O   UNL     1      -3.144  28.590 -18.236  1.00  0.00    -0.545 OA
ENDBRANCH   5   6
ENDBRANCH   3   4
ENDBRANCH   2   3
ENDBRANCH   1   2
BRANCH   1   9
ATOM      9  C   UNL     1      -1.619  31.634 -12.536  1.00  0.00     0.000 C 
BRANCH   9  10
ATOM     10  C   UNL     1      -1.380  32.733 -13.583  1.00  0.00     0.000 C 
BRANCH  10  11
ATOM     11  C   UNL     1      -2.691  33.270 -14.184  1.00  0.00    -0.000 C 
BRANCH  11  12
ATOM     12  C   UNL     1      -2.917  32.809 -15.635  1.00  0.00    -0.000 C 
BRANCH  12  13
ATOM     13  C   UNL     1      -1.669  32.249 -16.342  1.00  0.00    -0.003 C 
ATOM     14  C   UNL     1      -1.931  31.850 -17.793  1.00  0.00     0.004 C 
ENDBRANCH  12  13
ENDBRANCH  11  12
ENDBRANCH  10  11
ENDBRANCH   9  10
ENDBRANCH   1   9
TORSDOF 9
ENDMDL
MODEL 6
REMARK VINA RESULT:    -3.299      2.339      3.826
REMARK INTER + INTRA:          -6.048
REMARK INTER:                  -4.866
REMARK INTRA:                  -1.182
REMARK UNBOUND:                -1.013
REMARK SMILES CCCCCCCCCC=CC(=O)[O-]
REMARK SMILES IDX 7 1 8 2 9 3 10 4 11 5 12 6 13 7 14 8 6 9 5 10 4 11 3 12 2 13
REMARK SMILES IDX 1 14
REMARK H PARENT
REMARK Flexibility Score: inf
ROOT
ATOM      1  C   UNL     1      -2.300  32.624 -15.947  1.00  0.00     0.000 C 
ENDROOT
BRANCH   1   2
ATOM      2  C   UNL     1      -3.385  31.852 -16.715  1.00  0.00     0.004 C 
BRANCH   2   3
ATOM      3  C   UNL     1      -2.934  31.452 -18.129  1.00  0.00     0.027 C 
BRANCH   3   4
ATOM      4  C   UNL     1      -2.829  29.960 -18.262  1.00  0.00    -0.025 C 
ATOM      5  C   UNL     1      -1.870  29.269 -17.634  1.00  0.00     0.020 C 
BRANCH   5   6
ATOM      6  C   UNL     1      -1.755  27.806 -17.738  1.00  0.00     0.064 C 
ATOM      7  O   UNL     1      -2.644  27.122 -18.311  1.00  0.00    -0.545 OA
ATOM      8  O   UNL     1      -0.647  27.168 -17.198  1.00  0.00    -0.545 OA
ENDBRANCH   5   6
ENDBRANCH   3   4
ENDBRANCH   2   3
ENDBRANCH   1   2
BRANCH   1   9
ATOM      9  C   UNL     1      -2.863  33.376 -14.728  1.00  0.00     0.000 C 
BRANCH   9  10
ATOM     10  C   UNL     1      -2.178  32.972 -13.413  1.00  0.00     0.000 C 
BRANCH  10  11
ATOM     11  C   UNL     1      -0.854  32.223 -13.644  1.00  0.00    -0.000 C 
BRANCH  11  12
ATOM     12  C   UNL     1      -0.844  30.817 -13.019  1.00  0.00    -0.000 C 
BRANCH  12  13
ATOM     13  C   UNL     1      -1.204  29.673 -13.984  1.00  0.00    -0.003 C 
ATOM     14  C   UNL     1      -2.693  29.333 -13.981  1.00  0.00     0.004 C 
ENDBRANCH  12  13
ENDBRANCH  11  12
ENDBRANCH  10  11
ENDBRANCH   9  10
ENDBRANCH   1   9
TORSDOF 9
ENDMDL
MODEL 7
REMARK VINA RESULT:    -3.270      1.986      3.537
REMARK INTER + INTRA:          -6.004
REMARK INTER:                  -4.454
REMARK INTRA:                  -1.549
REMARK UNBOUND:                -1.013
REMARK SMILES CCCCCCCCCC=CC(=O)[O-]
REMARK SMILES IDX 7 1 8 2 9 3 10 4 11 5 12 6 13 7 14 8 6 9 5 10 4 11 3 12 2 13
REMARK SMILES IDX 1 14
REMARK H PARENT
REMARK Flexibility Score: inf
ROOT
ATOM      1  C   UNL     1      -1.399  32.697 -13.502  1.00  0.00     0.000 C 
ENDROOT
BRANCH   1   2
ATOM      2  C   UNL     1      -2.808  33.044 -14.009  1.00  0.00     0.004 C 
BRANCH   2   3
ATOM      3  C   UNL     1      -2.862  33.208 -15.536  1.00  0.00     0.027 C 
BRANCH   3   4
ATOM      4  C   UNL     1      -3.192  31.908 -16.209  1.00  0.00    -0.025 C 
ATOM      5  C   UNL     1      -2.706  31.604 -17.418  1.00  0.00     0.020 C 
BRANCH   5   6
ATOM      6  C   UNL     1      -3.005  30.330 -18.091  1.00  0.00     0.064 C 
ATOM      7  O   UNL     1      -2.361  29.965 -19.110  1.00  0.00    -0.545 OA
ATOM      8  O   UNL     1      -4.014  29.515 -17.595  1.00  0.00    -0.545 OA
ENDBRANCH   5   6
ENDBRANCH   3   4
ENDBRANCH   2   3
ENDBRANCH   1   2
BRANCH   1   9
ATOM      9  C   UNL     1      -1.397  31.487 -12.550  1.00  0.00     0.000 C 
BRANCH   9  10
ATOM     10  C   UNL     1      -0.534  30.326 -13.069  1.00  0.00     0.000 C 
BRANCH  10  11
ATOM     11  C   UNL     1      -1.199  29.572 -14.235  1.00  0.00    -0.000 C 
BRANCH  11  12
ATOM     12  C   UNL     1      -0.326  29.540 -15.502  1.00  0.00    -0.000 C 
BRANCH  12  13
ATOM     13  C   UNL     1       0.938  30.417 -15.445  1.00  0.00    -0.003 C 
ATOM     14  C   UNL     1       0.840  31.667 -16.316  1.00  0.00     0.004 C 
ENDBRANCH  12  13
ENDBRANCH  11  12
ENDBRANCH  10  11
ENDBRANCH   9  10
ENDBRANCH   1   9
TORSDOF 9
ENDMDL
MODEL 8
REMARK VINA RESULT:    -3.238      7.685      9.794
REMARK INTER + INTRA:          -5.956
REMARK INTER:                  -4.326
REMARK INTRA:                  -1.630
REMARK UNBOUND:                -1.013
REMARK SMILES CCCCCCCCCC=CC(=O)[O-]
REMARK SMILES IDX 7 1 8 2 9 3 10 4 11 5 12 6 13 7 14 8 6 9 5 10 4 11 3 12 2 13
REMARK SMILES IDX 1 14
REMARK H PARENT
REMARK Flexibility Score: inf
ROOT
ATOM      1  C   UNL     1       0.117  23.597  -9.493  1.00  0.00     0.000 C 
ENDROOT
BRANCH   1   2
ATOM      2  C   UNL     1       1.589  23.154  -9.499  1.00  0.00     0.004 C 
BRANCH   2   3
ATOM      3  C   UNL     1       1.832  21.926 -10.390  1.00  0.00     0.027 C 
BRANCH   3   4
ATOM      4  C   UNL     1       0.697  21.722 -11.351  1.00  0.00    -0.025 C 
ATOM      5  C   UNL     1       0.845  21.936 -12.664  1.00  0.00     0.020 C 
BRANCH   5   6
ATOM      6  C   UNL     1      -0.248  21.729 -13.626  1.00  0.00     0.064 C 
ATOM      7  O   UNL     1      -1.179  22.568 -13.744  1.00  0.00    -0.545 OA
ATOM      8  O   UNL     1      -0.253  20.589 -14.420  1.00  0.00    -0.545 OA
ENDBRANCH   5   6
ENDBRANCH   3   4
ENDBRANCH   2   3
ENDBRANCH   1   2
BRANCH   1   9
ATOM      9  C   UNL     1      -0.049  25.086  -9.140  1.00  0.00     0.000 C 
BRANCH   9  10
ATOM     10  C   UNL     1       0.283  26.015 -10.318  1.00  0.00     0.000 C 
BRANCH  10  11
ATOM     11  C   UNL     1      -0.170  25.437 -11.670  1.00  0.00    -0.000 C 
BRANCH  11  12
ATOM     12  C   UNL     1       0.893  25.587 -12.773  1.00  0.00    -0.000 C 
BRANCH  12  13
ATOM     13  C   UNL     1       2.311  25.913 -12.270  1.00  0.00    -0.003 C 
ATOM     14  C   UNL     1       3.298  24.766 -12.476  1.00  0.00     0.004 C 
ENDBRANCH  12  13
ENDBRANCH  11  12
ENDBRANCH  10  11
ENDBRANCH   9  10
ENDBRANCH   1   9
TORSDOF 9
ENDMDL
MODEL 9
REMARK VINA RESULT:    -3.208     16.237     18.239
REMARK INTER + INTRA:          -5.909
REMARK INTER:                  -4.636
REMARK INTRA:                  -1.273
REMARK UNBOUND:                -1.013
REMARK SMILES CCCCCCCCCC=CC(=O)[O-]
REMARK SMILES IDX 7 1 8 2 9 3 10 4 11 5 12 6 13 7 14 8 6 9 5 10 4 11 3 12 2 13
REMARK SMILES IDX 1 14
REMARK H PARENT
REMARK Flexibility Score: inf
ROOT
ATOM      1  C   UNL     1       5.947  17.841  -6.988  1.00  0.00     0.000 C 
ENDROOT
BRANCH   1   2
ATOM      2  C   UNL     1       5.425  18.267  -5.606  1.00  0.00     0.004 C 
BRANCH   2   3
ATOM      3  C   UNL     1       6.540  18.337  -4.550  1.00  0.00     0.027 C 
BRANCH   3   4
ATOM      4  C   UNL     1       6.882  19.761  -4.217  1.00  0.00    -0.025 C 
ATOM      5  C   UNL     1       7.597  20.522  -5.053  1.00  0.00     0.020 C 
BRANCH   5   6
ATOM      6  C   UNL     1       7.932  21.922  -4.755  1.00  0.00     0.064 C 
ATOM      7  O   UNL     1       8.992  22.446  -5.190  1.00  0.00    -0.545 OA
ATOM      8  O   UNL     1       7.065  22.682  -3.981  1.00  0.00    -0.545 OA
ENDBRANCH   5   6
ENDBRANCH   3   4
ENDBRANCH   2   3
ENDBRANCH   1   2
BRANCH   1   9
ATOM      9  C   UNL     1       7.142  16.875  -6.894  1.00  0.00     0.000 C 
BRANCH   9  10
ATOM     10  C   UNL     1       8.220  17.162  -7.950  1.00  0.00     0.000 C 
BRANCH  10  11
ATOM     11  C   UNL     1       8.935  18.505  -7.714  1.00  0.00    -0.000 C 
BRANCH  11  12
ATOM     12  C   UNL     1       9.000  19.379  -8.979  1.00  0.00    -0.000 C 
BRANCH  12  13
ATOM     13  C   UNL     1       7.640  19.885  -9.492  1.00  0.00    -0.003 C 
ATOM     14  C   UNL     1       7.069  21.026  -8.652  1.00  0.00     0.004 C 
ENDBRANCH  12  13
ENDBRANCH  11  12
ENDBRANCH  10  11
ENDBRANCH   9  10
ENDBRANCH   1   9
TORSDOF 9
ENDMDL
