MODEL 1
REMARK VINA RESULT:    -5.922      0.000      0.000
REMARK INTER + INTRA:          -7.486
REMARK INTER:                  -7.307
REMARK INTRA:                  -0.179
REMARK UNBOUND:                -0.179
REMARK SMILES C=CC[C@@H](C)C(=O)CC
REMARK SMILES IDX 4 1 5 2 6 3 7 4 8 5 9 6 3 7 2 8 1 9
REMARK H PARENT
REMARK Flexibility Score: inf
ROOT
ATOM      1  C   UNL     1      10.174  20.938  23.031  1.00  0.00     0.057 C 
ATOM      2  C   UNL     1      10.996  19.643  23.093  1.00  0.00     0.016 C 
ENDROOT
BRANCH   1   3
ATOM      3  C   UNL     1       8.844  20.738  23.725  1.00  0.00     0.135 C 
ATOM      4  O   UNL     1       8.446  21.569  24.529  1.00  0.00    -0.299 OA
BRANCH   3   5
ATOM      5  C   UNL     1       7.984  19.547  23.407  1.00  0.00     0.072 C 
ATOM      6  C   UNL     1       7.920  18.594  24.595  1.00  0.00     0.012 C 
ENDBRANCH   3   5
ENDBRANCH   1   3
BRANCH   1   7
ATOM      7  C   UNL     1      10.929  22.125  23.666  1.00  0.00     0.038 C 
BRANCH   7   8
ATOM      8  C   UNL     1      12.295  21.733  24.164  1.00  0.00    -0.034 C 
ATOM      9  C   UNL     1      13.318  22.593  24.161  1.00  0.00     0.004 C 
ENDBRANCH   7   8
ENDBRANCH   1   7
TORSDOF 4
ENDMDL
MODEL 2
REMARK VINA RESULT:    -5.841      1.683      4.523
REMARK INTER + INTRA:          -7.387
REMARK INTER:                  -7.263
REMARK INTRA:                  -0.123
REMARK UNBOUND:                -0.179
REMARK SMILES C=CC[C@@H](C)C(=O)CC
REMARK SMILES IDX 4 1 5 2 6 3 7 4 8 5 9 6 3 7 2 8 1 9
REMARK H PARENT
REMARK Flexibility Score: inf
ROOT
ATOM      1  C   UNL     1      10.913  20.883  23.019  1.00  0.00     0.057 C 
ATOM      2  C   UNL     1      10.151  22.167  23.376  1.00  0.00     0.016 C 
ENDROOT
BRANCH   1   3
ATOM      3  C   UNL     1      12.253  20.867  23.722  1.00  0.00     0.135 C 
ATOM      4  O   UNL     1      12.553  19.925  24.442  1.00  0.00    -0.299 OA
BRANCH   3   5
ATOM      5  C   UNL     1      13.243  21.980  23.512  1.00  0.00     0.072 C 
ATOM      6  C   UNL     1      13.261  22.920  24.712  1.00  0.00     0.012 C 
ENDBRANCH   3   5
ENDBRANCH   1   3
BRANCH   1   7
ATOM      7  C   UNL     1      10.108  19.620  23.389  1.00  0.00     0.038 C 
BRANCH   7   8
ATOM      8  C   UNL     1       8.845  19.946  24.142  1.00  0.00    -0.034 C 
ATOM      9  C   UNL     1       7.668  19.406  23.809  1.00  0.00     0.004 C 
ENDBRANCH   7   8
ENDBRANCH   1   7
TORSDOF 4
ENDMDL
MODEL 3
REMARK VINA RESULT:    -5.806      1.091      4.294
REMARK INTER + INTRA:          -7.344
REMARK INTER:                  -7.392
REMARK INTRA:                   0.048
REMARK UNBOUND:                -0.179
REMARK SMILES C=CC[C@@H](C)C(=O)CC
REMARK SMILES IDX 4 1 5 2 6 3 7 4 8 5 9 6 3 7 2 8 1 9
REMARK H PARENT
REMARK Flexibility Score: inf
ROOT
ATOM      1  C   UNL     1      10.393  20.555  24.142  1.00  0.00     0.057 C 
ATOM      2  C   UNL     1      10.678  19.430  23.137  1.00  0.00     0.016 C 
ENDROOT
BRANCH   1   3
ATOM      3  C   UNL     1      11.257  21.757  23.829  1.00  0.00     0.135 C 
ATOM      4  O   UNL     1      10.734  22.836  23.586  1.00  0.00    -0.299 OA
BRANCH   3   5
ATOM      5  C   UNL     1      12.756  21.652  23.855  1.00  0.00     0.072 C 
ATOM      6  C   UNL     1      13.371  22.874  24.528  1.00  0.00     0.012 C 
ENDBRANCH   3   5
ENDBRANCH   1   3
BRANCH   1   7
ATOM      7  C   UNL     1       8.903  20.959  24.139  1.00  0.00     0.038 C 
BRANCH   7   8
ATOM      8  C   UNL     1       8.020  19.884  23.563  1.00  0.00    -0.034 C 
ATOM      9  C   UNL     1       7.626  18.834  24.289  1.00  0.00     0.004 C 
ENDBRANCH   7   8
ENDBRANCH   1   7
TORSDOF 4
ENDMDL
MODEL 4
REMARK VINA RESULT:    -3.515     11.739     13.022
REMARK INTER + INTRA:          -4.516
REMARK INTER:                  -4.255
REMARK INTRA:                  -0.261
REMARK UNBOUND:                -0.179
REMARK SMILES C=CC[C@@H](C)C(=O)CC
REMARK SMILES IDX 4 1 5 2 6 3 7 4 8 5 9 6 3 7 2 8 1 9
REMARK H PARENT
REMARK Flexibility Score: inf
ROOT
ATOM      1  C   UNL     1      15.897  13.249  15.917  1.00  0.00     0.057 C 
ATOM      2  C   UNL     1      16.900  14.268  15.358  1.00  0.00     0.016 C 
ENDROOT
BRANCH   1   3
ATOM      3  C   UNL     1      14.505  13.844  15.920  1.00  0.00     0.135 C 
ATOM      4  O   UNL     1      14.354  15.040  16.125  1.00  0.00    -0.299 OA
BRANCH   3   5
ATOM      5  C   UNL     1      13.304  12.987  15.632  1.00  0.00     0.072 C 
ATOM      6  C   UNL     1      12.544  13.513  14.419  1.00  0.00     0.012 C 
ENDBRANCH   3   5
ENDBRANCH   1   3
BRANCH   1   7
ATOM      7  C   UNL     1      15.908  11.934  15.109  1.00  0.00     0.038 C 
BRANCH   7   8
ATOM      8  C   UNL     1      17.229  11.692  14.428  1.00  0.00    -0.034 C 
ATOM      9  C   UNL     1      17.303  11.134  13.216  1.00  0.00     0.004 C 
ENDBRANCH   7   8
ENDBRANCH   1   7
TORSDOF 4
ENDMDL
MODEL 5
REMARK VINA RESULT:    -3.464     11.172     12.379
REMARK INTER + INTRA:          -4.454
REMARK INTER:                  -4.233
REMARK INTRA:                  -0.221
REMARK UNBOUND:                -0.179
REMARK SMILES C=CC[C@@H](C)C(=O)CC
REMARK SMILES IDX 4 1 5 2 6 3 7 4 8 5 9 6 3 7 2 8 1 9
REMARK H PARENT
REMARK Flexibility Score: inf
ROOT
ATOM      1  C   UNL     1       6.881  28.560  17.263  1.00  0.00     0.057 C 
ATOM      2  C   UNL     1       6.662  27.118  16.785  1.00  0.00     0.016 C 
ENDROOT
BRANCH   1   3
ATOM      3  C   UNL     1       7.799  29.287  16.304  1.00  0.00     0.135 C 
ATOM      4  O   UNL     1       8.260  28.697  15.336  1.00  0.00    -0.299 OA
BRANCH   3   5
ATOM      5  C   UNL     1       8.119  30.743  16.503  1.00  0.00     0.072 C 
ATOM      6  C   UNL     1       9.402  31.118  15.770  1.00  0.00     0.012 C 
ENDBRANCH   3   5
ENDBRANCH   1   3
BRANCH   1   7
ATOM      7  C   UNL     1       5.548  29.325  17.401  1.00  0.00     0.038 C 
BRANCH   7   8
ATOM      8  C   UNL     1       4.575  28.980  16.306  1.00  0.00    -0.034 C 
ATOM      9  C   UNL     1       3.314  28.624  16.571  1.00  0.00     0.004 C 
ENDBRANCH   7   8
ENDBRANCH   1   7
TORSDOF 4
ENDMDL
MODEL 6
REMARK VINA RESULT:    -3.428     11.272     12.329
REMARK INTER + INTRA:          -4.409
REMARK INTER:                  -4.103
REMARK INTRA:                  -0.307
REMARK UNBOUND:                -0.179
REMARK SMILES C=CC[C@@H](C)C(=O)CC
REMARK SMILES IDX 4 1 5 2 6 3 7 4 8 5 9 6 3 7 2 8 1 9
REMARK H PARENT
REMARK Flexibility Score: inf
ROOT
ATOM      1  C   UNL     1      14.402  14.430  15.941  1.00  0.00     0.057 C 
ATOM      2  C   UNL     1      15.242  15.671  15.610  1.00  0.00     0.016 C 
ENDROOT
BRANCH   1   3
ATOM      3  C   UNL     1      13.477  14.110  14.787  1.00  0.00     0.135 C 
ATOM      4  O   UNL     1      13.534  14.770  13.759  1.00  0.00    -0.299 OA
BRANCH   3   5
ATOM      5  C   UNL     1      12.512  12.960  14.873  1.00  0.00     0.072 C 
ATOM      6  C   UNL     1      11.247  13.256  14.075  1.00  0.00     0.012 C 
ENDBRANCH   3   5
ENDBRANCH   1   3
BRANCH   1   7
ATOM      7  C   UNL     1      15.290  13.208  16.260  1.00  0.00     0.038 C 
BRANCH   7   8
ATOM      8  C   UNL     1      16.247  12.889  15.142  1.00  0.00    -0.034 C 
ATOM      9  C   UNL     1      16.452  11.634  14.730  1.00  0.00     0.004 C 
ENDBRANCH   7   8
ENDBRANCH   1   7
TORSDOF 4
ENDMDL
MODEL 7
REMARK VINA RESULT:    -3.353     11.640     12.914
REMARK INTER + INTRA:          -4.316
REMARK INTER:                  -4.065
REMARK INTRA:                  -0.252
REMARK UNBOUND:                -0.179
REMARK SMILES C=CC[C@@H](C)C(=O)CC
REMARK SMILES IDX 4 1 5 2 6 3 7 4 8 5 9 6 3 7 2 8 1 9
REMARK H PARENT
REMARK Flexibility Score: inf
ROOT
ATOM      1  C   UNL     1      15.261  13.364  16.087  1.00  0.00     0.057 C 
ATOM      2  C   UNL     1      14.406  12.114  16.336  1.00  0.00     0.016 C 
ENDROOT
BRANCH   1   3
ATOM      3  C   UNL     1      16.409  13.026  15.159  1.00  0.00     0.135 C 
ATOM      4  O   UNL     1      17.475  13.615  15.270  1.00  0.00    -0.299 OA
BRANCH   3   5
ATOM      5  C   UNL     1      16.268  11.941  14.127  1.00  0.00     0.072 C 
ATOM      6  C   UNL     1      17.378  10.907  14.277  1.00  0.00     0.012 C 
ENDBRANCH   3   5
ENDBRANCH   1   3
BRANCH   1   7
ATOM      7  C   UNL     1      14.427  14.519  15.495  1.00  0.00     0.038 C 
BRANCH   7   8
ATOM      8  C   UNL     1      14.916  15.869  15.948  1.00  0.00    -0.034 C 
ATOM      9  C   UNL     1      15.633  16.662  15.146  1.00  0.00     0.004 C 
ENDBRANCH   7   8
ENDBRANCH   1   7
TORSDOF 4
ENDMDL
MODEL 8
REMARK VINA RESULT:    -3.325     10.863     12.585
REMARK INTER + INTRA:          -4.282
REMARK INTER:                  -3.875
REMARK INTRA:                  -0.408
REMARK UNBOUND:                -0.179
REMARK SMILES C=CC[C@@H](C)C(=O)CC
REMARK SMILES IDX 4 1 5 2 6 3 7 4 8 5 9 6 3 7 2 8 1 9
REMARK H PARENT
REMARK Flexibility Score: inf
ROOT
ATOM      1  C   UNL     1      16.315  26.130  15.819  1.00  0.00     0.057 C 
ATOM      2  C   UNL     1      17.361  25.034  16.069  1.00  0.00     0.016 C 
ENDROOT
BRANCH   1   3
ATOM      3  C   UNL     1      16.757  27.013  14.672  1.00  0.00     0.135 C 
ATOM      4  O   UNL     1      17.142  26.507  13.626  1.00  0.00    -0.299 OA
BRANCH   3   5
ATOM      5  C   UNL     1      16.690  28.510  14.786  1.00  0.00     0.072 C 
ATOM      6  C   UNL     1      15.579  29.069  13.904  1.00  0.00     0.012 C 
ENDBRANCH   3   5
ENDBRANCH   1   3
BRANCH   1   7
ATOM      7  C   UNL     1      14.924  25.533  15.520  1.00  0.00     0.038 C 
BRANCH   7   8
ATOM      8  C   UNL     1      13.818  26.284  16.215  1.00  0.00    -0.034 C 
ATOM      9  C   UNL     1      12.898  26.971  15.532  1.00  0.00     0.004 C 
ENDBRANCH   7   8
ENDBRANCH   1   7
TORSDOF 4
ENDMDL
