MODEL 1
REMARK VINA RESULT:    -4.234      0.000      0.000
REMARK INTER + INTRA:         -13.228
REMARK INTER:                  -9.185
REMARK INTRA:                  -4.044
REMARK UNBOUND:                -4.044
REMARK SMILES CCCCCCCCCCCCCCCCCCCCCC(=O)[O-]
REMARK SMILES IDX 12 1 11 2 10 3 9 4 8 5 7 6 6 7 5 8 4 9 3 10 2 11 1 12 13 13
REMARK SMILES IDX 14 14 15 15 16 16 17 17 18 18 19 19 20 20 21 21 22 22 23 23
REMARK SMILES IDX 24 24
REMARK H PARENT
REMARK Flexibility Score: inf
ROOT
ATOM      1  C   UNL     1     -16.624  17.928 -20.197  1.00  0.00     0.000 C 
ENDROOT
BRANCH   1   2
ATOM      2  C   UNL     1     -15.992  16.677 -20.823  1.00  0.00     0.000 C 
BRANCH   2   3
ATOM      3  C   UNL     1     -14.647  16.345 -20.157  1.00  0.00     0.000 C 
BRANCH   3   4
ATOM      4  C   UNL     1     -14.254  17.351 -19.060  1.00  0.00    -0.000 C 
BRANCH   4   5
ATOM      5  C   UNL     1     -13.877  16.731 -17.702  1.00  0.00    -0.000 C 
BRANCH   5   6
ATOM      6  C   UNL     1     -14.753  15.522 -17.332  1.00  0.00    -0.000 C 
BRANCH   6   7
ATOM      7  C   UNL     1     -14.590  15.095 -15.861  1.00  0.00    -0.000 C 
BRANCH   7   8
ATOM      8  C   UNL     1     -15.904  14.820 -15.102  1.00  0.00    -0.000 C 
BRANCH   8   9
ATOM      9  C   UNL     1     -16.211  15.790 -13.947  1.00  0.00    -0.000 C 
BRANCH   9  10
ATOM     10  C   UNL     1     -14.951  16.477 -13.395  1.00  0.00    -0.000 C 
BRANCH  10  11
ATOM     11  C   UNL     1     -14.920  17.983 -13.698  1.00  0.00    -0.003 C 
ATOM     12  C   UNL     1     -13.617  18.432 -14.358  1.00  0.00     0.004 C 
ENDBRANCH  10  11
ENDBRANCH   9  10
ENDBRANCH   8   9
ENDBRANCH   7   8
ENDBRANCH   6   7
ENDBRANCH   5   6
ENDBRANCH   4   5
ENDBRANCH   3   4
ENDBRANCH   2   3
ENDBRANCH   1   2
BRANCH   1  13
ATOM     13  C   UNL     1     -18.150  17.805 -20.031  1.00  0.00     0.000 C 
BRANCH  13  14
ATOM     14  C   UNL     1     -18.637  16.458 -19.460  1.00  0.00     0.000 C 
BRANCH  14  15
ATOM     15  C   UNL     1     -18.198  16.166 -18.012  1.00  0.00     0.000 C 
BRANCH  15  16
ATOM     16  C   UNL     1     -19.125  16.745 -16.925  1.00  0.00     0.000 C 
BRANCH  16  17
ATOM     17  C   UNL     1     -18.603  18.022 -16.234  1.00  0.00     0.000 C 
BRANCH  17  18
ATOM     18  C   UNL     1     -17.119  18.336 -16.492  1.00  0.00     0.000 C 
BRANCH  18  19
ATOM     19  C   UNL     1     -16.913  19.689 -17.195  1.00  0.00     0.000 C 
BRANCH  19  20
ATOM     20  C   UNL     1     -15.469  20.200 -17.073  1.00  0.00     0.006 C 
BRANCH  20  21
ATOM     21  C   UNL     1     -15.342  21.687 -17.437  1.00  0.00     0.053 C 
BRANCH  21  22
ATOM     22  C   UNL     1     -13.954  22.175 -17.168  1.00  0.00     0.041 C 
ATOM     23  O   UNL     1     -12.963  21.447 -17.440  1.00  0.00    -0.550 OA
ATOM     24  O   UNL     1     -13.752  23.450 -16.654  1.00  0.00    -0.550 OA
ENDBRANCH  21  22
ENDBRANCH  20  21
ENDBRANCH  19  20
ENDBRANCH  18  19
ENDBRANCH  17  18
ENDBRANCH  16  17
ENDBRANCH  15  16
ENDBRANCH  14  15
ENDBRANCH  13  14
ENDBRANCH   1  13
TORSDOF 20
ENDMDL
MODEL 2
REMARK VINA RESULT:    -4.214      1.429      3.820
REMARK INTER + INTRA:         -13.184
REMARK INTER:                  -9.444
REMARK INTRA:                  -3.740
REMARK UNBOUND:                -4.044
REMARK SMILES CCCCCCCCCCCCCCCCCCCCCC(=O)[O-]
REMARK SMILES IDX 12 1 11 2 10 3 9 4 8 5 7 6 6 7 5 8 4 9 3 10 2 11 1 12 13 13
REMARK SMILES IDX 14 14 15 15 16 16 17 17 18 18 19 19 20 20 21 21 22 22 23 23
REMARK SMILES IDX 24 24
REMARK H PARENT
REMARK Flexibility Score: inf
ROOT
ATOM      1  C   UNL     1     -18.867  17.764 -15.320  1.00  0.00     0.000 C 
ENDROOT
BRANCH   1   2
ATOM      2  C   UNL     1     -19.624  17.645 -13.990  1.00  0.00     0.000 C 
BRANCH   2   3
ATOM      3  C   UNL     1     -18.660  17.716 -12.796  1.00  0.00     0.000 C 
BRANCH   3   4
ATOM      4  C   UNL     1     -17.244  17.215 -13.135  1.00  0.00    -0.000 C 
BRANCH   4   5
ATOM      5  C   UNL     1     -16.753  16.018 -12.300  1.00  0.00    -0.000 C 
BRANCH   5   6
ATOM      6  C   UNL     1     -16.617  14.727 -13.125  1.00  0.00    -0.000 C 
BRANCH   6   7
ATOM      7  C   UNL     1     -16.890  14.946 -14.624  1.00  0.00    -0.000 C 
BRANCH   7   8
ATOM      8  C   UNL     1     -15.824  14.374 -15.581  1.00  0.00    -0.000 C 
BRANCH   8   9
ATOM      9  C   UNL     1     -15.121  15.410 -16.478  1.00  0.00    -0.000 C 
BRANCH   9  10
ATOM     10  C   UNL     1     -15.067  16.809 -15.841  1.00  0.00    -0.000 C 
BRANCH  10  11
ATOM     11  C   UNL     1     -13.816  17.012 -14.972  1.00  0.00    -0.003 C 
ATOM     12  C   UNL     1     -13.866  18.297 -14.147  1.00  0.00     0.004 C 
ENDBRANCH  10  11
ENDBRANCH   9  10
ENDBRANCH   8   9
ENDBRANCH   7   8
ENDBRANCH   6   7
ENDBRANCH   5   6
ENDBRANCH   4   5
ENDBRANCH   3   4
ENDBRANCH   2   3
ENDBRANCH   1   2
BRANCH   1  13
ATOM     13  C   UNL     1     -19.706  17.309 -16.527  1.00  0.00     0.000 C 
BRANCH  13  14
ATOM     14  C   UNL     1     -19.517  15.833 -16.933  1.00  0.00     0.000 C 
BRANCH  14  15
ATOM     15  C   UNL     1     -18.528  15.597 -18.091  1.00  0.00     0.000 C 
BRANCH  15  16
ATOM     16  C   UNL     1     -18.339  16.799 -19.037  1.00  0.00     0.000 C 
BRANCH  16  17
ATOM     17  C   UNL     1     -16.919  17.402 -19.052  1.00  0.00     0.000 C 
BRANCH  17  18
ATOM     18  C   UNL     1     -16.869  18.937 -19.132  1.00  0.00     0.000 C 
BRANCH  18  19
ATOM     19  C   UNL     1     -17.057  19.610 -17.762  1.00  0.00     0.000 C 
BRANCH  19  20
ATOM     20  C   UNL     1     -16.107  20.801 -17.557  1.00  0.00     0.006 C 
BRANCH  20  21
ATOM     21  C   UNL     1     -14.719  20.364 -17.066  1.00  0.00     0.053 C 
BRANCH  21  22
ATOM     22  C   UNL     1     -13.883  21.559 -16.733  1.00  0.00     0.041 C 
ATOM     23  O   UNL     1     -14.213  22.700 -17.152  1.00  0.00    -0.550 OA
ATOM     24  O   UNL     1     -12.761  21.420 -15.924  1.00  0.00    -0.550 OA
ENDBRANCH  21  22
ENDBRANCH  20  21
ENDBRANCH  19  20
ENDBRANCH  18  19
ENDBRANCH  17  18
ENDBRANCH  16  17
ENDBRANCH  15  16
ENDBRANCH  14  15
ENDBRANCH  13  14
ENDBRANCH   1  13
TORSDOF 20
ENDMDL
MODEL 3
REMARK VINA RESULT:    -4.186     13.093     16.000
REMARK INTER + INTRA:         -13.124
REMARK INTER:                  -9.521
REMARK INTRA:                  -3.603
REMARK UNBOUND:                -4.044
REMARK SMILES CCCCCCCCCCCCCCCCCCCCCC(=O)[O-]
REMARK SMILES IDX 12 1 11 2 10 3 9 4 8 5 7 6 6 7 5 8 4 9 3 10 2 11 1 12 13 13
REMARK SMILES IDX 14 14 15 15 16 16 17 17 18 18 19 19 20 20 21 21 22 22 23 23
REMARK SMILES IDX 24 24
REMARK H PARENT
REMARK Flexibility Score: inf
ROOT
ATOM      1  C   UNL     1      -1.668   8.557  -9.030  1.00  0.00     0.000 C 
ENDROOT
BRANCH   1   2
ATOM      2  C   UNL     1      -3.169   8.248  -9.113  1.00  0.00     0.000 C 
BRANCH   2   3
ATOM      3  C   UNL     1      -3.997   9.541  -9.175  1.00  0.00     0.000 C 
BRANCH   3   4
ATOM      4  C   UNL     1      -5.122   9.486 -10.225  1.00  0.00    -0.000 C 
BRANCH   4   5
ATOM      5  C   UNL     1      -6.049  10.715 -10.261  1.00  0.00    -0.000 C 
BRANCH   5   6
ATOM      6  C   UNL     1      -5.922  11.522 -11.564  1.00  0.00    -0.000 C 
BRANCH   6   7
ATOM      7  C   UNL     1      -4.995  10.851 -12.594  1.00  0.00    -0.000 C 
BRANCH   7   8
ATOM      8  C   UNL     1      -4.147  11.815 -13.449  1.00  0.00    -0.000 C 
BRANCH   8   9
ATOM      9  C   UNL     1      -4.575  13.293 -13.394  1.00  0.00    -0.000 C 
BRANCH   9  10
ATOM     10  C   UNL     1      -3.581  14.228 -14.103  1.00  0.00    -0.000 C 
BRANCH  10  11
ATOM     11  C   UNL     1      -2.970  15.268 -13.152  1.00  0.00    -0.003 C 
ATOM     12  C   UNL     1      -3.998  15.886 -12.204  1.00  0.00     0.004 C 
ENDBRANCH  10  11
ENDBRANCH   9  10
ENDBRANCH   8   9
ENDBRANCH   7   8
ENDBRANCH   6   7
ENDBRANCH   5   6
ENDBRANCH   4   5
ENDBRANCH   3   4
ENDBRANCH   2   3
ENDBRANCH   1   2
BRANCH   1  13
ATOM     13  C   UNL     1      -1.370   9.875  -8.291  1.00  0.00     0.000 C 
BRANCH  13  14
ATOM     14  C   UNL     1      -0.494  10.876  -9.071  1.00  0.00     0.000 C 
BRANCH  14  15
ATOM     15  C   UNL     1      -0.767  10.939 -10.587  1.00  0.00     0.000 C 
BRANCH  15  16
ATOM     16  C   UNL     1      -1.696  12.085 -11.030  1.00  0.00     0.000 C 
BRANCH  16  17
ATOM     17  C   UNL     1      -1.953  13.168  -9.962  1.00  0.00     0.000 C 
BRANCH  17  18
ATOM     18  C   UNL     1      -3.435  13.395  -9.614  1.00  0.00     0.000 C 
BRANCH  18  19
ATOM     19  C   UNL     1      -3.781  12.960  -8.181  1.00  0.00     0.000 C 
BRANCH  19  20
ATOM     20  C   UNL     1      -3.982  14.156  -7.236  1.00  0.00     0.006 C 
BRANCH  20  21
ATOM     21  C   UNL     1      -5.224  13.997  -6.347  1.00  0.00     0.053 C 
BRANCH  21  22
ATOM     22  C   UNL     1      -6.426  14.582  -7.018  1.00  0.00     0.041 C 
ATOM     23  O   UNL     1      -7.283  13.828  -7.551  1.00  0.00    -0.550 OA
ATOM     24  O   UNL     1      -6.621  15.958  -7.021  1.00  0.00    -0.550 OA
ENDBRANCH  21  22
ENDBRANCH  20  21
ENDBRANCH  19  20
ENDBRANCH  18  19
ENDBRANCH  17  18
ENDBRANCH  16  17
ENDBRANCH  15  16
ENDBRANCH  14  15
ENDBRANCH  13  14
ENDBRANCH   1  13
TORSDOF 20
ENDMDL
MODEL 4
REMARK VINA RESULT:    -4.183     13.427     15.936
REMARK INTER + INTRA:         -13.118
REMARK INTER:                  -9.328
REMARK INTRA:                  -3.790
REMARK UNBOUND:                -4.044
REMARK SMILES CCCCCCCCCCCCCCCCCCCCCC(=O)[O-]
REMARK SMILES IDX 12 1 11 2 10 3 9 4 8 5 7 6 6 7 5 8 4 9 3 10 2 11 1 12 13 13
REMARK SMILES IDX 14 14 15 15 16 16 17 17 18 18 19 19 20 20 21 21 22 22 23 23
REMARK SMILES IDX 24 24
REMARK H PARENT
REMARK Flexibility Score: inf
ROOT
ATOM      1  C   UNL     1      -0.438  11.592 -11.286  1.00  0.00     0.000 C 
ENDROOT
BRANCH   1   2
ATOM      2  C   UNL     1      -0.478  11.907  -9.785  1.00  0.00     0.000 C 
BRANCH   2   3
ATOM      3  C   UNL     1      -0.808  10.650  -8.965  1.00  0.00     0.000 C 
BRANCH   3   4
ATOM      4  C   UNL     1      -1.543   9.573  -9.784  1.00  0.00    -0.000 C 
BRANCH   4   5
ATOM      5  C   UNL     1      -2.815   9.004  -9.131  1.00  0.00    -0.000 C 
BRANCH   5   6
ATOM      6  C   UNL     1      -4.106   9.621  -9.696  1.00  0.00    -0.000 C 
BRANCH   6   7
ATOM      7  C   UNL     1      -3.946  10.118 -11.144  1.00  0.00    -0.000 C 
BRANCH   7   8
ATOM      8  C   UNL     1      -4.650  11.451 -11.468  1.00  0.00    -0.000 C 
BRANCH   8   9
ATOM      9  C   UNL     1      -5.572  11.994 -10.360  1.00  0.00    -0.000 C 
BRANCH   9  10
ATOM     10  C   UNL     1      -5.247  13.447  -9.975  1.00  0.00    -0.000 C 
BRANCH  10  11
ATOM     11  C   UNL     1      -3.820  13.607  -9.429  1.00  0.00    -0.003 C 
ATOM     12  C   UNL     1      -3.625  12.944  -8.066  1.00  0.00     0.004 C 
ENDBRANCH  10  11
ENDBRANCH   9  10
ENDBRANCH   8   9
ENDBRANCH   7   8
ENDBRANCH   6   7
ENDBRANCH   5   6
ENDBRANCH   4   5
ENDBRANCH   3   4
ENDBRANCH   2   3
ENDBRANCH   1   2
BRANCH   1  13
ATOM     13  C   UNL     1      -1.264  12.585 -12.126  1.00  0.00     0.000 C 
BRANCH  13  14
ATOM     14  C   UNL     1      -0.557  13.920 -12.438  1.00  0.00     0.000 C 
BRANCH  14  15
ATOM     15  C   UNL     1      -1.428  15.178 -12.255  1.00  0.00     0.000 C 
BRANCH  15  16
ATOM     16  C   UNL     1      -2.900  15.014 -12.683  1.00  0.00     0.000 C 
BRANCH  16  17
ATOM     17  C   UNL     1      -3.251  15.615 -14.059  1.00  0.00     0.000 C 
BRANCH  17  18
ATOM     18  C   UNL     1      -3.709  14.592 -15.114  1.00  0.00     0.000 C 
BRANCH  18  19
ATOM     19  C   UNL     1      -3.911  13.185 -14.527  1.00  0.00     0.000 C 
BRANCH  19  20
ATOM     20  C   UNL     1      -4.045  12.108 -15.616  1.00  0.00     0.006 C 
BRANCH  20  21
ATOM     21  C   UNL     1      -3.224  10.850 -15.297  1.00  0.00     0.053 C 
BRANCH  21  22
ATOM     22  C   UNL     1      -2.586  10.314 -16.540  1.00  0.00     0.041 C 
ATOM     23  O   UNL     1      -1.360  10.503 -16.756  1.00  0.00    -0.550 OA
ATOM     24  O   UNL     1      -3.337   9.568 -17.442  1.00  0.00    -0.550 OA
ENDBRANCH  21  22
ENDBRANCH  20  21
ENDBRANCH  19  20
ENDBRANCH  18  19
ENDBRANCH  17  18
ENDBRANCH  16  17
ENDBRANCH  15  16
ENDBRANCH  14  15
ENDBRANCH  13  14
ENDBRANCH   1  13
TORSDOF 20
ENDMDL
MODEL 5
REMARK VINA RESULT:    -4.162      3.939      6.642
REMARK INTER + INTRA:         -13.073
REMARK INTER:                  -8.849
REMARK INTRA:                  -4.223
REMARK UNBOUND:                -4.044
REMARK SMILES CCCCCCCCCCCCCCCCCCCCCC(=O)[O-]
REMARK SMILES IDX 12 1 11 2 10 3 9 4 8 5 7 6 6 7 5 8 4 9 3 10 2 11 1 12 13 13
REMARK SMILES IDX 14 14 15 15 16 16 17 17 18 18 19 19 20 20 21 21 22 22 23 23
REMARK SMILES IDX 24 24
REMARK H PARENT
REMARK Flexibility Score: inf
ROOT
ATOM      1  C   UNL     1     -17.706  17.639 -13.589  1.00  0.00     0.000 C 
ENDROOT
BRANCH   1   2
ATOM      2  C   UNL     1     -17.069  16.633 -12.621  1.00  0.00     0.000 C 
BRANCH   2   3
ATOM      3  C   UNL     1     -15.571  16.455 -12.916  1.00  0.00     0.000 C 
BRANCH   3   4
ATOM      4  C   UNL     1     -15.005  17.551 -13.837  1.00  0.00    -0.000 C 
BRANCH   4   5
ATOM      5  C   UNL     1     -14.339  17.045 -15.130  1.00  0.00    -0.000 C 
BRANCH   5   6
ATOM      6  C   UNL     1     -15.197  17.294 -16.383  1.00  0.00    -0.000 C 
BRANCH   6   7
ATOM      7  C   UNL     1     -14.359  17.704 -17.607  1.00  0.00    -0.000 C 
BRANCH   7   8
ATOM      8  C   UNL     1     -15.052  17.526 -18.974  1.00  0.00    -0.000 C 
BRANCH   8   9
ATOM      9  C   UNL     1     -15.351  16.069 -19.374  1.00  0.00    -0.000 C 
BRANCH   9  10
ATOM     10  C   UNL     1     -14.087  15.193 -19.422  1.00  0.00    -0.000 C 
BRANCH  10  11
ATOM     11  C   UNL     1     -14.105  14.077 -18.367  1.00  0.00    -0.003 C 
ATOM     12  C   UNL     1     -12.919  14.147 -17.406  1.00  0.00     0.004 C 
ENDBRANCH  10  11
ENDBRANCH   9  10
ENDBRANCH   8   9
ENDBRANCH   7   8
ENDBRANCH   6   7
ENDBRANCH   5   6
ENDBRANCH   4   5
ENDBRANCH   3   4
ENDBRANCH   2   3
ENDBRANCH   1   2
BRANCH   1  13
ATOM     13  C   UNL     1     -19.228  17.451 -13.728  1.00  0.00     0.000 C 
BRANCH  13  14
ATOM     14  C   UNL     1     -19.711  17.069 -15.142  1.00  0.00     0.000 C 
BRANCH  14  15
ATOM     15  C   UNL     1     -18.945  17.742 -16.297  1.00  0.00     0.000 C 
BRANCH  15  16
ATOM     16  C   UNL     1     -18.510  16.788 -17.428  1.00  0.00     0.000 C 
BRANCH  16  17
ATOM     17  C   UNL     1     -18.771  15.292 -17.157  1.00  0.00     0.000 C 
BRANCH  17  18
ATOM     18  C   UNL     1     -17.508  14.449 -16.914  1.00  0.00     0.000 C 
BRANCH  18  19
ATOM     19  C   UNL     1     -17.179  14.291 -15.420  1.00  0.00     0.000 C 
BRANCH  19  20
ATOM     20  C   UNL     1     -15.859  13.539 -15.184  1.00  0.00     0.006 C 
BRANCH  20  21
ATOM     21  C   UNL     1     -16.081  12.056 -14.856  1.00  0.00     0.053 C 
BRANCH  21  22
ATOM     22  C   UNL     1     -16.058  11.235 -16.107  1.00  0.00     0.041 C 
ATOM     23  O   UNL     1     -14.960  10.882 -16.613  1.00  0.00    -0.550 OA
ATOM     24  O   UNL     1     -17.250  10.824 -16.691  1.00  0.00    -0.550 OA
ENDBRANCH  21  22
ENDBRANCH  20  21
ENDBRANCH  19  20
ENDBRANCH  18  19
ENDBRANCH  17  18
ENDBRANCH  16  17
ENDBRANCH  15  16
ENDBRANCH  14  15
ENDBRANCH  13  14
ENDBRANCH   1  13
TORSDOF 20
ENDMDL
MODEL 6
REMARK VINA RESULT:    -4.127     12.626     15.823
REMARK INTER + INTRA:         -12.996
REMARK INTER:                  -9.171
REMARK INTRA:                  -3.825
REMARK UNBOUND:                -4.044
REMARK SMILES CCCCCCCCCCCCCCCCCCCCCC(=O)[O-]
REMARK SMILES IDX 12 1 11 2 10 3 9 4 8 5 7 6 6 7 5 8 4 9 3 10 2 11 1 12 13 13
REMARK SMILES IDX 14 14 15 15 16 16 17 17 18 18 19 19 20 20 21 21 22 22 23 23
REMARK SMILES IDX 24 24
REMARK H PARENT
REMARK Flexibility Score: inf
ROOT
ATOM      1  C   UNL     1      -0.918  12.804 -10.118  1.00  0.00     0.000 C 
ENDROOT
BRANCH   1   2
ATOM      2  C   UNL     1      -1.871  13.619 -11.003  1.00  0.00     0.000 C 
BRANCH   2   3
ATOM      3  C   UNL     1      -3.253  13.758 -10.347  1.00  0.00     0.000 C 
BRANCH   3   4
ATOM      4  C   UNL     1      -3.201  13.672  -8.810  1.00  0.00    -0.000 C 
BRANCH   4   5
ATOM      5  C   UNL     1      -4.554  13.419  -8.119  1.00  0.00    -0.000 C 
BRANCH   5   6
ATOM      6  C   UNL     1      -4.740  14.257  -6.843  1.00  0.00    -0.000 C 
BRANCH   6   7
ATOM      7  C   UNL     1      -6.198  14.705  -6.631  1.00  0.00    -0.000 C 
BRANCH   7   8
ATOM      8  C   UNL     1      -7.153  14.429  -7.811  1.00  0.00    -0.000 C 
BRANCH   8   9
ATOM      9  C   UNL     1      -7.575  15.669  -8.620  1.00  0.00    -0.000 C 
BRANCH   9  10
ATOM     10  C   UNL     1      -7.411  15.474 -10.137  1.00  0.00    -0.000 C 
BRANCH  10  11
ATOM     11  C   UNL     1      -7.083  14.021 -10.512  1.00  0.00    -0.003 C 
ATOM     12  C   UNL     1      -6.673  13.861 -11.975  1.00  0.00     0.004 C 
ENDBRANCH  10  11
ENDBRANCH   9  10
ENDBRANCH   8   9
ENDBRANCH   7   8
ENDBRANCH   6   7
ENDBRANCH   5   6
ENDBRANCH   4   5
ENDBRANCH   3   4
ENDBRANCH   2   3
ENDBRANCH   1   2
BRANCH   1  13
ATOM     13  C   UNL     1      -0.490  11.476 -10.768  1.00  0.00     0.000 C 
BRANCH  13  14
ATOM     14  C   UNL     1      -0.756  10.218  -9.917  1.00  0.00     0.000 C 
BRANCH  14  15
ATOM     15  C   UNL     1      -1.328  10.490  -8.512  1.00  0.00     0.000 C 
BRANCH  15  16
ATOM     16  C   UNL     1      -2.807  10.098  -8.328  1.00  0.00     0.000 C 
BRANCH  16  17
ATOM     17  C   UNL     1      -3.391   9.209  -9.445  1.00  0.00     0.000 C 
BRANCH  17  18
ATOM     18  C   UNL     1      -4.817   9.581  -9.888  1.00  0.00     0.000 C 
BRANCH  18  19
ATOM     19  C   UNL     1      -4.838  10.706 -10.936  1.00  0.00     0.000 C 
BRANCH  19  20
ATOM     20  C   UNL     1      -3.786  10.502 -12.039  1.00  0.00     0.006 C 
BRANCH  20  21
ATOM     21  C   UNL     1      -4.240  11.068 -13.392  1.00  0.00     0.053 C 
BRANCH  21  22
ATOM     22  C   UNL     1      -3.105  11.067 -14.366  1.00  0.00     0.041 C 
ATOM     23  O   UNL     1      -1.918  11.172 -13.956  1.00  0.00    -0.550 OA
ATOM     24  O   UNL     1      -3.353  10.910 -15.724  1.00  0.00    -0.550 OA
ENDBRANCH  21  22
ENDBRANCH  20  21
ENDBRANCH  19  20
ENDBRANCH  18  19
ENDBRANCH  17  18
ENDBRANCH  16  17
ENDBRANCH  15  16
ENDBRANCH  14  15
ENDBRANCH  13  14
ENDBRANCH   1  13
TORSDOF 20
ENDMDL
MODEL 7
REMARK VINA RESULT:    -4.100     13.159     15.848
REMARK INTER + INTRA:         -12.938
REMARK INTER:                  -9.265
REMARK INTRA:                  -3.672
REMARK UNBOUND:                -4.044
REMARK SMILES CCCCCCCCCCCCCCCCCCCCCC(=O)[O-]
REMARK SMILES IDX 12 1 11 2 10 3 9 4 8 5 7 6 6 7 5 8 4 9 3 10 2 11 1 12 13 13
REMARK SMILES IDX 14 14 15 15 16 16 17 17 18 18 19 19 20 20 21 21 22 22 23 23
REMARK SMILES IDX 24 24
REMARK H PARENT
REMARK Flexibility Score: inf
ROOT
ATOM      1  C   UNL     1      -0.865  14.238 -11.660  1.00  0.00     0.000 C 
ENDROOT
BRANCH   1   2
ATOM      2  C   UNL     1       0.047  13.090 -12.113  1.00  0.00     0.000 C 
BRANCH   2   3
ATOM      3  C   UNL     1      -0.313  11.781 -11.391  1.00  0.00     0.000 C 
BRANCH   3   4
ATOM      4  C   UNL     1      -0.046  11.838  -9.875  1.00  0.00    -0.000 C 
BRANCH   4   5
ATOM      5  C   UNL     1      -0.222  10.503  -9.127  1.00  0.00    -0.000 C 
BRANCH   5   6
ATOM      6  C   UNL     1      -1.187   9.539  -9.838  1.00  0.00    -0.000 C 
BRANCH   6   7
ATOM      7  C   UNL     1      -2.624   9.624  -9.292  1.00  0.00    -0.000 C 
BRANCH   7   8
ATOM      8  C   UNL     1      -3.685  10.123 -10.295  1.00  0.00    -0.000 C 
BRANCH   8   9
ATOM      9  C   UNL     1      -4.460  11.381  -9.860  1.00  0.00    -0.000 C 
BRANCH   9  10
ATOM     10  C   UNL     1      -3.569  12.632  -9.780  1.00  0.00    -0.000 C 
BRANCH  10  11
ATOM     11  C   UNL     1      -4.351  13.886  -9.362  1.00  0.00    -0.003 C 
ATOM     12  C   UNL     1      -5.460  14.253 -10.347  1.00  0.00     0.004 C 
ENDBRANCH  10  11
ENDBRANCH   9  10
ENDBRANCH   8   9
ENDBRANCH   7   8
ENDBRANCH   6   7
ENDBRANCH   5   6
ENDBRANCH   4   5
ENDBRANCH   3   4
ENDBRANCH   2   3
ENDBRANCH   1   2
BRANCH   1  13
ATOM     13  C   UNL     1      -1.086  15.292 -12.761  1.00  0.00     0.000 C 
BRANCH  13  14
ATOM     14  C   UNL     1      -2.241  16.279 -12.495  1.00  0.00     0.000 C 
BRANCH  14  15
ATOM     15  C   UNL     1      -3.608  15.852 -13.062  1.00  0.00     0.000 C 
BRANCH  15  16
ATOM     16  C   UNL     1      -3.642  15.650 -14.590  1.00  0.00     0.000 C 
BRANCH  16  17
ATOM     17  C   UNL     1      -3.860  14.194 -15.051  1.00  0.00     0.000 C 
BRANCH  17  18
ATOM     18  C   UNL     1      -4.444  13.257 -13.980  1.00  0.00     0.000 C 
BRANCH  18  19
ATOM     19  C   UNL     1      -3.387  12.319 -13.373  1.00  0.00     0.000 C 
BRANCH  19  20
ATOM     20  C   UNL     1      -3.518  10.875 -13.887  1.00  0.00     0.006 C 
BRANCH  20  21
ATOM     21  C   UNL     1      -2.277  10.418 -14.668  1.00  0.00     0.053 C 
BRANCH  21  22
ATOM     22  C   UNL     1      -2.552  10.429 -16.138  1.00  0.00     0.041 C 
ATOM     23  O   UNL     1      -1.599  10.451 -16.961  1.00  0.00    -0.550 OA
ATOM     24  O   UNL     1      -3.861  10.372 -16.602  1.00  0.00    -0.550 OA
ENDBRANCH  21  22
ENDBRANCH  20  21
ENDBRANCH  19  20
ENDBRANCH  18  19
ENDBRANCH  17  18
ENDBRANCH  16  17
ENDBRANCH  15  16
ENDBRANCH  14  15
ENDBRANCH  13  14
ENDBRANCH   1  13
TORSDOF 20
ENDMDL
MODEL 8
REMARK VINA RESULT:    -4.095      3.409      5.946
REMARK INTER + INTRA:         -12.925
REMARK INTER:                  -8.889
REMARK INTRA:                  -4.037
REMARK UNBOUND:                -4.044
REMARK SMILES CCCCCCCCCCCCCCCCCCCCCC(=O)[O-]
REMARK SMILES IDX 12 1 11 2 10 3 9 4 8 5 7 6 6 7 5 8 4 9 3 10 2 11 1 12 13 13
REMARK SMILES IDX 14 14 15 15 16 16 17 17 18 18 19 19 20 20 21 21 22 22 23 23
REMARK SMILES IDX 24 24
REMARK H PARENT
REMARK Flexibility Score: inf
ROOT
ATOM      1  C   UNL     1     -13.428  16.888 -17.834  1.00  0.00     0.000 C 
ENDROOT
BRANCH   1   2
ATOM      2  C   UNL     1     -14.254  16.196 -18.927  1.00  0.00     0.000 C 
BRANCH   2   3
ATOM      3  C   UNL     1     -14.882  17.225 -19.880  1.00  0.00     0.000 C 
BRANCH   3   4
ATOM      4  C   UNL     1     -16.385  17.442 -19.627  1.00  0.00    -0.000 C 
BRANCH   4   5
ATOM      5  C   UNL     1     -16.785  18.876 -19.233  1.00  0.00    -0.000 C 
BRANCH   5   6
ATOM      6  C   UNL     1     -17.180  19.003 -17.752  1.00  0.00    -0.000 C 
BRANCH   6   7
ATOM      7  C   UNL     1     -16.218  19.902 -16.954  1.00  0.00    -0.000 C 
BRANCH   7   8
ATOM      8  C   UNL     1     -15.705  21.151 -17.701  1.00  0.00    -0.000 C 
BRANCH   8   9
ATOM      9  C   UNL     1     -14.291  21.618 -17.308  1.00  0.00    -0.000 C 
BRANCH   9  10
ATOM     10  C   UNL     1     -13.571  20.623 -16.383  1.00  0.00    -0.000 C 
BRANCH  10  11
ATOM     11  C   UNL     1     -12.197  20.203 -16.927  1.00  0.00    -0.003 C 
ATOM     12  C   UNL     1     -12.123  20.240 -18.453  1.00  0.00     0.004 C 
ENDBRANCH  10  11
ENDBRANCH   9  10
ENDBRANCH   8   9
ENDBRANCH   7   8
ENDBRANCH   6   7
ENDBRANCH   5   6
ENDBRANCH   4   5
ENDBRANCH   3   4
ENDBRANCH   2   3
ENDBRANCH   1   2
BRANCH   1  13
ATOM     13  C   UNL     1     -14.147  16.919 -16.473  1.00  0.00     0.000 C 
BRANCH  13  14
ATOM     14  C   UNL     1     -13.216  16.902 -15.243  1.00  0.00     0.000 C 
BRANCH  14  15
ATOM     15  C   UNL     1     -13.912  17.167 -13.894  1.00  0.00     0.000 C 
BRANCH  15  16
ATOM     16  C   UNL     1     -15.189  18.026 -13.982  1.00  0.00     0.000 C 
BRANCH  16  17
ATOM     17  C   UNL     1     -16.475  17.337 -13.481  1.00  0.00     0.000 C 
BRANCH  17  18
ATOM     18  C   UNL     1     -17.613  17.263 -14.514  1.00  0.00     0.000 C 
BRANCH  18  19
ATOM     19  C   UNL     1     -17.859  15.833 -15.023  1.00  0.00     0.000 C 
BRANCH  19  20
ATOM     20  C   UNL     1     -17.619  15.697 -16.536  1.00  0.00     0.006 C 
BRANCH  20  21
ATOM     21  C   UNL     1     -16.838  14.423 -16.891  1.00  0.00     0.053 C 
BRANCH  21  22
ATOM     22  C   UNL     1     -17.762  13.250 -16.974  1.00  0.00     0.041 C 
ATOM     23  O   UNL     1     -17.493  12.186 -16.355  1.00  0.00    -0.550 OA
ATOM     24  O   UNL     1     -18.944  13.343 -17.700  1.00  0.00    -0.550 OA
ENDBRANCH  21  22
ENDBRANCH  20  21
ENDBRANCH  19  20
ENDBRANCH  18  19
ENDBRANCH  17  18
ENDBRANCH  16  17
ENDBRANCH  15  16
ENDBRANCH  14  15
ENDBRANCH  13  14
ENDBRANCH   1  13
TORSDOF 20
ENDMDL
MODEL 9
REMARK VINA RESULT:    -4.088     13.024     15.965
REMARK INTER + INTRA:         -12.910
REMARK INTER:                  -9.357
REMARK INTRA:                  -3.553
REMARK UNBOUND:                -4.044
REMARK SMILES CCCCCCCCCCCCCCCCCCCCCC(=O)[O-]
REMARK SMILES IDX 12 1 11 2 10 3 9 4 8 5 7 6 6 7 5 8 4 9 3 10 2 11 1 12 13 13
REMARK SMILES IDX 14 14 15 15 16 16 17 17 18 18 19 19 20 20 21 21 22 22 23 23
REMARK SMILES IDX 24 24
REMARK H PARENT
REMARK Flexibility Score: inf
ROOT
ATOM      1  C   UNL     1      -1.049  11.028 -10.713  1.00  0.00     0.000 C 
ENDROOT
BRANCH   1   2
ATOM      2  C   UNL     1      -0.543  12.246 -11.499  1.00  0.00     0.000 C 
BRANCH   2   3
ATOM      3  C   UNL     1      -1.432  13.474 -11.248  1.00  0.00     0.000 C 
BRANCH   3   4
ATOM      4  C   UNL     1      -1.307  14.542 -12.351  1.00  0.00    -0.000 C 
BRANCH   4   5
ATOM      5  C   UNL     1      -2.465  15.554 -12.420  1.00  0.00    -0.000 C 
BRANCH   5   6
ATOM      6  C   UNL     1      -3.545  15.162 -13.443  1.00  0.00    -0.000 C 
BRANCH   6   7
ATOM      7  C   UNL     1      -4.707  14.375 -12.810  1.00  0.00    -0.000 C 
BRANCH   7   8
ATOM      8  C   UNL     1      -4.859  12.917 -13.291  1.00  0.00    -0.000 C 
BRANCH   8   9
ATOM      9  C   UNL     1      -3.651  12.348 -14.058  1.00  0.00    -0.000 C 
BRANCH   9  10
ATOM     10  C   UNL     1      -3.362  10.879 -13.708  1.00  0.00    -0.000 C 
BRANCH  10  11
ATOM     11  C   UNL     1      -2.171  10.310 -14.494  1.00  0.00    -0.003 C 
ATOM     12  C   UNL     1      -2.481  10.098 -15.975  1.00  0.00     0.004 C 
ENDBRANCH  10  11
ENDBRANCH   9  10
ENDBRANCH   8   9
ENDBRANCH   7   8
ENDBRANCH   6   7
ENDBRANCH   5   6
ENDBRANCH   4   5
ENDBRANCH   3   4
ENDBRANCH   2   3
ENDBRANCH   1   2
BRANCH   1  13
ATOM     13  C   UNL     1      -1.133  11.289  -9.198  1.00  0.00     0.000 C 
BRANCH  13  14
ATOM     14  C   UNL     1      -1.497  10.058  -8.344  1.00  0.00     0.000 C 
BRANCH  14  15
ATOM     15  C   UNL     1      -2.021   8.845  -9.137  1.00  0.00     0.000 C 
BRANCH  15  16
ATOM     16  C   UNL     1      -3.554   8.685  -9.136  1.00  0.00     0.000 C 
BRANCH  16  17
ATOM     17  C   UNL     1      -4.285   9.378 -10.304  1.00  0.00     0.000 C 
BRANCH  17  18
ATOM     18  C   UNL     1      -5.284  10.470  -9.885  1.00  0.00     0.000 C 
BRANCH  18  19
ATOM     19  C   UNL     1      -4.658  11.874  -9.871  1.00  0.00     0.000 C 
BRANCH  19  20
ATOM     20  C   UNL     1      -5.667  12.964  -9.474  1.00  0.00     0.006 C 
BRANCH  20  21
ATOM     21  C   UNL     1      -4.982  14.216  -8.907  1.00  0.00     0.053 C 
BRANCH  21  22
ATOM     22  C   UNL     1      -5.376  14.426  -7.479  1.00  0.00     0.041 C 
ATOM     23  O   UNL     1      -4.741  13.851  -6.556  1.00  0.00    -0.550 OA
ATOM     24  O   UNL     1      -6.419  15.290  -7.164  1.00  0.00    -0.550 OA
ENDBRANCH  21  22
ENDBRANCH  20  21
ENDBRANCH  19  20
ENDBRANCH  18  19
ENDBRANCH  17  18
ENDBRANCH  16  17
ENDBRANCH  15  16
ENDBRANCH  14  15
ENDBRANCH  13  14
ENDBRANCH   1  13
TORSDOF 20
ENDMDL
