MODEL 1
REMARK VINA RESULT:    -5.576      0.000      0.000
REMARK INTER + INTRA:          -7.068
REMARK INTER:                  -6.716
REMARK INTRA:                  -0.352
REMARK UNBOUND:                -0.352
REMARK SMILES Oc1cc(O)c2cc(O)c(-c3ccc(O)c(O)c3)[o+]c2c1
REMARK SMILES IDX 10 1 19 2 20 3 21 4 2 5 3 6 4 7 6 8 7 9 8 10 11 11 12 12
REMARK SMILES IDX 13 13 14 14 18 15 16 16 15 17 17 19 9 21 1 23 5 25
REMARK H PARENT 15 18 17 20 9 22 1 24 5 26
REMARK Flexibility Score: inf
ROOT
ATOM      1  C   UNL     1     125.443 133.097 111.534  1.00  0.00     0.402 A 
ATOM      2  O   UNL     1     125.692 134.356 111.186  1.00  0.00    -0.202 OA
ATOM      3  C   UNL     1     126.909 134.805 110.891  1.00  0.00     0.368 A 
ATOM      4  C   UNL     1     127.071 136.147 110.538  1.00  0.00     0.162 A 
ATOM      5  C   UNL     1     128.340 136.645 110.227  1.00  0.00     0.128 A 
ATOM      6  C   UNL     1     129.450 135.798 110.270  1.00  0.00     0.093 A 
ATOM      7  C   UNL     1     129.313 134.450 110.621  1.00  0.00     0.136 A 
ATOM      8  C   UNL     1     128.028 133.938 110.935  1.00  0.00     0.125 A 
ATOM      9  C   UNL     1     127.794 132.598 111.285  1.00  0.00     0.078 A 
ATOM     10  C   UNL     1     126.497 132.165 111.577  1.00  0.00     0.223 A 
ENDROOT
BRANCH   1  11
ATOM     11  C   UNL     1     124.046 132.721 111.849  1.00  0.00     0.087 A 
ATOM     12  C   UNL     1     123.559 132.742 113.168  1.00  0.00     0.022 A 
ATOM     13  C   UNL     1     122.230 132.405 113.436  1.00  0.00     0.051 A 
ATOM     14  C   UNL     1     121.364 132.056 112.392  1.00  0.00     0.157 A 
ATOM     15  C   UNL     1     123.168 132.389 110.803  1.00  0.00     0.068 A 
ATOM     16  C   UNL     1     121.836 132.051 111.068  1.00  0.00     0.158 A 
BRANCH  14  17
ATOM     17  O   UNL     1     120.040 131.717 112.663  1.00  0.00    -0.504 OA
ATOM     18  H   UNL     1     119.313 132.422 112.719  1.00  0.00     0.293 HD
ENDBRANCH  14  17
BRANCH  16  19
ATOM     19  O   UNL     1     120.998 131.714 110.006  1.00  0.00    -0.504 OA
ATOM     20  H   UNL     1     120.990 132.238 109.139  1.00  0.00     0.293 HD
ENDBRANCH  16  19
ENDBRANCH   1  11
BRANCH  10  21
ATOM     21  O   UNL     1     126.257 130.824 111.874  1.00  0.00    -0.500 OA
ATOM     22  H   UNL     1     125.588 130.546 112.583  1.00  0.00     0.294 HD
ENDBRANCH  10  21
BRANCH   5  23
ATOM     23  O   UNL     1     128.509 137.982 109.874  1.00  0.00    -0.507 OA
ATOM     24  H   UNL     1     127.721 138.569 109.628  1.00  0.00     0.293 HD
ENDBRANCH   5  23
BRANCH   7  25
ATOM     25  O   UNL     1     130.473 133.670 110.644  1.00  0.00    -0.507 OA
ATOM     26  H   UNL     1     131.406 134.031 110.514  1.00  0.00     0.293 HD
ENDBRANCH   7  25
TORSDOF 6
ENDMDL
MODEL 2
REMARK VINA RESULT:    -5.563      2.033      7.002
REMARK INTER + INTRA:          -7.053
REMARK INTER:                  -6.763
REMARK INTRA:                  -0.290
REMARK UNBOUND:                -0.352
REMARK SMILES Oc1cc(O)c2cc(O)c(-c3ccc(O)c(O)c3)[o+]c2c1
REMARK SMILES IDX 10 1 19 2 20 3 21 4 2 5 3 6 4 7 6 8 7 9 8 10 11 11 12 12
REMARK SMILES IDX 13 13 14 14 18 15 16 16 15 17 17 19 9 21 1 23 5 25
REMARK H PARENT 15 18 17 20 9 22 1 24 5 26
REMARK Flexibility Score: inf
ROOT
ATOM      1  C   UNL     1     123.859 132.366 111.647  1.00  0.00     0.402 A 
ATOM      2  O   UNL     1     123.127 133.081 110.799  1.00  0.00    -0.202 OA
ATOM      3  C   UNL     1     121.799 133.133 110.843  1.00  0.00     0.368 A 
ATOM      4  C   UNL     1     121.117 133.912 109.906  1.00  0.00     0.162 A 
ATOM      5  C   UNL     1     119.721 133.981 109.929  1.00  0.00     0.128 A 
ATOM      6  C   UNL     1     119.004 133.267 110.891  1.00  0.00     0.093 A 
ATOM      7  C   UNL     1     119.664 132.478 111.841  1.00  0.00     0.136 A 
ATOM      8  C   UNL     1     121.081 132.406 111.825  1.00  0.00     0.125 A 
ATOM      9  C   UNL     1     121.828 131.653 112.746  1.00  0.00     0.078 A 
ATOM     10  C   UNL     1     123.224 131.635 112.669  1.00  0.00     0.223 A 
ENDROOT
BRANCH   1  11
ATOM     11  C   UNL     1     125.331 132.381 111.489  1.00  0.00     0.087 A 
ATOM     12  C   UNL     1     126.029 131.261 111.005  1.00  0.00     0.022 A 
ATOM     13  C   UNL     1     127.416 131.309 110.843  1.00  0.00     0.051 A 
ATOM     14  C   UNL     1     128.124 132.479 111.147  1.00  0.00     0.157 A 
ATOM     15  C   UNL     1     126.043 133.558 111.773  1.00  0.00     0.068 A 
ATOM     16  C   UNL     1     127.432 133.610 111.613  1.00  0.00     0.158 A 
BRANCH  14  17
ATOM     17  O   UNL     1     129.508 132.522 110.986  1.00  0.00    -0.504 OA
ATOM     18  H   UNL     1     129.977 131.970 110.278  1.00  0.00     0.293 HD
ENDBRANCH  14  17
BRANCH  16  19
ATOM     19  O   UNL     1     128.107 134.792 111.919  1.00  0.00    -0.504 OA
ATOM     20  H   UNL     1     127.621 135.671 112.049  1.00  0.00     0.293 HD
ENDBRANCH  16  19
ENDBRANCH   1  11
BRANCH  10  21
ATOM     21  O   UNL     1     123.967 130.928 113.614  1.00  0.00    -0.500 OA
ATOM     22  H   UNL     1     124.120 131.286 114.549  1.00  0.00     0.294 HD
ENDBRANCH  10  21
BRANCH   5  23
ATOM     23  O   UNL     1     119.034 134.757 108.996  1.00  0.00    -0.507 OA
ATOM     24  H   UNL     1     118.777 134.390 108.088  1.00  0.00     0.293 HD
ENDBRANCH   5  23
BRANCH   7  25
ATOM     25  O   UNL     1     118.875 131.792 112.769  1.00  0.00    -0.507 OA
ATOM     26  H   UNL     1     119.240 131.215 113.512  1.00  0.00     0.293 HD
ENDBRANCH   7  25
TORSDOF 6
ENDMDL
MODEL 3
REMARK VINA RESULT:    -5.353      1.701      7.149
REMARK INTER + INTRA:          -6.800
REMARK INTER:                  -6.501
REMARK INTRA:                  -0.300
REMARK UNBOUND:                -0.352
REMARK SMILES Oc1cc(O)c2cc(O)c(-c3ccc(O)c(O)c3)[o+]c2c1
REMARK SMILES IDX 10 1 19 2 20 3 21 4 2 5 3 6 4 7 6 8 7 9 8 10 11 11 12 12
REMARK SMILES IDX 13 13 14 14 18 15 16 16 15 17 17 19 9 21 1 23 5 25
REMARK H PARENT 15 18 17 20 9 22 1 24 5 26
REMARK Flexibility Score: inf
ROOT
ATOM      1  C   UNL     1     124.473 132.620 110.412  1.00  0.00     0.402 A 
ATOM      2  O   UNL     1     123.524 132.720 111.338  1.00  0.00    -0.202 OA
ATOM      3  C   UNL     1     122.270 132.325 111.143  1.00  0.00     0.368 A 
ATOM      4  C   UNL     1     121.343 132.474 112.178  1.00  0.00     0.162 A 
ATOM      5  C   UNL     1     120.016 132.069 111.998  1.00  0.00     0.128 A 
ATOM      6  C   UNL     1     119.616 131.516 110.780  1.00  0.00     0.093 A 
ATOM      7  C   UNL     1     120.526 131.358 109.728  1.00  0.00     0.136 A 
ATOM      8  C   UNL     1     121.874 131.763 109.905  1.00  0.00     0.125 A 
ATOM      9  C   UNL     1     122.858 131.630 108.912  1.00  0.00     0.078 A 
ATOM     10  C   UNL     1     124.168 132.049 109.162  1.00  0.00     0.223 A 
ENDROOT
BRANCH   1  11
ATOM     11  C   UNL     1     125.832 133.105 110.746  1.00  0.00     0.087 A 
ATOM     12  C   UNL     1     126.872 132.213 111.062  1.00  0.00     0.022 A 
ATOM     13  C   UNL     1     128.151 132.695 111.352  1.00  0.00     0.051 A 
ATOM     14  C   UNL     1     128.415 134.070 111.315  1.00  0.00     0.157 A 
ATOM     15  C   UNL     1     126.107 134.481 110.691  1.00  0.00     0.068 A 
ATOM     16  C   UNL     1     127.387 134.967 110.980  1.00  0.00     0.158 A 
BRANCH  14  17
ATOM     17  O   UNL     1     129.692 134.547 111.606  1.00  0.00    -0.504 OA
ATOM     18  H   UNL     1     129.859 135.178 112.382  1.00  0.00     0.293 HD
ENDBRANCH  14  17
BRANCH  16  19
ATOM     19  O   UNL     1     127.618 136.342 110.928  1.00  0.00    -0.504 OA
ATOM     20  H   UNL     1     128.553 136.729 110.875  1.00  0.00     0.293 HD
ENDBRANCH  16  19
ENDBRANCH   1  11
BRANCH  10  21
ATOM     21  O   UNL     1     125.156 131.871 108.194  1.00  0.00    -0.500 OA
ATOM     22  H   UNL     1     125.391 132.600 107.531  1.00  0.00     0.294 HD
ENDBRANCH  10  21
BRANCH   5  23
ATOM     23  O   UNL     1     119.086 132.214 113.026  1.00  0.00    -0.507 OA
ATOM     24  H   UNL     1     118.622 131.413 113.437  1.00  0.00     0.293 HD
ENDBRANCH   5  23
BRANCH   7  25
ATOM     25  O   UNL     1     120.046 130.799 108.540  1.00  0.00    -0.507 OA
ATOM     26  H   UNL     1     119.069 130.647 108.334  1.00  0.00     0.293 HD
ENDBRANCH   7  25
TORSDOF 6
ENDMDL
MODEL 4
REMARK VINA RESULT:    -5.288      1.848      7.301
REMARK INTER + INTRA:          -6.722
REMARK INTER:                  -6.385
REMARK INTRA:                  -0.338
REMARK UNBOUND:                -0.352
REMARK SMILES Oc1cc(O)c2cc(O)c(-c3ccc(O)c(O)c3)[o+]c2c1
REMARK SMILES IDX 10 1 19 2 20 3 21 4 2 5 3 6 4 7 6 8 7 9 8 10 11 11 12 12
REMARK SMILES IDX 13 13 14 14 18 15 16 16 15 17 17 19 9 21 1 23 5 25
REMARK H PARENT 15 18 17 20 9 22 1 24 5 26
REMARK Flexibility Score: inf
ROOT
ATOM      1  C   UNL     1     126.234 134.834 110.334  1.00  0.00     0.402 A 
ATOM      2  O   UNL     1     126.023 133.972 111.323  1.00  0.00    -0.202 OA
ATOM      3  C   UNL     1     124.897 133.279 111.461  1.00  0.00     0.368 A 
ATOM      4  C   UNL     1     124.769 132.397 112.537  1.00  0.00     0.162 A 
ATOM      5  C   UNL     1     123.593 131.659 112.706  1.00  0.00     0.128 A 
ATOM      6  C   UNL     1     122.542 131.805 111.798  1.00  0.00     0.093 A 
ATOM      7  C   UNL     1     122.647 132.683 110.712  1.00  0.00     0.136 A 
ATOM      8  C   UNL     1     123.838 133.432 110.533  1.00  0.00     0.125 A 
ATOM      9  C   UNL     1     124.037 134.325 109.467  1.00  0.00     0.078 A 
ATOM     10  C   UNL     1     125.241 135.026 109.354  1.00  0.00     0.223 A 
ENDROOT
BRANCH   1  11
ATOM     11  C   UNL     1     127.528 135.554 110.294  1.00  0.00     0.087 A 
ATOM     12  C   UNL     1     128.667 134.983 109.699  1.00  0.00     0.022 A 
ATOM     13  C   UNL     1     129.870 135.692 109.654  1.00  0.00     0.051 A 
ATOM     14  C   UNL     1     129.951 136.984 110.190  1.00  0.00     0.157 A 
ATOM     15  C   UNL     1     127.609 136.857 110.812  1.00  0.00     0.068 A 
ATOM     16  C   UNL     1     128.813 137.569 110.770  1.00  0.00     0.158 A 
BRANCH  14  17
ATOM     17  O   UNL     1     131.154 137.686 110.146  1.00  0.00    -0.504 OA
ATOM     18  H   UNL     1     132.032 137.253 110.410  1.00  0.00     0.293 HD
ENDBRANCH  14  17
BRANCH  16  19
ATOM     19  O   UNL     1     128.859 138.856 111.306  1.00  0.00    -0.504 OA
ATOM     20  H   UNL     1     128.714 139.682 110.737  1.00  0.00     0.293 HD
ENDBRANCH  16  19
ENDBRANCH   1  11
BRANCH  10  21
ATOM     21  O   UNL     1     125.458 135.874 108.269  1.00  0.00    -0.500 OA
ATOM     22  H   UNL     1     126.174 136.592 108.287  1.00  0.00     0.294 HD
ENDBRANCH  10  21
BRANCH   5  23
ATOM     23  O   UNL     1     123.458 130.778 113.777  1.00  0.00    -0.507 OA
ATOM     24  H   UNL     1     122.555 130.409 114.049  1.00  0.00     0.293 HD
ENDBRANCH   5  23
BRANCH   7  25
ATOM     25  O   UNL     1     121.550 132.774 109.850  1.00  0.00    -0.507 OA
ATOM     26  H   UNL     1     121.613 133.001 108.869  1.00  0.00     0.293 HD
ENDBRANCH   7  25
TORSDOF 6
ENDMDL
MODEL 5
REMARK VINA RESULT:    -5.286      1.709      6.913
REMARK INTER + INTRA:          -6.720
REMARK INTER:                  -6.506
REMARK INTRA:                  -0.214
REMARK UNBOUND:                -0.352
REMARK SMILES Oc1cc(O)c2cc(O)c(-c3ccc(O)c(O)c3)[o+]c2c1
REMARK SMILES IDX 10 1 19 2 20 3 21 4 2 5 3 6 4 7 6 8 7 9 8 10 11 11 12 12
REMARK SMILES IDX 13 13 14 14 18 15 16 16 15 17 17 19 9 21 1 23 5 25
REMARK H PARENT 15 18 17 20 9 22 1 24 5 26
REMARK Flexibility Score: inf
ROOT
ATOM      1  C   UNL     1     125.669 134.339 110.646  1.00  0.00     0.402 A 
ATOM      2  O   UNL     1     124.362 134.292 110.408  1.00  0.00    -0.202 OA
ATOM      3  C   UNL     1     123.533 133.473 111.048  1.00  0.00     0.368 A 
ATOM      4  C   UNL     1     122.173 133.495 110.726  1.00  0.00     0.162 A 
ATOM      5  C   UNL     1     121.280 132.641 111.381  1.00  0.00     0.128 A 
ATOM      6  C   UNL     1     121.749 131.762 112.360  1.00  0.00     0.093 A 
ATOM      7  C   UNL     1     123.106 131.720 112.699  1.00  0.00     0.136 A 
ATOM      8  C   UNL     1     124.017 132.586 112.040  1.00  0.00     0.125 A 
ATOM      9  C   UNL     1     125.392 132.623 112.325  1.00  0.00     0.078 A 
ATOM     10  C   UNL     1     126.227 133.508 111.636  1.00  0.00     0.223 A 
ENDROOT
BRANCH   1  11
ATOM     11  C   UNL     1     126.491 135.288 109.860  1.00  0.00     0.087 A 
ATOM     12  C   UNL     1     126.676 135.126 108.476  1.00  0.00     0.022 A 
ATOM     13  C   UNL     1     127.437 136.048 107.753  1.00  0.00     0.051 A 
ATOM     14  C   UNL     1     128.011 137.152 108.397  1.00  0.00     0.157 A 
ATOM     15  C   UNL     1     127.052 136.407 110.497  1.00  0.00     0.068 A 
ATOM     16  C   UNL     1     127.814 137.333 109.777  1.00  0.00     0.158 A 
BRANCH  14  17
ATOM     17  O   UNL     1     128.771 138.069 107.673  1.00  0.00    -0.504 OA
ATOM     18  H   UNL     1     129.676 138.385 108.002  1.00  0.00     0.293 HD
ENDBRANCH  14  17
BRANCH  16  19
ATOM     19  O   UNL     1     128.367 138.424 110.446  1.00  0.00    -0.504 OA
ATOM     20  H   UNL     1     127.825 139.252 110.667  1.00  0.00     0.293 HD
ENDBRANCH  16  19
ENDBRANCH   1  11
BRANCH  10  21
ATOM     21  O   UNL     1     127.583 133.581 111.954  1.00  0.00    -0.500 OA
ATOM     22  H   UNL     1     127.900 133.807 112.890  1.00  0.00     0.294 HD
ENDBRANCH  10  21
BRANCH   5  23
ATOM     23  O   UNL     1     119.923 132.658 111.065  1.00  0.00    -0.507 OA
ATOM     24  H   UNL     1     119.492 133.459 110.620  1.00  0.00     0.293 HD
ENDBRANCH   5  23
BRANCH   7  25
ATOM     25  O   UNL     1     123.496 130.810 113.687  1.00  0.00    -0.507 OA
ATOM     26  H   UNL     1     122.881 130.442 114.397  1.00  0.00     0.293 HD
ENDBRANCH   7  25
TORSDOF 6
ENDMDL
MODEL 6
REMARK VINA RESULT:    -5.207      1.778      7.056
REMARK INTER + INTRA:          -6.624
REMARK INTER:                  -6.540
REMARK INTRA:                  -0.083
REMARK UNBOUND:                -0.352
REMARK SMILES Oc1cc(O)c2cc(O)c(-c3ccc(O)c(O)c3)[o+]c2c1
REMARK SMILES IDX 10 1 19 2 20 3 21 4 2 5 3 6 4 7 6 8 7 9 8 10 11 11 12 12
REMARK SMILES IDX 13 13 14 14 18 15 16 16 15 17 17 19 9 21 1 23 5 25
REMARK H PARENT 15 18 17 20 9 22 1 24 5 26
REMARK Flexibility Score: inf
ROOT
ATOM      1  C   UNL     1     124.228 133.788 111.201  1.00  0.00     0.402 A 
ATOM      2  O   UNL     1     123.374 133.893 110.188  1.00  0.00    -0.202 OA
ATOM      3  C   UNL     1     122.157 133.360 110.200  1.00  0.00     0.368 A 
ATOM      4  C   UNL     1     121.332 133.522 109.085  1.00  0.00     0.162 A 
ATOM      5  C   UNL     1     120.048 132.968 109.071  1.00  0.00     0.128 A 
ATOM      6  C   UNL     1     119.588 132.249 110.177  1.00  0.00     0.093 A 
ATOM      7  C   UNL     1     120.396 132.071 111.306  1.00  0.00     0.136 A 
ATOM      8  C   UNL     1     121.699 132.634 111.327  1.00  0.00     0.125 A 
ATOM      9  C   UNL     1     122.573 132.518 112.420  1.00  0.00     0.078 A 
ATOM     10  C   UNL     1     123.842 133.104 112.369  1.00  0.00     0.223 A 
ENDROOT
BRANCH   1  11
ATOM     11  C   UNL     1     125.561 134.419 111.062  1.00  0.00     0.087 A 
ATOM     12  C   UNL     1     126.743 133.700 111.317  1.00  0.00     0.022 A 
ATOM     13  C   UNL     1     127.989 134.311 111.157  1.00  0.00     0.051 A 
ATOM     14  C   UNL     1     128.075 135.641 110.727  1.00  0.00     0.157 A 
ATOM     15  C   UNL     1     125.654 135.746 110.612  1.00  0.00     0.068 A 
ATOM     16  C   UNL     1     126.900 136.361 110.451  1.00  0.00     0.158 A 
BRANCH  14  17
ATOM     17  O   UNL     1     129.320 136.248 110.570  1.00  0.00    -0.504 OA
ATOM     18  H   UNL     1     129.803 136.679 111.351  1.00  0.00     0.293 HD
ENDBRANCH  14  17
BRANCH  16  19
ATOM     19  O   UNL     1     126.952 137.685 110.015  1.00  0.00    -0.504 OA
ATOM     20  H   UNL     1     127.408 138.412 110.554  1.00  0.00     0.293 HD
ENDBRANCH  16  19
ENDBRANCH   1  11
BRANCH  10  21
ATOM     21  O   UNL     1     124.690 133.033 113.473  1.00  0.00    -0.500 OA
ATOM     22  H   UNL     1     125.672 133.276 113.408  1.00  0.00     0.294 HD
ENDBRANCH  10  21
BRANCH   5  23
ATOM     23  O   UNL     1     119.219 133.127 107.962  1.00  0.00    -0.507 OA
ATOM     24  H   UNL     1     119.377 132.611 107.105  1.00  0.00     0.293 HD
ENDBRANCH   5  23
BRANCH   7  25
ATOM     25  O   UNL     1     119.865 131.336 112.369  1.00  0.00    -0.507 OA
ATOM     26  H   UNL     1     119.909 130.331 112.446  1.00  0.00     0.293 HD
ENDBRANCH   7  25
TORSDOF 6
ENDMDL
MODEL 7
REMARK VINA RESULT:    -5.150     10.168     13.863
REMARK INTER + INTRA:          -6.556
REMARK INTER:                  -6.211
REMARK INTRA:                  -0.344
REMARK UNBOUND:                -0.352
REMARK SMILES Oc1cc(O)c2cc(O)c(-c3ccc(O)c(O)c3)[o+]c2c1
REMARK SMILES IDX 10 1 19 2 20 3 21 4 2 5 3 6 4 7 6 8 7 9 8 10 11 11 12 12
REMARK SMILES IDX 13 13 14 14 18 15 16 16 15 17 17 19 9 21 1 23 5 25
REMARK H PARENT 15 18 17 20 9 22 1 24 5 26
REMARK Flexibility Score: inf
ROOT
ATOM      1  C   UNL     1     134.017 125.702 110.637  1.00  0.00     0.402 A 
ATOM      2  O   UNL     1     133.814 124.409 110.401  1.00  0.00    -0.202 OA
ATOM      3  C   UNL     1     132.664 123.792 110.656  1.00  0.00     0.368 A 
ATOM      4  C   UNL     1     132.548 122.428 110.377  1.00  0.00     0.162 A 
ATOM      5  C   UNL     1     131.351 121.755 110.638  1.00  0.00     0.128 A 
ATOM      6  C   UNL     1     130.267 122.447 111.182  1.00  0.00     0.093 A 
ATOM      7  C   UNL     1     130.359 123.814 111.472  1.00  0.00     0.136 A 
ATOM      8  C   UNL     1     131.570 124.503 111.206  1.00  0.00     0.125 A 
ATOM      9  C   UNL     1     131.748 125.875 111.451  1.00  0.00     0.078 A 
ATOM     10  C   UNL     1     132.971 126.487 111.159  1.00  0.00     0.223 A 
ENDROOT
BRANCH   1  11
ATOM     11  C   UNL     1     135.347 126.272 110.319  1.00  0.00     0.087 A 
ATOM     12  C   UNL     1     135.606 126.884 109.081  1.00  0.00     0.022 A 
ATOM     13  C   UNL     1     136.862 127.434 108.814  1.00  0.00     0.051 A 
ATOM     14  C   UNL     1     137.872 127.394 109.784  1.00  0.00     0.157 A 
ATOM     15  C   UNL     1     136.357 126.252 111.295  1.00  0.00     0.068 A 
ATOM     16  C   UNL     1     137.616 126.802 111.032  1.00  0.00     0.158 A 
BRANCH  14  17
ATOM     17  O   UNL     1     139.125 127.943 109.514  1.00  0.00    -0.504 OA
ATOM     18  H   UNL     1     139.263 128.945 109.452  1.00  0.00     0.293 HD
ENDBRANCH  14  17
BRANCH  16  19
ATOM     19  O   UNL     1     138.598 126.752 112.021  1.00  0.00    -0.504 OA
ATOM     20  H   UNL     1     138.381 126.881 113.002  1.00  0.00     0.293 HD
ENDBRANCH  16  19
ENDBRANCH   1  11
BRANCH  10  21
ATOM     21  O   UNL     1     133.132 127.858 111.354  1.00  0.00    -0.500 OA
ATOM     22  H   UNL     1     132.535 128.536 110.896  1.00  0.00     0.294 HD
ENDBRANCH  10  21
BRANCH   5  23
ATOM     23  O   UNL     1     131.228 120.394 110.362  1.00  0.00    -0.507 OA
ATOM     24  H   UNL     1     131.040 119.720 111.093  1.00  0.00     0.293 HD
ENDBRANCH   5  23
BRANCH   7  25
ATOM     25  O   UNL     1     129.231 124.434 112.017  1.00  0.00    -0.507 OA
ATOM     26  H   UNL     1     129.253 125.076 112.795  1.00  0.00     0.293 HD
ENDBRANCH   7  25
TORSDOF 6
ENDMDL
MODEL 8
REMARK VINA RESULT:    -5.116     10.340     12.036
REMARK INTER + INTRA:          -6.515
REMARK INTER:                  -6.278
REMARK INTRA:                  -0.237
REMARK UNBOUND:                -0.352
REMARK SMILES Oc1cc(O)c2cc(O)c(-c3ccc(O)c(O)c3)[o+]c2c1
REMARK SMILES IDX 10 1 19 2 20 3 21 4 2 5 3 6 4 7 6 8 7 9 8 10 11 11 12 12
REMARK SMILES IDX 13 13 14 14 18 15 16 16 15 17 17 19 9 21 1 23 5 25
REMARK H PARENT 15 18 17 20 9 22 1 24 5 26
REMARK Flexibility Score: inf
ROOT
ATOM      1  C   UNL     1     131.669 123.934 110.881  1.00  0.00     0.402 A 
ATOM      2  O   UNL     1     132.655 124.089 111.760  1.00  0.00    -0.202 OA
ATOM      3  C   UNL     1     133.412 125.180 111.825  1.00  0.00     0.368 A 
ATOM      4  C   UNL     1     134.427 125.247 112.783  1.00  0.00     0.162 A 
ATOM      5  C   UNL     1     135.239 126.382 112.869  1.00  0.00     0.128 A 
ATOM      6  C   UNL     1     135.036 127.452 111.995  1.00  0.00     0.093 A 
ATOM      7  C   UNL     1     134.026 127.408 111.026  1.00  0.00     0.136 A 
ATOM      8  C   UNL     1     133.197 126.260 110.935  1.00  0.00     0.125 A 
ATOM      9  C   UNL     1     132.152 126.134 110.005  1.00  0.00     0.078 A 
ATOM     10  C   UNL     1     131.374 124.973 109.978  1.00  0.00     0.223 A 
ENDROOT
BRANCH   1  11
ATOM     11  C   UNL     1     130.903 122.667 110.902  1.00  0.00     0.087 A 
ATOM     12  C   UNL     1     129.562 122.627 111.320  1.00  0.00     0.022 A 
ATOM     13  C   UNL     1     128.854 121.423 111.309  1.00  0.00     0.051 A 
ATOM     14  C   UNL     1     129.470 120.244 110.868  1.00  0.00     0.157 A 
ATOM     15  C   UNL     1     131.509 121.487 110.441  1.00  0.00     0.068 A 
ATOM     16  C   UNL     1     130.804 120.278 110.429  1.00  0.00     0.158 A 
BRANCH  14  17
ATOM     17  O   UNL     1     128.761 119.044 110.860  1.00  0.00    -0.504 OA
ATOM     18  H   UNL     1     129.226 118.154 110.717  1.00  0.00     0.293 HD
ENDBRANCH  14  17
BRANCH  16  19
ATOM     19  O   UNL     1     131.444 119.124 109.977  1.00  0.00    -0.504 OA
ATOM     20  H   UNL     1     130.929 118.331 109.613  1.00  0.00     0.293 HD
ENDBRANCH  16  19
ENDBRANCH   1  11
BRANCH  10  21
ATOM     21  O   UNL     1     130.304 124.868 109.089  1.00  0.00    -0.500 OA
ATOM     22  H   UNL     1     129.596 124.150 109.189  1.00  0.00     0.294 HD
ENDBRANCH  10  21
BRANCH   5  23
ATOM     23  O   UNL     1     136.253 126.457 113.823  1.00  0.00    -0.507 OA
ATOM     24  H   UNL     1     136.066 126.308 114.807  1.00  0.00     0.293 HD
ENDBRANCH   5  23
BRANCH   7  25
ATOM     25  O   UNL     1     133.890 128.518 110.187  1.00  0.00    -0.507 OA
ATOM     26  H   UNL     1     134.404 129.380 110.293  1.00  0.00     0.293 HD
ENDBRANCH   7  25
TORSDOF 6
ENDMDL
