MODEL 1
REMARK VINA RESULT:    -3.828      0.000      0.000
REMARK INTER + INTRA:          -7.309
REMARK INTER:                  -5.842
REMARK INTRA:                  -1.467
REMARK UNBOUND:                -1.467
REMARK SMILES CCCCCCCCCCC(=O)[O-]
REMARK SMILES IDX 7 1 8 2 9 3 10 4 11 5 12 6 13 7 6 8 5 9 4 10 3 11 2 12 1 13
REMARK H PARENT
REMARK Flexibility Score: inf
ROOT
ATOM      1  C   UNL     1      43.219  63.549  12.460  1.00  0.00     0.000 C 
ENDROOT
BRANCH   1   2
ATOM      2  C   UNL     1      42.840  63.793  10.989  1.00  0.00     0.000 C 
BRANCH   2   3
ATOM      3  C   UNL     1      41.713  62.862  10.502  1.00  0.00     0.006 C 
BRANCH   3   4
ATOM      4  C   UNL     1      41.232  61.845  11.550  1.00  0.00     0.053 C 
BRANCH   4   5
ATOM      5  C   UNL     1      41.236  60.445  11.018  1.00  0.00     0.041 C 
ATOM      6  O   UNL     1      41.494  59.477  11.781  1.00  0.00    -0.550 OA
ATOM      7  O   UNL     1      40.988  60.213   9.671  1.00  0.00    -0.550 OA
ENDBRANCH   4   5
ENDBRANCH   3   4
ENDBRANCH   2   3
ENDBRANCH   1   2
BRANCH   1   8
ATOM      8  C   UNL     1      44.649  63.007  12.619  1.00  0.00     0.000 C 
BRANCH   8   9
ATOM      9  C   UNL     1      44.697  61.673  13.380  1.00  0.00    -0.000 C 
BRANCH   9  10
ATOM     10  C   UNL     1      44.756  60.488  12.409  1.00  0.00    -0.000 C 
BRANCH  10  11
ATOM     11  C   UNL     1      45.334  60.915  11.054  1.00  0.00    -0.000 C 
BRANCH  11  12
ATOM     12  C   UNL     1      44.756  60.064   9.918  1.00  0.00    -0.003 C 
ATOM     13  C   UNL     1      44.371  60.930   8.721  1.00  0.00     0.004 C 
ENDBRANCH  11  12
ENDBRANCH  10  11
ENDBRANCH   9  10
ENDBRANCH   8   9
ENDBRANCH   1   8
TORSDOF 9
ENDMDL
MODEL 2
REMARK VINA RESULT:    -3.747      2.348      2.948
REMARK INTER + INTRA:          -7.185
REMARK INTER:                  -5.882
REMARK INTRA:                  -1.303
REMARK UNBOUND:                -1.467
REMARK SMILES CCCCCCCCCCC(=O)[O-]
REMARK SMILES IDX 7 1 8 2 9 3 10 4 11 5 12 6 13 7 6 8 5 9 4 10 3 11 2 12 1 13
REMARK H PARENT
REMARK Flexibility Score: inf
ROOT
ATOM      1  C   UNL     1      43.987  63.745  12.258  1.00  0.00     0.000 C 
ENDROOT
BRANCH   1   2
ATOM      2  C   UNL     1      42.505  63.482  12.573  1.00  0.00     0.000 C 
BRANCH   2   3
ATOM      3  C   UNL     1      41.675  63.171  11.312  1.00  0.00     0.006 C 
BRANCH   3   4
ATOM      4  C   UNL     1      42.423  63.395   9.988  1.00  0.00     0.053 C 
BRANCH   4   5
ATOM      5  C   UNL     1      41.914  64.595   9.251  1.00  0.00     0.041 C 
ATOM      6  O   UNL     1      40.715  64.645   8.870  1.00  0.00    -0.550 OA
ATOM      7  O   UNL     1      42.775  65.645   8.956  1.00  0.00    -0.550 OA
ENDBRANCH   4   5
ENDBRANCH   3   4
ENDBRANCH   2   3
ENDBRANCH   1   2
BRANCH   1   8
ATOM      8  C   UNL     1      44.930  62.801  13.022  1.00  0.00     0.000 C 
BRANCH   8   9
ATOM      9  C   UNL     1      44.189  61.627  13.682  1.00  0.00    -0.000 C 
BRANCH   9  10
ATOM     10  C   UNL     1      44.444  60.321  12.921  1.00  0.00    -0.000 C 
BRANCH  10  11
ATOM     11  C   UNL     1      43.221  59.921  12.087  1.00  0.00    -0.000 C 
BRANCH  11  12
ATOM     12  C   UNL     1      43.568  59.860  10.596  1.00  0.00    -0.003 C 
ATOM     13  C   UNL     1      44.979  60.380  10.337  1.00  0.00     0.004 C 
ENDBRANCH  11  12
ENDBRANCH  10  11
ENDBRANCH   9  10
ENDBRANCH   8   9
ENDBRANCH   1   8
TORSDOF 9
ENDMDL
MODEL 3
REMARK VINA RESULT:    -3.744      2.100      3.675
REMARK INTER + INTRA:          -7.181
REMARK INTER:                  -5.824
REMARK INTRA:                  -1.357
REMARK UNBOUND:                -1.467
REMARK SMILES CCCCCCCCCCC(=O)[O-]
REMARK SMILES IDX 7 1 8 2 9 3 10 4 11 5 12 6 13 7 6 8 5 9 4 10 3 11 2 12 1 13
REMARK H PARENT
REMARK Flexibility Score: inf
ROOT
ATOM      1  C   UNL     1      44.047  60.031  13.066  1.00  0.00     0.000 C 
ENDROOT
BRANCH   1   2
ATOM      2  C   UNL     1      44.776  61.352  13.365  1.00  0.00     0.000 C 
BRANCH   2   3
ATOM      3  C   UNL     1      44.835  62.289  12.143  1.00  0.00     0.006 C 
BRANCH   3   4
ATOM      4  C   UNL     1      44.371  63.727  12.423  1.00  0.00     0.053 C 
BRANCH   4   5
ATOM      5  C   UNL     1      42.979  63.974  11.929  1.00  0.00     0.041 C 
ATOM      6  O   UNL     1      42.788  64.459  10.783  1.00  0.00    -0.550 OA
ATOM      7  O   UNL     1      41.891  63.699  12.749  1.00  0.00    -0.550 OA
ENDBRANCH   4   5
ENDBRANCH   3   4
ENDBRANCH   2   3
ENDBRANCH   1   2
BRANCH   1   8
ATOM      8  C   UNL     1      42.560  60.240  12.736  1.00  0.00     0.000 C 
BRANCH   8   9
ATOM      9  C   UNL     1      42.179  59.707  11.345  1.00  0.00    -0.000 C 
BRANCH   9  10
ATOM     10  C   UNL     1      41.603  60.825  10.469  1.00  0.00    -0.000 C 
BRANCH  10  11
ATOM     11  C   UNL     1      42.575  61.198   9.342  1.00  0.00    -0.000 C 
BRANCH  11  12
ATOM     12  C   UNL     1      43.535  60.043   9.039  1.00  0.00    -0.003 C 
ATOM     13  C   UNL     1      44.973  60.538   8.921  1.00  0.00     0.004 C 
ENDBRANCH  11  12
ENDBRANCH  10  11
ENDBRANCH   9  10
ENDBRANCH   8   9
ENDBRANCH   1   8
TORSDOF 9
ENDMDL
MODEL 4
REMARK VINA RESULT:    -3.744      1.519      1.642
REMARK INTER + INTRA:          -7.181
REMARK INTER:                  -5.843
REMARK INTRA:                  -1.337
REMARK UNBOUND:                -1.467
REMARK SMILES CCCCCCCCCCC(=O)[O-]
REMARK SMILES IDX 7 1 8 2 9 3 10 4 11 5 12 6 13 7 6 8 5 9 4 10 3 11 2 12 1 13
REMARK H PARENT
REMARK Flexibility Score: inf
ROOT
ATOM      1  C   UNL     1      43.105  63.404  12.427  1.00  0.00     0.000 C 
ENDROOT
BRANCH   1   2
ATOM      2  C   UNL     1      42.749  63.676  10.955  1.00  0.00     0.000 C 
BRANCH   2   3
ATOM      3  C   UNL     1      41.627  62.757  10.435  1.00  0.00     0.006 C 
BRANCH   3   4
ATOM      4  C   UNL     1      41.139  61.713  11.451  1.00  0.00     0.053 C 
BRANCH   4   5
ATOM      5  C   UNL     1      39.714  61.940  11.851  1.00  0.00     0.041 C 
ATOM      6  O   UNL     1      38.819  61.124  11.504  1.00  0.00    -0.550 OA
ATOM      7  O   UNL     1      39.368  63.072  12.579  1.00  0.00    -0.550 OA
ENDBRANCH   4   5
ENDBRANCH   3   4
ENDBRANCH   2   3
ENDBRANCH   1   2
BRANCH   1   8
ATOM      8  C   UNL     1      44.616  63.225  12.645  1.00  0.00     0.000 C 
BRANCH   8   9
ATOM      9  C   UNL     1      44.961  61.914  13.368  1.00  0.00    -0.000 C 
BRANCH   9  10
ATOM     10  C   UNL     1      44.582  60.700  12.513  1.00  0.00    -0.000 C 
BRANCH  10  11
ATOM     11  C   UNL     1      45.237  60.775  11.128  1.00  0.00    -0.000 C 
BRANCH  11  12
ATOM     12  C   UNL     1      44.341  60.139  10.060  1.00  0.00    -0.003 C 
ATOM     13  C   UNL     1      44.432  60.897   8.739  1.00  0.00     0.004 C 
ENDBRANCH  11  12
ENDBRANCH  10  11
ENDBRANCH   9  10
ENDBRANCH   8   9
ENDBRANCH   1   8
TORSDOF 9
ENDMDL
MODEL 5
REMARK VINA RESULT:    -3.698      1.347      3.681
REMARK INTER + INTRA:          -7.111
REMARK INTER:                  -5.767
REMARK INTRA:                  -1.343
REMARK UNBOUND:                -1.467
REMARK SMILES CCCCCCCCCCC(=O)[O-]
REMARK SMILES IDX 7 1 8 2 9 3 10 4 11 5 12 6 13 7 6 8 5 9 4 10 3 11 2 12 1 13
REMARK H PARENT
REMARK Flexibility Score: inf
ROOT
ATOM      1  C   UNL     1      44.499  60.734  12.496  1.00  0.00     0.000 C 
ENDROOT
BRANCH   1   2
ATOM      2  C   UNL     1      45.235  60.656  11.148  1.00  0.00     0.000 C 
BRANCH   2   3
ATOM      3  C   UNL     1      44.318  60.208   9.994  1.00  0.00     0.006 C 
BRANCH   3   4
ATOM      4  C   UNL     1      44.577  60.928   8.661  1.00  0.00     0.053 C 
BRANCH   4   5
ATOM      5  C   UNL     1      43.306  61.362   7.999  1.00  0.00     0.041 C 
ATOM      6  O   UNL     1      42.256  60.680   8.133  1.00  0.00    -0.550 OA
ATOM      7  O   UNL     1      43.289  62.503   7.207  1.00  0.00    -0.550 OA
ENDBRANCH   4   5
ENDBRANCH   3   4
ENDBRANCH   2   3
ENDBRANCH   1   2
BRANCH   1   8
ATOM      8  C   UNL     1      44.920  61.955  13.330  1.00  0.00     0.000 C 
BRANCH   8   9
ATOM      9  C   UNL     1      44.649  63.287  12.612  1.00  0.00    -0.000 C 
BRANCH   9  10
ATOM     10  C   UNL     1      43.145  63.510  12.420  1.00  0.00    -0.000 C 
BRANCH  10  11
ATOM     11  C   UNL     1      42.810  63.781  10.948  1.00  0.00    -0.000 C 
BRANCH  11  12
ATOM     12  C   UNL     1      41.446  63.191  10.577  1.00  0.00    -0.003 C 
ATOM     13  C   UNL     1      41.182  61.894  11.335  1.00  0.00     0.004 C 
ENDBRANCH  11  12
ENDBRANCH  10  11
ENDBRANCH   9  10
ENDBRANCH   8   9
ENDBRANCH   1   8
TORSDOF 9
ENDMDL
MODEL 6
REMARK VINA RESULT:    -3.617      1.997      4.123
REMARK INTER + INTRA:          -6.987
REMARK INTER:                  -5.801
REMARK INTRA:                  -1.186
REMARK UNBOUND:                -1.467
REMARK SMILES CCCCCCCCCCC(=O)[O-]
REMARK SMILES IDX 7 1 8 2 9 3 10 4 11 5 12 6 13 7 6 8 5 9 4 10 3 11 2 12 1 13
REMARK H PARENT
REMARK Flexibility Score: inf
ROOT
ATOM      1  C   UNL     1      45.357  60.814  11.130  1.00  0.00     0.000 C 
ENDROOT
BRANCH   1   2
ATOM      2  C   UNL     1      44.584  60.507  12.424  1.00  0.00     0.000 C 
BRANCH   2   3
ATOM      3  C   UNL     1      44.314  61.767  13.269  1.00  0.00     0.006 C 
BRANCH   3   4
ATOM      4  C   UNL     1      44.543  63.092  12.524  1.00  0.00     0.053 C 
BRANCH   4   5
ATOM      5  C   UNL     1      43.254  63.749  12.137  1.00  0.00     0.041 C 
ATOM      6  O   UNL     1      42.223  63.590  12.843  1.00  0.00    -0.550 OA
ATOM      7  O   UNL     1      43.183  64.511  10.978  1.00  0.00    -0.550 OA
ENDBRANCH   4   5
ENDBRANCH   3   4
ENDBRANCH   2   3
ENDBRANCH   1   2
BRANCH   1   8
ATOM      8  C   UNL     1      44.848  59.998   9.931  1.00  0.00     0.000 C 
BRANCH   8   9
ATOM      9  C   UNL     1      44.743  60.833   8.645  1.00  0.00    -0.000 C 
BRANCH   9  10
ATOM     10  C   UNL     1      43.281  61.160   8.322  1.00  0.00    -0.000 C 
BRANCH  10  11
ATOM     11  C   UNL     1      42.326  60.358   9.214  1.00  0.00    -0.000 C 
BRANCH  11  12
ATOM     12  C   UNL     1      41.449  61.289  10.058  1.00  0.00    -0.003 C 
ATOM     13  C   UNL     1      40.997  60.605  11.345  1.00  0.00     0.004 C 
ENDBRANCH  11  12
ENDBRANCH  10  11
ENDBRANCH   9  10
ENDBRANCH   8   9
ENDBRANCH   1   8
TORSDOF 9
ENDMDL
MODEL 7
REMARK VINA RESULT:    -3.576      3.480      4.249
REMARK INTER + INTRA:          -6.924
REMARK INTER:                  -6.076
REMARK INTRA:                  -0.848
REMARK UNBOUND:                -1.467
REMARK SMILES CCCCCCCCCCC(=O)[O-]
REMARK SMILES IDX 7 1 8 2 9 3 10 4 11 5 12 6 13 7 6 8 5 9 4 10 3 11 2 12 1 13
REMARK H PARENT
REMARK Flexibility Score: inf
ROOT
ATOM      1  C   UNL     1      43.166  64.364  11.156  1.00  0.00     0.000 C 
ENDROOT
BRANCH   1   2
ATOM      2  C   UNL     1      42.217  63.790  10.091  1.00  0.00     0.000 C 
BRANCH   2   3
ATOM      3  C   UNL     1      42.438  64.412   8.699  1.00  0.00     0.006 C 
BRANCH   3   4
ATOM      4  C   UNL     1      41.771  65.783   8.503  1.00  0.00     0.053 C 
BRANCH   4   5
ATOM      5  C   UNL     1      42.709  66.783   7.900  1.00  0.00     0.041 C 
ATOM      6  O   UNL     1      43.909  66.836   8.276  1.00  0.00    -0.550 OA
ATOM      7  O   UNL     1      42.247  67.680   6.944  1.00  0.00    -0.550 OA
ENDBRANCH   4   5
ENDBRANCH   3   4
ENDBRANCH   2   3
ENDBRANCH   1   2
BRANCH   1   8
ATOM      8  C   UNL     1      43.248  63.480  12.412  1.00  0.00     0.000 C 
BRANCH   8   9
ATOM      9  C   UNL     1      44.675  62.989  12.701  1.00  0.00    -0.000 C 
BRANCH   9  10
ATOM     10  C   UNL     1      44.665  61.542  13.208  1.00  0.00    -0.000 C 
BRANCH  10  11
ATOM     11  C   UNL     1      44.415  60.557  12.059  1.00  0.00    -0.000 C 
BRANCH  11  12
ATOM     12  C   UNL     1      45.333  60.857  10.869  1.00  0.00    -0.003 C 
ATOM     13  C   UNL     1      44.554  60.850   9.557  1.00  0.00     0.004 C 
ENDBRANCH  11  12
ENDBRANCH  10  11
ENDBRANCH   9  10
ENDBRANCH   8   9
ENDBRANCH   1   8
TORSDOF 9
ENDMDL
MODEL 8
REMARK VINA RESULT:    -3.563      1.984      4.632
REMARK INTER + INTRA:          -6.905
REMARK INTER:                  -5.668
REMARK INTRA:                  -1.237
REMARK UNBOUND:                -1.467
REMARK SMILES CCCCCCCCCCC(=O)[O-]
REMARK SMILES IDX 7 1 8 2 9 3 10 4 11 5 12 6 13 7 6 8 5 9 4 10 3 11 2 12 1 13
REMARK H PARENT
REMARK Flexibility Score: inf
ROOT
ATOM      1  C   UNL     1      43.841  61.469   8.082  1.00  0.00     0.000 C 
ENDROOT
BRANCH   1   2
ATOM      2  C   UNL     1      44.617  60.517   9.009  1.00  0.00     0.000 C 
BRANCH   2   3
ATOM      3  C   UNL     1      44.204  60.659  10.487  1.00  0.00     0.006 C 
BRANCH   3   4
ATOM      4  C   UNL     1      45.333  61.127  11.419  1.00  0.00     0.053 C 
BRANCH   4   5
ATOM      5  C   UNL     1      44.938  61.051  12.861  1.00  0.00     0.041 C 
ATOM      6  O   UNL     1      44.347  60.032  13.305  1.00  0.00    -0.550 OA
ATOM      7  O   UNL     1      45.194  62.122  13.709  1.00  0.00    -0.550 OA
ENDBRANCH   4   5
ENDBRANCH   3   4
ENDBRANCH   2   3
ENDBRANCH   1   2
BRANCH   1   8
ATOM      8  C   UNL     1      42.527  61.961   8.708  1.00  0.00     0.000 C 
BRANCH   8   9
ATOM      9  C   UNL     1      42.413  63.494   8.724  1.00  0.00    -0.000 C 
BRANCH   9  10
ATOM     10  C   UNL     1      41.817  63.986  10.048  1.00  0.00    -0.000 C 
BRANCH  10  11
ATOM     11  C   UNL     1      42.890  64.061  11.141  1.00  0.00    -0.000 C 
BRANCH  11  12
ATOM     12  C   UNL     1      42.318  63.647  12.501  1.00  0.00    -0.003 C 
ATOM     13  C   UNL     1      41.443  62.403  12.376  1.00  0.00     0.004 C 
ENDBRANCH  11  12
ENDBRANCH  10  11
ENDBRANCH   9  10
ENDBRANCH   8   9
ENDBRANCH   1   8
TORSDOF 9
ENDMDL
MODEL 9
REMARK VINA RESULT:    -3.530      1.031      3.031
REMARK INTER + INTRA:          -6.855
REMARK INTER:                  -5.495
REMARK INTRA:                  -1.360
REMARK UNBOUND:                -1.467
REMARK SMILES CCCCCCCCCCC(=O)[O-]
REMARK SMILES IDX 7 1 8 2 9 3 10 4 11 5 12 6 13 7 6 8 5 9 4 10 3 11 2 12 1 13
REMARK H PARENT
REMARK Flexibility Score: inf
ROOT
ATOM      1  C   UNL     1      44.867  60.128   9.725  1.00  0.00     0.000 C 
ENDROOT
BRANCH   1   2
ATOM      2  C   UNL     1      44.290  61.130   8.711  1.00  0.00     0.000 C 
BRANCH   2   3
ATOM      3  C   UNL     1      42.783  61.378   8.911  1.00  0.00     0.006 C 
BRANCH   3   4
ATOM      4  C   UNL     1      42.018  60.188   9.510  1.00  0.00     0.053 C 
BRANCH   4   5
ATOM      5  C   UNL     1      41.114  60.606  10.630  1.00  0.00     0.041 C 
ATOM      6  O   UNL     1      41.137  59.989  11.727  1.00  0.00    -0.550 OA
ATOM      7  O   UNL     1      40.224  61.656  10.448  1.00  0.00    -0.550 OA
ENDBRANCH   4   5
ENDBRANCH   3   4
ENDBRANCH   2   3
ENDBRANCH   1   2
BRANCH   1   8
ATOM      8  C   UNL     1      45.401  60.813  10.994  1.00  0.00     0.000 C 
BRANCH   8   9
ATOM      9  C   UNL     1      44.585  60.462  12.248  1.00  0.00    -0.000 C 
BRANCH   9  10
ATOM     10  C   UNL     1      44.156  61.729  12.996  1.00  0.00    -0.000 C 
BRANCH  10  11
ATOM     11  C   UNL     1      44.603  62.990  12.246  1.00  0.00    -0.000 C 
BRANCH  11  12
ATOM     12  C   UNL     1      43.395  63.825  11.807  1.00  0.00    -0.003 C 
ATOM     13  C   UNL     1      42.170  63.515  12.662  1.00  0.00     0.004 C 
ENDBRANCH  11  12
ENDBRANCH  10  11
ENDBRANCH   9  10
ENDBRANCH   8   9
ENDBRANCH   1   8
TORSDOF 9
ENDMDL
