MODEL 1
REMARK VINA RESULT:    21.005      0.000      0.000
REMARK INTER + INTRA:          29.213
REMARK INTER:                  29.601
REMARK INTRA:                  -0.388
REMARK UNBOUND:                -0.388
REMARK SMILES O=C(C=Cc1ccc(O)cc1)CC(=O)C=Cc1ccc(O)cc1
REMARK SMILES IDX 12 1 2 2 1 3 3 4 4 5 5 6 6 7 7 8 8 9 11 10 10 11 9 12 13 14
REMARK SMILES IDX 14 15 15 16 16 17 17 18 18 19 23 20 19 21 22 22 20 23 21 24
REMARK H PARENT 9 13 21 25
REMARK Flexibility Score: inf
ROOT
ATOM      1  C   UNL     1     -37.033  25.081   1.112  1.00  0.00     0.160 C 
ENDROOT
BRANCH   1   2
ATOM      2  C   UNL     1     -37.089  25.935  -0.127  1.00  0.00     0.163 C 
ATOM      3  O   UNL     1     -38.156  25.952  -0.796  1.00  0.00    -0.294 OA
BRANCH   2   4
ATOM      4  C   UNL     1     -35.964  26.782  -0.584  1.00  0.00     0.048 C 
ATOM      5  C   UNL     1     -36.114  27.860  -1.367  1.00  0.00     0.012 C 
BRANCH   5   6
ATOM      6  C   UNL     1     -34.982  28.696  -1.838  1.00  0.00    -0.025 A 
ATOM      7  C   UNL     1     -35.243  29.728  -2.756  1.00  0.00     0.012 A 
ATOM      8  C   UNL     1     -34.209  30.546  -3.219  1.00  0.00     0.047 A 
ATOM      9  C   UNL     1     -32.901  30.353  -2.762  1.00  0.00     0.115 A 
ATOM     10  C   UNL     1     -33.664  28.519  -1.372  1.00  0.00     0.012 A 
ATOM     11  C   UNL     1     -32.633  29.340  -1.837  1.00  0.00     0.047 A 
BRANCH   9  12
ATOM     12  O   UNL     1     -31.861  31.162  -3.217  1.00  0.00    -0.508 OA
ATOM     13  H   UNL     1     -30.891  30.896  -3.091  1.00  0.00     0.293 HD
ENDBRANCH   9  12
ENDBRANCH   5   6
ENDBRANCH   2   4
ENDBRANCH   1   2
BRANCH   1  14
ATOM     14  C   UNL     1     -37.993  25.586   2.148  1.00  0.00     0.163 C 
ATOM     15  O   UNL     1     -38.410  26.774   2.081  1.00  0.00    -0.294 OA
BRANCH  14  16
ATOM     16  C   UNL     1     -38.448  24.690   3.232  1.00  0.00     0.048 C 
ATOM     17  C   UNL     1     -37.638  23.784   3.797  1.00  0.00     0.012 C 
BRANCH  17  18
ATOM     18  C   UNL     1     -38.053  22.880   4.898  1.00  0.00    -0.025 A 
ATOM     19  C   UNL     1     -37.702  23.218   6.216  1.00  0.00     0.012 A 
ATOM     20  C   UNL     1     -38.754  21.678   4.669  1.00  0.00     0.012 A 
ATOM     21  C   UNL     1     -38.062  22.392   7.283  1.00  0.00     0.047 A 
ATOM     22  C   UNL     1     -39.113  20.853   5.741  1.00  0.00     0.047 A 
ATOM     23  C   UNL     1     -38.770  21.209   7.050  1.00  0.00     0.115 A 
BRANCH  23  24
ATOM     24  O   UNL     1     -39.125  20.396   8.123  1.00  0.00    -0.508 OA
ATOM     25  H   UNL     1     -38.902  19.408   8.136  1.00  0.00     0.293 HD
ENDBRANCH  23  24
ENDBRANCH  17  18
ENDBRANCH  14  16
ENDBRANCH   1  14
TORSDOF 8
ENDMDL
MODEL 2
REMARK VINA RESULT:    23.254      0.690     10.527
REMARK INTER + INTRA:          32.383
REMARK INTER:                  32.978
REMARK INTRA:                  -0.595
REMARK UNBOUND:                -0.388
REMARK SMILES O=C(C=Cc1ccc(O)cc1)CC(=O)C=Cc1ccc(O)cc1
REMARK SMILES IDX 12 1 2 2 1 3 3 4 4 5 5 6 6 7 7 8 8 9 11 10 10 11 9 12 13 14
REMARK SMILES IDX 14 15 15 16 16 17 17 18 18 19 23 20 19 21 22 22 20 23 21 24
REMARK H PARENT 9 13 21 25
REMARK Flexibility Score: inf
ROOT
ATOM      1  C   UNL     1     -36.813  25.643   1.260  1.00  0.00     0.160 C 
ENDROOT
BRANCH   1   2
ATOM      2  C   UNL     1     -38.103  25.671   2.035  1.00  0.00     0.163 C 
ATOM      3  O   UNL     1     -38.914  26.610   1.816  1.00  0.00    -0.294 OA
BRANCH   2   4
ATOM      4  C   UNL     1     -38.483  24.635   3.021  1.00  0.00     0.048 C 
ATOM      5  C   UNL     1     -37.671  24.202   3.997  1.00  0.00     0.012 C 
BRANCH   5   6
ATOM      6  C   UNL     1     -38.049  23.151   4.973  1.00  0.00    -0.025 A 
ATOM      7  C   UNL     1     -37.697  23.326   6.323  1.00  0.00     0.012 A 
ATOM      8  C   UNL     1     -38.041  22.367   7.278  1.00  0.00     0.047 A 
ATOM      9  C   UNL     1     -38.752  21.222   6.901  1.00  0.00     0.115 A 
ATOM     10  C   UNL     1     -38.778  22.002   4.606  1.00  0.00     0.012 A 
ATOM     11  C   UNL     1     -39.121  21.044   5.565  1.00  0.00     0.047 A 
BRANCH   9  12
ATOM     12  O   UNL     1     -39.100  20.257   7.845  1.00  0.00    -0.508 OA
ATOM     13  H   UNL     1     -39.419  19.336   7.566  1.00  0.00     0.293 HD
ENDBRANCH   9  12
ENDBRANCH   5   6
ENDBRANCH   2   4
ENDBRANCH   1   2
BRANCH   1  14
ATOM     14  C   UNL     1     -37.081  25.595  -0.215  1.00  0.00     0.163 C 
ATOM     15  O   UNL     1     -37.691  24.604  -0.701  1.00  0.00    -0.294 OA
BRANCH  14  16
ATOM     16  C   UNL     1     -36.636  26.704  -1.084  1.00  0.00     0.048 C 
ATOM     17  C   UNL     1     -35.452  27.311  -0.917  1.00  0.00     0.012 C 
BRANCH  17  18
ATOM     18  C   UNL     1     -34.964  28.415  -1.779  1.00  0.00    -0.025 A 
ATOM     19  C   UNL     1     -33.606  28.771  -1.714  1.00  0.00     0.012 A 
ATOM     20  C   UNL     1     -35.817  29.146  -2.632  1.00  0.00     0.012 A 
ATOM     21  C   UNL     1     -33.104  29.811  -2.500  1.00  0.00     0.047 A 
ATOM     22  C   UNL     1     -35.310  30.187  -3.417  1.00  0.00     0.047 A 
ATOM     23  C   UNL     1     -33.952  30.521  -3.354  1.00  0.00     0.115 A 
BRANCH  23  24
ATOM     24  O   UNL     1     -33.438  31.555  -4.133  1.00  0.00    -0.508 OA
ATOM     25  H   UNL     1     -32.734  32.189  -3.775  1.00  0.00     0.293 HD
ENDBRANCH  23  24
ENDBRANCH  17  18
ENDBRANCH  14  16
ENDBRANCH   1  14
TORSDOF 8
ENDMDL
