MODEL 1
REMARK VINA RESULT:    20.251      0.000      0.000
REMARK INTER + INTRA:          37.958
REMARK INTER:                  38.008
REMARK INTRA:                  -0.051
REMARK UNBOUND:                -0.051
REMARK SMILES CCCCCCCCC=CCCCCCCCC(=O)[O-]
REMARK SMILES IDX 10 1 9 2 11 3 12 4 13 5 14 6 15 7 16 8 17 9 18 10 19 11
REMARK SMILES IDX 20 12 8 13 7 14 6 15 5 16 4 17 3 18 2 19 1 20
REMARK H PARENT
REMARK Flexibility Score: inf
ROOT
ATOM      1  C   UNL     1     -39.837  21.476 -18.543  1.00  0.00    -0.031 C 
ATOM      2  C   UNL     1     -38.556  21.396 -18.947  1.00  0.00    -0.031 C 
ENDROOT
BRANCH   1   3
ATOM      3  C   UNL     1     -40.554  22.764 -18.221  1.00  0.00     0.027 C 
BRANCH   3   4
ATOM      4  C   UNL     1     -41.863  22.488 -17.474  1.00  0.00     0.004 C 
BRANCH   4   5
ATOM      5  C   UNL     1     -42.222  23.661 -16.549  1.00  0.00     0.000 C 
BRANCH   5   6
ATOM      6  C   UNL     1     -42.642  23.199 -15.146  1.00  0.00     0.000 C 
BRANCH   6   7
ATOM      7  C   UNL     1     -42.346  24.250 -14.066  1.00  0.00     0.000 C 
BRANCH   7   8
ATOM      8  C   UNL     1     -41.842  23.587 -12.778  1.00  0.00     0.006 C 
BRANCH   8   9
ATOM      9  C   UNL     1     -40.708  24.400 -12.148  1.00  0.00     0.053 C 
BRANCH   9  10
ATOM     10  C   UNL     1     -39.442  24.226 -12.926  1.00  0.00     0.041 C 
ATOM     11  O   UNL     1     -39.289  24.813 -14.030  1.00  0.00    -0.550 OA
ATOM     12  O   UNL     1     -38.413  23.443 -12.416  1.00  0.00    -0.550 OA
ENDBRANCH   9  10
ENDBRANCH   8   9
ENDBRANCH   7   8
ENDBRANCH   6   7
ENDBRANCH   5   6
ENDBRANCH   4   5
ENDBRANCH   3   4
ENDBRANCH   1   3
BRANCH   2  13
ATOM     13  C   UNL     1     -37.667  22.584 -19.214  1.00  0.00     0.027 C 
BRANCH  13  14
ATOM     14  C   UNL     1     -38.379  23.609 -20.108  1.00  0.00     0.004 C 
BRANCH  14  15
ATOM     15  C   UNL     1     -37.405  24.613 -20.744  1.00  0.00     0.000 C 
BRANCH  15  16
ATOM     16  C   UNL     1     -38.124  25.806 -21.390  1.00  0.00     0.000 C 
BRANCH  16  17
ATOM     17  C   UNL     1     -37.234  27.055 -21.380  1.00  0.00    -0.000 C 
BRANCH  17  18
ATOM     18  C   UNL     1     -37.914  28.221 -22.108  1.00  0.00    -0.000 C 
BRANCH  18  19
ATOM     19  C   UNL     1     -38.536  29.205 -21.110  1.00  0.00    -0.003 C 
ATOM     20  C   UNL     1     -40.004  29.467 -21.438  1.00  0.00     0.004 C 
ENDBRANCH  18  19
ENDBRANCH  17  18
ENDBRANCH  16  17
ENDBRANCH  15  16
ENDBRANCH  14  15
ENDBRANCH  13  14
ENDBRANCH   2  13
TORSDOF 15
ENDMDL
MODEL 2
REMARK VINA RESULT:    20.304      3.038      8.321
REMARK INTER + INTRA:          38.057
REMARK INTER:                  38.808
REMARK INTRA:                  -0.751
REMARK UNBOUND:                -0.051
REMARK SMILES CCCCCCCCC=CCCCCCCCC(=O)[O-]
REMARK SMILES IDX 10 1 9 2 11 3 12 4 13 5 14 6 15 7 16 8 17 9 18 10 19 11
REMARK SMILES IDX 20 12 8 13 7 14 6 15 5 16 4 17 3 18 2 19 1 20
REMARK H PARENT
REMARK Flexibility Score: inf
ROOT
ATOM      1  C   UNL     1     -40.545  22.165 -18.477  1.00  0.00    -0.031 C 
ATOM      2  C   UNL     1     -41.668  22.582 -17.864  1.00  0.00    -0.031 C 
ENDROOT
BRANCH   1   3
ATOM      3  C   UNL     1     -39.167  22.716 -18.207  1.00  0.00     0.027 C 
BRANCH   3   4
ATOM      4  C   UNL     1     -38.273  22.583 -19.445  1.00  0.00     0.004 C 
BRANCH   4   5
ATOM      5  C   UNL     1     -37.581  23.916 -19.765  1.00  0.00     0.000 C 
BRANCH   5   6
ATOM      6  C   UNL     1     -38.098  24.552 -21.064  1.00  0.00     0.000 C 
BRANCH   6   7
ATOM      7  C   UNL     1     -37.462  25.922 -21.344  1.00  0.00     0.000 C 
BRANCH   7   8
ATOM      8  C   UNL     1     -38.485  26.889 -21.953  1.00  0.00     0.006 C 
BRANCH   8   9
ATOM      9  C   UNL     1     -37.907  28.302 -22.065  1.00  0.00     0.053 C 
BRANCH   9  10
ATOM     10  C   UNL     1     -38.758  29.278 -21.315  1.00  0.00     0.041 C 
ATOM     11  O   UNL     1     -38.264  29.963 -20.381  1.00  0.00    -0.550 OA
ATOM     12  O   UNL     1     -40.089  29.459 -21.672  1.00  0.00    -0.550 OA
ENDBRANCH   9  10
ENDBRANCH   8   9
ENDBRANCH   7   8
ENDBRANCH   6   7
ENDBRANCH   5   6
ENDBRANCH   4   5
ENDBRANCH   3   4
ENDBRANCH   1   3
BRANCH   2  13
ATOM     13  C   UNL     1     -41.709  23.607 -16.758  1.00  0.00     0.027 C 
BRANCH  13  14
ATOM     14  C   UNL     1     -42.593  23.125 -15.599  1.00  0.00     0.004 C 
BRANCH  14  15
ATOM     15  C   UNL     1     -42.585  24.097 -14.409  1.00  0.00     0.000 C 
BRANCH  15  16
ATOM     16  C   UNL     1     -42.226  23.405 -13.085  1.00  0.00     0.000 C 
BRANCH  16  17
ATOM     17  C   UNL     1     -41.945  24.436 -11.985  1.00  0.00    -0.000 C 
BRANCH  17  18
ATOM     18  C   UNL     1     -40.494  24.344 -11.501  1.00  0.00    -0.000 C 
BRANCH  18  19
ATOM     19  C   UNL     1     -39.524  24.874 -12.564  1.00  0.00    -0.003 C 
ATOM     20  C   UNL     1     -38.738  23.735 -13.209  1.00  0.00     0.004 C 
ENDBRANCH  18  19
ENDBRANCH  17  18
ENDBRANCH  16  17
ENDBRANCH  15  16
ENDBRANCH  14  15
ENDBRANCH  13  14
ENDBRANCH   2  13
TORSDOF 15
ENDMDL
MODEL 3
REMARK VINA RESULT:    20.402      1.117      1.898
REMARK INTER + INTRA:          38.241
REMARK INTER:                  38.721
REMARK INTRA:                  -0.480
REMARK UNBOUND:                -0.051
REMARK SMILES CCCCCCCCC=CCCCCCCCC(=O)[O-]
REMARK SMILES IDX 10 1 9 2 11 3 12 4 13 5 14 6 15 7 16 8 17 9 18 10 19 11
REMARK SMILES IDX 20 12 8 13 7 14 6 15 5 16 4 17 3 18 2 19 1 20
REMARK H PARENT
REMARK Flexibility Score: inf
ROOT
ATOM      1  C   UNL     1     -38.404  22.065 -18.638  1.00  0.00    -0.031 C 
ATOM      2  C   UNL     1     -37.758  23.004 -19.353  1.00  0.00    -0.031 C 
ENDROOT
BRANCH   1   3
ATOM      3  C   UNL     1     -39.888  21.804 -18.712  1.00  0.00     0.027 C 
BRANCH   3   4
ATOM      4  C   UNL     1     -40.682  23.029 -18.246  1.00  0.00     0.004 C 
BRANCH   4   5
ATOM      5  C   UNL     1     -41.886  22.608 -17.391  1.00  0.00     0.000 C 
BRANCH   5   6
ATOM      6  C   UNL     1     -42.396  23.743 -16.490  1.00  0.00     0.000 C 
BRANCH   6   7
ATOM      7  C   UNL     1     -42.650  23.282 -15.047  1.00  0.00     0.000 C 
BRANCH   7   8
ATOM      8  C   UNL     1     -41.889  24.163 -14.047  1.00  0.00     0.006 C 
BRANCH   8   9
ATOM      9  C   UNL     1     -42.171  23.729 -12.607  1.00  0.00     0.053 C 
BRANCH   9  10
ATOM     10  C   UNL     1     -41.270  24.452 -11.655  1.00  0.00     0.041 C 
ATOM     11  O   UNL     1     -41.715  24.872 -10.555  1.00  0.00    -0.550 OA
ATOM     12  O   UNL     1     -39.928  24.630 -11.967  1.00  0.00    -0.550 OA
ENDBRANCH   9  10
ENDBRANCH   8   9
ENDBRANCH   7   8
ENDBRANCH   6   7
ENDBRANCH   5   6
ENDBRANCH   4   5
ENDBRANCH   3   4
ENDBRANCH   1   3
BRANCH   2  13
ATOM     13  C   UNL     1     -38.404  23.883 -20.393  1.00  0.00     0.027 C 
BRANCH  13  14
ATOM     14  C   UNL     1     -37.445  24.994 -20.843  1.00  0.00     0.004 C 
BRANCH  14  15
ATOM     15  C   UNL     1     -38.157  26.104 -21.631  1.00  0.00     0.000 C 
BRANCH  15  16
ATOM     16  C   UNL     1     -37.354  27.412 -21.666  1.00  0.00     0.000 C 
BRANCH  16  17
ATOM     17  C   UNL     1     -38.248  28.596 -22.055  1.00  0.00    -0.000 C 
BRANCH  17  18
ATOM     18  C   UNL     1     -38.455  29.544 -20.869  1.00  0.00    -0.000 C 
BRANCH  18  19
ATOM     19  C   UNL     1     -39.924  29.967 -20.752  1.00  0.00    -0.003 C 
ATOM     20  C   UNL     1     -40.796  29.210 -21.751  1.00  0.00     0.004 C 
ENDBRANCH  18  19
ENDBRANCH  17  18
ENDBRANCH  16  17
ENDBRANCH  15  16
ENDBRANCH  14  15
ENDBRANCH  13  14
ENDBRANCH   2  13
TORSDOF 15
ENDMDL
MODEL 4
REMARK VINA RESULT:    20.475      3.532      4.657
REMARK INTER + INTRA:          38.378
REMARK INTER:                  38.993
REMARK INTRA:                  -0.615
REMARK UNBOUND:                -0.051
REMARK SMILES CCCCCCCCC=CCCCCCCCC(=O)[O-]
REMARK SMILES IDX 10 1 9 2 11 3 12 4 13 5 14 6 15 7 16 8 17 9 18 10 19 11
REMARK SMILES IDX 20 12 8 13 7 14 6 15 5 16 4 17 3 18 2 19 1 20
REMARK H PARENT
REMARK Flexibility Score: inf
ROOT
ATOM      1  C   UNL     1     -42.377  23.262 -16.447  1.00  0.00    -0.031 C 
ATOM      2  C   UNL     1     -41.731  22.802 -17.535  1.00  0.00    -0.031 C 
ENDROOT
BRANCH   1   3
ATOM      3  C   UNL     1     -41.715  23.989 -15.303  1.00  0.00     0.027 C 
BRANCH   3   4
ATOM      4  C   UNL     1     -42.633  24.025 -14.076  1.00  0.00     0.004 C 
BRANCH   4   5
ATOM      5  C   UNL     1     -41.887  23.546 -12.821  1.00  0.00     0.000 C 
BRANCH   5   6
ATOM      6  C   UNL     1     -41.996  24.540 -11.654  1.00  0.00     0.000 C 
BRANCH   6   7
ATOM      7  C   UNL     1     -43.452  24.843 -11.271  1.00  0.00     0.000 C 
BRANCH   7   8
ATOM      8  C   UNL     1     -43.635  24.823  -9.749  1.00  0.00     0.006 C 
BRANCH   8   9
ATOM      9  C   UNL     1     -45.119  24.845  -9.373  1.00  0.00     0.053 C 
BRANCH   9  10
ATOM     10  C   UNL     1     -45.324  25.584  -8.088  1.00  0.00     0.041 C 
ATOM     11  O   UNL     1     -44.511  25.440  -7.136  1.00  0.00    -0.550 OA
ATOM     12  O   UNL     1     -46.394  26.460  -7.952  1.00  0.00    -0.550 OA
ENDBRANCH   9  10
ENDBRANCH   8   9
ENDBRANCH   7   8
ENDBRANCH   6   7
ENDBRANCH   5   6
ENDBRANCH   4   5
ENDBRANCH   3   4
ENDBRANCH   1   3
BRANCH   2  13
ATOM     13  C   UNL     1     -40.264  23.012 -17.811  1.00  0.00     0.027 C 
BRANCH  13  14
ATOM     14  C   UNL     1     -39.640  21.754 -18.431  1.00  0.00     0.004 C 
BRANCH  14  15
ATOM     15  C   UNL     1     -38.389  22.068 -19.266  1.00  0.00     0.000 C 
BRANCH  15  16
ATOM     16  C   UNL     1     -38.070  23.570 -19.312  1.00  0.00     0.000 C 
BRANCH  16  17
ATOM     17  C   UNL     1     -38.028  24.079 -20.758  1.00  0.00    -0.000 C 
BRANCH  17  18
ATOM     18  C   UNL     1     -37.444  25.495 -20.827  1.00  0.00    -0.000 C 
BRANCH  18  19
ATOM     19  C   UNL     1     -38.115  26.313 -21.936  1.00  0.00    -0.003 C 
ATOM     20  C   UNL     1     -37.622  27.758 -21.931  1.00  0.00     0.004 C 
ENDBRANCH  18  19
ENDBRANCH  17  18
ENDBRANCH  16  17
ENDBRANCH  15  16
ENDBRANCH  14  15
ENDBRANCH  13  14
ENDBRANCH   2  13
TORSDOF 15
ENDMDL
MODEL 5
REMARK VINA RESULT:    20.879      3.931      8.527
REMARK INTER + INTRA:          39.136
REMARK INTER:                  39.838
REMARK INTRA:                  -0.701
REMARK UNBOUND:                -0.051
REMARK SMILES CCCCCCCCC=CCCCCCCCC(=O)[O-]
REMARK SMILES IDX 10 1 9 2 11 3 12 4 13 5 14 6 15 7 16 8 17 9 18 10 19 11
REMARK SMILES IDX 20 12 8 13 7 14 6 15 5 16 4 17 3 18 2 19 1 20
REMARK H PARENT
REMARK Flexibility Score: inf
ROOT
ATOM      1  C   UNL     1     -37.556  23.597 -19.801  1.00  0.00    -0.031 C 
ATOM      2  C   UNL     1     -38.022  22.574 -19.062  1.00  0.00    -0.031 C 
ENDROOT
BRANCH   1   3
ATOM      3  C   UNL     1     -38.415  24.502 -20.649  1.00  0.00     0.027 C 
BRANCH   3   4
ATOM      4  C   UNL     1     -37.592  25.665 -21.214  1.00  0.00     0.004 C 
BRANCH   4   5
ATOM      5  C   UNL     1     -38.494  26.662 -21.958  1.00  0.00     0.000 C 
BRANCH   5   6
ATOM      6  C   UNL     1     -37.883  28.070 -22.029  1.00  0.00     0.000 C 
BRANCH   6   7
ATOM      7  C   UNL     1     -38.811  29.145 -21.445  1.00  0.00     0.000 C 
BRANCH   7   8
ATOM      8  C   UNL     1     -40.251  28.956 -21.938  1.00  0.00     0.006 C 
BRANCH   8   9
ATOM      9  C   UNL     1     -41.199  29.949 -21.262  1.00  0.00     0.053 C 
BRANCH   9  10
ATOM     10  C   UNL     1     -42.102  30.584 -22.272  1.00  0.00     0.041 C 
ATOM     11  O   UNL     1     -41.844  30.491 -23.501  1.00  0.00    -0.550 OA
ATOM     12  O   UNL     1     -43.252  31.247 -21.859  1.00  0.00    -0.550 OA
ENDBRANCH   9  10
ENDBRANCH   8   9
ENDBRANCH   7   8
ENDBRANCH   6   7
ENDBRANCH   5   6
ENDBRANCH   4   5
ENDBRANCH   3   4
ENDBRANCH   1   3
BRANCH   2  13
ATOM     13  C   UNL     1     -39.481  22.226 -18.907  1.00  0.00     0.027 C 
BRANCH  13  14
ATOM     14  C   UNL     1     -40.121  23.044 -17.776  1.00  0.00     0.004 C 
BRANCH  14  15
ATOM     15  C   UNL     1     -41.655  23.063 -17.859  1.00  0.00     0.000 C 
BRANCH  15  16
ATOM     16  C   UNL     1     -42.323  22.970 -16.479  1.00  0.00     0.000 C 
BRANCH  16  17
ATOM     17  C   UNL     1     -41.871  24.121 -15.572  1.00  0.00    -0.000 C 
BRANCH  17  18
ATOM     18  C   UNL     1     -42.581  24.064 -14.214  1.00  0.00    -0.000 C 
BRANCH  18  19
ATOM     19  C   UNL     1     -41.572  24.134 -13.062  1.00  0.00    -0.003 C 
ATOM     20  C   UNL     1     -42.281  24.270 -11.716  1.00  0.00     0.004 C 
ENDBRANCH  18  19
ENDBRANCH  17  18
ENDBRANCH  16  17
ENDBRANCH  15  16
ENDBRANCH  14  15
ENDBRANCH  13  14
ENDBRANCH   2  13
TORSDOF 15
ENDMDL
MODEL 6
REMARK VINA RESULT:    20.923      2.067      5.054
REMARK INTER + INTRA:          39.220
REMARK INTER:                  40.043
REMARK INTRA:                  -0.822
REMARK UNBOUND:                -0.051
REMARK SMILES CCCCCCCCC=CCCCCCCCC(=O)[O-]
REMARK SMILES IDX 10 1 9 2 11 3 12 4 13 5 14 6 15 7 16 8 17 9 18 10 19 11
REMARK SMILES IDX 20 12 8 13 7 14 6 15 5 16 4 17 3 18 2 19 1 20
REMARK H PARENT
REMARK Flexibility Score: inf
ROOT
ATOM      1  C   UNL     1     -36.930  25.698 -20.813  1.00  0.00    -0.031 C 
ATOM      2  C   UNL     1     -37.085  26.926 -21.342  1.00  0.00    -0.031 C 
ENDROOT
BRANCH   1   3
ATOM      3  C   UNL     1     -38.026  24.668 -20.704  1.00  0.00     0.027 C 
BRANCH   3   4
ATOM      4  C   UNL     1     -37.482  23.347 -20.149  1.00  0.00     0.004 C 
BRANCH   4   5
ATOM      5  C   UNL     1     -38.257  22.922 -18.892  1.00  0.00     0.000 C 
BRANCH   5   6
ATOM      6  C   UNL     1     -38.975  21.575 -19.070  1.00  0.00     0.000 C 
BRANCH   6   7
ATOM      7  C   UNL     1     -40.354  21.549 -18.394  1.00  0.00     0.000 C 
BRANCH   7   8
ATOM      8  C   UNL     1     -40.836  22.970 -18.075  1.00  0.00     0.006 C 
BRANCH   8   9
ATOM      9  C   UNL     1     -42.194  22.944 -17.369  1.00  0.00     0.053 C 
BRANCH   9  10
ATOM     10  C   UNL     1     -42.096  23.579 -16.018  1.00  0.00     0.041 C 
ATOM     11  O   UNL     1     -41.246  24.484 -15.803  1.00  0.00    -0.550 OA
ATOM     12  O   UNL     1     -42.967  23.199 -15.004  1.00  0.00    -0.550 OA
ENDBRANCH   9  10
ENDBRANCH   8   9
ENDBRANCH   7   8
ENDBRANCH   6   7
ENDBRANCH   5   6
ENDBRANCH   4   5
ENDBRANCH   3   4
ENDBRANCH   1   3
BRANCH   2  13
ATOM     13  C   UNL     1     -38.357  27.428 -21.978  1.00  0.00     0.027 C 
BRANCH  13  14
ATOM     14  C   UNL     1     -38.407  28.963 -21.959  1.00  0.00     0.004 C 
BRANCH  14  15
ATOM     15  C   UNL     1     -39.041  29.516 -20.674  1.00  0.00     0.000 C 
BRANCH  15  16
ATOM     16  C   UNL     1     -40.544  29.791 -20.828  1.00  0.00     0.000 C 
BRANCH  16  17
ATOM     17  C   UNL     1     -40.986  29.628 -22.287  1.00  0.00    -0.000 C 
BRANCH  17  18
ATOM     18  C   UNL     1     -41.878  30.794 -22.727  1.00  0.00    -0.000 C 
BRANCH  18  19
ATOM     19  C   UNL     1     -43.334  30.562 -22.308  1.00  0.00    -0.003 C 
ATOM     20  C   UNL     1     -43.783  31.594 -21.277  1.00  0.00     0.004 C 
ENDBRANCH  18  19
ENDBRANCH  17  18
ENDBRANCH  16  17
ENDBRANCH  15  16
ENDBRANCH  14  15
ENDBRANCH  13  14
ENDBRANCH   2  13
TORSDOF 15
ENDMDL
MODEL 7
REMARK VINA RESULT:    21.116      3.026      8.054
REMARK INTER + INTRA:          39.582
REMARK INTER:                  39.209
REMARK INTRA:                   0.373
REMARK UNBOUND:                -0.051
REMARK SMILES CCCCCCCCC=CCCCCCCCC(=O)[O-]
REMARK SMILES IDX 10 1 9 2 11 3 12 4 13 5 14 6 15 7 16 8 17 9 18 10 19 11
REMARK SMILES IDX 20 12 8 13 7 14 6 15 5 16 4 17 3 18 2 19 1 20
REMARK H PARENT
REMARK Flexibility Score: inf
ROOT
ATOM      1  C   UNL     1     -37.869  22.112 -19.150  1.00  0.00    -0.031 C 
ATOM      2  C   UNL     1     -38.667  21.064 -18.872  1.00  0.00    -0.031 C 
ENDROOT
BRANCH   1   3
ATOM      3  C   UNL     1     -38.349  23.532 -19.321  1.00  0.00     0.027 C 
BRANCH   3   4
ATOM      4  C   UNL     1     -38.131  24.012 -20.760  1.00  0.00     0.004 C 
BRANCH   4   5
ATOM      5  C   UNL     1     -37.431  25.378 -20.781  1.00  0.00     0.000 C 
BRANCH   5   6
ATOM      6  C   UNL     1     -38.068  26.353 -21.784  1.00  0.00     0.000 C 
BRANCH   6   7
ATOM      7  C   UNL     1     -37.266  27.655 -21.931  1.00  0.00     0.000 C 
BRANCH   7   8
ATOM      8  C   UNL     1     -38.199  28.854 -22.135  1.00  0.00     0.006 C 
BRANCH   8   9
ATOM      9  C   UNL     1     -38.369  29.646 -20.835  1.00  0.00     0.053 C 
BRANCH   9  10
ATOM     10  C   UNL     1     -39.814  29.945 -20.588  1.00  0.00     0.041 C 
ATOM     11  O   UNL     1     -40.164  30.577 -19.556  1.00  0.00    -0.550 OA
ATOM     12  O   UNL     1     -40.774  29.558 -21.516  1.00  0.00    -0.550 OA
ENDBRANCH   9  10
ENDBRANCH   8   9
ENDBRANCH   7   8
ENDBRANCH   6   7
ENDBRANCH   5   6
ENDBRANCH   4   5
ENDBRANCH   3   4
ENDBRANCH   1   3
BRANCH   2  13
ATOM     13  C   UNL     1     -40.149  21.163 -18.613  1.00  0.00     0.027 C 
BRANCH  13  14
ATOM     14  C   UNL     1     -40.545  22.600 -18.247  1.00  0.00     0.004 C 
BRANCH  14  15
ATOM     15  C   UNL     1     -41.889  22.669 -17.505  1.00  0.00     0.000 C 
BRANCH  15  16
ATOM     16  C   UNL     1     -41.896  23.728 -16.393  1.00  0.00     0.000 C 
BRANCH  16  17
ATOM     17  C   UNL     1     -42.642  23.219 -15.154  1.00  0.00    -0.000 C 
BRANCH  17  18
ATOM     18  C   UNL     1     -42.584  24.244 -14.015  1.00  0.00    -0.000 C 
BRANCH  18  19
ATOM     19  C   UNL     1     -41.896  23.654 -12.779  1.00  0.00    -0.003 C 
ATOM     20  C   UNL     1     -42.267  24.432 -11.518  1.00  0.00     0.004 C 
ENDBRANCH  18  19
ENDBRANCH  17  18
ENDBRANCH  16  17
ENDBRANCH  15  16
ENDBRANCH  14  15
ENDBRANCH  13  14
ENDBRANCH   2  13
TORSDOF 15
ENDMDL
MODEL 8
REMARK VINA RESULT:    21.252      4.039      8.557
REMARK INTER + INTRA:          39.837
REMARK INTER:                  40.397
REMARK INTRA:                  -0.560
REMARK UNBOUND:                -0.051
REMARK SMILES CCCCCCCCC=CCCCCCCCC(=O)[O-]
REMARK SMILES IDX 10 1 9 2 11 3 12 4 13 5 14 6 15 7 16 8 17 9 18 10 19 11
REMARK SMILES IDX 20 12 8 13 7 14 6 15 5 16 4 17 3 18 2 19 1 20
REMARK H PARENT
REMARK Flexibility Score: inf
ROOT
ATOM      1  C   UNL     1     -38.404  26.333 -22.006  1.00  0.00    -0.031 C 
ATOM      2  C   UNL     1     -38.539  25.112 -21.456  1.00  0.00    -0.031 C 
ENDROOT
BRANCH   1   3
ATOM      3  C   UNL     1     -37.358  27.342 -21.603  1.00  0.00     0.027 C 
BRANCH   3   4
ATOM      4  C   UNL     1     -37.719  28.739 -22.119  1.00  0.00     0.004 C 
BRANCH   4   5
ATOM      5  C   UNL     1     -38.784  29.393 -21.226  1.00  0.00     0.000 C 
BRANCH   5   6
ATOM      6  C   UNL     1     -40.215  29.044 -21.662  1.00  0.00     0.000 C 
BRANCH   6   7
ATOM      7  C   UNL     1     -41.228  30.136 -21.287  1.00  0.00     0.000 C 
BRANCH   7   8
ATOM      8  C   UNL     1     -41.895  30.719 -22.539  1.00  0.00     0.006 C 
BRANCH   8   9
ATOM      9  C   UNL     1     -43.415  30.541 -22.486  1.00  0.00     0.053 C 
BRANCH   9  10
ATOM     10  C   UNL     1     -44.048  31.661 -21.721  1.00  0.00     0.041 C 
ATOM     11  O   UNL     1     -44.704  32.551 -22.325  1.00  0.00    -0.550 OA
ATOM     12  O   UNL     1     -43.945  31.703 -20.336  1.00  0.00    -0.550 OA
ENDBRANCH   9  10
ENDBRANCH   8   9
ENDBRANCH   7   8
ENDBRANCH   6   7
ENDBRANCH   5   6
ENDBRANCH   4   5
ENDBRANCH   3   4
ENDBRANCH   1   3
BRANCH   2  13
ATOM     13  C   UNL     1     -37.617  24.538 -20.409  1.00  0.00     0.027 C 
BRANCH  13  14
ATOM     14  C   UNL     1     -37.853  23.031 -20.240  1.00  0.00     0.004 C 
BRANCH  14  15
ATOM     15  C   UNL     1     -38.251  22.654 -18.805  1.00  0.00     0.000 C 
BRANCH  15  16
ATOM     16  C   UNL     1     -38.913  21.271 -18.719  1.00  0.00     0.000 C 
BRANCH  16  17
ATOM     17  C   UNL     1     -40.433  21.400 -18.553  1.00  0.00    -0.000 C 
BRANCH  17  18
ATOM     18  C   UNL     1     -40.825  22.826 -18.150  1.00  0.00    -0.000 C 
BRANCH  18  19
ATOM     19  C   UNL     1     -42.065  22.821 -17.250  1.00  0.00    -0.003 C 
ATOM     20  C   UNL     1     -41.932  23.843 -16.123  1.00  0.00     0.004 C 
ENDBRANCH  18  19
ENDBRANCH  17  18
ENDBRANCH  16  17
ENDBRANCH  15  16
ENDBRANCH  14  15
ENDBRANCH  13  14
ENDBRANCH   2  13
TORSDOF 15
ENDMDL
MODEL 9
REMARK VINA RESULT:    21.444      3.573      9.200
REMARK INTER + INTRA:          40.198
REMARK INTER:                  41.065
REMARK INTRA:                  -0.867
REMARK UNBOUND:                -0.051
REMARK SMILES CCCCCCCCC=CCCCCCCCC(=O)[O-]
REMARK SMILES IDX 10 1 9 2 11 3 12 4 13 5 14 6 15 7 16 8 17 9 18 10 19 11
REMARK SMILES IDX 20 12 8 13 7 14 6 15 5 16 4 17 3 18 2 19 1 20
REMARK H PARENT
REMARK Flexibility Score: inf
ROOT
ATOM      1  C   UNL     1     -41.366  23.908 -16.768  1.00  0.00    -0.031 C 
ATOM      2  C   UNL     1     -41.784  24.153 -15.512  1.00  0.00    -0.031 C 
ENDROOT
BRANCH   1   3
ATOM      3  C   UNL     1     -41.842  22.756 -17.618  1.00  0.00     0.027 C 
BRANCH   3   4
ATOM      4  C   UNL     1     -40.659  22.037 -18.276  1.00  0.00     0.004 C 
BRANCH   4   5
ATOM      5  C   UNL     1     -39.478  22.999 -18.476  1.00  0.00     0.000 C 
BRANCH   5   6
ATOM      6  C   UNL     1     -38.209  22.282 -18.962  1.00  0.00     0.000 C 
BRANCH   6   7
ATOM      7  C   UNL     1     -37.403  23.123 -19.963  1.00  0.00     0.000 C 
BRANCH   7   8
ATOM      8  C   UNL     1     -38.237  24.296 -20.492  1.00  0.00     0.006 C 
BRANCH   8   9
ATOM      9  C   UNL     1     -37.352  25.506 -20.800  1.00  0.00     0.053 C 
BRANCH   9  10
ATOM     10  C   UNL     1     -38.017  26.404 -21.796  1.00  0.00     0.041 C 
ATOM     11  O   UNL     1     -37.529  27.536 -22.055  1.00  0.00    -0.550 OA
ATOM     12  O   UNL     1     -39.157  25.976 -22.466  1.00  0.00    -0.550 OA
ENDBRANCH   9  10
ENDBRANCH   8   9
ENDBRANCH   7   8
ENDBRANCH   6   7
ENDBRANCH   5   6
ENDBRANCH   4   5
ENDBRANCH   3   4
ENDBRANCH   1   3
BRANCH   2  13
ATOM     13  C   UNL     1     -42.849  23.363 -14.795  1.00  0.00     0.027 C 
BRANCH  13  14
ATOM     14  C   UNL     1     -42.429  23.069 -13.347  1.00  0.00     0.004 C 
BRANCH  14  15
ATOM     15  C   UNL     1     -41.783  24.284 -12.663  1.00  0.00     0.000 C 
BRANCH  15  16
ATOM     16  C   UNL     1     -42.073  24.336 -11.156  1.00  0.00     0.000 C 
BRANCH  16  17
ATOM     17  C   UNL     1     -43.403  25.046 -10.876  1.00  0.00    -0.000 C 
BRANCH  17  18
ATOM     18  C   UNL     1     -43.863  24.808  -9.433  1.00  0.00    -0.000 C 
BRANCH  18  19
ATOM     19  C   UNL     1     -45.289  25.326  -9.217  1.00  0.00    -0.003 C 
ATOM     20  C   UNL     1     -45.540  25.656  -7.748  1.00  0.00     0.004 C 
ENDBRANCH  18  19
ENDBRANCH  17  18
ENDBRANCH  16  17
ENDBRANCH  15  16
ENDBRANCH  14  15
ENDBRANCH  13  14
ENDBRANCH   2  13
TORSDOF 15
ENDMDL
