MODEL 1
REMARK VINA RESULT:    -2.979      0.000      0.000
REMARK INTER + INTRA:          -3.344
REMARK INTER:                  -3.327
REMARK INTRA:                  -0.017
REMARK UNBOUND:                -0.017
REMARK SMILES CCCC(=O)[O-]
REMARK SMILES IDX 3 1 4 2 5 3 6 4 2 5 1 6
REMARK H PARENT
REMARK Flexibility Score: inf
ROOT
ATOM      1  C   UNL     1      12.869  16.197  15.939  1.00  0.00     0.052 C 
ENDROOT
BRANCH   1   2
ATOM      2  C   UNL     1      14.220  16.390  16.551  1.00  0.00     0.041 C 
ATOM      3  O   UNL     1      14.328  16.847  17.720  1.00  0.00    -0.550 OA
ATOM      4  O   UNL     1      15.361  16.019  15.850  1.00  0.00    -0.550 OA
ENDBRANCH   1   2
BRANCH   1   5
ATOM      5  C   UNL     1      11.938  15.473  16.916  1.00  0.00     0.003 C 
ATOM      6  C   UNL     1      10.484  15.878  16.691  1.00  0.00     0.004 C 
ENDBRANCH   1   5
TORSDOF 2
ENDMDL
MODEL 2
REMARK VINA RESULT:    -2.949      0.089      1.324
REMARK INTER + INTRA:          -3.311
REMARK INTER:                  -3.298
REMARK INTRA:                  -0.013
REMARK UNBOUND:                -0.017
REMARK SMILES CCCC(=O)[O-]
REMARK SMILES IDX 3 1 4 2 5 3 6 4 2 5 1 6
REMARK H PARENT
REMARK Flexibility Score: inf
ROOT
ATOM      1  C   UNL     1      12.876  16.200  15.939  1.00  0.00     0.052 C 
ENDROOT
BRANCH   1   2
ATOM      2  C   UNL     1      14.234  16.407  16.531  1.00  0.00     0.041 C 
ATOM      3  O   UNL     1      15.265  16.078  15.885  1.00  0.00    -0.550 OA
ATOM      4  O   UNL     1      14.367  17.008  17.776  1.00  0.00    -0.550 OA
ENDBRANCH   1   2
BRANCH   1   5
ATOM      5  C   UNL     1      11.961  15.488  16.938  1.00  0.00     0.003 C 
ATOM      6  C   UNL     1      10.498  15.848  16.697  1.00  0.00     0.004 C 
ENDBRANCH   1   5
TORSDOF 2
ENDMDL
MODEL 3
REMARK VINA RESULT:    -2.765      2.573      3.469
REMARK INTER + INTRA:          -3.105
REMARK INTER:                  -3.067
REMARK INTRA:                  -0.038
REMARK UNBOUND:                -0.017
REMARK SMILES CCCC(=O)[O-]
REMARK SMILES IDX 3 1 4 2 5 3 6 4 2 5 1 6
REMARK H PARENT
REMARK Flexibility Score: inf
ROOT
ATOM      1  C   UNL     1      12.230  15.504  17.082  1.00  0.00     0.052 C 
ENDROOT
BRANCH   1   2
ATOM      2  C   UNL     1      10.974  16.148  16.588  1.00  0.00     0.041 C 
ATOM      3  O   UNL     1       9.932  16.130  17.295  1.00  0.00    -0.550 OA
ATOM      4  O   UNL     1      10.966  16.812  15.368  1.00  0.00    -0.550 OA
ENDBRANCH   1   2
BRANCH   1   5
ATOM      5  C   UNL     1      13.331  16.551  17.269  1.00  0.00     0.003 C 
ATOM      6  C   UNL     1      14.420  16.400  16.211  1.00  0.00     0.004 C 
ENDBRANCH   1   5
TORSDOF 2
ENDMDL
MODEL 4
REMARK VINA RESULT:    -2.746      2.271      2.784
REMARK INTER + INTRA:          -3.084
REMARK INTER:                  -3.045
REMARK INTRA:                  -0.039
REMARK UNBOUND:                -0.017
REMARK SMILES CCCC(=O)[O-]
REMARK SMILES IDX 3 1 4 2 5 3 6 4 2 5 1 6
REMARK H PARENT
REMARK Flexibility Score: inf
ROOT
ATOM      1  C   UNL     1      12.661  16.476  15.643  1.00  0.00     0.052 C 
ENDROOT
BRANCH   1   2
ATOM      2  C   UNL     1      12.182  15.689  16.821  1.00  0.00     0.041 C 
ATOM      3  O   UNL     1      11.028  15.183  16.819  1.00  0.00    -0.550 OA
ATOM      4  O   UNL     1      13.026  15.472  17.903  1.00  0.00    -0.550 OA
ENDBRANCH   1   2
BRANCH   1   5
ATOM      5  C   UNL     1      11.680  17.605  15.319  1.00  0.00     0.003 C 
ATOM      6  C   UNL     1      11.014  17.385  13.964  1.00  0.00     0.004 C 
ENDBRANCH   1   5
TORSDOF 2
ENDMDL
MODEL 5
REMARK VINA RESULT:    -2.694      2.505      2.985
REMARK INTER + INTRA:          -3.026
REMARK INTER:                  -2.959
REMARK INTRA:                  -0.067
REMARK UNBOUND:                -0.017
REMARK SMILES CCCC(=O)[O-]
REMARK SMILES IDX 3 1 4 2 5 3 6 4 2 5 1 6
REMARK H PARENT
REMARK Flexibility Score: inf
ROOT
ATOM      1  C   UNL     1      10.947  16.620  16.857  1.00  0.00     0.052 C 
ENDROOT
BRANCH   1   2
ATOM      2  C   UNL     1      11.408  17.555  15.784  1.00  0.00     0.041 C 
ATOM      3  O   UNL     1      11.665  18.757  16.057  1.00  0.00    -0.550 OA
ATOM      4  O   UNL     1      11.601  17.087  14.490  1.00  0.00    -0.550 OA
ENDBRANCH   1   2
BRANCH   1   5
ATOM      5  C   UNL     1      11.883  15.413  16.953  1.00  0.00     0.003 C 
ATOM      6  C   UNL     1      13.192  15.784  17.643  1.00  0.00     0.004 C 
ENDBRANCH   1   5
TORSDOF 2
ENDMDL
MODEL 6
REMARK VINA RESULT:    -2.692      1.929      3.295
REMARK INTER + INTRA:          -3.024
REMARK INTER:                  -2.986
REMARK INTRA:                  -0.038
REMARK UNBOUND:                -0.017
REMARK SMILES CCCC(=O)[O-]
REMARK SMILES IDX 3 1 4 2 5 3 6 4 2 5 1 6
REMARK H PARENT
REMARK Flexibility Score: inf
ROOT
ATOM      1  C   UNL     1      13.020  16.351  15.904  1.00  0.00     0.052 C 
ENDROOT
BRANCH   1   2
ATOM      2  C   UNL     1      12.272  15.602  16.960  1.00  0.00     0.041 C 
ATOM      3  O   UNL     1      12.863  15.221  18.006  1.00  0.00    -0.550 OA
ATOM      4  O   UNL     1      10.911  15.365  16.814  1.00  0.00    -0.550 OA
ENDBRANCH   1   2
BRANCH   1   5
ATOM      5  C   UNL     1      14.317  16.930  16.476  1.00  0.00     0.003 C 
ATOM      6  C   UNL     1      15.539  16.299  15.816  1.00  0.00     0.004 C 
ENDBRANCH   1   5
TORSDOF 2
ENDMDL
MODEL 7
REMARK VINA RESULT:    -2.676      1.948      2.395
REMARK INTER + INTRA:          -3.006
REMARK INTER:                  -2.940
REMARK INTRA:                  -0.066
REMARK UNBOUND:                -0.017
REMARK SMILES CCCC(=O)[O-]
REMARK SMILES IDX 3 1 4 2 5 3 6 4 2 5 1 6
REMARK H PARENT
REMARK Flexibility Score: inf
ROOT
ATOM      1  C   UNL     1      13.022  16.319  16.204  1.00  0.00     0.052 C 
ENDROOT
BRANCH   1   2
ATOM      2  C   UNL     1      12.645  17.764  16.115  1.00  0.00     0.041 C 
ATOM      3  O   UNL     1      12.400  18.288  14.996  1.00  0.00    -0.550 OA
ATOM      4  O   UNL     1      12.518  18.522  17.272  1.00  0.00    -0.550 OA
ENDBRANCH   1   2
BRANCH   1   5
ATOM      5  C   UNL     1      12.057  15.571  17.128  1.00  0.00     0.003 C 
ATOM      6  C   UNL     1      10.630  15.623  16.592  1.00  0.00     0.004 C 
ENDBRANCH   1   5
TORSDOF 2
ENDMDL
MODEL 8
REMARK VINA RESULT:    -2.370      2.265      3.545
REMARK INTER + INTRA:          -2.664
REMARK INTER:                  -2.629
REMARK INTRA:                  -0.035
REMARK UNBOUND:                -0.017
REMARK SMILES CCCC(=O)[O-]
REMARK SMILES IDX 3 1 4 2 5 3 6 4 2 5 1 6
REMARK H PARENT
REMARK Flexibility Score: inf
ROOT
ATOM      1  C   UNL     1      14.586  16.354  15.927  1.00  0.00     0.052 C 
ENDROOT
BRANCH   1   2
ATOM      2  C   UNL     1      14.036  16.545  17.305  1.00  0.00     0.041 C 
ATOM      3  O   UNL     1      14.493  17.453  18.049  1.00  0.00    -0.550 OA
ATOM      4  O   UNL     1      12.986  15.753  17.751  1.00  0.00    -0.550 OA
ENDBRANCH   1   2
BRANCH   1   5
ATOM      5  C   UNL     1      16.098  16.593  15.916  1.00  0.00     0.003 C 
ATOM      6  C   UNL     1      16.487  17.607  14.844  1.00  0.00     0.004 C 
ENDBRANCH   1   5
TORSDOF 2
ENDMDL
MODEL 9
REMARK VINA RESULT:    -2.337      5.545      5.938
REMARK INTER + INTRA:          -2.628
REMARK INTER:                  -2.596
REMARK INTRA:                  -0.032
REMARK UNBOUND:                -0.017
REMARK SMILES CCCC(=O)[O-]
REMARK SMILES IDX 3 1 4 2 5 3 6 4 2 5 1 6
REMARK H PARENT
REMARK Flexibility Score: inf
ROOT
ATOM      1  C   UNL     1       9.872  16.738  11.604  1.00  0.00     0.052 C 
ENDROOT
BRANCH   1   2
ATOM      2  C   UNL     1      10.219  17.586  12.786  1.00  0.00     0.041 C 
ATOM      3  O   UNL     1      11.059  17.181  13.633  1.00  0.00    -0.550 OA
ATOM      4  O   UNL     1       9.651  18.846  12.929  1.00  0.00    -0.550 OA
ENDBRANCH   1   2
BRANCH   1   5
ATOM      5  C   UNL     1       8.697  15.814  11.934  1.00  0.00     0.003 C 
ATOM      6  C   UNL     1       7.440  16.231  11.177  1.00  0.00     0.004 C 
ENDBRANCH   1   5
TORSDOF 2
ENDMDL
