MODEL 1
REMARK VINA RESULT:    -6.120      0.000      0.000
REMARK INTER + INTRA:         -10.108
REMARK INTER:                  -8.803
REMARK INTRA:                  -1.305
REMARK UNBOUND:                -1.305
REMARK SMILES O=c1c(O[C@@H]2O[C@@H](CO)[C@@H](O)[C@H](O)[C@@H]2O)c(-c2ccc(O)cc2)oc2cc(O)cc(O)c12
REMARK SMILES IDX 4 1 3 2 16 3 24 4 2 5 25 6 1 7 32 8 26 9 30 10 27 11 29 12
REMARK SMILES IDX 17 13 18 14 19 15 20 16 23 17 22 18 21 19 31 21 28 23 5 25
REMARK SMILES IDX 14 26 6 27 12 28 7 29 10 30 15 31 13 33 8 35 9 36 11 38
REMARK H PARENT 21 20 31 22 28 24 15 32 13 34 9 37 11 39
REMARK Flexibility Score: inf
ROOT
ATOM      1  O   UNL     1      -9.332  23.307  -9.029  1.00  0.00    -0.454 OA
ENDROOT
BRANCH   1   2
ATOM      2  C   UNL     1      -8.423  24.285  -9.464  1.00  0.00     0.214 A 
ATOM      3  C   UNL     1      -7.107  23.974  -9.867  1.00  0.00     0.180 A 
ATOM      4  O   UNL     1      -6.394  24.877 -10.533  1.00  0.00    -0.452 OA
ATOM      5  C   UNL     1      -8.858  25.612  -9.562  1.00  0.00     0.239 A 
ATOM      6  C   UNL     1      -6.809  26.123 -10.735  1.00  0.00     0.146 A 
ATOM      7  O   UNL     1     -10.010  25.900  -9.128  1.00  0.00    -0.285 OA
ATOM      8  C   UNL     1      -8.032  26.585 -10.173  1.00  0.00     0.111 A 
ATOM      9  C   UNL     1      -6.021  26.982 -11.511  1.00  0.00     0.094 A 
ATOM     10  C   UNL     1      -8.361  27.967 -10.297  1.00  0.00     0.134 A 
ATOM     11  C   UNL     1      -6.411  28.303 -11.717  1.00  0.00     0.123 A 
ATOM     12  C   UNL     1      -7.561  28.792 -11.092  1.00  0.00     0.093 A 
BRANCH   3  13
ATOM     13  C   UNL     1      -6.458  22.682  -9.539  1.00  0.00     0.021 A 
ATOM     14  C   UNL     1      -6.765  21.494 -10.235  1.00  0.00     0.016 A 
ATOM     15  C   UNL     1      -6.217  20.270  -9.840  1.00  0.00     0.047 A 
ATOM     16  C   UNL     1      -5.385  20.198  -8.720  1.00  0.00     0.115 A 
ATOM     17  C   UNL     1      -5.611  22.597  -8.418  1.00  0.00     0.016 A 
ATOM     18  C   UNL     1      -5.077  21.363  -8.012  1.00  0.00     0.047 A 
BRANCH  16  19
ATOM     19  O   UNL     1      -4.873  18.966  -8.311  1.00  0.00    -0.508 OA
ATOM     20  H   UNL     1      -3.973  18.634  -8.625  1.00  0.00     0.293 HD
ENDBRANCH  16  19
ENDBRANCH   3  13
BRANCH  10  21
ATOM     21  O   UNL     1      -9.435  28.567  -9.631  1.00  0.00    -0.507 OA
ATOM     22  H   UNL     1      -9.314  29.302  -8.941  1.00  0.00     0.293 HD
ENDBRANCH  10  21
BRANCH  11  23
ATOM     23  O   UNL     1      -5.615  29.125 -12.510  1.00  0.00    -0.508 OA
ATOM     24  H   UNL     1      -4.825  28.747 -13.022  1.00  0.00     0.293 HD
ENDBRANCH  11  23
ENDBRANCH   1   2
BRANCH   1  25
ATOM     25  C   UNL     1      -9.719  23.137  -7.660  1.00  0.00     0.339 C 
ATOM     26  C   UNL     1      -9.938  21.626  -7.353  1.00  0.00     0.214 C 
ATOM     27  O   UNL     1      -8.736  23.705  -6.809  1.00  0.00    -0.332 OA
ATOM     28  C   UNL     1      -9.348  21.227  -5.986  1.00  0.00     0.180 C 
ATOM     29  C   UNL     1      -9.125  23.699  -5.439  1.00  0.00     0.179 C 
ATOM     30  C   UNL     1      -9.663  22.317  -4.953  1.00  0.00     0.177 C 
BRANCH  26  31
ATOM     31  O   UNL     1      -9.383  20.806  -8.359  1.00  0.00    -0.384 OA
ATOM     32  H   UNL     1     -10.054  20.758  -9.089  1.00  0.00     0.211 HD
ENDBRANCH  26  31
BRANCH  28  33
ATOM     33  O   UNL     1      -7.955  21.051  -6.100  1.00  0.00    -0.387 OA
ATOM     34  H   UNL     1      -7.819  20.219  -6.623  1.00  0.00     0.211 HD
ENDBRANCH  28  33
BRANCH  29  35
ATOM     35  C   UNL     1     -10.057  24.878  -5.110  1.00  0.00     0.191 C 
BRANCH  35  36
ATOM     36  O   UNL     1      -9.873  25.912  -6.033  1.00  0.00    -0.394 OA
ATOM     37  H   UNL     1     -10.431  26.670  -5.706  1.00  0.00     0.210 HD
ENDBRANCH  35  36
ENDBRANCH  29  35
BRANCH  30  38
ATOM     38  O   UNL     1     -11.054  22.340  -4.720  1.00  0.00    -0.387 OA
ATOM     39  H   UNL     1     -11.196  22.058  -3.782  1.00  0.00     0.211 HD
ENDBRANCH  30  38
ENDBRANCH   1  25
TORSDOF 11
ENDMDL
MODEL 2
REMARK VINA RESULT:    -5.621      2.235      3.498
REMARK INTER + INTRA:          -9.391
REMARK INTER:                  -7.981
REMARK INTRA:                  -1.410
REMARK UNBOUND:                -1.305
REMARK SMILES O=c1c(O[C@@H]2O[C@@H](CO)[C@@H](O)[C@H](O)[C@@H]2O)c(-c2ccc(O)cc2)oc2cc(O)cc(O)c12
REMARK SMILES IDX 4 1 3 2 16 3 24 4 2 5 25 6 1 7 32 8 26 9 30 10 27 11 29 12
REMARK SMILES IDX 17 13 18 14 19 15 20 16 23 17 22 18 21 19 31 21 28 23 5 25
REMARK SMILES IDX 14 26 6 27 12 28 7 29 10 30 15 31 13 33 8 35 9 36 11 38
REMARK H PARENT 21 20 31 22 28 24 15 32 13 34 9 37 11 39
REMARK Flexibility Score: inf
ROOT
ATOM      1  O   UNL     1      -6.642  23.663 -10.265  1.00  0.00    -0.454 OA
ENDROOT
BRANCH   1   2
ATOM      2  C   UNL     1      -5.637  24.601  -9.985  1.00  0.00     0.214 A 
ATOM      3  C   UNL     1      -4.465  24.270  -9.272  1.00  0.00     0.180 A 
ATOM      4  O   UNL     1      -3.431  25.106  -9.285  1.00  0.00    -0.452 OA
ATOM      5  C   UNL     1      -5.772  25.902 -10.483  1.00  0.00     0.239 A 
ATOM      6  C   UNL     1      -3.483  26.315  -9.834  1.00  0.00     0.146 A 
ATOM      7  O   UNL     1      -6.856  26.217 -11.053  1.00  0.00    -0.285 OA
ATOM      8  C   UNL     1      -4.697  26.816 -10.383  1.00  0.00     0.111 A 
ATOM      9  C   UNL     1      -2.321  27.097  -9.862  1.00  0.00     0.094 A 
ATOM     10  C   UNL     1      -4.737  28.170 -10.827  1.00  0.00     0.134 A 
ATOM     11  C   UNL     1      -2.348  28.380 -10.402  1.00  0.00     0.123 A 
ATOM     12  C   UNL     1      -3.556  28.916 -10.858  1.00  0.00     0.093 A 
BRANCH   3  13
ATOM     13  C   UNL     1      -4.346  23.033  -8.464  1.00  0.00     0.021 A 
ATOM     14  C   UNL     1      -4.287  21.756  -9.058  1.00  0.00     0.016 A 
ATOM     15  C   UNL     1      -4.281  20.599  -8.271  1.00  0.00     0.047 A 
ATOM     16  C   UNL     1      -4.373  20.691  -6.880  1.00  0.00     0.115 A 
ATOM     17  C   UNL     1      -4.430  23.112  -7.060  1.00  0.00     0.016 A 
ATOM     18  C   UNL     1      -4.442  21.949  -6.274  1.00  0.00     0.047 A 
BRANCH  16  19
ATOM     19  O   UNL     1      -4.403  19.530  -6.107  1.00  0.00    -0.508 OA
ATOM     20  H   UNL     1      -4.658  18.637  -6.501  1.00  0.00     0.293 HD
ENDBRANCH  16  19
ENDBRANCH   3  13
BRANCH  10  21
ATOM     21  O   UNL     1      -5.914  28.821 -11.210  1.00  0.00    -0.507 OA
ATOM     22  H   UNL     1      -5.934  29.552 -11.915  1.00  0.00     0.293 HD
ENDBRANCH  10  21
BRANCH  11  23
ATOM     23  O   UNL     1      -1.172  29.123 -10.433  1.00  0.00    -0.508 OA
ATOM     24  H   UNL     1      -1.070  29.961  -9.870  1.00  0.00     0.293 HD
ENDBRANCH  11  23
ENDBRANCH   1   2
BRANCH   1  25
ATOM     25  C   UNL     1      -7.675  23.305  -9.338  1.00  0.00     0.339 C 
ATOM     26  C   UNL     1      -9.065  23.716  -9.905  1.00  0.00     0.214 C 
ATOM     27  O   UNL     1      -7.614  21.913  -9.066  1.00  0.00    -0.332 OA
ATOM     28  C   UNL     1     -10.129  22.627  -9.666  1.00  0.00     0.180 C 
ATOM     29  C   UNL     1      -8.520  21.514  -8.042  1.00  0.00     0.179 C 
ATOM     30  C   UNL     1      -9.969  22.057  -8.249  1.00  0.00     0.177 C 
BRANCH  26  31
ATOM     31  O   UNL     1      -8.998  24.007 -11.285  1.00  0.00    -0.384 OA
ATOM     32  H   UNL     1      -9.409  23.237 -11.759  1.00  0.00     0.211 HD
ENDBRANCH  26  31
BRANCH  28  33
ATOM     33  O   UNL     1      -9.989  21.602 -10.622  1.00  0.00    -0.387 OA
ATOM     34  H   UNL     1      -9.021  21.549 -10.836  1.00  0.00     0.211 HD
ENDBRANCH  28  33
BRANCH  29  35
ATOM     35  C   UNL     1      -7.949  21.789  -6.642  1.00  0.00     0.191 C 
BRANCH  35  36
ATOM     36  O   UNL     1      -7.518  20.597  -6.052  1.00  0.00    -0.394 OA
ATOM     37  H   UNL     1      -8.319  20.213  -5.599  1.00  0.00     0.210 HD
ENDBRANCH  35  36
ENDBRANCH  29  35
BRANCH  30  38
ATOM     38  O   UNL     1     -10.300  23.057  -7.312  1.00  0.00    -0.387 OA
ATOM     39  H   UNL     1     -10.326  23.917  -7.802  1.00  0.00     0.211 HD
ENDBRANCH  30  38
ENDBRANCH   1  25
TORSDOF 11
ENDMDL
MODEL 3
REMARK VINA RESULT:    -5.444      2.760      3.759
REMARK INTER + INTRA:          -9.136
REMARK INTER:                  -8.184
REMARK INTRA:                  -0.952
REMARK UNBOUND:                -1.305
REMARK SMILES O=c1c(O[C@@H]2O[C@@H](CO)[C@@H](O)[C@H](O)[C@@H]2O)c(-c2ccc(O)cc2)oc2cc(O)cc(O)c12
REMARK SMILES IDX 4 1 3 2 16 3 24 4 2 5 25 6 1 7 32 8 26 9 30 10 27 11 29 12
REMARK SMILES IDX 17 13 18 14 19 15 20 16 23 17 22 18 21 19 31 21 28 23 5 25
REMARK SMILES IDX 14 26 6 27 12 28 7 29 10 30 15 31 13 33 8 35 9 36 11 38
REMARK H PARENT 21 20 31 22 28 24 15 32 13 34 9 37 11 39
REMARK Flexibility Score: inf
ROOT
ATOM      1  O   UNL     1      -6.627  23.943  -7.259  1.00  0.00    -0.454 OA
ENDROOT
BRANCH   1   2
ATOM      2  C   UNL     1      -5.469  24.574  -7.742  1.00  0.00     0.214 A 
ATOM      3  C   UNL     1      -4.422  23.865  -8.370  1.00  0.00     0.180 A 
ATOM      4  O   UNL     1      -3.499  24.530  -9.057  1.00  0.00    -0.452 OA
ATOM      5  C   UNL     1      -5.374  25.968  -7.653  1.00  0.00     0.239 A 
ATOM      6  C   UNL     1      -3.429  25.857  -9.082  1.00  0.00     0.146 A 
ATOM      7  O   UNL     1      -6.275  26.591  -7.023  1.00  0.00    -0.285 OA
ATOM      8  C   UNL     1      -4.314  26.649  -8.298  1.00  0.00     0.111 A 
ATOM      9  C   UNL     1      -2.465  26.470  -9.891  1.00  0.00     0.094 A 
ATOM     10  C   UNL     1      -4.105  28.058  -8.246  1.00  0.00     0.134 A 
ATOM     11  C   UNL     1      -2.344  27.857  -9.917  1.00  0.00     0.123 A 
ATOM     12  C   UNL     1      -3.145  28.638  -9.080  1.00  0.00     0.093 A 
BRANCH   3  13
ATOM     13  C   UNL     1      -4.281  22.393  -8.263  1.00  0.00     0.021 A 
ATOM     14  C   UNL     1      -4.863  21.516  -9.202  1.00  0.00     0.016 A 
ATOM     15  C   UNL     1      -4.803  20.131  -9.022  1.00  0.00     0.047 A 
ATOM     16  C   UNL     1      -4.198  19.593  -7.883  1.00  0.00     0.115 A 
ATOM     17  C   UNL     1      -3.666  21.837  -7.125  1.00  0.00     0.016 A 
ATOM     18  C   UNL     1      -3.624  20.446  -6.937  1.00  0.00     0.047 A 
BRANCH  16  19
ATOM     19  O   UNL     1      -4.177  18.210  -7.694  1.00  0.00    -0.508 OA
ATOM     20  H   UNL     1      -5.018  17.690  -7.492  1.00  0.00     0.293 HD
ENDBRANCH  16  19
ENDBRANCH   3  13
BRANCH  10  21
ATOM     21  O   UNL     1      -4.790  28.908  -7.371  1.00  0.00    -0.507 OA
ATOM     22  H   UNL     1      -4.322  29.444  -6.646  1.00  0.00     0.293 HD
ENDBRANCH  10  21
BRANCH  11  23
ATOM     23  O   UNL     1      -1.389  28.435 -10.748  1.00  0.00    -0.508 OA
ATOM     24  H   UNL     1      -1.077  29.390 -10.597  1.00  0.00     0.293 HD
ENDBRANCH  11  23
ENDBRANCH   1   2
BRANCH   1  25
ATOM     25  C   UNL     1      -7.448  23.078  -8.052  1.00  0.00     0.339 C 
ATOM     26  C   UNL     1      -8.018  21.929  -7.168  1.00  0.00     0.214 C 
ATOM     27  O   UNL     1      -8.486  23.828  -8.664  1.00  0.00    -0.332 OA
ATOM     28  C   UNL     1      -9.501  21.646  -7.480  1.00  0.00     0.180 C 
ATOM     29  C   UNL     1      -9.254  23.055  -9.581  1.00  0.00     0.179 C 
ATOM     30  C   UNL     1      -9.722  21.685  -8.998  1.00  0.00     0.177 C 
BRANCH  26  31
ATOM     31  O   UNL     1      -7.876  22.213  -5.793  1.00  0.00    -0.384 OA
ATOM     32  H   UNL     1      -8.165  23.154  -5.665  1.00  0.00     0.211 HD
ENDBRANCH  26  31
BRANCH  28  33
ATOM     33  O   UNL     1     -10.314  22.603  -6.845  1.00  0.00    -0.387 OA
ATOM     34  H   UNL     1     -11.248  22.276  -6.926  1.00  0.00     0.211 HD
ENDBRANCH  28  33
BRANCH  29  35
ATOM     35  C   UNL     1      -8.560  22.943 -10.949  1.00  0.00     0.191 C 
BRANCH  35  36
ATOM     36  O   UNL     1      -9.488  22.601 -11.936  1.00  0.00    -0.394 OA
ATOM     37  H   UNL     1      -9.755  21.660 -11.743  1.00  0.00     0.210 HD
ENDBRANCH  35  36
ENDBRANCH  29  35
BRANCH  30  38
ATOM     38  O   UNL     1      -9.044  20.598  -9.589  1.00  0.00    -0.387 OA
ATOM     39  H   UNL     1      -9.686  19.846  -9.633  1.00  0.00     0.211 HD
ENDBRANCH  30  38
ENDBRANCH   1  25
TORSDOF 11
ENDMDL
MODEL 4
REMARK VINA RESULT:    -5.429      1.744      5.987
REMARK INTER + INTRA:          -9.114
REMARK INTER:                  -7.862
REMARK INTRA:                  -1.252
REMARK UNBOUND:                -1.305
REMARK SMILES O=c1c(O[C@@H]2O[C@@H](CO)[C@@H](O)[C@H](O)[C@@H]2O)c(-c2ccc(O)cc2)oc2cc(O)cc(O)c12
REMARK SMILES IDX 4 1 3 2 16 3 24 4 2 5 25 6 1 7 32 8 26 9 30 10 27 11 29 12
REMARK SMILES IDX 17 13 18 14 19 15 20 16 23 17 22 18 21 19 31 21 28 23 5 25
REMARK SMILES IDX 14 26 6 27 12 28 7 29 10 30 15 31 13 33 8 35 9 36 11 38
REMARK H PARENT 21 20 31 22 28 24 15 32 13 34 9 37 11 39
REMARK Flexibility Score: inf
ROOT
ATOM      1  O   UNL     1      -8.949  23.316  -8.959  1.00  0.00    -0.454 OA
ENDROOT
BRANCH   1   2
ATOM      2  C   UNL     1      -9.193  24.374  -8.069  1.00  0.00     0.214 A 
ATOM      3  C   UNL     1      -9.004  25.726  -8.424  1.00  0.00     0.180 A 
ATOM      4  O   UNL     1      -9.516  26.684  -7.658  1.00  0.00    -0.452 OA
ATOM      5  C   UNL     1      -9.700  24.081  -6.797  1.00  0.00     0.239 A 
ATOM      6  C   UNL     1     -10.096  26.443  -6.487  1.00  0.00     0.146 A 
ATOM      7  O   UNL     1      -9.795  22.868  -6.454  1.00  0.00    -0.285 OA
ATOM      8  C   UNL     1     -10.134  25.126  -5.949  1.00  0.00     0.111 A 
ATOM      9  C   UNL     1     -10.670  27.509  -5.783  1.00  0.00     0.094 A 
ATOM     10  C   UNL     1     -10.637  24.944  -4.627  1.00  0.00     0.134 A 
ATOM     11  C   UNL     1     -11.258  27.297  -4.539  1.00  0.00     0.123 A 
ATOM     12  C   UNL     1     -11.218  26.026  -3.960  1.00  0.00     0.093 A 
BRANCH   3  13
ATOM     13  C   UNL     1      -8.214  26.135  -9.610  1.00  0.00     0.021 A 
ATOM     14  C   UNL     1      -6.806  26.055  -9.634  1.00  0.00     0.016 A 
ATOM     15  C   UNL     1      -6.079  26.543 -10.724  1.00  0.00     0.047 A 
ATOM     16  C   UNL     1      -6.737  27.157 -11.794  1.00  0.00     0.115 A 
ATOM     17  C   UNL     1      -8.865  26.748 -10.698  1.00  0.00     0.016 A 
ATOM     18  C   UNL     1      -8.131  27.254 -11.783  1.00  0.00     0.047 A 
BRANCH  16  19
ATOM     19  O   UNL     1      -5.999  27.675 -12.859  1.00  0.00    -0.508 OA
ATOM     20  H   UNL     1      -5.019  27.898 -12.767  1.00  0.00     0.293 HD
ENDBRANCH  16  19
ENDBRANCH   3  13
BRANCH  10  21
ATOM     21  O   UNL     1     -10.552  23.734  -3.930  1.00  0.00    -0.507 OA
ATOM     22  H   UNL     1     -11.058  23.560  -3.066  1.00  0.00     0.293 HD
ENDBRANCH  10  21
BRANCH  11  23
ATOM     23  O   UNL     1     -11.838  28.374  -3.875  1.00  0.00    -0.508 OA
ATOM     24  H   UNL     1     -12.549  28.942  -4.326  1.00  0.00     0.293 HD
ENDBRANCH  11  23
ENDBRANCH   1   2
BRANCH   1  25
ATOM     25  C   UNL     1      -7.904  22.352  -8.780  1.00  0.00     0.339 C 
ATOM     26  C   UNL     1      -7.490  21.754 -10.156  1.00  0.00     0.214 C 
ATOM     27  O   UNL     1      -6.802  22.957  -8.121  1.00  0.00    -0.332 OA
ATOM     28  C   UNL     1      -5.961  21.615 -10.285  1.00  0.00     0.180 C 
ATOM     29  C   UNL     1      -5.784  22.020  -7.782  1.00  0.00     0.179 C 
ATOM     30  C   UNL     1      -5.381  21.086  -8.966  1.00  0.00     0.177 C 
BRANCH  26  31
ATOM     31  O   UNL     1      -7.980  22.531 -11.228  1.00  0.00    -0.384 OA
ATOM     32  H   UNL     1      -8.249  23.407 -10.846  1.00  0.00     0.211 HD
ENDBRANCH  26  31
BRANCH  28  33
ATOM     33  O   UNL     1      -5.391  22.863 -10.602  1.00  0.00    -0.387 OA
ATOM     34  H   UNL     1      -4.431  22.694 -10.789  1.00  0.00     0.211 HD
ENDBRANCH  28  33
BRANCH  29  35
ATOM     35  C   UNL     1      -6.116  21.268  -6.483  1.00  0.00     0.191 C 
BRANCH  35  36
ATOM     36  O   UNL     1      -5.122  20.326  -6.201  1.00  0.00    -0.394 OA
ATOM     37  H   UNL     1      -4.296  20.852  -6.015  1.00  0.00     0.210 HD
ENDBRANCH  35  36
ENDBRANCH  29  35
BRANCH  30  38
ATOM     38  O   UNL     1      -5.820  19.761  -8.769  1.00  0.00    -0.387 OA
ATOM     39  H   UNL     1      -6.684  19.810  -8.290  1.00  0.00     0.211 HD
ENDBRANCH  30  38
ENDBRANCH   1  25
TORSDOF 11
ENDMDL
MODEL 5
REMARK VINA RESULT:    -5.314      2.854      4.442
REMARK INTER + INTRA:          -8.949
REMARK INTER:                  -7.937
REMARK INTRA:                  -1.013
REMARK UNBOUND:                -1.305
REMARK SMILES O=c1c(O[C@@H]2O[C@@H](CO)[C@@H](O)[C@H](O)[C@@H]2O)c(-c2ccc(O)cc2)oc2cc(O)cc(O)c12
REMARK SMILES IDX 4 1 3 2 16 3 24 4 2 5 25 6 1 7 32 8 26 9 30 10 27 11 29 12
REMARK SMILES IDX 17 13 18 14 19 15 20 16 23 17 22 18 21 19 31 21 28 23 5 25
REMARK SMILES IDX 14 26 6 27 12 28 7 29 10 30 15 31 13 33 8 35 9 36 11 38
REMARK H PARENT 21 20 31 22 28 24 15 32 13 34 9 37 11 39
REMARK Flexibility Score: inf
ROOT
ATOM      1  O   UNL     1      -5.414  21.789  -9.097  1.00  0.00    -0.454 OA
ENDROOT
BRANCH   1   2
ATOM      2  C   UNL     1      -5.747  23.125  -9.368  1.00  0.00     0.214 A 
ATOM      3  C   UNL     1      -4.773  24.128  -9.561  1.00  0.00     0.180 A 
ATOM      4  O   UNL     1      -5.127  25.294 -10.092  1.00  0.00    -0.452 OA
ATOM      5  C   UNL     1      -7.097  23.467  -9.512  1.00  0.00     0.239 A 
ATOM      6  C   UNL     1      -6.391  25.624 -10.338  1.00  0.00     0.146 A 
ATOM      7  O   UNL     1      -7.969  22.587  -9.262  1.00  0.00    -0.285 OA
ATOM      8  C   UNL     1      -7.457  24.757  -9.970  1.00  0.00     0.111 A 
ATOM      9  C   UNL     1      -6.661  26.847 -10.966  1.00  0.00     0.094 A 
ATOM     10  C   UNL     1      -8.796  25.219 -10.122  1.00  0.00     0.134 A 
ATOM     11  C   UNL     1      -7.975  27.238 -11.210  1.00  0.00     0.123 A 
ATOM     12  C   UNL     1      -9.031  26.437 -10.767  1.00  0.00     0.093 A 
BRANCH   3  13
ATOM     13  C   UNL     1      -3.357  23.952  -9.156  1.00  0.00     0.021 A 
ATOM     14  C   UNL     1      -2.842  24.524  -7.974  1.00  0.00     0.016 A 
ATOM     15  C   UNL     1      -1.481  24.431  -7.667  1.00  0.00     0.047 A 
ATOM     16  C   UNL     1      -0.600  23.802  -8.550  1.00  0.00     0.115 A 
ATOM     17  C   UNL     1      -2.460  23.314 -10.033  1.00  0.00     0.016 A 
ATOM     18  C   UNL     1      -1.091  23.238  -9.732  1.00  0.00     0.047 A 
BRANCH  16  19
ATOM     19  O   UNL     1       0.762  23.747  -8.253  1.00  0.00    -0.508 OA
ATOM     20  H   UNL     1       1.442  23.434  -8.931  1.00  0.00     0.293 HD
ENDBRANCH  16  19
ENDBRANCH   3  13
BRANCH  10  21
ATOM     21  O   UNL     1      -9.911  24.534  -9.626  1.00  0.00    -0.507 OA
ATOM     22  H   UNL     1     -10.258  24.660  -8.679  1.00  0.00     0.293 HD
ENDBRANCH  10  21
BRANCH  11  23
ATOM     23  O   UNL     1      -8.209  28.449 -11.854  1.00  0.00    -0.508 OA
ATOM     24  H   UNL     1      -8.015  28.559 -12.844  1.00  0.00     0.293 HD
ENDBRANCH  11  23
ENDBRANCH   1   2
BRANCH   1  25
ATOM     25  C   UNL     1      -5.397  21.226  -7.780  1.00  0.00     0.339 C 
ATOM     26  C   UNL     1      -4.215  20.222  -7.644  1.00  0.00     0.214 C 
ATOM     27  O   UNL     1      -5.312  22.264  -6.815  1.00  0.00    -0.332 OA
ATOM     28  C   UNL     1      -3.488  20.369  -6.293  1.00  0.00     0.180 C 
ATOM     29  C   UNL     1      -5.436  21.785  -5.480  1.00  0.00     0.179 C 
ATOM     30  C   UNL     1      -4.520  20.559  -5.173  1.00  0.00     0.177 C 
BRANCH  26  31
ATOM     31  O   UNL     1      -3.283  20.373  -8.694  1.00  0.00    -0.384 OA
ATOM     32  H   UNL     1      -3.789  20.714  -9.477  1.00  0.00     0.211 HD
ENDBRANCH  26  31
BRANCH  28  33
ATOM     33  O   UNL     1      -2.611  21.469  -6.339  1.00  0.00    -0.387 OA
ATOM     34  H   UNL     1      -1.847  21.245  -5.746  1.00  0.00     0.211 HD
ENDBRANCH  28  33
BRANCH  29  35
ATOM     35  C   UNL     1      -6.907  21.574  -5.088  1.00  0.00     0.191 C 
BRANCH  35  36
ATOM     36  O   UNL     1      -7.542  20.744  -6.017  1.00  0.00    -0.394 OA
ATOM     37  H   UNL     1      -7.058  19.873  -5.977  1.00  0.00     0.210 HD
ENDBRANCH  35  36
ENDBRANCH  29  35
BRANCH  30  38
ATOM     38  O   UNL     1      -5.261  19.368  -5.025  1.00  0.00    -0.387 OA
ATOM     39  H   UNL     1      -5.441  19.023  -5.935  1.00  0.00     0.211 HD
ENDBRANCH  30  38
ENDBRANCH   1  25
TORSDOF 11
ENDMDL
MODEL 6
REMARK VINA RESULT:    -5.265      1.728      2.549
REMARK INTER + INTRA:          -8.878
REMARK INTER:                  -7.690
REMARK INTRA:                  -1.188
REMARK UNBOUND:                -1.305
REMARK SMILES O=c1c(O[C@@H]2O[C@@H](CO)[C@@H](O)[C@H](O)[C@@H]2O)c(-c2ccc(O)cc2)oc2cc(O)cc(O)c12
REMARK SMILES IDX 4 1 3 2 16 3 24 4 2 5 25 6 1 7 32 8 26 9 30 10 27 11 29 12
REMARK SMILES IDX 17 13 18 14 19 15 20 16 23 17 22 18 21 19 31 21 28 23 5 25
REMARK SMILES IDX 14 26 6 27 12 28 7 29 10 30 15 31 13 33 8 35 9 36 11 38
REMARK H PARENT 21 20 31 22 28 24 15 32 13 34 9 37 11 39
REMARK Flexibility Score: inf
ROOT
ATOM      1  O   UNL     1      -6.769  24.018  -6.744  1.00  0.00    -0.454 OA
ENDROOT
BRANCH   1   2
ATOM      2  C   UNL     1      -6.286  24.727  -7.855  1.00  0.00     0.214 A 
ATOM      3  C   UNL     1      -5.807  24.087  -9.018  1.00  0.00     0.180 A 
ATOM      4  O   UNL     1      -5.636  24.791 -10.132  1.00  0.00    -0.452 OA
ATOM      5  C   UNL     1      -6.337  26.126  -7.835  1.00  0.00     0.239 A 
ATOM      6  C   UNL     1      -5.770  26.112 -10.183  1.00  0.00     0.146 A 
ATOM      7  O   UNL     1      -6.693  26.698  -6.765  1.00  0.00    -0.285 OA
ATOM      8  C   UNL     1      -6.038  26.864  -9.005  1.00  0.00     0.111 A 
ATOM      9  C   UNL     1      -5.641  26.760 -11.418  1.00  0.00     0.094 A 
ATOM     10  C   UNL     1      -6.029  28.287  -9.087  1.00  0.00     0.134 A 
ATOM     11  C   UNL     1      -5.744  28.145 -11.502  1.00  0.00     0.123 A 
ATOM     12  C   UNL     1      -5.913  28.900 -10.338  1.00  0.00     0.093 A 
BRANCH   3  13
ATOM     13  C   UNL     1      -5.441  22.650  -9.042  1.00  0.00     0.021 A 
ATOM     14  C   UNL     1      -6.306  21.668  -9.569  1.00  0.00     0.016 A 
ATOM     15  C   UNL     1      -5.983  20.310  -9.486  1.00  0.00     0.047 A 
ATOM     16  C   UNL     1      -4.812  19.901  -8.842  1.00  0.00     0.115 A 
ATOM     17  C   UNL     1      -4.261  22.225  -8.403  1.00  0.00     0.016 A 
ATOM     18  C   UNL     1      -3.948  20.860  -8.305  1.00  0.00     0.047 A 
BRANCH  16  19
ATOM     19  O   UNL     1      -4.517  18.542  -8.731  1.00  0.00    -0.508 OA
ATOM     20  H   UNL     1      -5.074  17.839  -9.194  1.00  0.00     0.293 HD
ENDBRANCH  16  19
ENDBRANCH   3  13
BRANCH  10  21
ATOM     21  O   UNL     1      -6.094  29.125  -7.968  1.00  0.00    -0.507 OA
ATOM     22  H   UNL     1      -6.851  29.786  -7.820  1.00  0.00     0.293 HD
ENDBRANCH  10  21
BRANCH  11  23
ATOM     23  O   UNL     1      -5.631  28.756 -12.747  1.00  0.00    -0.508 OA
ATOM     24  H   UNL     1      -4.792  29.266 -13.003  1.00  0.00     0.293 HD
ENDBRANCH  11  23
ENDBRANCH   1   2
BRANCH   1  25
ATOM     25  C   UNL     1      -7.906  23.147  -6.793  1.00  0.00     0.339 C 
ATOM     26  C   UNL     1      -8.280  22.679  -5.355  1.00  0.00     0.214 C 
ATOM     27  O   UNL     1      -8.991  23.808  -7.424  1.00  0.00    -0.332 OA
ATOM     28  C   UNL     1      -9.803  22.692  -5.125  1.00  0.00     0.180 C 
ATOM     29  C   UNL     1     -10.109  22.951  -7.635  1.00  0.00     0.179 C 
ATOM     30  C   UNL     1     -10.514  22.136  -6.367  1.00  0.00     0.177 C 
BRANCH  26  31
ATOM     31  O   UNL     1      -7.653  23.474  -4.372  1.00  0.00    -0.384 OA
ATOM     32  H   UNL     1      -8.341  23.672  -3.684  1.00  0.00     0.211 HD
ENDBRANCH  26  31
BRANCH  28  33
ATOM     33  O   UNL     1     -10.237  24.005  -4.862  1.00  0.00    -0.387 OA
ATOM     34  H   UNL     1      -9.756  24.302  -4.046  1.00  0.00     0.211 HD
ENDBRANCH  28  33
BRANCH  29  35
ATOM     35  C   UNL     1      -9.931  22.089  -8.896  1.00  0.00     0.191 C 
BRANCH  35  36
ATOM     36  O   UNL     1      -9.730  22.903 -10.014  1.00  0.00    -0.394 OA
ATOM     37  H   UNL     1      -9.220  23.694  -9.686  1.00  0.00     0.210 HD
ENDBRANCH  35  36
ENDBRANCH  29  35
BRANCH  30  38
ATOM     38  O   UNL     1     -10.209  20.766  -6.496  1.00  0.00    -0.387 OA
ATOM     39  H   UNL     1     -10.003  20.603  -7.450  1.00  0.00     0.211 HD
ENDBRANCH  30  38
ENDBRANCH   1  25
TORSDOF 11
ENDMDL
MODEL 7
REMARK VINA RESULT:    -5.195      2.756      5.905
REMARK INTER + INTRA:          -8.778
REMARK INTER:                  -7.243
REMARK INTRA:                  -1.535
REMARK UNBOUND:                -1.305
REMARK SMILES O=c1c(O[C@@H]2O[C@@H](CO)[C@@H](O)[C@H](O)[C@@H]2O)c(-c2ccc(O)cc2)oc2cc(O)cc(O)c12
REMARK SMILES IDX 4 1 3 2 16 3 24 4 2 5 25 6 1 7 32 8 26 9 30 10 27 11 29 12
REMARK SMILES IDX 17 13 18 14 19 15 20 16 23 17 22 18 21 19 31 21 28 23 5 25
REMARK SMILES IDX 14 26 6 27 12 28 7 29 10 30 15 31 13 33 8 35 9 36 11 38
REMARK H PARENT 21 20 31 22 28 24 15 32 13 34 9 37 11 39
REMARK Flexibility Score: inf
ROOT
ATOM      1  O   UNL     1      -6.444  23.631 -10.106  1.00  0.00    -0.454 OA
ENDROOT
BRANCH   1   2
ATOM      2  C   UNL     1      -5.528  24.212  -9.214  1.00  0.00     0.214 A 
ATOM      3  C   UNL     1      -5.574  25.576  -8.857  1.00  0.00     0.180 A 
ATOM      4  O   UNL     1      -4.880  26.004  -7.807  1.00  0.00    -0.452 OA
ATOM      5  C   UNL     1      -4.568  23.393  -8.607  1.00  0.00     0.239 A 
ATOM      6  C   UNL     1      -4.029  25.233  -7.137  1.00  0.00     0.146 A 
ATOM      7  O   UNL     1      -4.479  22.190  -8.986  1.00  0.00    -0.285 OA
ATOM      8  C   UNL     1      -3.757  23.903  -7.566  1.00  0.00     0.111 A 
ATOM      9  C   UNL     1      -3.397  25.750  -6.000  1.00  0.00     0.094 A 
ATOM     10  C   UNL     1      -2.731  23.169  -6.902  1.00  0.00     0.134 A 
ATOM     11  C   UNL     1      -2.476  24.981  -5.294  1.00  0.00     0.123 A 
ATOM     12  C   UNL     1      -2.132  23.709  -5.760  1.00  0.00     0.093 A 
BRANCH   3  13
ATOM     13  C   UNL     1      -6.341  26.578  -9.636  1.00  0.00     0.021 A 
ATOM     14  C   UNL     1      -7.540  27.141  -9.152  1.00  0.00     0.016 A 
ATOM     15  C   UNL     1      -8.298  28.005  -9.949  1.00  0.00     0.047 A 
ATOM     16  C   UNL     1      -7.899  28.292 -11.257  1.00  0.00     0.115 A 
ATOM     17  C   UNL     1      -5.946  26.882 -10.952  1.00  0.00     0.016 A 
ATOM     18  C   UNL     1      -6.718  27.735 -11.757  1.00  0.00     0.047 A 
BRANCH  16  19
ATOM     19  O   UNL     1      -8.682  29.125 -12.057  1.00  0.00    -0.508 OA
ATOM     20  H   UNL     1      -8.690  29.041 -13.063  1.00  0.00     0.293 HD
ENDBRANCH  16  19
ENDBRANCH   3  13
BRANCH  10  21
ATOM     21  O   UNL     1      -2.253  21.933  -7.351  1.00  0.00    -0.507 OA
ATOM     22  H   UNL     1      -1.265  21.746  -7.498  1.00  0.00     0.293 HD
ENDBRANCH  10  21
BRANCH  11  23
ATOM     23  O   UNL     1      -1.881  25.517  -4.156  1.00  0.00    -0.508 OA
ATOM     24  H   UNL     1      -1.242  24.964  -3.593  1.00  0.00     0.293 HD
ENDBRANCH  11  23
ENDBRANCH   1   2
BRANCH   1  25
ATOM     25  C   UNL     1      -7.798  23.317  -9.760  1.00  0.00     0.339 C 
ATOM     26  C   UNL     1      -8.082  21.811 -10.034  1.00  0.00     0.214 C 
ATOM     27  O   UNL     1      -8.037  23.654  -8.402  1.00  0.00    -0.332 OA
ATOM     28  C   UNL     1      -8.906  21.166  -8.902  1.00  0.00     0.180 C 
ATOM     29  C   UNL     1      -9.404  23.502  -8.031  1.00  0.00     0.179 C 
ATOM     30  C   UNL     1     -10.015  22.131  -8.461  1.00  0.00     0.177 C 
BRANCH  26  31
ATOM     31  O   UNL     1      -6.887  21.082 -10.215  1.00  0.00    -0.384 OA
ATOM     32  H   UNL     1      -7.021  20.509 -11.014  1.00  0.00     0.211 HD
ENDBRANCH  26  31
BRANCH  28  33
ATOM     33  O   UNL     1      -8.066  20.859  -7.814  1.00  0.00    -0.387 OA
ATOM     34  H   UNL     1      -7.247  20.451  -8.198  1.00  0.00     0.211 HD
ENDBRANCH  28  33
BRANCH  29  35
ATOM     35  C   UNL     1     -10.244  24.717  -8.455  1.00  0.00     0.191 C 
BRANCH  35  36
ATOM     36  O   UNL     1     -10.472  25.555  -7.359  1.00  0.00    -0.394 OA
ATOM     37  H   UNL     1     -11.373  25.956  -7.507  1.00  0.00     0.210 HD
ENDBRANCH  35  36
ENDBRANCH  29  35
BRANCH  30  38
ATOM     38  O   UNL     1     -10.946  22.272  -9.511  1.00  0.00    -0.387 OA
ATOM     39  H   UNL     1     -10.687  23.078 -10.023  1.00  0.00     0.211 HD
ENDBRANCH  30  38
ENDBRANCH   1  25
TORSDOF 11
ENDMDL
MODEL 8
REMARK VINA RESULT:    -5.142      2.095      5.097
REMARK INTER + INTRA:          -8.701
REMARK INTER:                  -7.040
REMARK INTRA:                  -1.661
REMARK UNBOUND:                -1.305
REMARK SMILES O=c1c(O[C@@H]2O[C@@H](CO)[C@@H](O)[C@H](O)[C@@H]2O)c(-c2ccc(O)cc2)oc2cc(O)cc(O)c12
REMARK SMILES IDX 4 1 3 2 16 3 24 4 2 5 25 6 1 7 32 8 26 9 30 10 27 11 29 12
REMARK SMILES IDX 17 13 18 14 19 15 20 16 23 17 22 18 21 19 31 21 28 23 5 25
REMARK SMILES IDX 14 26 6 27 12 28 7 29 10 30 15 31 13 33 8 35 9 36 11 38
REMARK H PARENT 21 20 31 22 28 24 15 32 13 34 9 37 11 39
REMARK Flexibility Score: inf
ROOT
ATOM      1  O   UNL     1      -8.322  23.215  -9.169  1.00  0.00    -0.454 OA
ENDROOT
BRANCH   1   2
ATOM      2  C   UNL     1      -7.043  23.787  -9.257  1.00  0.00     0.214 A 
ATOM      3  C   UNL     1      -6.841  25.168  -9.464  1.00  0.00     0.180 A 
ATOM      4  O   UNL     1      -5.638  25.695  -9.253  1.00  0.00    -0.452 OA
ATOM      5  C   UNL     1      -5.924  22.967  -9.071  1.00  0.00     0.239 A 
ATOM      6  C   UNL     1      -4.565  24.962  -8.977  1.00  0.00     0.146 A 
ATOM      7  O   UNL     1      -6.105  21.721  -8.963  1.00  0.00    -0.285 OA
ATOM      8  C   UNL     1      -4.635  23.540  -8.964  1.00  0.00     0.111 A 
ATOM      9  C   UNL     1      -3.355  25.610  -8.699  1.00  0.00     0.094 A 
ATOM     10  C   UNL     1      -3.427  22.799  -8.806  1.00  0.00     0.134 A 
ATOM     11  C   UNL     1      -2.204  24.873  -8.436  1.00  0.00     0.123 A 
ATOM     12  C   UNL     1      -2.241  23.478  -8.514  1.00  0.00     0.093 A 
BRANCH   3  13
ATOM     13  C   UNL     1      -7.915  26.066  -9.954  1.00  0.00     0.021 A 
ATOM     14  C   UNL     1      -7.957  26.523 -11.287  1.00  0.00     0.016 A 
ATOM     15  C   UNL     1      -8.920  27.451 -11.697  1.00  0.00     0.047 A 
ATOM     16  C   UNL     1      -9.834  27.972 -10.777  1.00  0.00     0.115 A 
ATOM     17  C   UNL     1      -8.847  26.593  -9.039  1.00  0.00     0.016 A 
ATOM     18  C   UNL     1      -9.801  27.538  -9.449  1.00  0.00     0.047 A 
BRANCH  16  19
ATOM     19  O   UNL     1     -10.766  28.925 -11.187  1.00  0.00    -0.508 OA
ATOM     20  H   UNL     1     -11.122  29.626 -10.554  1.00  0.00     0.293 HD
ENDBRANCH  16  19
ENDBRANCH   3  13
BRANCH  10  21
ATOM     21  O   UNL     1      -3.348  21.411  -8.963  1.00  0.00    -0.507 OA
ATOM     22  H   UNL     1      -4.031  20.877  -9.492  1.00  0.00     0.293 HD
ENDBRANCH  10  21
BRANCH  11  23
ATOM     23  O   UNL     1      -1.023  25.548  -8.143  1.00  0.00    -0.508 OA
ATOM     24  H   UNL     1      -1.038  26.518  -7.844  1.00  0.00     0.293 HD
ENDBRANCH  11  23
ENDBRANCH   1   2
BRANCH   1  25
ATOM     25  C   UNL     1      -9.027  23.034  -7.935  1.00  0.00     0.339 C 
ATOM     26  C   UNL     1      -9.401  21.533  -7.750  1.00  0.00     0.214 C 
ATOM     27  O   UNL     1      -8.237  23.510  -6.856  1.00  0.00    -0.332 OA
ATOM     28  C   UNL     1      -9.170  21.058  -6.302  1.00  0.00     0.180 C 
ATOM     29  C   UNL     1      -8.935  23.494  -5.615  1.00  0.00     0.179 C 
ATOM     30  C   UNL     1      -9.652  22.138  -5.325  1.00  0.00     0.177 C 
BRANCH  26  31
ATOM     31  O   UNL     1      -8.676  20.705  -8.634  1.00  0.00    -0.384 OA
ATOM     32  H   UNL     1      -9.345  20.249  -9.209  1.00  0.00     0.211 HD
ENDBRANCH  26  31
BRANCH  28  33
ATOM     33  O   UNL     1      -7.802  20.792  -6.098  1.00  0.00    -0.387 OA
ATOM     34  H   UNL     1      -7.434  21.574  -5.611  1.00  0.00     0.211 HD
ENDBRANCH  28  33
BRANCH  29  35
ATOM     35  C   UNL     1      -9.845  24.723  -5.461  1.00  0.00     0.191 C 
BRANCH  35  36
ATOM     36  O   UNL     1     -10.453  24.721  -4.202  1.00  0.00    -0.394 OA
ATOM     37  H   UNL     1     -11.203  24.067  -4.263  1.00  0.00     0.210 HD
ENDBRANCH  35  36
ENDBRANCH  29  35
BRANCH  30  38
ATOM     38  O   UNL     1     -11.055  22.249  -5.418  1.00  0.00    -0.387 OA
ATOM     39  H   UNL     1     -11.386  22.507  -4.522  1.00  0.00     0.211 HD
ENDBRANCH  30  38
ENDBRANCH   1  25
TORSDOF 11
ENDMDL
MODEL 9
REMARK VINA RESULT:    -5.130      2.978      5.837
REMARK INTER + INTRA:          -8.684
REMARK INTER:                  -7.196
REMARK INTRA:                  -1.488
REMARK UNBOUND:                -1.305
REMARK SMILES O=c1c(O[C@@H]2O[C@@H](CO)[C@@H](O)[C@H](O)[C@@H]2O)c(-c2ccc(O)cc2)oc2cc(O)cc(O)c12
REMARK SMILES IDX 4 1 3 2 16 3 24 4 2 5 25 6 1 7 32 8 26 9 30 10 27 11 29 12
REMARK SMILES IDX 17 13 18 14 19 15 20 16 23 17 22 18 21 19 31 21 28 23 5 25
REMARK SMILES IDX 14 26 6 27 12 28 7 29 10 30 15 31 13 33 8 35 9 36 11 38
REMARK H PARENT 21 20 31 22 28 24 15 32 13 34 9 37 11 39
REMARK Flexibility Score: inf
ROOT
ATOM      1  O   UNL     1      -6.610  23.652 -10.128  1.00  0.00    -0.454 OA
ENDROOT
BRANCH   1   2
ATOM      2  C   UNL     1      -5.511  24.447  -9.764  1.00  0.00     0.214 A 
ATOM      3  C   UNL     1      -5.624  25.831  -9.510  1.00  0.00     0.180 A 
ATOM      4  O   UNL     1      -4.632  26.469  -8.898  1.00  0.00    -0.452 OA
ATOM      5  C   UNL     1      -4.266  23.833  -9.587  1.00  0.00     0.239 A 
ATOM      6  C   UNL     1      -3.464  25.897  -8.620  1.00  0.00     0.146 A 
ATOM      7  O   UNL     1      -4.150  22.612  -9.890  1.00  0.00    -0.285 OA
ATOM      8  C   UNL     1      -3.186  24.566  -9.039  1.00  0.00     0.111 A 
ATOM      9  C   UNL     1      -2.505  26.627  -7.908  1.00  0.00     0.094 A 
ATOM     10  C   UNL     1      -1.871  24.051  -8.845  1.00  0.00     0.134 A 
ATOM     11  C   UNL     1      -1.260  26.070  -7.628  1.00  0.00     0.123 A 
ATOM     12  C   UNL     1      -0.943  24.800  -8.116  1.00  0.00     0.093 A 
BRANCH   3  13
ATOM     13  C   UNL     1      -6.801  26.625  -9.937  1.00  0.00     0.021 A 
ATOM     14  C   UNL     1      -7.801  27.027  -9.028  1.00  0.00     0.016 A 
ATOM     15  C   UNL     1      -8.951  27.686  -9.473  1.00  0.00     0.047 A 
ATOM     16  C   UNL     1      -9.146  27.922 -10.837  1.00  0.00     0.115 A 
ATOM     17  C   UNL     1      -7.006  26.877 -11.307  1.00  0.00     0.016 A 
ATOM     18  C   UNL     1      -8.170  27.522 -11.754  1.00  0.00     0.047 A 
BRANCH  16  19
ATOM     19  O   UNL     1     -10.315  28.546 -11.274  1.00  0.00    -0.508 OA
ATOM     20  H   UNL     1     -10.310  29.206 -12.039  1.00  0.00     0.293 HD
ENDBRANCH  16  19
ENDBRANCH   3  13
BRANCH  10  21
ATOM     21  O   UNL     1      -1.432  22.834  -9.379  1.00  0.00    -0.507 OA
ATOM     22  H   UNL     1      -2.006  21.996  -9.382  1.00  0.00     0.293 HD
ENDBRANCH  10  21
BRANCH  11  23
ATOM     23  O   UNL     1      -0.336  26.815  -6.901  1.00  0.00    -0.508 OA
ATOM     24  H   UNL     1      -0.297  26.751  -5.888  1.00  0.00     0.293 HD
ENDBRANCH  11  23
ENDBRANCH   1   2
BRANCH   1  25
ATOM     25  C   UNL     1      -7.589  23.178  -9.196  1.00  0.00     0.339 C 
ATOM     26  C   UNL     1      -9.014  23.600  -9.661  1.00  0.00     0.214 C 
ATOM     27  O   UNL     1      -7.481  21.769  -9.062  1.00  0.00    -0.332 OA
ATOM     28  C   UNL     1     -10.038  22.462  -9.481  1.00  0.00     0.180 C 
ATOM     29  C   UNL     1      -8.329  21.248  -8.042  1.00  0.00     0.179 C 
ATOM     30  C   UNL     1      -9.799  21.765  -8.134  1.00  0.00     0.177 C 
BRANCH  26  31
ATOM     31  O   UNL     1      -9.018  24.022 -11.007  1.00  0.00    -0.384 OA
ATOM     32  H   UNL     1      -9.891  23.745 -11.390  1.00  0.00     0.211 HD
ENDBRANCH  26  31
BRANCH  28  33
ATOM     33  O   UNL     1      -9.916  21.537 -10.536  1.00  0.00    -0.387 OA
ATOM     34  H   UNL     1     -10.315  20.688 -10.212  1.00  0.00     0.211 HD
ENDBRANCH  28  33
BRANCH  29  35
ATOM     35  C   UNL     1      -7.702  21.406  -6.648  1.00  0.00     0.191 C 
BRANCH  35  36
ATOM     36  O   UNL     1      -6.384  20.939  -6.655  1.00  0.00    -0.394 OA
ATOM     37  H   UNL     1      -6.290  20.379  -5.835  1.00  0.00     0.210 HD
ENDBRANCH  35  36
ENDBRANCH  29  35
BRANCH  30  38
ATOM     38  O   UNL     1     -10.112  22.662  -7.092  1.00  0.00    -0.387 OA
ATOM     39  H   UNL     1     -10.207  23.559  -7.499  1.00  0.00     0.211 HD
ENDBRANCH  30  38
ENDBRANCH   1  25
TORSDOF 11
ENDMDL
