MODEL 1
REMARK VINA RESULT:    -5.011      0.000      0.000
REMARK INTER + INTRA:          -6.240
REMARK INTER:                  -6.036
REMARK INTRA:                  -0.204
REMARK UNBOUND:                -0.204
REMARK SMILES C=CCc1ccc(O)c(OC)c1
REMARK SMILES IDX 9 1 7 2 6 3 5 4 4 5 12 6 10 7 11 8 8 9 3 11 2 12 1 13
REMARK H PARENT 8 10
REMARK Flexibility Score: inf
ROOT
ATOM      1  C   UNL     1     135.783 124.129 135.084  1.00  0.00     0.160 A 
ATOM      2  C   UNL     1     136.670 123.183 134.538  1.00  0.00     0.157 A 
ATOM      3  C   UNL     1     136.424 122.641 133.273  1.00  0.00     0.050 A 
ATOM      4  C   UNL     1     135.299 123.031 132.543  1.00  0.00     0.008 A 
ATOM      5  C   UNL     1     134.399 123.964 133.076  1.00  0.00    -0.040 A 
ATOM      6  C   UNL     1     134.648 124.517 134.343  1.00  0.00     0.054 A 
ENDROOT
BRANCH   1   7
ATOM      7  O   UNL     1     136.058 124.662 136.353  1.00  0.00    -0.493 OA
ATOM      8  C   UNL     1     135.476 125.853 136.874  1.00  0.00     0.278 C 
ENDBRANCH   1   7
BRANCH   2   9
ATOM      9  O   UNL     1     137.804 122.770 135.237  1.00  0.00    -0.504 OA
ATOM     10  H   UNL     1     138.330 123.400 135.830  1.00  0.00     0.293 HD
ENDBRANCH   2   9
BRANCH   5  11
ATOM     11  C   UNL     1     133.203 124.404 132.274  1.00  0.00     0.062 C 
BRANCH  11  12
ATOM     12  C   UNL     1     132.729 125.758 132.724  1.00  0.00    -0.030 C 
ATOM     13  C   UNL     1     132.804 126.829 131.927  1.00  0.00     0.004 C 
ENDBRANCH  11  12
ENDBRANCH   5  11
TORSDOF 4
ENDMDL
MODEL 2
REMARK VINA RESULT:    -4.986     13.275     16.016
REMARK INTER + INTRA:          -6.211
REMARK INTER:                  -6.012
REMARK INTRA:                  -0.199
REMARK UNBOUND:                -0.204
REMARK SMILES C=CCc1ccc(O)c(OC)c1
REMARK SMILES IDX 9 1 7 2 6 3 5 4 4 5 12 6 10 7 11 8 8 9 3 11 2 12 1 13
REMARK H PARENT 8 10
REMARK Flexibility Score: inf
ROOT
ATOM      1  C   UNL     1     125.183 136.838 135.297  1.00  0.00     0.160 A 
ATOM      2  C   UNL     1     124.259 137.803 134.854  1.00  0.00     0.157 A 
ATOM      3  C   UNL     1     124.452 138.447 133.629  1.00  0.00     0.050 A 
ATOM      4  C   UNL     1     125.560 138.142 132.836  1.00  0.00     0.008 A 
ATOM      5  C   UNL     1     126.497 137.192 133.267  1.00  0.00    -0.040 A 
ATOM      6  C   UNL     1     126.301 136.536 134.493  1.00  0.00     0.054 A 
ENDROOT
BRANCH   1   7
ATOM      7  O   UNL     1     124.961 136.202 136.529  1.00  0.00    -0.493 OA
ATOM      8  C   UNL     1     125.849 135.262 137.125  1.00  0.00     0.278 C 
ENDBRANCH   1   7
BRANCH   2   9
ATOM      9  O   UNL     1     123.140 138.133 135.619  1.00  0.00    -0.504 OA
ATOM     10  H   UNL     1     123.133 138.924 136.251  1.00  0.00     0.293 HD
ENDBRANCH   2   9
BRANCH   5  11
ATOM     11  C   UNL     1     127.675 136.844 132.396  1.00  0.00     0.062 C 
BRANCH  11  12
ATOM     12  C   UNL     1     128.243 135.505 132.780  1.00  0.00    -0.030 C 
ATOM     13  C   UNL     1     128.369 134.515 131.891  1.00  0.00     0.004 C 
ENDBRANCH  11  12
ENDBRANCH   5  11
TORSDOF 4
ENDMDL
MODEL 3
REMARK VINA RESULT:    -4.889      1.921      3.678
REMARK INTER + INTRA:          -6.094
REMARK INTER:                  -5.919
REMARK INTRA:                  -0.174
REMARK UNBOUND:                -0.204
REMARK SMILES C=CCc1ccc(O)c(OC)c1
REMARK SMILES IDX 9 1 7 2 6 3 5 4 4 5 12 6 10 7 11 8 8 9 3 11 2 12 1 13
REMARK H PARENT 8 10
REMARK Flexibility Score: inf
ROOT
ATOM      1  C   UNL     1     135.069 123.908 133.710  1.00  0.00     0.160 A 
ATOM      2  C   UNL     1     136.205 123.109 133.940  1.00  0.00     0.157 A 
ATOM      3  C   UNL     1     137.032 123.368 135.037  1.00  0.00     0.050 A 
ATOM      4  C   UNL     1     136.741 124.418 135.910  1.00  0.00     0.008 A 
ATOM      5  C   UNL     1     135.621 125.230 135.690  1.00  0.00    -0.040 A 
ATOM      6  C   UNL     1     134.782 124.968 134.594  1.00  0.00     0.054 A 
ENDROOT
BRANCH   1   7
ATOM      7  O   UNL     1     134.252 123.622 132.604  1.00  0.00    -0.493 OA
ATOM      8  C   UNL     1     133.151 124.422 132.184  1.00  0.00     0.278 C 
ENDBRANCH   1   7
BRANCH   2   9
ATOM      9  O   UNL     1     136.526 122.052 133.089  1.00  0.00    -0.504 OA
ATOM     10  H   UNL     1     137.417 121.573 133.138  1.00  0.00     0.293 HD
ENDBRANCH   2   9
BRANCH   5  11
ATOM     11  C   UNL     1     135.293 126.343 136.651  1.00  0.00     0.062 C 
BRANCH  11  12
ATOM     12  C   UNL     1     134.935 127.600 135.907  1.00  0.00    -0.030 C 
ATOM     13  C   UNL     1     134.979 128.799 136.495  1.00  0.00     0.004 C 
ENDBRANCH  11  12
ENDBRANCH   5  11
TORSDOF 4
ENDMDL
MODEL 4
REMARK VINA RESULT:    -4.866     13.082     15.722
REMARK INTER + INTRA:          -6.066
REMARK INTER:                  -5.893
REMARK INTRA:                  -0.172
REMARK UNBOUND:                -0.204
REMARK SMILES C=CCc1ccc(O)c(OC)c1
REMARK SMILES IDX 9 1 7 2 6 3 5 4 4 5 12 6 10 7 11 8 8 9 3 11 2 12 1 13
REMARK H PARENT 8 10
REMARK Flexibility Score: inf
ROOT
ATOM      1  C   UNL     1     126.128 136.976 133.820  1.00  0.00     0.160 A 
ATOM      2  C   UNL     1     125.024 137.793 134.128  1.00  0.00     0.157 A 
ATOM      3  C   UNL     1     124.256 137.532 135.267  1.00  0.00     0.050 A 
ATOM      4  C   UNL     1     124.574 136.461 136.105  1.00  0.00     0.008 A 
ATOM      5  C   UNL     1     125.664 135.631 135.807  1.00  0.00    -0.040 A 
ATOM      6  C   UNL     1     126.443 135.896 134.669  1.00  0.00     0.054 A 
ENDROOT
BRANCH   1   7
ATOM      7  O   UNL     1     126.886 137.266 132.674  1.00  0.00    -0.493 OA
ATOM      8  C   UNL     1     128.071 136.575 132.293  1.00  0.00     0.278 C 
ENDBRANCH   1   7
BRANCH   2   9
ATOM      9  O   UNL     1     124.676 138.871 133.315  1.00  0.00    -0.504 OA
ATOM     10  H   UNL     1     124.864 138.879 132.320  1.00  0.00     0.293 HD
ENDBRANCH   2   9
BRANCH   5  11
ATOM     11  C   UNL     1     126.023 134.496 136.729  1.00  0.00     0.062 C 
BRANCH  11  12
ATOM     12  C   UNL     1     126.146 133.207 135.964  1.00  0.00    -0.030 C 
ATOM     13  C   UNL     1     126.119 132.021 136.578  1.00  0.00     0.004 C 
ENDBRANCH  11  12
ENDBRANCH   5  11
TORSDOF 4
ENDMDL
MODEL 5
REMARK VINA RESULT:    -4.747      9.948     11.058
REMARK INTER + INTRA:          -5.922
REMARK INTER:                  -5.700
REMARK INTRA:                  -0.222
REMARK UNBOUND:                -0.204
REMARK SMILES C=CCc1ccc(O)c(OC)c1
REMARK SMILES IDX 9 1 7 2 6 3 5 4 4 5 12 6 10 7 11 8 8 9 3 11 2 12 1 13
REMARK H PARENT 8 10
REMARK Flexibility Score: inf
ROOT
ATOM      1  C   UNL     1     129.050 130.874 128.510  1.00  0.00     0.160 A 
ATOM      2  C   UNL     1     128.498 131.928 129.261  1.00  0.00     0.157 A 
ATOM      3  C   UNL     1     127.349 131.715 130.029  1.00  0.00     0.050 A 
ATOM      4  C   UNL     1     126.740 130.460 130.055  1.00  0.00     0.008 A 
ATOM      5  C   UNL     1     127.269 129.401 129.305  1.00  0.00    -0.040 A 
ATOM      6  C   UNL     1     128.428 129.609 128.540  1.00  0.00     0.054 A 
ENDROOT
BRANCH   1   7
ATOM      7  O   UNL     1     130.208 131.114 127.753  1.00  0.00    -0.493 OA
ATOM      8  C   UNL     1     131.481 130.535 128.018  1.00  0.00     0.278 C 
ENDBRANCH   1   7
BRANCH   2   9
ATOM      9  O   UNL     1     129.080 133.196 129.259  1.00  0.00    -0.504 OA
ATOM     10  H   UNL     1     130.010 133.362 128.893  1.00  0.00     0.293 HD
ENDBRANCH   2   9
BRANCH   5  11
ATOM     11  C   UNL     1     126.626 128.040 129.359  1.00  0.00     0.062 C 
BRANCH  11  12
ATOM     12  C   UNL     1     126.194 127.711 130.762  1.00  0.00    -0.030 C 
ATOM     13  C   UNL     1     125.283 126.767 131.012  1.00  0.00     0.004 C 
ENDBRANCH  11  12
ENDBRANCH   5  11
TORSDOF 4
ENDMDL
MODEL 6
REMARK VINA RESULT:    -4.739      6.992      9.195
REMARK INTER + INTRA:          -5.913
REMARK INTER:                  -5.628
REMARK INTRA:                  -0.285
REMARK UNBOUND:                -0.204
REMARK SMILES C=CCc1ccc(O)c(OC)c1
REMARK SMILES IDX 9 1 7 2 6 3 5 4 4 5 12 6 10 7 11 8 8 9 3 11 2 12 1 13
REMARK H PARENT 8 10
REMARK Flexibility Score: inf
ROOT
ATOM      1  C   UNL     1     131.638 129.594 129.511  1.00  0.00     0.160 A 
ATOM      2  C   UNL     1     131.960 130.212 128.288  1.00  0.00     0.157 A 
ATOM      3  C   UNL     1     130.942 130.685 127.455  1.00  0.00     0.050 A 
ATOM      4  C   UNL     1     129.603 130.549 127.825  1.00  0.00     0.008 A 
ATOM      5  C   UNL     1     129.265 129.926 129.034  1.00  0.00    -0.040 A 
ATOM      6  C   UNL     1     130.284 129.458 129.879  1.00  0.00     0.054 A 
ENDROOT
BRANCH   1   7
ATOM      7  O   UNL     1     132.680 129.133 130.332  1.00  0.00    -0.493 OA
ATOM      8  C   UNL     1     133.280 129.890 131.378  1.00  0.00     0.278 C 
ENDBRANCH   1   7
BRANCH   2   9
ATOM      9  O   UNL     1     133.286 130.366 127.885  1.00  0.00    -0.504 OA
ATOM     10  H   UNL     1     133.566 130.295 126.915  1.00  0.00     0.293 HD
ENDBRANCH   2   9
BRANCH   5  11
ATOM     11  C   UNL     1     127.820 129.808 129.445  1.00  0.00     0.062 C 
BRANCH  11  12
ATOM     12  C   UNL     1     127.190 131.167 129.575  1.00  0.00    -0.030 C 
ATOM     13  C   UNL     1     127.342 131.909 130.676  1.00  0.00     0.004 C 
ENDBRANCH  11  12
ENDBRANCH   5  11
TORSDOF 4
ENDMDL
MODEL 7
REMARK VINA RESULT:    -4.715      7.875     10.152
REMARK INTER + INTRA:          -5.883
REMARK INTER:                  -5.591
REMARK INTRA:                  -0.292
REMARK UNBOUND:                -0.204
REMARK SMILES C=CCc1ccc(O)c(OC)c1
REMARK SMILES IDX 9 1 7 2 6 3 5 4 4 5 12 6 10 7 11 8 8 9 3 11 2 12 1 13
REMARK H PARENT 8 10
REMARK Flexibility Score: inf
ROOT
ATOM      1  C   UNL     1     129.532 131.497 129.454  1.00  0.00     0.160 A 
ATOM      2  C   UNL     1     129.239 130.783 128.277  1.00  0.00     0.157 A 
ATOM      3  C   UNL     1     130.276 130.299 127.474  1.00  0.00     0.050 A 
ATOM      4  C   UNL     1     131.608 130.521 127.831  1.00  0.00     0.008 A 
ATOM      5  C   UNL     1     131.918 131.239 128.994  1.00  0.00    -0.040 A 
ATOM      6  C   UNL     1     130.879 131.718 129.807  1.00  0.00     0.054 A 
ENDROOT
BRANCH   1   7
ATOM      7  O   UNL     1     128.470 131.965 130.244  1.00  0.00    -0.493 OA
ATOM      8  C   UNL     1     127.925 131.269 131.360  1.00  0.00     0.278 C 
ENDBRANCH   1   7
BRANCH   2   9
ATOM      9  O   UNL     1     127.921 130.543 127.889  1.00  0.00    -0.504 OA
ATOM     10  H   UNL     1     127.226 130.185 128.533  1.00  0.00     0.293 HD
ENDBRANCH   2   9
BRANCH   5  11
ATOM     11  C   UNL     1     133.355 131.449 129.391  1.00  0.00     0.062 C 
BRANCH  11  12
ATOM     12  C   UNL     1     134.065 130.132 129.543  1.00  0.00    -0.030 C 
ATOM     13  C   UNL     1     133.847 129.335 130.593  1.00  0.00     0.004 C 
ENDBRANCH  11  12
ENDBRANCH   5  11
TORSDOF 4
ENDMDL
MODEL 8
REMARK VINA RESULT:    -4.705      5.957      8.422
REMARK INTER + INTRA:          -5.872
REMARK INTER:                  -5.651
REMARK INTRA:                  -0.221
REMARK UNBOUND:                -0.204
REMARK SMILES C=CCc1ccc(O)c(OC)c1
REMARK SMILES IDX 9 1 7 2 6 3 5 4 4 5 12 6 10 7 11 8 8 9 3 11 2 12 1 13
REMARK H PARENT 8 10
REMARK Flexibility Score: inf
ROOT
ATOM      1  C   UNL     1     133.109 131.205 129.272  1.00  0.00     0.160 A 
ATOM      2  C   UNL     1     132.249 130.644 128.310  1.00  0.00     0.157 A 
ATOM      3  C   UNL     1     131.845 129.310 128.426  1.00  0.00     0.050 A 
ATOM      4  C   UNL     1     132.291 128.526 129.491  1.00  0.00     0.008 A 
ATOM      5  C   UNL     1     133.157 129.066 130.452  1.00  0.00    -0.040 A 
ATOM      6  C   UNL     1     133.558 130.408 130.344  1.00  0.00     0.054 A 
ENDROOT
BRANCH   1   7
ATOM      7  O   UNL     1     133.494 132.549 129.135  1.00  0.00    -0.493 OA
ATOM      8  C   UNL     1     134.798 133.049 129.410  1.00  0.00     0.278 C 
ENDBRANCH   1   7
BRANCH   2   9
ATOM      9  O   UNL     1     131.783 131.397 127.233  1.00  0.00    -0.504 OA
ATOM     10  H   UNL     1     131.382 132.319 127.353  1.00  0.00     0.293 HD
ENDBRANCH   2   9
BRANCH   5  11
ATOM     11  C   UNL     1     133.613 128.226 131.616  1.00  0.00     0.062 C 
BRANCH  11  12
ATOM     12  C   UNL     1     132.679 127.068 131.835  1.00  0.00    -0.030 C 
ATOM     13  C   UNL     1     133.128 125.863 132.199  1.00  0.00     0.004 C 
ENDBRANCH  11  12
ENDBRANCH   5  11
TORSDOF 4
ENDMDL
MODEL 9
REMARK VINA RESULT:    -4.591     10.613     11.506
REMARK INTER + INTRA:          -5.734
REMARK INTER:                  -5.518
REMARK INTRA:                  -0.217
REMARK UNBOUND:                -0.204
REMARK SMILES C=CCc1ccc(O)c(OC)c1
REMARK SMILES IDX 9 1 7 2 6 3 5 4 4 5 12 6 10 7 11 8 8 9 3 11 2 12 1 13
REMARK H PARENT 8 10
REMARK Flexibility Score: inf
ROOT
ATOM      1  C   UNL     1     127.606 130.220 129.296  1.00  0.00     0.160 A 
ATOM      2  C   UNL     1     128.716 130.594 128.516  1.00  0.00     0.157 A 
ATOM      3  C   UNL     1     129.425 131.761 128.820  1.00  0.00     0.050 A 
ATOM      4  C   UNL     1     129.038 132.563 129.895  1.00  0.00     0.008 A 
ATOM      5  C   UNL     1     127.928 132.211 130.676  1.00  0.00    -0.040 A 
ATOM      6  C   UNL     1     127.220 131.035 130.379  1.00  0.00     0.054 A 
ENDROOT
BRANCH   1   7
ATOM      7  O   UNL     1     126.917 129.040 128.972  1.00  0.00    -0.493 OA
ATOM      8  C   UNL     1     126.466 128.081 129.922  1.00  0.00     0.278 C 
ENDBRANCH   1   7
BRANCH   2   9
ATOM      9  O   UNL     1     129.132 129.818 127.434  1.00  0.00    -0.504 OA
ATOM     10  H   UNL     1     130.104 129.753 127.158  1.00  0.00     0.293 HD
ENDBRANCH   2   9
BRANCH   5  11
ATOM     11  C   UNL     1     127.532 133.063 131.853  1.00  0.00     0.062 C 
BRANCH  11  12
ATOM     12  C   UNL     1     128.302 134.354 131.859  1.00  0.00    -0.030 C 
ATOM     13  C   UNL     1     127.813 135.460 132.428  1.00  0.00     0.004 C 
ENDBRANCH  11  12
ENDBRANCH   5  11
TORSDOF 4
ENDMDL
