MODEL 1
REMARK VINA RESULT:    -6.698      0.000      0.000
REMARK INTER + INTRA:          -8.333
REMARK INTER:                  -8.068
REMARK INTRA:                  -0.265
REMARK UNBOUND:                -0.265
REMARK SMILES O=c1c(O)c(-c2ccc(O)c(O)c2)oc2cc(O)cc(O)c12
REMARK SMILES IDX 5 1 3 2 2 3 1 4 22 5 20 6 19 7 17 8 16 9 15 10 14 11 6 12
REMARK SMILES IDX 7 13 8 14 9 15 13 16 11 17 10 18 12 20 4 22 21 24 18 26
REMARK H PARENT 10 19 12 21 4 23 21 25 18 27
REMARK Flexibility Score: inf
ROOT
ATOM      1  C   UNL     1      14.466 -18.897  20.570  1.00  0.00     0.180 A 
ATOM      2  C   UNL     1      13.707 -18.845  19.388  1.00  0.00     0.208 A 
ATOM      3  C   UNL     1      13.294 -20.047  18.791  1.00  0.00     0.238 A 
ATOM      4  O   UNL     1      12.569 -19.993  17.763  1.00  0.00    -0.285 OA
ATOM      5  C   UNL     1      13.657 -21.284  19.373  1.00  0.00     0.111 A 
ATOM      6  C   UNL     1      13.327 -22.563  18.831  1.00  0.00     0.134 A 
ATOM      7  C   UNL     1      13.626 -23.720  19.562  1.00  0.00     0.093 A 
ATOM      8  C   UNL     1      14.300 -23.649  20.780  1.00  0.00     0.123 A 
ATOM      9  C   UNL     1      14.681 -22.408  21.291  1.00  0.00     0.094 A 
ATOM     10  C   UNL     1      14.364 -21.234  20.603  1.00  0.00     0.146 A 
ATOM     11  O   UNL     1      14.734 -20.072  21.128  1.00  0.00    -0.452 OA
ENDROOT
BRANCH   1  12
ATOM     12  C   UNL     1      14.958 -17.674  21.244  1.00  0.00     0.025 A 
ATOM     13  C   UNL     1      16.311 -17.297  21.178  1.00  0.00     0.016 A 
ATOM     14  C   UNL     1      16.758 -16.151  21.842  1.00  0.00     0.051 A 
ATOM     15  C   UNL     1      15.865 -15.376  22.592  1.00  0.00     0.157 A 
ATOM     16  C   UNL     1      14.072 -16.904  22.015  1.00  0.00     0.062 A 
ATOM     17  C   UNL     1      14.516 -15.756  22.681  1.00  0.00     0.158 A 
BRANCH  15  18
ATOM     18  O   UNL     1      16.314 -14.233  23.253  1.00  0.00    -0.504 OA
ATOM     19  H   UNL     1      16.134 -14.084  24.239  1.00  0.00     0.293 HD
ENDBRANCH  15  18
BRANCH  17  20
ATOM     20  O   UNL     1      13.604 -15.009  23.426  1.00  0.00    -0.504 OA
ATOM     21  H   UNL     1      13.806 -14.067  23.735  1.00  0.00     0.293 HD
ENDBRANCH  17  20
ENDBRANCH   1  12
BRANCH   2  22
ATOM     22  O   UNL     1      13.341 -17.612  18.842  1.00  0.00    -0.502 OA
ATOM     23  H   UNL     1      13.938 -17.103  18.199  1.00  0.00     0.293 HD
ENDBRANCH   2  22
BRANCH   6  24
ATOM     24  O   UNL     1      12.735 -22.752  17.579  1.00  0.00    -0.507 OA
ATOM     25  H   UNL     1      12.481 -23.649  17.193  1.00  0.00     0.293 HD
ENDBRANCH   6  24
BRANCH   8  26
ATOM     26  O   UNL     1      14.595 -24.823  21.472  1.00  0.00    -0.508 OA
ATOM     27  H   UNL     1      13.863 -25.430  21.821  1.00  0.00     0.293 HD
ENDBRANCH   8  26
TORSDOF 6
ENDMDL
MODEL 2
REMARK VINA RESULT:    -6.682      2.551      7.053
REMARK INTER + INTRA:          -8.314
REMARK INTER:                  -7.993
REMARK INTRA:                  -0.321
REMARK UNBOUND:                -0.265
REMARK SMILES O=c1c(O)c(-c2ccc(O)c(O)c2)oc2cc(O)cc(O)c12
REMARK SMILES IDX 5 1 3 2 2 3 1 4 22 5 20 6 19 7 17 8 16 9 15 10 14 11 6 12
REMARK SMILES IDX 7 13 8 14 9 15 13 16 11 17 10 18 12 20 4 22 21 24 18 26
REMARK H PARENT 10 19 12 21 4 23 21 25 18 27
REMARK Flexibility Score: inf
ROOT
ATOM      1  C   UNL     1      14.847 -22.301  21.395  1.00  0.00     0.180 A 
ATOM      2  C   UNL     1      15.505 -21.284  22.108  1.00  0.00     0.208 A 
ATOM      3  C   UNL     1      15.394 -19.958  21.658  1.00  0.00     0.238 A 
ATOM      4  O   UNL     1      15.940 -19.044  22.330  1.00  0.00    -0.285 OA
ATOM      5  C   UNL     1      14.643 -19.669  20.494  1.00  0.00     0.111 A 
ATOM      6  C   UNL     1      14.497 -18.368  19.925  1.00  0.00     0.134 A 
ATOM      7  C   UNL     1      13.623 -18.179  18.847  1.00  0.00     0.093 A 
ATOM      8  C   UNL     1      12.941 -19.253  18.276  1.00  0.00     0.123 A 
ATOM      9  C   UNL     1      13.122 -20.540  18.786  1.00  0.00     0.094 A 
ATOM     10  C   UNL     1      13.959 -20.753  19.884  1.00  0.00     0.146 A 
ATOM     11  O   UNL     1      14.096 -21.991  20.346  1.00  0.00    -0.452 OA
ENDROOT
BRANCH   1  12
ATOM     12  C   UNL     1      14.936 -23.725  21.793  1.00  0.00     0.025 A 
ATOM     13  C   UNL     1      16.034 -24.521  21.422  1.00  0.00     0.016 A 
ATOM     14  C   UNL     1      16.085 -25.869  21.789  1.00  0.00     0.051 A 
ATOM     15  C   UNL     1      15.036 -26.443  22.518  1.00  0.00     0.157 A 
ATOM     16  C   UNL     1      13.878 -24.311  22.506  1.00  0.00     0.062 A 
ATOM     17  C   UNL     1      13.926 -25.661  22.876  1.00  0.00     0.158 A 
BRANCH  15  18
ATOM     18  O   UNL     1      15.091 -27.788  22.883  1.00  0.00    -0.504 OA
ATOM     19  H   UNL     1      14.293 -28.402  22.769  1.00  0.00     0.293 HD
ENDBRANCH  15  18
BRANCH  17  20
ATOM     20  O   UNL     1      12.862 -26.205  23.595  1.00  0.00    -0.504 OA
ATOM     21  H   UNL     1      12.885 -26.296  24.603  1.00  0.00     0.293 HD
ENDBRANCH  17  20
ENDBRANCH   1  12
BRANCH   2  22
ATOM     22  O   UNL     1      16.223 -21.588  23.266  1.00  0.00    -0.502 OA
ATOM     23  H   UNL     1      15.772 -21.747  24.160  1.00  0.00     0.293 HD
ENDBRANCH   2  22
BRANCH   6  24
ATOM     24  O   UNL     1      15.203 -17.242  20.360  1.00  0.00    -0.507 OA
ATOM     25  H   UNL     1      15.057 -16.305  20.016  1.00  0.00     0.293 HD
ENDBRANCH   6  24
BRANCH   8  26
ATOM     26  O   UNL     1      12.091 -19.031  17.194  1.00  0.00    -0.508 OA
ATOM     27  H   UNL     1      11.835 -19.778  16.559  1.00  0.00     0.293 HD
ENDBRANCH   8  26
TORSDOF 6
ENDMDL
MODEL 3
REMARK VINA RESULT:    -6.562      2.908      6.060
REMARK INTER + INTRA:          -8.170
REMARK INTER:                  -7.848
REMARK INTRA:                  -0.322
REMARK UNBOUND:                -0.265
REMARK SMILES O=c1c(O)c(-c2ccc(O)c(O)c2)oc2cc(O)cc(O)c12
REMARK SMILES IDX 5 1 3 2 2 3 1 4 22 5 20 6 19 7 17 8 16 9 15 10 14 11 6 12
REMARK SMILES IDX 7 13 8 14 9 15 13 16 11 17 10 18 12 20 4 22 21 24 18 26
REMARK H PARENT 10 19 12 21 4 23 21 25 18 27
REMARK Flexibility Score: inf
ROOT
ATOM      1  C   UNL     1      15.065 -22.845  22.097  1.00  0.00     0.180 A 
ATOM      2  C   UNL     1      14.729 -23.854  21.178  1.00  0.00     0.208 A 
ATOM      3  C   UNL     1      14.084 -23.497  19.983  1.00  0.00     0.238 A 
ATOM      4  O   UNL     1      13.834 -24.398  19.139  1.00  0.00    -0.285 OA
ATOM      5  C   UNL     1      13.768 -22.142  19.729  1.00  0.00     0.111 A 
ATOM      6  C   UNL     1      13.079 -21.672  18.570  1.00  0.00     0.134 A 
ATOM      7  C   UNL     1      12.937 -20.295  18.362  1.00  0.00     0.093 A 
ATOM      8  C   UNL     1      13.398 -19.373  19.301  1.00  0.00     0.123 A 
ATOM      9  C   UNL     1      14.020 -19.822  20.466  1.00  0.00     0.094 A 
ATOM     10  C   UNL     1      14.209 -21.189  20.685  1.00  0.00     0.146 A 
ATOM     11  O   UNL     1      14.815 -21.575  21.801  1.00  0.00    -0.452 OA
ENDROOT
BRANCH   1  12
ATOM     12  C   UNL     1      15.724 -23.144  23.389  1.00  0.00     0.025 A 
ATOM     13  C   UNL     1      17.124 -23.145  23.513  1.00  0.00     0.016 A 
ATOM     14  C   UNL     1      17.725 -23.454  24.737  1.00  0.00     0.051 A 
ATOM     15  C   UNL     1      16.937 -23.780  25.848  1.00  0.00     0.157 A 
ATOM     16  C   UNL     1      14.940 -23.493  24.501  1.00  0.00     0.062 A 
ATOM     17  C   UNL     1      15.538 -23.803  25.728  1.00  0.00     0.158 A 
BRANCH  15  18
ATOM     18  O   UNL     1      17.539 -24.087  27.068  1.00  0.00    -0.504 OA
ATOM     19  H   UNL     1      17.093 -24.699  27.741  1.00  0.00     0.293 HD
ENDBRANCH  15  18
BRANCH  17  20
ATOM     20  O   UNL     1      14.727 -24.131  26.814  1.00  0.00    -0.504 OA
ATOM     21  H   UNL     1      14.420 -23.437  27.485  1.00  0.00     0.293 HD
ENDBRANCH  17  20
ENDBRANCH   1  12
BRANCH   2  22
ATOM     22  O   UNL     1      15.069 -25.184  21.438  1.00  0.00    -0.502 OA
ATOM     23  H   UNL     1      15.823 -25.439  22.067  1.00  0.00     0.293 HD
ENDBRANCH   2  22
BRANCH   6  24
ATOM     24  O   UNL     1      12.497 -22.511  17.615  1.00  0.00    -0.507 OA
ATOM     25  H   UNL     1      12.711 -22.493  16.629  1.00  0.00     0.293 HD
ENDBRANCH   6  24
BRANCH   8  26
ATOM     26  O   UNL     1      13.225 -18.009  19.068  1.00  0.00    -0.508 OA
ATOM     27  H   UNL     1      14.001 -17.360  19.121  1.00  0.00     0.293 HD
ENDBRANCH   8  26
TORSDOF 6
ENDMDL
MODEL 4
REMARK VINA RESULT:    -6.549      2.639      6.541
REMARK INTER + INTRA:          -8.153
REMARK INTER:                  -7.876
REMARK INTRA:                  -0.277
REMARK UNBOUND:                -0.265
REMARK SMILES O=c1c(O)c(-c2ccc(O)c(O)c2)oc2cc(O)cc(O)c12
REMARK SMILES IDX 5 1 3 2 2 3 1 4 22 5 20 6 19 7 17 8 16 9 15 10 14 11 6 12
REMARK SMILES IDX 7 13 8 14 9 15 13 16 11 17 10 18 12 20 4 22 21 24 18 26
REMARK H PARENT 10 19 12 21 4 23 21 25 18 27
REMARK Flexibility Score: inf
ROOT
ATOM      1  C   UNL     1      14.810 -22.819  21.853  1.00  0.00     0.180 A 
ATOM      2  C   UNL     1      14.285 -23.314  20.647  1.00  0.00     0.208 A 
ATOM      3  C   UNL     1      13.909 -22.405  19.645  1.00  0.00     0.238 A 
ATOM      4  O   UNL     1      13.490 -22.856  18.547  1.00  0.00    -0.285 OA
ATOM      5  C   UNL     1      14.046 -21.015  19.867  1.00  0.00     0.111 A 
ATOM      6  C   UNL     1      13.660 -20.002  18.937  1.00  0.00     0.134 A 
ATOM      7  C   UNL     1      13.963 -18.663  19.209  1.00  0.00     0.093 A 
ATOM      8  C   UNL     1      14.579 -18.291  20.404  1.00  0.00     0.123 A 
ATOM      9  C   UNL     1      14.908 -19.266  21.347  1.00  0.00     0.094 A 
ATOM     10  C   UNL     1      14.651 -20.615  21.088  1.00  0.00     0.146 A 
ATOM     11  O   UNL     1      14.989 -21.512  22.006  1.00  0.00    -0.452 OA
ENDROOT
BRANCH   1  12
ATOM     12  C   UNL     1      15.206 -23.713  22.966  1.00  0.00     0.025 A 
ATOM     13  C   UNL     1      16.408 -24.441  22.927  1.00  0.00     0.016 A 
ATOM     14  C   UNL     1      16.750 -25.296  23.978  1.00  0.00     0.051 A 
ATOM     15  C   UNL     1      15.890 -25.449  25.073  1.00  0.00     0.157 A 
ATOM     16  C   UNL     1      14.338 -23.885  24.057  1.00  0.00     0.062 A 
ATOM     17  C   UNL     1      14.677 -24.742  25.111  1.00  0.00     0.158 A 
BRANCH  15  18
ATOM     18  O   UNL     1      16.234 -26.303  26.120  1.00  0.00    -0.504 OA
ATOM     19  H   UNL     1      16.515 -27.262  25.953  1.00  0.00     0.293 HD
ENDBRANCH  15  18
BRANCH  17  20
ATOM     20  O   UNL     1      13.797 -24.877  26.184  1.00  0.00    -0.504 OA
ATOM     21  H   UNL     1      13.713 -25.741  26.706  1.00  0.00     0.293 HD
ENDBRANCH  17  20
ENDBRANCH   1  12
BRANCH   2  22
ATOM     22  O   UNL     1      14.177 -24.692  20.441  1.00  0.00    -0.502 OA
ATOM     23  H   UNL     1      13.489 -25.261  20.919  1.00  0.00     0.293 HD
ENDBRANCH   2  22
BRANCH   6  24
ATOM     24  O   UNL     1      12.957 -20.256  17.755  1.00  0.00    -0.507 OA
ATOM     25  H   UNL     1      13.361 -20.655  16.922  1.00  0.00     0.293 HD
ENDBRANCH   6  24
BRANCH   8  26
ATOM     26  O   UNL     1      14.852 -16.946  20.647  1.00  0.00    -0.508 OA
ATOM     27  H   UNL     1      14.136 -16.313  20.984  1.00  0.00     0.293 HD
ENDBRANCH   8  26
TORSDOF 6
ENDMDL
MODEL 5
REMARK VINA RESULT:    -6.544      1.953      6.866
REMARK INTER + INTRA:          -8.148
REMARK INTER:                  -7.862
REMARK INTRA:                  -0.286
REMARK UNBOUND:                -0.265
REMARK SMILES O=c1c(O)c(-c2ccc(O)c(O)c2)oc2cc(O)cc(O)c12
REMARK SMILES IDX 5 1 3 2 2 3 1 4 22 5 20 6 19 7 17 8 16 9 15 10 14 11 6 12
REMARK SMILES IDX 7 13 8 14 9 15 13 16 11 17 10 18 12 20 4 22 21 24 18 26
REMARK H PARENT 10 19 12 21 4 23 21 25 18 27
REMARK Flexibility Score: inf
ROOT
ATOM      1  C   UNL     1      14.428 -22.490  20.950  1.00  0.00     0.180 A 
ATOM      2  C   UNL     1      13.529 -22.232  19.901  1.00  0.00     0.208 A 
ATOM      3  C   UNL     1      13.381 -20.914  19.440  1.00  0.00     0.238 A 
ATOM      4  O   UNL     1      12.615 -20.697  18.464  1.00  0.00    -0.285 OA
ATOM      5  C   UNL     1      14.120 -19.870  20.043  1.00  0.00     0.111 A 
ATOM      6  C   UNL     1      14.019 -18.491  19.683  1.00  0.00     0.134 A 
ATOM      7  C   UNL     1      14.895 -17.562  20.258  1.00  0.00     0.093 A 
ATOM      8  C   UNL     1      15.822 -17.947  21.225  1.00  0.00     0.123 A 
ATOM      9  C   UNL     1      15.889 -19.282  21.629  1.00  0.00     0.094 A 
ATOM     10  C   UNL     1      15.054 -20.239  21.047  1.00  0.00     0.146 A 
ATOM     11  O   UNL     1      15.156 -21.499  21.451  1.00  0.00    -0.452 OA
ENDROOT
BRANCH   1  12
ATOM     12  C   UNL     1      14.620 -23.849  21.506  1.00  0.00     0.025 A 
ATOM     13  C   UNL     1      15.716 -24.645  21.130  1.00  0.00     0.016 A 
ATOM     14  C   UNL     1      15.864 -25.934  21.650  1.00  0.00     0.051 A 
ATOM     15  C   UNL     1      14.914 -26.450  22.540  1.00  0.00     0.157 A 
ATOM     16  C   UNL     1      13.660 -24.379  22.383  1.00  0.00     0.062 A 
ATOM     17  C   UNL     1      13.805 -25.670  22.906  1.00  0.00     0.158 A 
BRANCH  15  18
ATOM     18  O   UNL     1      15.065 -27.736  23.058  1.00  0.00    -0.504 OA
ATOM     19  H   UNL     1      14.627 -28.539  22.622  1.00  0.00     0.293 HD
ENDBRANCH  15  18
BRANCH  17  20
ATOM     20  O   UNL     1      12.839 -26.158  23.785  1.00  0.00    -0.504 OA
ATOM     21  H   UNL     1      13.072 -26.482  24.715  1.00  0.00     0.293 HD
ENDBRANCH  17  20
ENDBRANCH   1  12
BRANCH   2  22
ATOM     22  O   UNL     1      12.824 -23.282  19.305  1.00  0.00    -0.502 OA
ATOM     23  H   UNL     1      11.839 -23.215  19.077  1.00  0.00     0.293 HD
ENDBRANCH   2  22
BRANCH   6  24
ATOM     24  O   UNL     1      13.067 -17.985  18.794  1.00  0.00    -0.507 OA
ATOM     25  H   UNL     1      13.032 -18.196  17.808  1.00  0.00     0.293 HD
ENDBRANCH   6  24
BRANCH   8  26
ATOM     26  O   UNL     1      16.667 -16.992  21.787  1.00  0.00    -0.508 OA
ATOM     27  H   UNL     1      17.234 -16.381  21.210  1.00  0.00     0.293 HD
ENDBRANCH   8  26
TORSDOF 6
ENDMDL
MODEL 6
REMARK VINA RESULT:    -6.543      3.984      6.473
REMARK INTER + INTRA:          -8.147
REMARK INTER:                  -7.847
REMARK INTRA:                  -0.300
REMARK UNBOUND:                -0.265
REMARK SMILES O=c1c(O)c(-c2ccc(O)c(O)c2)oc2cc(O)cc(O)c12
REMARK SMILES IDX 5 1 3 2 2 3 1 4 22 5 20 6 19 7 17 8 16 9 15 10 14 11 6 12
REMARK SMILES IDX 7 13 8 14 9 15 13 16 11 17 10 18 12 20 4 22 21 24 18 26
REMARK H PARENT 10 19 12 21 4 23 21 25 18 27
REMARK Flexibility Score: inf
ROOT
ATOM      1  C   UNL     1      14.726 -23.260  21.529  1.00  0.00     0.180 A 
ATOM      2  C   UNL     1      14.988 -24.618  21.279  1.00  0.00     0.208 A 
ATOM      3  C   UNL     1      15.457 -25.425  22.328  1.00  0.00     0.238 A 
ATOM      4  O   UNL     1      15.638 -26.652  22.112  1.00  0.00    -0.285 OA
ATOM      5  C   UNL     1      15.673 -24.862  23.608  1.00  0.00     0.111 A 
ATOM      6  C   UNL     1      16.184 -25.577  24.733  1.00  0.00     0.134 A 
ATOM      7  C   UNL     1      16.234 -24.950  25.985  1.00  0.00     0.093 A 
ATOM      8  C   UNL     1      15.853 -23.618  26.139  1.00  0.00     0.123 A 
ATOM      9  C   UNL     1      15.409 -22.891  25.034  1.00  0.00     0.094 A 
ATOM     10  C   UNL     1      15.314 -23.499  23.780  1.00  0.00     0.146 A 
ATOM     11  O   UNL     1      14.875 -22.776  22.756  1.00  0.00    -0.452 OA
ENDROOT
BRANCH   1  12
ATOM     12  C   UNL     1      14.253 -22.341  20.468  1.00  0.00     0.025 A 
ATOM     13  C   UNL     1      15.138 -21.473  19.805  1.00  0.00     0.016 A 
ATOM     14  C   UNL     1      14.665 -20.597  18.823  1.00  0.00     0.051 A 
ATOM     15  C   UNL     1      13.302 -20.566  18.502  1.00  0.00     0.157 A 
ATOM     16  C   UNL     1      12.885 -22.290  20.156  1.00  0.00     0.062 A 
ATOM     17  C   UNL     1      12.407 -21.415  19.174  1.00  0.00     0.158 A 
BRANCH  15  18
ATOM     18  O   UNL     1      12.834 -19.691  17.522  1.00  0.00    -0.504 OA
ATOM     19  H   UNL     1      12.164 -18.962  17.738  1.00  0.00     0.293 HD
ENDBRANCH  15  18
BRANCH  17  20
ATOM     20  O   UNL     1      11.044 -21.402  18.882  1.00  0.00    -0.504 OA
ATOM     21  H   UNL     1      10.448 -22.199  19.064  1.00  0.00     0.293 HD
ENDBRANCH  17  20
ENDBRANCH   1  12
BRANCH   2  22
ATOM     22  O   UNL     1      14.747 -25.159  20.013  1.00  0.00    -0.502 OA
ATOM     23  H   UNL     1      14.039 -25.866  19.850  1.00  0.00     0.293 HD
ENDBRANCH   2  22
BRANCH   6  24
ATOM     24  O   UNL     1      16.677 -26.883  24.669  1.00  0.00    -0.507 OA
ATOM     25  H   UNL     1      17.591 -27.136  24.323  1.00  0.00     0.293 HD
ENDBRANCH   6  24
BRANCH   8  26
ATOM     26  O   UNL     1      15.931 -23.022  27.397  1.00  0.00    -0.508 OA
ATOM     27  H   UNL     1      15.441 -22.160  27.606  1.00  0.00     0.293 HD
ENDBRANCH   8  26
TORSDOF 6
ENDMDL
MODEL 7
REMARK VINA RESULT:    -6.337      1.946      7.332
REMARK INTER + INTRA:          -7.899
REMARK INTER:                  -7.598
REMARK INTRA:                  -0.301
REMARK UNBOUND:                -0.265
REMARK SMILES O=c1c(O)c(-c2ccc(O)c(O)c2)oc2cc(O)cc(O)c12
REMARK SMILES IDX 5 1 3 2 2 3 1 4 22 5 20 6 19 7 17 8 16 9 15 10 14 11 6 12
REMARK SMILES IDX 7 13 8 14 9 15 13 16 11 17 10 18 12 20 4 22 21 24 18 26
REMARK H PARENT 10 19 12 21 4 23 21 25 18 27
REMARK Flexibility Score: inf
ROOT
ATOM      1  C   UNL     1      14.995 -17.520  21.121  1.00  0.00     0.180 A 
ATOM      2  C   UNL     1      16.355 -17.186  21.004  1.00  0.00     0.208 A 
ATOM      3  C   UNL     1      16.869 -16.142  21.789  1.00  0.00     0.238 A 
ATOM      4  O   UNL     1      18.099 -15.882  21.720  1.00  0.00    -0.285 OA
ATOM      5  C   UNL     1      16.015 -15.436  22.669  1.00  0.00     0.111 A 
ATOM      6  C   UNL     1      16.420 -14.334  23.483  1.00  0.00     0.134 A 
ATOM      7  C   UNL     1      15.522 -13.796  24.412  1.00  0.00     0.093 A 
ATOM      8  C   UNL     1      14.216 -14.274  24.513  1.00  0.00     0.123 A 
ATOM      9  C   UNL     1      13.791 -15.310  23.681  1.00  0.00     0.094 A 
ATOM     10  C   UNL     1      14.675 -15.892  22.769  1.00  0.00     0.146 A 
ATOM     11  O   UNL     1      14.235 -16.884  22.004  1.00  0.00    -0.452 OA
ENDROOT
BRANCH   1  12
ATOM     12  C   UNL     1      14.375 -18.592  20.309  1.00  0.00     0.025 A 
ATOM     13  C   UNL     1      14.495 -19.946  20.670  1.00  0.00     0.016 A 
ATOM     14  C   UNL     1      13.921 -20.942  19.875  1.00  0.00     0.051 A 
ATOM     15  C   UNL     1      13.233 -20.603  18.703  1.00  0.00     0.157 A 
ATOM     16  C   UNL     1      13.702 -18.259  19.123  1.00  0.00     0.062 A 
ATOM     17  C   UNL     1      13.126 -19.255  18.324  1.00  0.00     0.158 A 
BRANCH  15  18
ATOM     18  O   UNL     1      12.661 -21.599  17.913  1.00  0.00    -0.504 OA
ATOM     19  H   UNL     1      12.788 -21.617  16.908  1.00  0.00     0.293 HD
ENDBRANCH  15  18
BRANCH  17  20
ATOM     20  O   UNL     1      12.453 -18.885  17.160  1.00  0.00    -0.504 OA
ATOM     21  H   UNL     1      12.781 -18.135  16.565  1.00  0.00     0.293 HD
ENDBRANCH  17  20
ENDBRANCH   1  12
BRANCH   2  22
ATOM     22  O   UNL     1      17.186 -17.910  20.144  1.00  0.00    -0.502 OA
ATOM     23  H   UNL     1      17.814 -17.460  19.489  1.00  0.00     0.293 HD
ENDBRANCH   2  22
BRANCH   6  24
ATOM     24  O   UNL     1      17.673 -13.720  23.397  1.00  0.00    -0.507 OA
ATOM     25  H   UNL     1      18.453 -14.077  22.866  1.00  0.00     0.293 HD
ENDBRANCH   6  24
BRANCH   8  26
ATOM     26  O   UNL     1      13.345 -13.703  25.439  1.00  0.00    -0.508 OA
ATOM     27  H   UNL     1      13.103 -14.177  26.301  1.00  0.00     0.293 HD
ENDBRANCH   8  26
TORSDOF 6
ENDMDL
MODEL 8
REMARK VINA RESULT:    -6.280      3.223      6.039
REMARK INTER + INTRA:          -7.830
REMARK INTER:                  -7.705
REMARK INTRA:                  -0.125
REMARK UNBOUND:                -0.265
REMARK SMILES O=c1c(O)c(-c2ccc(O)c(O)c2)oc2cc(O)cc(O)c12
REMARK SMILES IDX 5 1 3 2 2 3 1 4 22 5 20 6 19 7 17 8 16 9 15 10 14 11 6 12
REMARK SMILES IDX 7 13 8 14 9 15 13 16 11 17 10 18 12 20 4 22 21 24 18 26
REMARK H PARENT 10 19 12 21 4 23 21 25 18 27
REMARK Flexibility Score: inf
ROOT
ATOM      1  C   UNL     1      15.418 -22.796  22.496  1.00  0.00     0.180 A 
ATOM      2  C   UNL     1      15.563 -21.421  22.241  1.00  0.00     0.208 A 
ATOM      3  C   UNL     1      15.031 -20.889  21.056  1.00  0.00     0.238 A 
ATOM      4  O   UNL     1      15.116 -19.649  20.858  1.00  0.00    -0.285 OA
ATOM      5  C   UNL     1      14.378 -21.740  20.132  1.00  0.00     0.111 A 
ATOM      6  C   UNL     1      13.838 -21.315  18.881  1.00  0.00     0.134 A 
ATOM      7  C   UNL     1      13.097 -22.218  18.107  1.00  0.00     0.093 A 
ATOM      8  C   UNL     1      12.933 -23.544  18.506  1.00  0.00     0.123 A 
ATOM      9  C   UNL     1      13.507 -23.985  19.699  1.00  0.00     0.094 A 
ATOM     10  C   UNL     1      14.221 -23.099  20.510  1.00  0.00     0.146 A 
ATOM     11  O   UNL     1      14.742 -23.556  21.642  1.00  0.00    -0.452 OA
ENDROOT
BRANCH   1  12
ATOM     12  C   UNL     1      15.972 -23.434  23.712  1.00  0.00     0.025 A 
ATOM     13  C   UNL     1      16.938 -24.452  23.628  1.00  0.00     0.016 A 
ATOM     14  C   UNL     1      17.430 -25.056  24.789  1.00  0.00     0.051 A 
ATOM     15  C   UNL     1      16.953 -24.664  26.046  1.00  0.00     0.157 A 
ATOM     16  C   UNL     1      15.483 -23.059  24.974  1.00  0.00     0.062 A 
ATOM     17  C   UNL     1      15.973 -23.662  26.138  1.00  0.00     0.158 A 
BRANCH  15  18
ATOM     18  O   UNL     1      17.446 -25.268  27.202  1.00  0.00    -0.504 OA
ATOM     19  H   UNL     1      16.898 -25.944  27.722  1.00  0.00     0.293 HD
ENDBRANCH  15  18
BRANCH  17  20
ATOM     20  O   UNL     1      15.473 -23.254  27.375  1.00  0.00    -0.504 OA
ATOM     21  H   UNL     1      14.645 -23.669  27.784  1.00  0.00     0.293 HD
ENDBRANCH  17  20
ENDBRANCH   1  12
BRANCH   2  22
ATOM     22  O   UNL     1      16.193 -20.596  23.176  1.00  0.00    -0.502 OA
ATOM     23  H   UNL     1      15.896 -19.641  23.346  1.00  0.00     0.293 HD
ENDBRANCH   2  22
BRANCH   6  24
ATOM     24  O   UNL     1      14.022 -20.038  18.344  1.00  0.00    -0.507 OA
ATOM     25  H   UNL     1      13.276 -19.394  18.125  1.00  0.00     0.293 HD
ENDBRANCH   6  24
BRANCH   8  26
ATOM     26  O   UNL     1      12.203 -24.418  17.703  1.00  0.00    -0.508 OA
ATOM     27  H   UNL     1      12.646 -24.958  16.969  1.00  0.00     0.293 HD
ENDBRANCH   8  26
TORSDOF 6
ENDMDL
MODEL 9
REMARK VINA RESULT:    -6.204      3.062      5.646
REMARK INTER + INTRA:          -7.738
REMARK INTER:                  -7.439
REMARK INTRA:                  -0.299
REMARK UNBOUND:                -0.265
REMARK SMILES O=c1c(O)c(-c2ccc(O)c(O)c2)oc2cc(O)cc(O)c12
REMARK SMILES IDX 5 1 3 2 2 3 1 4 22 5 20 6 19 7 17 8 16 9 15 10 14 11 6 12
REMARK SMILES IDX 7 13 8 14 9 15 13 16 11 17 10 18 12 20 4 22 21 24 18 26
REMARK H PARENT 10 19 12 21 4 23 21 25 18 27
REMARK Flexibility Score: inf
ROOT
ATOM      1  C   UNL     1      15.087 -21.691  21.189  1.00  0.00     0.180 A 
ATOM      2  C   UNL     1      16.372 -22.018  20.720  1.00  0.00     0.208 A 
ATOM      3  C   UNL     1      17.277 -22.639  21.595  1.00  0.00     0.238 A 
ATOM      4  O   UNL     1      18.407 -22.978  21.155  1.00  0.00    -0.285 OA
ATOM      5  C   UNL     1      16.895 -22.910  22.930  1.00  0.00     0.111 A 
ATOM      6  C   UNL     1      17.745 -23.499  23.914  1.00  0.00     0.134 A 
ATOM      7  C   UNL     1      17.219 -23.841  25.166  1.00  0.00     0.093 A 
ATOM      8  C   UNL     1      15.894 -23.558  25.492  1.00  0.00     0.123 A 
ATOM      9  C   UNL     1      15.069 -22.928  24.559  1.00  0.00     0.094 A 
ATOM     10  C   UNL     1      15.555 -22.607  23.289  1.00  0.00     0.146 A 
ATOM     11  O   UNL     1      14.736 -22.018  22.426  1.00  0.00    -0.452 OA
ENDROOT
BRANCH   1  12
ATOM     12  C   UNL     1      14.086 -21.014  20.334  1.00  0.00     0.025 A 
ATOM     13  C   UNL     1      13.085 -21.739  19.664  1.00  0.00     0.016 A 
ATOM     14  C   UNL     1      12.164 -21.081  18.844  1.00  0.00     0.051 A 
ATOM     15  C   UNL     1      12.240 -19.693  18.669  1.00  0.00     0.157 A 
ATOM     16  C   UNL     1      14.169 -19.625  20.138  1.00  0.00     0.062 A 
ATOM     17  C   UNL     1      13.249 -18.963  19.317  1.00  0.00     0.158 A 
BRANCH  15  18
ATOM     18  O   UNL     1      11.320 -19.040  17.850  1.00  0.00    -0.504 OA
ATOM     19  H   UNL     1      10.868 -18.180  18.140  1.00  0.00     0.293 HD
ENDBRANCH  15  18
BRANCH  17  20
ATOM     20  O   UNL     1      13.355 -17.582  19.157  1.00  0.00    -0.504 OA
ATOM     21  H   UNL     1      13.624 -16.971  19.919  1.00  0.00     0.293 HD
ENDBRANCH  17  20
ENDBRANCH   1  12
BRANCH   2  22
ATOM     22  O   UNL     1      16.722 -21.760  19.392  1.00  0.00    -0.502 OA
ATOM     23  H   UNL     1      16.396 -22.335  18.623  1.00  0.00     0.293 HD
ENDBRANCH   2  22
BRANCH   6  24
ATOM     24  O   UNL     1      19.109 -23.740  23.723  1.00  0.00    -0.507 OA
ATOM     25  H   UNL     1      19.750 -24.018  24.451  1.00  0.00     0.293 HD
ENDBRANCH   6  24
BRANCH   8  26
ATOM     26  O   UNL     1      15.408 -23.899  26.753  1.00  0.00    -0.508 OA
ATOM     27  H   UNL     1      16.033 -24.139  27.515  1.00  0.00     0.293 HD
ENDBRANCH   8  26
TORSDOF 6
ENDMDL
