MODEL 1
REMARK VINA RESULT:    -3.767      0.000      0.000
REMARK INTER + INTRA:          -6.059
REMARK INTER:                  -5.528
REMARK INTRA:                  -0.530
REMARK UNBOUND:                -0.530
REMARK SMILES O=C([O-])CCCCCCCC(=O)[O-]
REMARK SMILES IDX 7 1 6 2 5 3 4 4 2 5 1 6 3 7 8 8 9 9 10 10 11 11 12 12 13 13
REMARK H PARENT
REMARK Flexibility Score: inf
ROOT
ATOM      1  C   UNL     1      32.991  52.443  26.127  1.00  0.00     0.000 C 
ENDROOT
BRANCH   1   2
ATOM      2  C   UNL     1      33.961  51.730  27.087  1.00  0.00     0.000 C 
BRANCH   2   3
ATOM      3  C   UNL     1      34.473  50.394  26.524  1.00  0.00     0.006 C 
BRANCH   3   4
ATOM      4  C   UNL     1      33.333  49.440  26.145  1.00  0.00     0.053 C 
BRANCH   4   5
ATOM      5  C   UNL     1      33.831  48.373  25.222  1.00  0.00     0.041 C 
ATOM      6  O   UNL     1      33.023  47.734  24.498  1.00  0.00    -0.550 OA
ATOM      7  O   UNL     1      35.181  48.049  25.197  1.00  0.00    -0.550 OA
ENDBRANCH   4   5
ENDBRANCH   3   4
ENDBRANCH   2   3
ENDBRANCH   1   2
BRANCH   1   8
ATOM      8  C   UNL     1      31.612  52.692  26.759  1.00  0.00     0.000 C 
BRANCH   8   9
ATOM      9  C   UNL     1      30.564  53.139  25.730  1.00  0.00     0.006 C 
BRANCH   9  10
ATOM     10  C   UNL     1      30.852  52.532  24.353  1.00  0.00     0.053 C 
BRANCH  10  11
ATOM     11  C   UNL     1      30.274  51.156  24.256  1.00  0.00     0.041 C 
ATOM     12  O   UNL     1      30.937  50.227  23.721  1.00  0.00    -0.550 OA
ATOM     13  O   UNL     1      28.986  50.908  24.711  1.00  0.00    -0.550 OA
ENDBRANCH  10  11
ENDBRANCH   9  10
ENDBRANCH   8   9
ENDBRANCH   1   8
TORSDOF 8
ENDMDL
MODEL 2
REMARK VINA RESULT:    -3.698      0.233      4.443
REMARK INTER + INTRA:          -5.958
REMARK INTER:                  -5.440
REMARK INTRA:                  -0.518
REMARK UNBOUND:                -0.530
REMARK SMILES O=C([O-])CCCCCCCC(=O)[O-]
REMARK SMILES IDX 7 1 6 2 5 3 4 4 2 5 1 6 3 7 8 8 9 9 10 10 11 11 12 12 13 13
REMARK H PARENT
REMARK Flexibility Score: inf
ROOT
ATOM      1  C   UNL     1      32.964  52.420  26.044  1.00  0.00     0.000 C 
ENDROOT
BRANCH   1   2
ATOM      2  C   UNL     1      31.780  53.079  26.774  1.00  0.00     0.000 C 
BRANCH   2   3
ATOM      3  C   UNL     1      30.537  53.212  25.878  1.00  0.00     0.006 C 
BRANCH   3   4
ATOM      4  C   UNL     1      30.750  52.614  24.482  1.00  0.00     0.053 C 
BRANCH   4   5
ATOM      5  C   UNL     1      30.120  51.260  24.392  1.00  0.00     0.041 C 
ATOM      6  O   UNL     1      30.702  50.330  23.775  1.00  0.00    -0.550 OA
ATOM      7  O   UNL     1      28.865  51.039  24.946  1.00  0.00    -0.550 OA
ENDBRANCH   4   5
ENDBRANCH   3   4
ENDBRANCH   2   3
ENDBRANCH   1   2
BRANCH   1   8
ATOM      8  C   UNL     1      34.036  51.896  27.013  1.00  0.00     0.000 C 
BRANCH   8   9
ATOM      9  C   UNL     1      34.439  50.443  26.719  1.00  0.00     0.006 C 
BRANCH   9  10
ATOM     10  C   UNL     1      33.263  49.656  26.132  1.00  0.00     0.053 C 
BRANCH  10  11
ATOM     11  C   UNL     1      33.758  48.542  25.266  1.00  0.00     0.041 C 
ATOM     12  O   UNL     1      32.964  47.937  24.498  1.00  0.00    -0.550 OA
ATOM     13  O   UNL     1      35.085  48.139  25.341  1.00  0.00    -0.550 OA
ENDBRANCH  10  11
ENDBRANCH   9  10
ENDBRANCH   8   9
ENDBRANCH   1   8
TORSDOF 8
ENDMDL
MODEL 3
REMARK VINA RESULT:    -3.663      1.560      4.824
REMARK INTER + INTRA:          -5.906
REMARK INTER:                  -5.195
REMARK INTRA:                  -0.711
REMARK UNBOUND:                -0.530
REMARK SMILES O=C([O-])CCCCCCCC(=O)[O-]
REMARK SMILES IDX 7 1 6 2 5 3 4 4 2 5 1 6 3 7 8 8 9 9 10 10 11 11 12 12 13 13
REMARK H PARENT
REMARK Flexibility Score: inf
ROOT
ATOM      1  C   UNL     1      33.784  50.008  26.966  1.00  0.00     0.000 C 
ENDROOT
BRANCH   1   2
ATOM      2  C   UNL     1      33.812  51.475  26.499  1.00  0.00     0.000 C 
BRANCH   2   3
ATOM      3  C   UNL     1      32.447  51.955  25.979  1.00  0.00     0.006 C 
BRANCH   3   4
ATOM      4  C   UNL     1      31.365  50.873  26.082  1.00  0.00     0.053 C 
BRANCH   4   5
ATOM      5  C   UNL     1      30.763  50.608  24.738  1.00  0.00     0.041 C 
ATOM      6  O   UNL     1      31.475  50.156  23.802  1.00  0.00    -0.550 OA
ATOM      7  O   UNL     1      29.427  50.906  24.502  1.00  0.00    -0.550 OA
ENDBRANCH   4   5
ENDBRANCH   3   4
ENDBRANCH   2   3
ENDBRANCH   1   2
BRANCH   1   8
ATOM      8  C   UNL     1      34.936  49.179  26.377  1.00  0.00     0.000 C 
BRANCH   8   9
ATOM      9  C   UNL     1      34.478  48.257  25.238  1.00  0.00     0.006 C 
BRANCH   9  10
ATOM     10  C   UNL     1      33.135  47.600  25.571  1.00  0.00     0.053 C 
BRANCH  10  11
ATOM     11  C   UNL     1      33.295  46.119  25.707  1.00  0.00     0.041 C 
ATOM     12  O   UNL     1      32.721  45.343  24.896  1.00  0.00    -0.550 OA
ATOM     13  O   UNL     1      34.037  45.592  26.755  1.00  0.00    -0.550 OA
ENDBRANCH  10  11
ENDBRANCH   9  10
ENDBRANCH   8   9
ENDBRANCH   1   8
TORSDOF 8
ENDMDL
MODEL 4
REMARK VINA RESULT:    -3.656      1.504      2.351
REMARK INTER + INTRA:          -5.895
REMARK INTER:                  -5.229
REMARK INTRA:                  -0.666
REMARK UNBOUND:                -0.530
REMARK SMILES O=C([O-])CCCCCCCC(=O)[O-]
REMARK SMILES IDX 7 1 6 2 5 3 4 4 2 5 1 6 3 7 8 8 9 9 10 10 11 11 12 12 13 13
REMARK H PARENT
REMARK Flexibility Score: inf
ROOT
ATOM      1  C   UNL     1      33.665  49.999  27.002  1.00  0.00     0.000 C 
ENDROOT
BRANCH   1   2
ATOM      2  C   UNL     1      34.869  49.154  26.546  1.00  0.00     0.000 C 
BRANCH   2   3
ATOM      3  C   UNL     1      34.571  48.338  25.278  1.00  0.00     0.006 C 
BRANCH   3   4
ATOM      4  C   UNL     1      33.221  47.612  25.350  1.00  0.00     0.053 C 
BRANCH   4   5
ATOM      5  C   UNL     1      33.427  46.151  25.595  1.00  0.00     0.041 C 
ATOM      6  O   UNL     1      34.381  45.757  26.316  1.00  0.00    -0.550 OA
ATOM      7  O   UNL     1      32.597  45.218  24.985  1.00  0.00    -0.550 OA
ENDBRANCH   4   5
ENDBRANCH   3   4
ENDBRANCH   2   3
ENDBRANCH   1   2
BRANCH   1   8
ATOM      8  C   UNL     1      33.730  51.445  26.483  1.00  0.00     0.000 C 
BRANCH   8   9
ATOM      9  C   UNL     1      32.357  51.976  26.043  1.00  0.00     0.006 C 
BRANCH   9  10
ATOM     10  C   UNL     1      31.286  50.886  26.157  1.00  0.00     0.053 C 
BRANCH  10  11
ATOM     11  C   UNL     1      30.679  50.606  24.820  1.00  0.00     0.041 C 
ATOM     12  O   UNL     1      31.404  50.224  23.863  1.00  0.00    -0.550 OA
ATOM     13  O   UNL     1      29.321  50.813  24.614  1.00  0.00    -0.550 OA
ENDBRANCH  10  11
ENDBRANCH   9  10
ENDBRANCH   8   9
ENDBRANCH   1   8
TORSDOF 8
ENDMDL
MODEL 5
REMARK VINA RESULT:    -3.597      1.179      2.053
REMARK INTER + INTRA:          -5.809
REMARK INTER:                  -5.326
REMARK INTRA:                  -0.483
REMARK UNBOUND:                -0.530
REMARK SMILES O=C([O-])CCCCCCCC(=O)[O-]
REMARK SMILES IDX 7 1 6 2 5 3 4 4 2 5 1 6 3 7 8 8 9 9 10 10 11 11 12 12 13 13
REMARK H PARENT
REMARK Flexibility Score: inf
ROOT
ATOM      1  C   UNL     1      34.320  51.253  26.674  1.00  0.00     0.000 C 
ENDROOT
BRANCH   1   2
ATOM      2  C   UNL     1      33.731  49.831  26.634  1.00  0.00     0.000 C 
BRANCH   2   3
ATOM      3  C   UNL     1      34.518  48.893  25.703  1.00  0.00     0.006 C 
BRANCH   3   4
ATOM      4  C   UNL     1      33.601  47.982  24.876  1.00  0.00     0.053 C 
BRANCH   4   5
ATOM      5  C   UNL     1      33.509  46.627  25.504  1.00  0.00     0.041 C 
ATOM      6  O   UNL     1      34.145  46.373  26.560  1.00  0.00    -0.550 OA
ATOM      7  O   UNL     1      32.761  45.627  24.895  1.00  0.00    -0.550 OA
ENDBRANCH   4   5
ENDBRANCH   3   4
ENDBRANCH   2   3
ENDBRANCH   1   2
BRANCH   1   8
ATOM      8  C   UNL     1      33.283  52.330  26.316  1.00  0.00     0.000 C 
BRANCH   8   9
ATOM      9  C   UNL     1      31.843  51.800  26.358  1.00  0.00     0.006 C 
BRANCH   9  10
ATOM     10  C   UNL     1      31.053  52.261  25.128  1.00  0.00     0.053 C 
BRANCH  10  11
ATOM     11  C   UNL     1      30.406  51.094  24.453  1.00  0.00     0.041 C 
ATOM     12  O   UNL     1      29.158  50.936  24.520  1.00  0.00    -0.550 OA
ATOM     13  O   UNL     1      31.184  50.153  23.792  1.00  0.00    -0.550 OA
ENDBRANCH  10  11
ENDBRANCH   9  10
ENDBRANCH   8   9
ENDBRANCH   1   8
TORSDOF 8
ENDMDL
MODEL 6
REMARK VINA RESULT:    -3.535      2.181      5.365
REMARK INTER + INTRA:          -5.718
REMARK INTER:                  -5.167
REMARK INTRA:                  -0.551
REMARK UNBOUND:                -0.530
REMARK SMILES O=C([O-])CCCCCCCC(=O)[O-]
REMARK SMILES IDX 7 1 6 2 5 3 4 4 2 5 1 6 3 7 8 8 9 9 10 10 11 11 12 12 13 13
REMARK H PARENT
REMARK Flexibility Score: inf
ROOT
ATOM      1  C   UNL     1      31.317  49.985  24.377  1.00  0.00     0.000 C 
ENDROOT
BRANCH   1   2
ATOM      2  C   UNL     1      30.162  50.976  24.147  1.00  0.00     0.000 C 
BRANCH   2   3
ATOM      3  C   UNL     1      29.644  51.594  25.457  1.00  0.00     0.006 C 
BRANCH   3   4
ATOM      4  C   UNL     1      29.746  53.124  25.465  1.00  0.00     0.053 C 
BRANCH   4   5
ATOM      5  C   UNL     1      31.174  53.553  25.349  1.00  0.00     0.041 C 
ATOM      6  O   UNL     1      31.551  54.244  24.366  1.00  0.00    -0.550 OA
ATOM      7  O   UNL     1      32.103  53.148  26.300  1.00  0.00    -0.550 OA
ENDBRANCH   4   5
ENDBRANCH   3   4
ENDBRANCH   2   3
ENDBRANCH   1   2
BRANCH   1   8
ATOM      8  C   UNL     1      31.598  49.744  25.869  1.00  0.00     0.000 C 
BRANCH   8   9
ATOM      9  C   UNL     1      33.041  49.288  26.131  1.00  0.00     0.006 C 
BRANCH   9  10
ATOM     10  C   UNL     1      33.555  48.407  24.988  1.00  0.00     0.053 C 
BRANCH  10  11
ATOM     11  C   UNL     1      34.027  47.089  25.514  1.00  0.00     0.041 C 
ATOM     12  O   UNL     1      33.232  46.114  25.585  1.00  0.00    -0.550 OA
ATOM     13  O   UNL     1      35.331  46.949  25.972  1.00  0.00    -0.550 OA
ENDBRANCH  10  11
ENDBRANCH   9  10
ENDBRANCH   8   9
ENDBRANCH   1   8
TORSDOF 8
ENDMDL
MODEL 7
REMARK VINA RESULT:    -3.486      1.925      2.706
REMARK INTER + INTRA:          -5.646
REMARK INTER:                  -5.151
REMARK INTRA:                  -0.495
REMARK UNBOUND:                -0.530
REMARK SMILES O=C([O-])CCCCCCCC(=O)[O-]
REMARK SMILES IDX 7 1 6 2 5 3 4 4 2 5 1 6 3 7 8 8 9 9 10 10 11 11 12 12 13 13
REMARK H PARENT
REMARK Flexibility Score: inf
ROOT
ATOM      1  C   UNL     1      32.183  49.427  25.899  1.00  0.00     0.000 C 
ENDROOT
BRANCH   1   2
ATOM      2  C   UNL     1      33.414  50.269  26.280  1.00  0.00     0.000 C 
BRANCH   2   3
ATOM      3  C   UNL     1      34.661  49.408  26.541  1.00  0.00     0.006 C 
BRANCH   3   4
ATOM      4  C   UNL     1      34.937  48.415  25.405  1.00  0.00     0.053 C 
BRANCH   4   5
ATOM      5  C   UNL     1      35.131  47.036  25.953  1.00  0.00     0.041 C 
ATOM      6  O   UNL     1      36.282  46.634  26.267  1.00  0.00    -0.550 OA
ATOM      7  O   UNL     1      34.046  46.175  26.071  1.00  0.00    -0.550 OA
ENDBRANCH   4   5
ENDBRANCH   3   4
ENDBRANCH   2   3
ENDBRANCH   1   2
BRANCH   1   8
ATOM      8  C   UNL     1      31.657  49.754  24.492  1.00  0.00     0.000 C 
BRANCH   8   9
ATOM      9  C   UNL     1      30.414  50.656  24.521  1.00  0.00     0.006 C 
BRANCH   9  10
ATOM     10  C   UNL     1      30.725  52.038  23.937  1.00  0.00     0.053 C 
BRANCH  10  11
ATOM     11  C   UNL     1      30.814  53.059  25.026  1.00  0.00     0.041 C 
ATOM     12  O   UNL     1      31.022  54.270  24.743  1.00  0.00    -0.550 OA
ATOM     13  O   UNL     1      30.717  52.670  26.355  1.00  0.00    -0.550 OA
ENDBRANCH  10  11
ENDBRANCH   9  10
ENDBRANCH   8   9
ENDBRANCH   1   8
TORSDOF 8
ENDMDL
MODEL 8
REMARK VINA RESULT:    -3.431      2.597      5.696
REMARK INTER + INTRA:          -5.565
REMARK INTER:                  -5.191
REMARK INTRA:                  -0.374
REMARK UNBOUND:                -0.530
REMARK SMILES O=C([O-])CCCCCCCC(=O)[O-]
REMARK SMILES IDX 7 1 6 2 5 3 4 4 2 5 1 6 3 7 8 8 9 9 10 10 11 11 12 12 13 13
REMARK H PARENT
REMARK Flexibility Score: inf
ROOT
ATOM      1  C   UNL     1      31.609  49.614  26.046  1.00  0.00     0.000 C 
ENDROOT
BRANCH   1   2
ATOM      2  C   UNL     1      31.784  49.870  24.539  1.00  0.00     0.000 C 
BRANCH   2   3
ATOM      3  C   UNL     1      30.680  50.773  23.962  1.00  0.00     0.006 C 
BRANCH   3   4
ATOM      4  C   UNL     1      30.225  51.851  24.954  1.00  0.00     0.053 C 
BRANCH   4   5
ATOM      5  C   UNL     1      31.189  52.995  24.960  1.00  0.00     0.041 C 
ATOM      6  O   UNL     1      31.965  53.165  25.937  1.00  0.00    -0.550 OA
ATOM      7  O   UNL     1      31.196  53.905  23.910  1.00  0.00    -0.550 OA
ENDBRANCH   4   5
ENDBRANCH   3   4
ENDBRANCH   2   3
ENDBRANCH   1   2
BRANCH   1   8
ATOM      8  C   UNL     1      32.227  48.279  26.493  1.00  0.00     0.000 C 
BRANCH   8   9
ATOM      9  C   UNL     1      33.193  47.698  25.451  1.00  0.00     0.006 C 
BRANCH   9  10
ATOM     10  C   UNL     1      33.947  46.490  26.016  1.00  0.00     0.053 C 
BRANCH  10  11
ATOM     11  C   UNL     1      33.114  45.253  25.906  1.00  0.00     0.041 C 
ATOM     12  O   UNL     1      33.034  44.455  26.878  1.00  0.00    -0.550 OA
ATOM     13  O   UNL     1      32.464  44.954  24.716  1.00  0.00    -0.550 OA
ENDBRANCH  10  11
ENDBRANCH   9  10
ENDBRANCH   8   9
ENDBRANCH   1   8
TORSDOF 8
ENDMDL
MODEL 9
REMARK VINA RESULT:    -3.411      1.411      5.390
REMARK INTER + INTRA:          -5.537
REMARK INTER:                  -5.061
REMARK INTRA:                  -0.476
REMARK UNBOUND:                -0.530
REMARK SMILES O=C([O-])CCCCCCCC(=O)[O-]
REMARK SMILES IDX 7 1 6 2 5 3 4 4 2 5 1 6 3 7 8 8 9 9 10 10 11 11 12 12 13 13
REMARK H PARENT
REMARK Flexibility Score: inf
ROOT
ATOM      1  C   UNL     1      33.258  50.169  26.580  1.00  0.00     0.000 C 
ENDROOT
BRANCH   1   2
ATOM      2  C   UNL     1      33.291  51.657  26.186  1.00  0.00     0.000 C 
BRANCH   2   3
ATOM      3  C   UNL     1      31.945  52.361  26.425  1.00  0.00     0.006 C 
BRANCH   3   4
ATOM      4  C   UNL     1      31.182  52.628  25.121  1.00  0.00     0.053 C 
BRANCH   4   5
ATOM      5  C   UNL     1      29.908  51.844  25.093  1.00  0.00     0.041 C 
ATOM      6  O   UNL     1      29.003  52.074  25.937  1.00  0.00    -0.550 OA
ATOM      7  O   UNL     1      29.738  50.824  24.164  1.00  0.00    -0.550 OA
ENDBRANCH   4   5
ENDBRANCH   3   4
ENDBRANCH   2   3
ENDBRANCH   1   2
BRANCH   1   8
ATOM      8  C   UNL     1      32.611  49.287  25.501  1.00  0.00     0.000 C 
BRANCH   8   9
ATOM      9  C   UNL     1      33.619  48.345  24.826  1.00  0.00     0.006 C 
BRANCH   9  10
ATOM     10  C   UNL     1      34.962  48.360  25.563  1.00  0.00     0.053 C 
BRANCH  10  11
ATOM     11  C   UNL     1      35.227  47.032  26.197  1.00  0.00     0.041 C 
ATOM     12  O   UNL     1      34.344  46.482  26.907  1.00  0.00    -0.550 OA
ATOM     13  O   UNL     1      36.467  46.424  26.047  1.00  0.00    -0.550 OA
ENDBRANCH  10  11
ENDBRANCH   9  10
ENDBRANCH   8   9
ENDBRANCH   1   8
TORSDOF 8
ENDMDL
