MODEL 1
REMARK VINA RESULT:    -4.789      0.000      0.000
REMARK INTER + INTRA:          -5.904
REMARK INTER:                  -5.629
REMARK INTRA:                  -0.275
REMARK UNBOUND:                -0.275
REMARK SMILES C=C[C@@]1(C)CC[C@@H](C(=C)C)C[C@H]1C(=C)C
REMARK SMILES IDX 7 1 6 2 5 3 3 4 12 5 11 6 4 7 8 8 10 9 9 10 13 11 14 12
REMARK SMILES IDX 15 13 2 14 1 15
REMARK H PARENT
REMARK Flexibility Score: inf
ROOT
ATOM      1  C   UNL     1      55.179  44.795  42.647  1.00  0.00     0.015 C 
ATOM      2  C   UNL     1      55.713  44.109  43.919  1.00  0.00     0.009 C 
ATOM      3  C   UNL     1      56.922  43.217  43.598  1.00  0.00     0.012 C 
ATOM      4  C   UNL     1      58.083  44.007  42.925  1.00  0.00    -0.008 C 
ATOM      5  C   UNL     1      57.514  44.713  41.639  1.00  0.00     0.024 C 
ATOM      6  C   UNL     1      56.290  45.608  41.954  1.00  0.00     0.017 C 
ATOM      7  C   UNL     1      59.182  42.999  42.512  1.00  0.00     0.016 C 
ENDROOT
BRANCH   1   8
ATOM      8  C   UNL     1      53.963  45.661  42.952  1.00  0.00    -0.077 C 
ATOM      9  C   UNL     1      52.735  45.574  42.082  1.00  0.00     0.039 C 
ATOM     10  C   UNL     1      53.954  46.514  43.991  1.00  0.00     0.008 C 
ENDBRANCH   1   8
BRANCH   5  11
ATOM     11  C   UNL     1      58.570  45.433  40.792  1.00  0.00    -0.077 C 
ATOM     12  C   UNL     1      59.504  44.776  40.081  1.00  0.00     0.008 C 
ATOM     13  C   UNL     1      58.602  46.941  40.769  1.00  0.00     0.039 C 
ENDBRANCH   5  11
BRANCH   4  14
ATOM     14  C   UNL     1      58.668  45.012  43.919  1.00  0.00    -0.028 C 
ATOM     15  C   UNL     1      59.985  45.159  44.124  1.00  0.00     0.004 C 
ENDBRANCH   4  14
TORSDOF 3
ENDMDL
MODEL 2
REMARK VINA RESULT:    -4.626      1.325      2.895
REMARK INTER + INTRA:          -5.712
REMARK INTER:                  -5.633
REMARK INTRA:                  -0.079
REMARK UNBOUND:                -0.275
REMARK SMILES C=C[C@@]1(C)CC[C@@H](C(=C)C)C[C@H]1C(=C)C
REMARK SMILES IDX 7 1 6 2 5 3 3 4 12 5 11 6 4 7 8 8 10 9 9 10 13 11 14 12
REMARK SMILES IDX 15 13 2 14 1 15
REMARK H PARENT
REMARK Flexibility Score: inf
ROOT
ATOM      1  C   UNL     1      55.942  43.963  43.016  1.00  0.00     0.015 C 
ATOM      2  C   UNL     1      56.171  45.486  43.014  1.00  0.00     0.009 C 
ATOM      3  C   UNL     1      57.571  45.834  43.544  1.00  0.00     0.012 C 
ATOM      4  C   UNL     1      58.705  45.152  42.724  1.00  0.00    -0.008 C 
ATOM      5  C   UNL     1      58.444  43.601  42.724  1.00  0.00     0.024 C 
ATOM      6  C   UNL     1      57.033  43.242  42.198  1.00  0.00     0.017 C 
ATOM      7  C   UNL     1      60.054  45.445  43.423  1.00  0.00     0.016 C 
ENDROOT
BRANCH   1   8
ATOM      8  C   UNL     1      54.547  43.609  42.516  1.00  0.00    -0.077 C 
ATOM      9  C   UNL     1      53.577  44.701  42.145  1.00  0.00     0.039 C 
ATOM     10  C   UNL     1      54.152  42.330  42.394  1.00  0.00     0.008 C 
ENDBRANCH   1   8
BRANCH   5  11
ATOM     11  C   UNL     1      59.551  42.773  42.058  1.00  0.00    -0.077 C 
ATOM     12  C   UNL     1      59.463  42.325  40.793  1.00  0.00     0.008 C 
ATOM     13  C   UNL     1      60.782  42.406  42.849  1.00  0.00     0.039 C 
ENDBRANCH   5  11
BRANCH   4  14
ATOM     14  C   UNL     1      58.736  45.729  41.307  1.00  0.00    -0.028 C 
ATOM     15  C   UNL     1      58.280  46.952  41.003  1.00  0.00     0.004 C 
ENDBRANCH   4  14
TORSDOF 3
ENDMDL
MODEL 3
REMARK VINA RESULT:    -4.107      1.320      2.866
REMARK INTER + INTRA:          -5.101
REMARK INTER:                  -5.087
REMARK INTRA:                  -0.014
REMARK UNBOUND:                -0.275
REMARK SMILES C=C[C@@]1(C)CC[C@@H](C(=C)C)C[C@H]1C(=C)C
REMARK SMILES IDX 7 1 6 2 5 3 3 4 12 5 11 6 4 7 8 8 10 9 9 10 13 11 14 12
REMARK SMILES IDX 15 13 2 14 1 15
REMARK H PARENT
REMARK Flexibility Score: inf
ROOT
ATOM      1  C   UNL     1      54.984  45.907  43.489  1.00  0.00     0.015 C 
ATOM      2  C   UNL     1      55.811  47.125  43.035  1.00  0.00     0.009 C 
ATOM      3  C   UNL     1      57.247  47.048  43.574  1.00  0.00     0.012 C 
ATOM      4  C   UNL     1      57.980  45.747  43.133  1.00  0.00    -0.008 C 
ATOM      5  C   UNL     1      57.113  44.516  43.590  1.00  0.00     0.024 C 
ATOM      6  C   UNL     1      55.661  44.591  43.056  1.00  0.00     0.017 C 
ATOM      7  C   UNL     1      59.354  45.697  43.843  1.00  0.00     0.016 C 
ENDROOT
BRANCH   1   8
ATOM      8  C   UNL     1      53.550  45.987  42.980  1.00  0.00    -0.077 C 
ATOM      9  C   UNL     1      53.084  45.067  41.882  1.00  0.00     0.039 C 
ATOM     10  C   UNL     1      52.675  46.869  43.493  1.00  0.00     0.008 C 
ENDBRANCH   1   8
BRANCH   5  11
ATOM     11  C   UNL     1      57.766  43.152  43.337  1.00  0.00    -0.077 C 
ATOM     12  C   UNL     1      58.735  42.652  44.124  1.00  0.00     0.008 C 
ATOM     13  C   UNL     1      57.343  42.336  42.140  1.00  0.00     0.039 C 
ENDBRANCH   5  11
BRANCH   4  14
ATOM     14  C   UNL     1      58.197  45.765  41.619  1.00  0.00    -0.028 C 
ATOM     15  C   UNL     1      59.118  45.014  41.000  1.00  0.00     0.004 C 
ENDBRANCH   4  14
TORSDOF 3
ENDMDL
MODEL 4
REMARK VINA RESULT:    -3.929     19.325     20.457
REMARK INTER + INTRA:          -4.893
REMARK INTER:                  -4.459
REMARK INTRA:                  -0.434
REMARK UNBOUND:                -0.275
REMARK SMILES C=C[C@@]1(C)CC[C@@H](C(=C)C)C[C@H]1C(=C)C
REMARK SMILES IDX 7 1 6 2 5 3 3 4 12 5 11 6 4 7 8 8 10 9 9 10 13 11 14 12
REMARK SMILES IDX 15 13 2 14 1 15
REMARK H PARENT
REMARK Flexibility Score: inf
ROOT
ATOM      1  C   UNL     1      50.270  30.243  28.664  1.00  0.00     0.015 C 
ATOM      2  C   UNL     1      49.527  30.388  30.006  1.00  0.00     0.009 C 
ATOM      3  C   UNL     1      50.056  31.590  30.803  1.00  0.00     0.012 C 
ATOM      4  C   UNL     1      49.938  32.927  30.012  1.00  0.00    -0.008 C 
ATOM      5  C   UNL     1      50.687  32.753  28.640  1.00  0.00     0.024 C 
ATOM      6  C   UNL     1      50.164  31.538  27.835  1.00  0.00     0.017 C 
ATOM      7  C   UNL     1      50.626  34.042  30.835  1.00  0.00     0.016 C 
ENDROOT
BRANCH   1   8
ATOM      8  C   UNL     1      49.770  29.037  27.879  1.00  0.00    -0.077 C 
ATOM      9  C   UNL     1      49.751  27.672  28.518  1.00  0.00     0.039 C 
ATOM     10  C   UNL     1      49.337  29.158  26.612  1.00  0.00     0.008 C 
ENDBRANCH   1   8
BRANCH   5  11
ATOM     11  C   UNL     1      50.767  34.031  27.796  1.00  0.00    -0.077 C 
ATOM     12  C   UNL     1      49.809  34.386  26.920  1.00  0.00     0.008 C 
ATOM     13  C   UNL     1      51.977  34.924  27.912  1.00  0.00     0.039 C 
ENDBRANCH   5  11
BRANCH   4  14
ATOM     14  C   UNL     1      48.462  33.282  29.819  1.00  0.00    -0.028 C 
ATOM     15  C   UNL     1      47.914  34.415  30.281  1.00  0.00     0.004 C 
ENDBRANCH   4  14
TORSDOF 3
ENDMDL
MODEL 5
REMARK VINA RESULT:    -3.645     21.524     23.180
REMARK INTER + INTRA:          -4.559
REMARK INTER:                  -4.114
REMARK INTRA:                  -0.445
REMARK UNBOUND:                -0.275
REMARK SMILES C=C[C@@]1(C)CC[C@@H](C(=C)C)C[C@H]1C(=C)C
REMARK SMILES IDX 7 1 6 2 5 3 3 4 12 5 11 6 4 7 8 8 10 9 9 10 13 11 14 12
REMARK SMILES IDX 15 13 2 14 1 15
REMARK H PARENT
REMARK Flexibility Score: inf
ROOT
ATOM      1  C   UNL     1      55.202  29.015  26.046  1.00  0.00     0.015 C 
ATOM      2  C   UNL     1      55.164  30.440  25.462  1.00  0.00     0.009 C 
ATOM      3  C   UNL     1      53.875  30.674  24.659  1.00  0.00     0.012 C 
ATOM      4  C   UNL     1      52.593  30.443  25.512  1.00  0.00    -0.008 C 
ATOM      5  C   UNL     1      52.658  28.991  26.113  1.00  0.00     0.024 C 
ATOM      6  C   UNL     1      53.959  28.746  26.917  1.00  0.00     0.017 C 
ATOM      7  C   UNL     1      51.362  30.559  24.581  1.00  0.00     0.016 C 
ENDROOT
BRANCH   1   8
ATOM      8  C   UNL     1      56.489  28.766  26.822  1.00  0.00    -0.077 C 
ATOM      9  C   UNL     1      57.316  27.538  26.539  1.00  0.00     0.039 C 
ATOM     10  C   UNL     1      56.915  29.624  27.764  1.00  0.00     0.008 C 
ENDBRANCH   1   8
BRANCH   5  11
ATOM     11  C   UNL     1      51.400  28.566  26.880  1.00  0.00    -0.077 C 
ATOM     12  C   UNL     1      51.217  28.837  28.185  1.00  0.00     0.008 C 
ATOM     13  C   UNL     1      50.326  27.781  26.169  1.00  0.00     0.039 C 
ENDBRANCH   5  11
BRANCH   4  14
ATOM     14  C   UNL     1      52.500  31.512  26.603  1.00  0.00    -0.028 C 
ATOM     15  C   UNL     1      51.455  32.340  26.732  1.00  0.00     0.004 C 
ENDBRANCH   4  14
TORSDOF 3
ENDMDL
MODEL 6
REMARK VINA RESULT:    -3.550     21.266     22.714
REMARK INTER + INTRA:          -4.448
REMARK INTER:                  -4.089
REMARK INTRA:                  -0.359
REMARK UNBOUND:                -0.275
REMARK SMILES C=C[C@@]1(C)CC[C@@H](C(=C)C)C[C@H]1C(=C)C
REMARK SMILES IDX 7 1 6 2 5 3 3 4 12 5 11 6 4 7 8 8 10 9 9 10 13 11 14 12
REMARK SMILES IDX 15 13 2 14 1 15
REMARK H PARENT
REMARK Flexibility Score: inf
ROOT
ATOM      1  C   UNL     1      52.996  31.933  25.706  1.00  0.00     0.015 C 
ATOM      2  C   UNL     1      53.187  31.681  24.198  1.00  0.00     0.009 C 
ATOM      3  C   UNL     1      54.652  31.343  23.877  1.00  0.00     0.012 C 
ATOM      4  C   UNL     1      55.163  30.102  24.665  1.00  0.00    -0.008 C 
ATOM      5  C   UNL     1      54.943  30.370  26.200  1.00  0.00     0.024 C 
ATOM      6  C   UNL     1      53.471  30.719  26.530  1.00  0.00     0.017 C 
ATOM      7  C   UNL     1      56.676  29.936  24.386  1.00  0.00     0.016 C 
ENDROOT
BRANCH   1   8
ATOM      8  C   UNL     1      51.552  32.294  26.030  1.00  0.00    -0.077 C 
ATOM      9  C   UNL     1      50.505  32.273  24.946  1.00  0.00     0.039 C 
ATOM     10  C   UNL     1      51.179  32.636  27.276  1.00  0.00     0.008 C 
ENDBRANCH   1   8
BRANCH   5  11
ATOM     11  C   UNL     1      55.514  29.285  27.121  1.00  0.00    -0.077 C 
ATOM     12  C   UNL     1      56.814  29.228  27.460  1.00  0.00     0.008 C 
ATOM     13  C   UNL     1      54.602  28.207  27.653  1.00  0.00     0.039 C 
ENDBRANCH   5  11
BRANCH   4  14
ATOM     14  C   UNL     1      54.423  28.849  24.191  1.00  0.00    -0.028 C 
ATOM     15  C   UNL     1      55.045  27.701  23.886  1.00  0.00     0.004 C 
ENDBRANCH   4  14
TORSDOF 3
ENDMDL
MODEL 7
REMARK VINA RESULT:    -3.492     21.981     23.538
REMARK INTER + INTRA:          -4.380
REMARK INTER:                  -3.950
REMARK INTRA:                  -0.429
REMARK UNBOUND:                -0.275
REMARK SMILES C=C[C@@]1(C)CC[C@@H](C(=C)C)C[C@H]1C(=C)C
REMARK SMILES IDX 7 1 6 2 5 3 3 4 12 5 11 6 4 7 8 8 10 9 9 10 13 11 14 12
REMARK SMILES IDX 15 13 2 14 1 15
REMARK H PARENT
REMARK Flexibility Score: inf
ROOT
ATOM      1  C   UNL     1      55.486  28.432  26.697  1.00  0.00     0.015 C 
ATOM      2  C   UNL     1      54.746  27.157  27.142  1.00  0.00     0.009 C 
ATOM      3  C   UNL     1      53.499  27.504  27.970  1.00  0.00     0.012 C 
ATOM      4  C   UNL     1      52.506  28.420  27.197  1.00  0.00    -0.008 C 
ATOM      5  C   UNL     1      53.285  29.707  26.736  1.00  0.00     0.024 C 
ATOM      6  C   UNL     1      54.547  29.365  25.907  1.00  0.00     0.017 C 
ATOM      7  C   UNL     1      51.367  28.828  28.161  1.00  0.00     0.016 C 
ENDROOT
BRANCH   1   8
ATOM      8  C   UNL     1      56.739  28.097  25.897  1.00  0.00    -0.077 C 
ATOM      9  C   UNL     1      57.019  28.808  24.597  1.00  0.00     0.039 C 
ATOM     10  C   UNL     1      57.615  27.172  26.324  1.00  0.00     0.008 C 
ENDBRANCH   1   8
BRANCH   5  11
ATOM     11  C   UNL     1      52.407  30.771  26.064  1.00  0.00    -0.077 C 
ATOM     12  C   UNL     1      52.027  30.694  24.776  1.00  0.00     0.008 C 
ATOM     13  C   UNL     1      51.970  31.980  26.854  1.00  0.00     0.039 C 
ENDBRANCH   5  11
BRANCH   4  14
ATOM     14  C   UNL     1      51.913  27.654  26.012  1.00  0.00    -0.028 C 
ATOM     15  C   UNL     1      50.638  27.242  25.969  1.00  0.00     0.004 C 
ENDBRANCH   4  14
TORSDOF 3
ENDMDL
MODEL 8
REMARK VINA RESULT:    -3.426     19.576     20.973
REMARK INTER + INTRA:          -4.301
REMARK INTER:                  -3.931
REMARK INTRA:                  -0.370
REMARK UNBOUND:                -0.275
REMARK SMILES C=C[C@@]1(C)CC[C@@H](C(=C)C)C[C@H]1C(=C)C
REMARK SMILES IDX 7 1 6 2 5 3 3 4 12 5 11 6 4 7 8 8 10 9 9 10 13 11 14 12
REMARK SMILES IDX 15 13 2 14 1 15
REMARK H PARENT
REMARK Flexibility Score: inf
ROOT
ATOM      1  C   UNL     1      49.456  32.266  26.268  1.00  0.00     0.015 C 
ATOM      2  C   UNL     1      49.737  33.765  26.489  1.00  0.00     0.009 C 
ATOM      3  C   UNL     1      48.926  34.309  27.675  1.00  0.00     0.012 C 
ATOM      4  C   UNL     1      49.217  33.540  28.997  1.00  0.00    -0.008 C 
ATOM      5  C   UNL     1      48.942  32.011  28.747  1.00  0.00     0.024 C 
ATOM      6  C   UNL     1      49.750  31.458  27.547  1.00  0.00     0.017 C 
ATOM      7  C   UNL     1      48.251  34.063  30.088  1.00  0.00     0.016 C 
ENDROOT
BRANCH   1   8
ATOM      8  C   UNL     1      50.236  31.724  25.076  1.00  0.00    -0.077 C 
ATOM      9  C   UNL     1      50.815  30.333  25.121  1.00  0.00     0.039 C 
ATOM     10  C   UNL     1      50.423  32.462  23.969  1.00  0.00     0.008 C 
ENDBRANCH   1   8
BRANCH   5  11
ATOM     11  C   UNL     1      49.064  31.132  29.998  1.00  0.00    -0.077 C 
ATOM     12  C   UNL     1      48.014  30.834  30.783  1.00  0.00     0.008 C 
ATOM     13  C   UNL     1      50.416  30.598  30.401  1.00  0.00     0.039 C 
ENDBRANCH   5  11
BRANCH   4  14
ATOM     14  C   UNL     1      50.660  33.798  29.437  1.00  0.00    -0.028 C 
ATOM     15  C   UNL     1      50.988  34.211  30.669  1.00  0.00     0.004 C 
ENDBRANCH   4  14
TORSDOF 3
ENDMDL
