MODEL 1
REMARK VINA RESULT:    -4.660      0.000      0.000
REMARK INTER + INTRA:          -5.270
REMARK INTER:                  -5.205
REMARK INTRA:                  -0.065
REMARK UNBOUND:                -0.065
REMARK SMILES COc1ccc(C(=O)[O-])cc1
REMARK SMILES IDX 6 1 5 2 10 3 4 4 11 5 3 6 7 7 8 8 9 9 2 10 1 11
REMARK H PARENT
REMARK Flexibility Score: inf
ROOT
ATOM      1  C   UNL     1     157.568 138.929 160.870  1.00  0.00    -0.003 A 
ATOM      2  C   UNL     1     157.464 137.560 161.170  1.00  0.00     0.014 A 
ATOM      3  C   UNL     1     157.443 139.345 159.532  1.00  0.00     0.014 A 
ATOM      4  C   UNL     1     157.240 136.627 160.153  1.00  0.00     0.047 A 
ATOM      5  C   UNL     1     157.219 138.410 158.517  1.00  0.00     0.047 A 
ATOM      6  C   UNL     1     157.116 137.040 158.822  1.00  0.00     0.118 A 
ENDROOT
BRANCH   1   7
ATOM      7  C   UNL     1     157.806 139.914 161.948  1.00  0.00     0.071 C 
ATOM      8  O   UNL     1     158.041 139.532 163.124  1.00  0.00    -0.545 OA
ATOM      9  O   UNL     1     157.772 141.277 161.676  1.00  0.00    -0.545 OA
ENDBRANCH   1   7
BRANCH   6  10
ATOM     10  O   UNL     1     156.891 136.064 157.839  1.00  0.00    -0.497 OA
ATOM     11  C   UNL     1     157.671 134.883 157.688  1.00  0.00     0.278 C 
ENDBRANCH   6  10
TORSDOF 2
ENDMDL
MODEL 2
REMARK VINA RESULT:    -3.720     20.218     21.414
REMARK INTER + INTRA:          -4.220
REMARK INTER:                  -4.164
REMARK INTRA:                  -0.057
REMARK UNBOUND:                -0.065
REMARK SMILES COc1ccc(C(=O)[O-])cc1
REMARK SMILES IDX 6 1 5 2 10 3 4 4 11 5 3 6 7 7 8 8 9 9 2 10 1 11
REMARK H PARENT
REMARK Flexibility Score: inf
ROOT
ATOM      1  C   UNL     1     145.506 147.566 144.833  1.00  0.00    -0.003 A 
ATOM      2  C   UNL     1     145.746 147.745 143.460  1.00  0.00     0.014 A 
ATOM      3  C   UNL     1     146.462 146.887 145.609  1.00  0.00     0.014 A 
ATOM      4  C   UNL     1     146.919 147.254 142.876  1.00  0.00     0.047 A 
ATOM      5  C   UNL     1     147.633 146.397 145.024  1.00  0.00     0.047 A 
ATOM      6  C   UNL     1     147.870 146.578 143.649  1.00  0.00     0.118 A 
ENDROOT
BRANCH   1   7
ATOM      7  C   UNL     1     144.265 148.086 145.448  1.00  0.00     0.071 C 
ATOM      8  O   UNL     1     143.627 147.396 146.286  1.00  0.00    -0.545 OA
ATOM      9  O   UNL     1     143.785 149.346 145.109  1.00  0.00    -0.545 OA
ENDBRANCH   1   7
BRANCH   6  10
ATOM     10  O   UNL     1     149.029 146.105 143.015  1.00  0.00    -0.497 OA
ATOM     11  C   UNL     1     149.363 144.729 142.875  1.00  0.00     0.278 C 
ENDBRANCH   6  10
TORSDOF 2
ENDMDL
MODEL 3
REMARK VINA RESULT:    -3.413      1.970      3.033
REMARK INTER + INTRA:          -3.877
REMARK INTER:                  -3.810
REMARK INTRA:                  -0.066
REMARK UNBOUND:                -0.065
REMARK SMILES COc1ccc(C(=O)[O-])cc1
REMARK SMILES IDX 6 1 5 2 10 3 4 4 11 5 3 6 7 7 8 8 9 9 2 10 1 11
REMARK H PARENT
REMARK Flexibility Score: inf
ROOT
ATOM      1  C   UNL     1     157.858 139.533 160.620  1.00  0.00    -0.003 A 
ATOM      2  C   UNL     1     157.726 138.530 159.645  1.00  0.00     0.014 A 
ATOM      3  C   UNL     1     157.812 139.173 161.979  1.00  0.00     0.014 A 
ATOM      4  C   UNL     1     157.553 137.194 160.022  1.00  0.00     0.047 A 
ATOM      5  C   UNL     1     157.638 137.837 162.353  1.00  0.00     0.047 A 
ATOM      6  C   UNL     1     157.506 136.836 161.373  1.00  0.00     0.118 A 
ENDROOT
BRANCH   1   7
ATOM      7  C   UNL     1     158.042 140.946 160.219  1.00  0.00     0.071 C 
ATOM      8  O   UNL     1     158.124 141.261 159.003  1.00  0.00    -0.545 OA
ATOM      9  O   UNL     1     158.125 141.945 161.181  1.00  0.00    -0.545 OA
ENDBRANCH   1   7
BRANCH   6  10
ATOM     10  O   UNL     1     157.330 135.482 161.698  1.00  0.00    -0.497 OA
ATOM     11  C   UNL     1     157.389 134.959 163.021  1.00  0.00     0.278 C 
ENDBRANCH   6  10
TORSDOF 2
ENDMDL
MODEL 4
REMARK VINA RESULT:    -3.288     20.698     21.642
REMARK INTER + INTRA:          -3.737
REMARK INTER:                  -3.671
REMARK INTRA:                  -0.066
REMARK UNBOUND:                -0.065
REMARK SMILES COc1ccc(C(=O)[O-])cc1
REMARK SMILES IDX 6 1 5 2 10 3 4 4 11 5 3 6 7 7 8 8 9 9 2 10 1 11
REMARK H PARENT
REMARK Flexibility Score: inf
ROOT
ATOM      1  C   UNL     1     146.933 145.876 143.699  1.00  0.00    -0.003 A 
ATOM      2  C   UNL     1     145.984 145.397 144.619  1.00  0.00     0.014 A 
ATOM      3  C   UNL     1     146.897 147.232 143.328  1.00  0.00     0.014 A 
ATOM      4  C   UNL     1     145.020 146.256 145.155  1.00  0.00     0.047 A 
ATOM      5  C   UNL     1     145.931 148.089 143.865  1.00  0.00     0.047 A 
ATOM      6  C   UNL     1     144.984 147.605 144.785  1.00  0.00     0.118 A 
ENDROOT
BRANCH   1   7
ATOM      7  C   UNL     1     147.952 144.965 143.133  1.00  0.00     0.071 C 
ATOM      8  O   UNL     1     147.666 143.766 142.875  1.00  0.00    -0.545 OA
ATOM      9  O   UNL     1     149.240 145.420 142.879  1.00  0.00    -0.545 OA
ENDBRANCH   1   7
BRANCH   6  10
ATOM     10  O   UNL     1     143.996 148.425 145.352  1.00  0.00    -0.497 OA
ATOM     11  C   UNL     1     143.377 148.183 146.612  1.00  0.00     0.278 C 
ENDBRANCH   6  10
TORSDOF 2
ENDMDL
MODEL 5
REMARK VINA RESULT:    -2.938     11.442     12.493
REMARK INTER + INTRA:          -3.346
REMARK INTER:                  -3.285
REMARK INTRA:                  -0.061
REMARK UNBOUND:                -0.065
REMARK SMILES COc1ccc(C(=O)[O-])cc1
REMARK SMILES IDX 6 1 5 2 10 3 4 4 11 5 3 6 7 7 8 8 9 9 2 10 1 11
REMARK H PARENT
REMARK Flexibility Score: inf
ROOT
ATOM      1  C   UNL     1     152.490 141.645 149.891  1.00  0.00    -0.003 A 
ATOM      2  C   UNL     1     152.557 141.103 148.596  1.00  0.00     0.014 A 
ATOM      3  C   UNL     1     153.578 142.396 150.372  1.00  0.00     0.014 A 
ATOM      4  C   UNL     1     153.689 141.308 147.800  1.00  0.00     0.047 A 
ATOM      5  C   UNL     1     154.708 142.599 149.574  1.00  0.00     0.047 A 
ATOM      6  C   UNL     1     154.771 142.054 148.279  1.00  0.00     0.118 A 
ENDROOT
BRANCH   1   7
ATOM      7  C   UNL     1     151.292 141.427 150.731  1.00  0.00     0.071 C 
ATOM      8  O   UNL     1     150.247 140.928 150.238  1.00  0.00    -0.545 OA
ATOM      9  O   UNL     1     151.305 141.771 152.078  1.00  0.00    -0.545 OA
ENDBRANCH   1   7
BRANCH   6  10
ATOM     10  O   UNL     1     155.882 142.230 147.440  1.00  0.00    -0.497 OA
ATOM     11  C   UNL     1     157.208 141.830 147.769  1.00  0.00     0.278 C 
ENDBRANCH   6  10
TORSDOF 2
ENDMDL
MODEL 6
REMARK VINA RESULT:    -2.915     11.438     12.477
REMARK INTER + INTRA:          -3.321
REMARK INTER:                  -3.258
REMARK INTRA:                  -0.063
REMARK UNBOUND:                -0.065
REMARK SMILES COc1ccc(C(=O)[O-])cc1
REMARK SMILES IDX 6 1 5 2 10 3 4 4 11 5 3 6 7 7 8 8 9 9 2 10 1 11
REMARK H PARENT
REMARK Flexibility Score: inf
ROOT
ATOM      1  C   UNL     1     152.507 141.660 149.877  1.00  0.00    -0.003 A 
ATOM      2  C   UNL     1     153.618 142.381 150.348  1.00  0.00     0.014 A 
ATOM      3  C   UNL     1     152.545 141.124 148.577  1.00  0.00     0.014 A 
ATOM      4  C   UNL     1     154.742 142.561 149.536  1.00  0.00     0.047 A 
ATOM      5  C   UNL     1     153.670 141.306 147.767  1.00  0.00     0.047 A 
ATOM      6  C   UNL     1     154.779 142.029 148.243  1.00  0.00     0.118 A 
ENDROOT
BRANCH   1   7
ATOM      7  C   UNL     1     151.320 141.470 150.738  1.00  0.00     0.071 C 
ATOM      8  O   UNL     1     150.260 140.978 150.269  1.00  0.00    -0.545 OA
ATOM      9  O   UNL     1     151.357 141.833 152.080  1.00  0.00    -0.545 OA
ENDBRANCH   1   7
BRANCH   6  10
ATOM     10  O   UNL     1     155.930 142.239 147.469  1.00  0.00    -0.497 OA
ATOM     11  C   UNL     1     157.227 141.763 147.813  1.00  0.00     0.278 C 
ENDBRANCH   6  10
TORSDOF 2
ENDMDL
MODEL 7
REMARK VINA RESULT:    -2.238     18.032     19.744
REMARK INTER + INTRA:          -2.565
REMARK INTER:                  -2.502
REMARK INTRA:                  -0.062
REMARK UNBOUND:                -0.065
REMARK SMILES COc1ccc(C(=O)[O-])cc1
REMARK SMILES IDX 6 1 5 2 10 3 4 4 11 5 3 6 7 7 8 8 9 9 2 10 1 11
REMARK H PARENT
REMARK Flexibility Score: inf
ROOT
ATOM      1  C   UNL     1     147.812 145.829 144.707  1.00  0.00    -0.003 A 
ATOM      2  C   UNL     1     148.731 145.220 145.578  1.00  0.00     0.014 A 
ATOM      3  C   UNL     1     147.294 147.094 145.039  1.00  0.00     0.014 A 
ATOM      4  C   UNL     1     149.123 145.862 146.757  1.00  0.00     0.047 A 
ATOM      5  C   UNL     1     147.687 147.734 146.219  1.00  0.00     0.047 A 
ATOM      6  C   UNL     1     148.607 147.120 147.088  1.00  0.00     0.118 A 
ENDROOT
BRANCH   1   7
ATOM      7  C   UNL     1     147.399 145.148 143.460  1.00  0.00     0.071 C 
ATOM      8  O   UNL     1     148.182 144.354 142.875  1.00  0.00    -0.545 OA
ATOM      9  O   UNL     1     146.140 145.376 142.917  1.00  0.00    -0.545 OA
ENDBRANCH   1   7
BRANCH   6  10
ATOM     10  O   UNL     1     149.033 147.721 148.283  1.00  0.00    -0.497 OA
ATOM     11  C   UNL     1     149.122 149.127 148.486  1.00  0.00     0.278 C 
ENDBRANCH   6  10
TORSDOF 2
ENDMDL
MODEL 8
REMARK VINA RESULT:    -1.797     14.041     15.844
REMARK INTER + INTRA:          -2.072
REMARK INTER:                  -2.011
REMARK INTRA:                  -0.061
REMARK UNBOUND:                -0.065
REMARK SMILES COc1ccc(C(=O)[O-])cc1
REMARK SMILES IDX 6 1 5 2 10 3 4 4 11 5 3 6 7 7 8 8 9 9 2 10 1 11
REMARK H PARENT
REMARK Flexibility Score: inf
ROOT
ATOM      1  C   UNL     1     156.633 142.988 144.739  1.00  0.00    -0.003 A 
ATOM      2  C   UNL     1     155.231 142.935 144.668  1.00  0.00     0.014 A 
ATOM      3  C   UNL     1     157.268 142.610 145.936  1.00  0.00     0.014 A 
ATOM      4  C   UNL     1     154.480 142.513 145.770  1.00  0.00     0.047 A 
ATOM      5  C   UNL     1     156.516 142.189 147.036  1.00  0.00     0.047 A 
ATOM      6  C   UNL     1     155.112 142.138 146.960  1.00  0.00     0.118 A 
ENDROOT
BRANCH   1   7
ATOM      7  C   UNL     1     157.425 143.434 143.572  1.00  0.00     0.071 C 
ATOM      8  O   UNL     1     158.124 142.614 142.921  1.00  0.00    -0.545 OA
ATOM      9  O   UNL     1     157.407 144.767 143.178  1.00  0.00    -0.545 OA
ENDBRANCH   1   7
BRANCH   6  10
ATOM     10  O   UNL     1     154.313 141.722 148.036  1.00  0.00    -0.497 OA
ATOM     11  C   UNL     1     152.970 141.269 147.911  1.00  0.00     0.278 C 
ENDBRANCH   6  10
TORSDOF 2
ENDMDL
MODEL 9
REMARK VINA RESULT:    -1.696     10.978     12.752
REMARK INTER + INTRA:          -1.960
REMARK INTER:                  -1.906
REMARK INTRA:                  -0.054
REMARK UNBOUND:                -0.065
REMARK SMILES COc1ccc(C(=O)[O-])cc1
REMARK SMILES IDX 6 1 5 2 10 3 4 4 11 5 3 6 7 7 8 8 9 9 2 10 1 11
REMARK H PARENT
REMARK Flexibility Score: inf
ROOT
ATOM      1  C   UNL     1     154.721 141.995 148.431  1.00  0.00    -0.003 A 
ATOM      2  C   UNL     1     154.743 142.714 149.638  1.00  0.00     0.014 A 
ATOM      3  C   UNL     1     153.575 141.248 148.104  1.00  0.00     0.014 A 
ATOM      4  C   UNL     1     153.642 142.685 150.501  1.00  0.00     0.047 A 
ATOM      5  C   UNL     1     152.475 141.221 148.968  1.00  0.00     0.047 A 
ATOM      6  C   UNL     1     152.502 141.942 150.176  1.00  0.00     0.118 A 
ENDROOT
BRANCH   1   7
ATOM      7  C   UNL     1     155.887 142.026 147.521  1.00  0.00     0.071 C 
ATOM      8  O   UNL     1     156.973 141.483 147.853  1.00  0.00    -0.545 OA
ATOM      9  O   UNL     1     155.798 142.656 146.285  1.00  0.00    -0.545 OA
ENDBRANCH   1   7
BRANCH   6  10
ATOM     10  O   UNL     1     151.425 141.947 151.075  1.00  0.00    -0.497 OA
ATOM     11  C   UNL     1     151.439 141.313 152.349  1.00  0.00     0.278 C 
ENDBRANCH   6  10
TORSDOF 2
ENDMDL
