MODEL 1
REMARK VINA RESULT:    -4.285      0.000      0.000
REMARK INTER + INTRA:          -6.245
REMARK INTER:                  -6.039
REMARK INTRA:                  -0.206
REMARK UNBOUND:                -0.206
REMARK SMILES CCCCCCCCC(=O)[O-]
REMARK SMILES IDX 6 1 7 2 8 3 9 4 10 5 11 6 5 7 4 8 3 9 2 10 1 11
REMARK H PARENT
REMARK Flexibility Score: inf
ROOT
ATOM      1  C   UNL     1      24.414   8.645   5.373  1.00  0.00     0.000 C 
ENDROOT
BRANCH   1   2
ATOM      2  C   UNL     1      24.715  10.142   5.553  1.00  0.00     0.006 C 
BRANCH   2   3
ATOM      3  C   UNL     1      23.556  11.035   5.091  1.00  0.00     0.053 C 
BRANCH   3   4
ATOM      4  C   UNL     1      23.880  12.475   5.332  1.00  0.00     0.041 C 
ATOM      5  O   UNL     1      23.234  13.134   6.189  1.00  0.00    -0.550 OA
ATOM      6  O   UNL     1      24.927  13.077   4.648  1.00  0.00    -0.550 OA
ENDBRANCH   3   4
ENDBRANCH   2   3
ENDBRANCH   1   2
BRANCH   1   7
ATOM      7  C   UNL     1      25.673   7.770   5.500  1.00  0.00     0.000 C 
BRANCH   7   8
ATOM      8  C   UNL     1      25.942   7.327   6.947  1.00  0.00    -0.000 C 
BRANCH   8   9
ATOM      9  C   UNL     1      27.257   6.547   7.092  1.00  0.00    -0.000 C 
BRANCH   9  10
ATOM     10  C   UNL     1      27.396   5.496   5.983  1.00  0.00    -0.003 C 
ATOM     11  C   UNL     1      27.757   4.131   6.559  1.00  0.00     0.004 C 
ENDBRANCH   9  10
ENDBRANCH   8   9
ENDBRANCH   7   8
ENDBRANCH   1   7
TORSDOF 7
ENDMDL
MODEL 2
REMARK VINA RESULT:    -4.190      2.895      4.679
REMARK INTER + INTRA:          -6.110
REMARK INTER:                  -5.527
REMARK INTRA:                  -0.582
REMARK UNBOUND:                -0.206
REMARK SMILES CCCCCCCCC(=O)[O-]
REMARK SMILES IDX 6 1 7 2 8 3 9 4 10 5 11 6 5 7 4 8 3 9 2 10 1 11
REMARK H PARENT
REMARK Flexibility Score: inf
ROOT
ATOM      1  C   UNL     1      28.107   6.917   8.355  1.00  0.00     0.000 C 
ENDROOT
BRANCH   1   2
ATOM      2  C   UNL     1      27.647   7.698   9.596  1.00  0.00     0.006 C 
BRANCH   2   3
ATOM      3  C   UNL     1      26.419   8.574   9.319  1.00  0.00     0.053 C 
BRANCH   3   4
ATOM      4  C   UNL     1      26.813  10.015   9.241  1.00  0.00     0.041 C 
ATOM      5  O   UNL     1      27.386  10.460   8.212  1.00  0.00    -0.550 OA
ATOM      6  O   UNL     1      26.503  10.878  10.283  1.00  0.00    -0.550 OA
ENDBRANCH   3   4
ENDBRANCH   2   3
ENDBRANCH   1   2
BRANCH   1   7
ATOM      7  C   UNL     1      26.929   6.334   7.553  1.00  0.00     0.000 C 
BRANCH   7   8
ATOM      8  C   UNL     1      27.306   6.015   6.098  1.00  0.00    -0.000 C 
BRANCH   8   9
ATOM      9  C   UNL     1      26.420   6.753   5.083  1.00  0.00    -0.000 C 
BRANCH   9  10
ATOM     10  C   UNL     1      25.962   8.107   5.637  1.00  0.00    -0.003 C 
ATOM     11  C   UNL     1      24.444   8.245   5.571  1.00  0.00     0.004 C 
ENDBRANCH   9  10
ENDBRANCH   8   9
ENDBRANCH   7   8
ENDBRANCH   1   7
TORSDOF 7
ENDMDL
MODEL 3
REMARK VINA RESULT:    -4.176      5.737      8.093
REMARK INTER + INTRA:          -6.090
REMARK INTER:                  -5.737
REMARK INTRA:                  -0.353
REMARK UNBOUND:                -0.206
REMARK SMILES CCCCCCCCC(=O)[O-]
REMARK SMILES IDX 6 1 7 2 8 3 9 4 10 5 11 6 5 7 4 8 3 9 2 10 1 11
REMARK H PARENT
REMARK Flexibility Score: inf
ROOT
ATOM      1  C   UNL     1      27.480   4.640   7.494  1.00  0.00     0.000 C 
ENDROOT
BRANCH   1   2
ATOM      2  C   UNL     1      28.022   3.225   7.751  1.00  0.00     0.006 C 
BRANCH   2   3
ATOM      3  C   UNL     1      27.717   2.259   6.599  1.00  0.00     0.053 C 
BRANCH   3   4
ATOM      4  C   UNL     1      26.902   1.104   7.088  1.00  0.00     0.041 C 
ATOM      5  O   UNL     1      26.569   1.032   8.301  1.00  0.00    -0.550 OA
ATOM      6  O   UNL     1      26.466   0.133   6.196  1.00  0.00    -0.550 OA
ENDBRANCH   3   4
ENDBRANCH   2   3
ENDBRANCH   1   2
BRANCH   1   7
ATOM      7  C   UNL     1      27.593   5.056   6.017  1.00  0.00     0.000 C 
BRANCH   7   8
ATOM      8  C   UNL     1      26.849   6.366   5.714  1.00  0.00    -0.000 C 
BRANCH   8   9
ATOM      9  C   UNL     1      26.362   7.077   6.985  1.00  0.00    -0.000 C 
BRANCH   9  10
ATOM     10  C   UNL     1      25.563   8.339   6.637  1.00  0.00    -0.003 C 
ATOM     11  C   UNL     1      24.535   8.057   5.546  1.00  0.00     0.004 C 
ENDBRANCH   9  10
ENDBRANCH   8   9
ENDBRANCH   7   8
ENDBRANCH   1   7
TORSDOF 7
ENDMDL
MODEL 4
REMARK VINA RESULT:    -4.153     12.113     12.842
REMARK INTER + INTRA:          -6.058
REMARK INTER:                  -5.667
REMARK INTRA:                  -0.391
REMARK UNBOUND:                -0.206
REMARK SMILES CCCCCCCCC(=O)[O-]
REMARK SMILES IDX 6 1 7 2 8 3 9 4 10 5 11 6 5 7 4 8 3 9 2 10 1 11
REMARK H PARENT
REMARK Flexibility Score: inf
ROOT
ATOM      1  C   UNL     1      15.770   2.800   1.920  1.00  0.00     0.000 C 
ENDROOT
BRANCH   1   2
ATOM      2  C   UNL     1      15.159   3.677   0.815  1.00  0.00     0.006 C 
BRANCH   2   3
ATOM      3  C   UNL     1      16.176   4.044  -0.274  1.00  0.00     0.053 C 
BRANCH   3   4
ATOM      4  C   UNL     1      15.807   3.398  -1.572  1.00  0.00     0.041 C 
ATOM      5  O   UNL     1      14.915   3.906  -2.301  1.00  0.00    -0.550 OA
ATOM      6  O   UNL     1      16.482   2.262  -2.000  1.00  0.00    -0.550 OA
ENDBRANCH   3   4
ENDBRANCH   2   3
ENDBRANCH   1   2
BRANCH   1   7
ATOM      7  C   UNL     1      15.433   1.309   1.746  1.00  0.00     0.000 C 
BRANCH   7   8
ATOM      8  C   UNL     1      15.397   0.551   3.082  1.00  0.00    -0.000 C 
BRANCH   8   9
ATOM      9  C   UNL     1      15.425   1.491   4.296  1.00  0.00    -0.000 C 
BRANCH   9  10
ATOM     10  C   UNL     1      16.678   1.252   5.146  1.00  0.00    -0.003 C 
ATOM     11  C   UNL     1      17.361   2.569   5.504  1.00  0.00     0.004 C 
ENDBRANCH   9  10
ENDBRANCH   8   9
ENDBRANCH   7   8
ENDBRANCH   1   7
TORSDOF 7
ENDMDL
MODEL 5
REMARK VINA RESULT:    -4.044     13.911     15.093
REMARK INTER + INTRA:          -5.905
REMARK INTER:                  -5.222
REMARK INTRA:                  -0.683
REMARK UNBOUND:                -0.206
REMARK SMILES CCCCCCCCC(=O)[O-]
REMARK SMILES IDX 6 1 7 2 8 3 9 4 10 5 11 6 5 7 4 8 3 9 2 10 1 11
REMARK H PARENT
REMARK Flexibility Score: inf
ROOT
ATOM      1  C   UNL     1      13.584   1.739  -2.735  1.00  0.00     0.000 C 
ENDROOT
BRANCH   1   2
ATOM      2  C   UNL     1      14.003   0.401  -2.105  1.00  0.00     0.006 C 
BRANCH   2   3
ATOM      3  C   UNL     1      15.336  -0.119  -2.659  1.00  0.00     0.053 C 
BRANCH   3   4
ATOM      4  C   UNL     1      16.480   0.427  -1.864  1.00  0.00     0.041 C 
ATOM      5  O   UNL     1      17.455   0.970  -2.447  1.00  0.00    -0.550 OA
ATOM      6  O   UNL     1      16.447   0.381  -0.476  1.00  0.00    -0.550 OA
ENDBRANCH   3   4
ENDBRANCH   2   3
ENDBRANCH   1   2
BRANCH   1   7
ATOM      7  C   UNL     1      13.725   2.921  -1.760  1.00  0.00     0.000 C 
BRANCH   7   8
ATOM      8  C   UNL     1      14.987   3.757  -2.024  1.00  0.00    -0.000 C 
BRANCH   8   9
ATOM      9  C   UNL     1      15.901   3.853  -0.793  1.00  0.00    -0.000 C 
BRANCH   9  10
ATOM     10  C   UNL     1      15.078   4.030   0.489  1.00  0.00    -0.003 C 
ATOM     11  C   UNL     1      15.602   3.138   1.609  1.00  0.00     0.004 C 
ENDBRANCH   9  10
ENDBRANCH   8   9
ENDBRANCH   7   8
ENDBRANCH   1   7
TORSDOF 7
ENDMDL
MODEL 6
REMARK VINA RESULT:    -4.036     13.022     13.886
REMARK INTER + INTRA:          -5.893
REMARK INTER:                  -5.200
REMARK INTRA:                  -0.692
REMARK UNBOUND:                -0.206
REMARK SMILES CCCCCCCCC(=O)[O-]
REMARK SMILES IDX 6 1 7 2 8 3 9 4 10 5 11 6 5 7 4 8 3 9 2 10 1 11
REMARK H PARENT
REMARK Flexibility Score: inf
ROOT
ATOM      1  C   UNL     1      15.388   2.972   1.992  1.00  0.00     0.000 C 
ENDROOT
BRANCH   1   2
ATOM      2  C   UNL     1      13.868   3.170   2.094  1.00  0.00     0.006 C 
BRANCH   2   3
ATOM      3  C   UNL     1      13.419   4.548   1.591  1.00  0.00     0.053 C 
BRANCH   3   4
ATOM      4  C   UNL     1      12.021   4.837   2.038  1.00  0.00     0.041 C 
ATOM      5  O   UNL     1      11.718   4.761   3.258  1.00  0.00    -0.550 OA
ATOM      6  O   UNL     1      11.064   5.240   1.116  1.00  0.00    -0.550 OA
ENDBRANCH   3   4
ENDBRANCH   2   3
ENDBRANCH   1   2
BRANCH   1   7
ATOM      7  C   UNL     1      15.766   1.663   1.276  1.00  0.00     0.000 C 
BRANCH   7   8
ATOM      8  C   UNL     1      16.136   1.882  -0.200  1.00  0.00    -0.000 C 
BRANCH   8   9
ATOM      9  C   UNL     1      16.388   3.360  -0.533  1.00  0.00    -0.000 C 
BRANCH   9  10
ATOM     10  C   UNL     1      15.497   3.821  -1.693  1.00  0.00    -0.003 C 
ATOM     11  C   UNL     1      14.312   2.880  -1.886  1.00  0.00     0.004 C 
ENDBRANCH   9  10
ENDBRANCH   8   9
ENDBRANCH   7   8
ENDBRANCH   1   7
TORSDOF 7
ENDMDL
MODEL 7
REMARK VINA RESULT:    -3.989     11.897     14.799
REMARK INTER + INTRA:          -5.827
REMARK INTER:                  -5.296
REMARK INTRA:                  -0.531
REMARK UNBOUND:                -0.206
REMARK SMILES CCCCCCCCC(=O)[O-]
REMARK SMILES IDX 6 1 7 2 8 3 9 4 10 5 11 6 5 7 4 8 3 9 2 10 1 11
REMARK H PARENT
REMARK Flexibility Score: inf
ROOT
ATOM      1  C   UNL     1      16.133  18.896   1.035  1.00  0.00     0.000 C 
ENDROOT
BRANCH   1   2
ATOM      2  C   UNL     1      16.888  17.590   1.332  1.00  0.00     0.006 C 
BRANCH   2   3
ATOM      3  C   UNL     1      18.348  17.635   0.864  1.00  0.00     0.053 C 
BRANCH   3   4
ATOM      4  C   UNL     1      18.658  16.449   0.008  1.00  0.00     0.041 C 
ATOM      5  O   UNL     1      17.946  16.190  -0.998  1.00  0.00    -0.550 OA
ATOM      6  O   UNL     1      19.763  15.656   0.290  1.00  0.00    -0.550 OA
ENDBRANCH   3   4
ENDBRANCH   2   3
ENDBRANCH   1   2
BRANCH   1   7
ATOM      7  C   UNL     1      15.382  18.853  -0.307  1.00  0.00     0.000 C 
BRANCH   7   8
ATOM      8  C   UNL     1      14.640  17.525  -0.526  1.00  0.00    -0.000 C 
BRANCH   8   9
ATOM      9  C   UNL     1      14.776  17.002  -1.964  1.00  0.00    -0.000 C 
BRANCH   9  10
ATOM     10  C   UNL     1      15.022  18.154  -2.946  1.00  0.00    -0.003 C 
ATOM     11  C   UNL     1      14.239  17.953  -4.240  1.00  0.00     0.004 C 
ENDBRANCH   9  10
ENDBRANCH   8   9
ENDBRANCH   7   8
ENDBRANCH   1   7
TORSDOF 7
ENDMDL
MODEL 8
REMARK VINA RESULT:    -3.978     12.307     13.149
REMARK INTER + INTRA:          -5.811
REMARK INTER:                  -5.409
REMARK INTRA:                  -0.402
REMARK UNBOUND:                -0.206
REMARK SMILES CCCCCCCCC(=O)[O-]
REMARK SMILES IDX 6 1 7 2 8 3 9 4 10 5 11 6 5 7 4 8 3 9 2 10 1 11
REMARK H PARENT
REMARK Flexibility Score: inf
ROOT
ATOM      1  C   UNL     1      15.178   3.616   0.519  1.00  0.00     0.000 C 
ENDROOT
BRANCH   1   2
ATOM      2  C   UNL     1      16.241   3.688  -0.589  1.00  0.00     0.006 C 
BRANCH   2   3
ATOM      3  C   UNL     1      16.110   2.548  -1.607  1.00  0.00     0.053 C 
BRANCH   3   4
ATOM      4  C   UNL     1      17.034   1.425  -1.254  1.00  0.00     0.041 C 
ATOM      5  O   UNL     1      16.627   0.471  -0.540  1.00  0.00    -0.550 OA
ATOM      6  O   UNL     1      18.329   1.406  -1.755  1.00  0.00    -0.550 OA
ENDBRANCH   3   4
ENDBRANCH   2   3
ENDBRANCH   1   2
BRANCH   1   7
ATOM      7  C   UNL     1      15.746   3.094   1.850  1.00  0.00     0.000 C 
BRANCH   7   8
ATOM      8  C   UNL     1      14.891   1.971   2.458  1.00  0.00    -0.000 C 
BRANCH   8   9
ATOM      9  C   UNL     1      15.721   0.980   3.288  1.00  0.00    -0.000 C 
BRANCH   9  10
ATOM     10  C   UNL     1      15.683   1.345   4.777  1.00  0.00    -0.003 C 
ATOM     11  C   UNL     1      16.964   2.056   5.203  1.00  0.00     0.004 C 
ENDBRANCH   9  10
ENDBRANCH   8   9
ENDBRANCH   7   8
ENDBRANCH   1   7
TORSDOF 7
ENDMDL
MODEL 9
REMARK VINA RESULT:    -3.975     13.007     14.335
REMARK INTER + INTRA:          -5.807
REMARK INTER:                  -5.385
REMARK INTRA:                  -0.422
REMARK UNBOUND:                -0.206
REMARK SMILES CCCCCCCCC(=O)[O-]
REMARK SMILES IDX 6 1 7 2 8 3 9 4 10 5 11 6 5 7 4 8 3 9 2 10 1 11
REMARK H PARENT
REMARK Flexibility Score: inf
ROOT
ATOM      1  C   UNL     1      15.330   4.096   0.312  1.00  0.00     0.000 C 
ENDROOT
BRANCH   1   2
ATOM      2  C   UNL     1      16.528   3.703  -0.567  1.00  0.00     0.006 C 
BRANCH   2   3
ATOM      3  C   UNL     1      16.172   2.628  -1.602  1.00  0.00     0.053 C 
BRANCH   3   4
ATOM      4  C   UNL     1      16.977   1.389  -1.366  1.00  0.00     0.041 C 
ATOM      5  O   UNL     1      18.105   1.255  -1.909  1.00  0.00    -0.550 OA
ATOM      6  O   UNL     1      16.504   0.405  -0.508  1.00  0.00    -0.550 OA
ENDBRANCH   3   4
ENDBRANCH   2   3
ENDBRANCH   1   2
BRANCH   1   7
ATOM      7  C   UNL     1      15.255   3.276   1.611  1.00  0.00     0.000 C 
BRANCH   7   8
ATOM      8  C   UNL     1      13.810   3.039   2.078  1.00  0.00    -0.000 C 
BRANCH   8   9
ATOM      9  C   UNL     1      12.776   3.721   1.169  1.00  0.00    -0.000 C 
BRANCH   9  10
ATOM     10  C   UNL     1      12.117   4.908   1.882  1.00  0.00    -0.003 C 
ATOM     11  C   UNL     1      11.587   4.502   3.254  1.00  0.00     0.004 C 
ENDBRANCH   9  10
ENDBRANCH   8   9
ENDBRANCH   7   8
ENDBRANCH   1   7
TORSDOF 7
ENDMDL
