MODEL 1
REMARK VINA RESULT:    -6.240      0.000      0.000
REMARK INTER + INTRA:          -7.598
REMARK INTER:                  -7.335
REMARK INTRA:                  -0.264
REMARK UNBOUND:                -0.264
REMARK SMILES O=c1cc(-c2ccc(O)c(O)c2)oc2cc(O)cc(O)c12
REMARK SMILES IDX 4 1 3 2 2 3 1 4 21 5 19 6 18 7 16 8 15 9 14 10 13 11 5 12
REMARK SMILES IDX 6 13 7 14 8 15 12 16 10 17 9 18 11 20 20 22 17 24
REMARK H PARENT 9 19 11 21 20 23 17 25
REMARK Flexibility Score: inf
ROOT
ATOM      1  C   UNL     1     114.225  48.679  22.563  1.00  0.00     0.138 A 
ATOM      2  C   UNL     1     114.623  49.043  23.856  1.00  0.00     0.100 A 
ATOM      3  C   UNL     1     115.820  49.740  24.040  1.00  0.00     0.197 A 
ATOM      4  O   UNL     1     116.123  50.100  25.206  1.00  0.00    -0.289 OA
ATOM      5  C   UNL     1     116.637  50.040  22.923  1.00  0.00     0.107 A 
ATOM      6  C   UNL     1     117.894  50.715  22.993  1.00  0.00     0.134 A 
ATOM      7  C   UNL     1     118.566  51.043  21.809  1.00  0.00     0.093 A 
ATOM      8  C   UNL     1     118.056  50.671  20.562  1.00  0.00     0.123 A 
ATOM      9  C   UNL     1     116.857  49.969  20.488  1.00  0.00     0.094 A 
ATOM     10  C   UNL     1     116.145  49.656  21.647  1.00  0.00     0.146 A 
ATOM     11  O   UNL     1     114.994  49.000  21.529  1.00  0.00    -0.456 OA
ENDROOT
BRANCH   1  12
ATOM     12  C   UNL     1     112.964  47.936  22.311  1.00  0.00     0.021 A 
ATOM     13  C   UNL     1     112.981  46.530  22.307  1.00  0.00     0.016 A 
ATOM     14  C   UNL     1     111.811  45.805  22.065  1.00  0.00     0.051 A 
ATOM     15  C   UNL     1     110.607  46.473  21.815  1.00  0.00     0.157 A 
ATOM     16  C   UNL     1     111.751  48.600  22.045  1.00  0.00     0.062 A 
ATOM     17  C   UNL     1     110.577  47.872  21.801  1.00  0.00     0.158 A 
BRANCH  15  18
ATOM     18  O   UNL     1     109.437  45.754  21.574  1.00  0.00    -0.504 OA
ATOM     19  H   UNL     1     108.922  45.314  22.327  1.00  0.00     0.293 HD
ENDBRANCH  15  18
BRANCH  17  20
ATOM     20  O   UNL     1     109.379  48.535  21.540  1.00  0.00    -0.504 OA
ATOM     21  H   UNL     1     109.302  49.222  20.800  1.00  0.00     0.293 HD
ENDBRANCH  17  20
ENDBRANCH   1  12
BRANCH   6  22
ATOM     22  O   UNL     1     118.532  51.062  24.187  1.00  0.00    -0.507 OA
ATOM     23  H   UNL     1     118.913  50.408  24.852  1.00  0.00     0.293 HD
ENDBRANCH   6  22
BRANCH   8  24
ATOM     24  O   UNL     1     118.741  50.990  19.391  1.00  0.00    -0.508 OA
ATOM     25  H   UNL     1     118.279  50.989  18.490  1.00  0.00     0.293 HD
ENDBRANCH   8  24
TORSDOF 5
ENDMDL
MODEL 2
REMARK VINA RESULT:    -5.970      1.739      7.231
REMARK INTER + INTRA:          -7.280
REMARK INTER:                  -7.014
REMARK INTRA:                  -0.266
REMARK UNBOUND:                -0.264
REMARK SMILES O=c1cc(-c2ccc(O)c(O)c2)oc2cc(O)cc(O)c12
REMARK SMILES IDX 4 1 3 2 2 3 1 4 21 5 19 6 18 7 16 8 15 9 14 10 13 11 5 12
REMARK SMILES IDX 6 13 7 14 8 15 12 16 10 17 9 18 11 20 20 22 17 24
REMARK H PARENT 9 19 11 21 20 23 17 25
REMARK Flexibility Score: inf
ROOT
ATOM      1  C   UNL     1     115.142  48.300  21.538  1.00  0.00     0.138 A 
ATOM      2  C   UNL     1     115.475  47.171  20.778  1.00  0.00     0.100 A 
ATOM      3  C   UNL     1     114.485  46.243  20.449  1.00  0.00     0.197 A 
ATOM      4  O   UNL     1     114.805  45.269  19.721  1.00  0.00    -0.289 OA
ATOM      5  C   UNL     1     113.162  46.430  20.917  1.00  0.00     0.107 A 
ATOM      6  C   UNL     1     112.078  45.533  20.674  1.00  0.00     0.134 A 
ATOM      7  C   UNL     1     110.790  45.876  21.104  1.00  0.00     0.093 A 
ATOM      8  C   UNL     1     110.557  47.054  21.818  1.00  0.00     0.123 A 
ATOM      9  C   UNL     1     111.617  47.910  22.103  1.00  0.00     0.094 A 
ATOM     10  C   UNL     1     112.907  47.615  21.658  1.00  0.00     0.146 A 
ATOM     11  O   UNL     1     113.886  48.470  21.937  1.00  0.00    -0.456 OA
ENDROOT
BRANCH   1  12
ATOM     12  C   UNL     1     116.155  49.317  21.918  1.00  0.00     0.021 A 
ATOM     13  C   UNL     1     116.652  49.338  23.232  1.00  0.00     0.016 A 
ATOM     14  C   UNL     1     117.601  50.288  23.619  1.00  0.00     0.051 A 
ATOM     15  C   UNL     1     118.061  51.239  22.701  1.00  0.00     0.157 A 
ATOM     16  C   UNL     1     116.614  50.285  21.003  1.00  0.00     0.062 A 
ATOM     17  C   UNL     1     117.565  51.240  21.393  1.00  0.00     0.158 A 
BRANCH  15  18
ATOM     18  O   UNL     1     119.008  52.188  23.082  1.00  0.00    -0.504 OA
ATOM     19  H   UNL     1     119.561  52.077  23.924  1.00  0.00     0.293 HD
ENDBRANCH  15  18
BRANCH  17  20
ATOM     20  O   UNL     1     118.017  52.196  20.484  1.00  0.00    -0.504 OA
ATOM     21  H   UNL     1     117.376  52.717  19.898  1.00  0.00     0.293 HD
ENDBRANCH  17  20
ENDBRANCH   1  12
BRANCH   6  22
ATOM     22  O   UNL     1     112.213  44.294  20.040  1.00  0.00    -0.507 OA
ATOM     23  H   UNL     1     113.073  43.775  19.959  1.00  0.00     0.293 HD
ENDBRANCH   6  22
BRANCH   8  24
ATOM     24  O   UNL     1     109.274  47.377  22.255  1.00  0.00    -0.508 OA
ATOM     25  H   UNL     1     108.454  46.917  21.878  1.00  0.00     0.293 HD
ENDBRANCH   8  24
TORSDOF 5
ENDMDL
MODEL 3
REMARK VINA RESULT:    -5.889      3.831      4.472
REMARK INTER + INTRA:          -7.186
REMARK INTER:                  -6.923
REMARK INTRA:                  -0.263
REMARK UNBOUND:                -0.264
REMARK SMILES O=c1cc(-c2ccc(O)c(O)c2)oc2cc(O)cc(O)c12
REMARK SMILES IDX 4 1 3 2 2 3 1 4 21 5 19 6 18 7 16 8 15 9 14 10 13 11 5 12
REMARK SMILES IDX 6 13 7 14 8 15 12 16 10 17 9 18 11 20 20 22 17 24
REMARK H PARENT 9 19 11 21 20 23 17 25
REMARK Flexibility Score: inf
ROOT
ATOM      1  C   UNL     1     116.098  46.202  21.283  1.00  0.00     0.138 A 
ATOM      2  C   UNL     1     115.633  46.264  22.604  1.00  0.00     0.100 A 
ATOM      3  C   UNL     1     115.696  47.472  23.302  1.00  0.00     0.197 A 
ATOM      4  O   UNL     1     115.222  47.509  24.466  1.00  0.00    -0.289 OA
ATOM      5  C   UNL     1     116.262  48.613  22.684  1.00  0.00     0.107 A 
ATOM      6  C   UNL     1     116.410  49.888  23.310  1.00  0.00     0.134 A 
ATOM      7  C   UNL     1     116.894  50.970  22.564  1.00  0.00     0.093 A 
ATOM      8  C   UNL     1     117.289  50.810  21.233  1.00  0.00     0.123 A 
ATOM      9  C   UNL     1     117.195  49.559  20.630  1.00  0.00     0.094 A 
ATOM     10  C   UNL     1     116.684  48.468  21.336  1.00  0.00     0.146 A 
ATOM     11  O   UNL     1     116.595  47.295  20.715  1.00  0.00    -0.456 OA
ENDROOT
BRANCH   1  12
ATOM     12  C   UNL     1     116.057  44.944  20.496  1.00  0.00     0.021 A 
ATOM     13  C   UNL     1     117.170  44.086  20.508  1.00  0.00     0.016 A 
ATOM     14  C   UNL     1     117.162  42.899  19.770  1.00  0.00     0.051 A 
ATOM     15  C   UNL     1     116.044  42.555  19.002  1.00  0.00     0.157 A 
ATOM     16  C   UNL     1     114.941  44.596  19.709  1.00  0.00     0.062 A 
ATOM     17  C   UNL     1     114.934  43.406  18.968  1.00  0.00     0.158 A 
BRANCH  15  18
ATOM     18  O   UNL     1     116.031  41.371  18.265  1.00  0.00    -0.504 OA
ATOM     19  H   UNL     1     115.173  40.996  17.879  1.00  0.00     0.293 HD
ENDBRANCH  15  18
BRANCH  17  20
ATOM     20  O   UNL     1     113.827  43.066  18.192  1.00  0.00    -0.504 OA
ATOM     21  H   UNL     1     113.920  42.812  17.215  1.00  0.00     0.293 HD
ENDBRANCH  17  20
ENDBRANCH   1  12
BRANCH   6  22
ATOM     22  O   UNL     1     116.121  50.140  24.654  1.00  0.00    -0.507 OA
ATOM     23  H   UNL     1     116.641  49.775  25.437  1.00  0.00     0.293 HD
ENDBRANCH   6  22
BRANCH   8  24
ATOM     24  O   UNL     1     117.784  51.890  20.504  1.00  0.00    -0.508 OA
ATOM     25  H   UNL     1     117.638  52.845  20.808  1.00  0.00     0.293 HD
ENDBRANCH   8  24
TORSDOF 5
ENDMDL
MODEL 4
REMARK VINA RESULT:    -5.863      5.019      7.166
REMARK INTER + INTRA:          -7.155
REMARK INTER:                  -6.889
REMARK INTRA:                  -0.266
REMARK UNBOUND:                -0.264
REMARK SMILES O=c1cc(-c2ccc(O)c(O)c2)oc2cc(O)cc(O)c12
REMARK SMILES IDX 4 1 3 2 2 3 1 4 21 5 19 6 18 7 16 8 15 9 14 10 13 11 5 12
REMARK SMILES IDX 6 13 7 14 8 15 12 16 10 17 9 18 11 20 20 22 17 24
REMARK H PARENT 9 19 11 21 20 23 17 25
REMARK Flexibility Score: inf
ROOT
ATOM      1  C   UNL     1     108.368  46.234  20.577  1.00  0.00     0.138 A 
ATOM      2  C   UNL     1     108.318  45.520  21.782  1.00  0.00     0.100 A 
ATOM      3  C   UNL     1     109.500  45.043  22.352  1.00  0.00     0.197 A 
ATOM      4  O   UNL     1     109.427  44.454  23.461  1.00  0.00    -0.289 OA
ATOM      5  C   UNL     1     110.734  45.253  21.691  1.00  0.00     0.107 A 
ATOM      6  C   UNL     1     111.999  44.784  22.160  1.00  0.00     0.134 A 
ATOM      7  C   UNL     1     113.165  45.139  21.471  1.00  0.00     0.093 A 
ATOM      8  C   UNL     1     113.107  45.897  20.298  1.00  0.00     0.123 A 
ATOM      9  C   UNL     1     111.875  46.317  19.806  1.00  0.00     0.094 A 
ATOM     10  C   UNL     1     110.696  46.009  20.489  1.00  0.00     0.146 A 
ATOM     11  O   UNL     1     109.542  46.445  19.993  1.00  0.00    -0.456 OA
ENDROOT
BRANCH   1  12
ATOM     12  C   UNL     1     107.142  46.761  19.926  1.00  0.00     0.021 A 
ATOM     13  C   UNL     1     106.728  46.221  18.696  1.00  0.00     0.016 A 
ATOM     14  C   UNL     1     105.582  46.703  18.057  1.00  0.00     0.051 A 
ATOM     15  C   UNL     1     104.837  47.738  18.633  1.00  0.00     0.157 A 
ATOM     16  C   UNL     1     106.393  47.811  20.492  1.00  0.00     0.062 A 
ATOM     17  C   UNL     1     105.244  48.296  19.850  1.00  0.00     0.158 A 
BRANCH  15  18
ATOM     18  O   UNL     1     103.693  48.221  18.000  1.00  0.00    -0.504 OA
ATOM     19  H   UNL     1     103.632  48.283  16.990  1.00  0.00     0.293 HD
ENDBRANCH  15  18
BRANCH  17  20
ATOM     20  O   UNL     1     104.506  49.334  20.415  1.00  0.00    -0.504 OA
ATOM     21  H   UNL     1     104.447  49.458  21.419  1.00  0.00     0.293 HD
ENDBRANCH  17  20
ENDBRANCH   1  12
BRANCH   6  22
ATOM     22  O   UNL     1     112.163  43.955  23.274  1.00  0.00    -0.507 OA
ATOM     23  H   UNL     1     112.033  42.955  23.278  1.00  0.00     0.293 HD
ENDBRANCH   6  22
BRANCH   8  24
ATOM     24  O   UNL     1     114.273  46.231  19.611  1.00  0.00    -0.508 OA
ATOM     25  H   UNL     1     115.167  45.822  19.854  1.00  0.00     0.293 HD
ENDBRANCH   8  24
TORSDOF 5
ENDMDL
MODEL 5
REMARK VINA RESULT:    -5.820      2.712      7.002
REMARK INTER + INTRA:          -7.105
REMARK INTER:                  -6.834
REMARK INTRA:                  -0.270
REMARK UNBOUND:                -0.264
REMARK SMILES O=c1cc(-c2ccc(O)c(O)c2)oc2cc(O)cc(O)c12
REMARK SMILES IDX 4 1 3 2 2 3 1 4 21 5 19 6 18 7 16 8 15 9 14 10 13 11 5 12
REMARK SMILES IDX 6 13 7 14 8 15 12 16 10 17 9 18 11 20 20 22 17 24
REMARK H PARENT 9 19 11 21 20 23 17 25
REMARK Flexibility Score: inf
ROOT
ATOM      1  C   UNL     1     115.306  47.962  21.401  1.00  0.00     0.138 A 
ATOM      2  C   UNL     1     113.922  48.008  21.620  1.00  0.00     0.100 A 
ATOM      3  C   UNL     1     113.129  46.917  21.260  1.00  0.00     0.197 A 
ATOM      4  O   UNL     1     111.899  46.967  21.518  1.00  0.00    -0.289 OA
ATOM      5  C   UNL     1     113.722  45.789  20.643  1.00  0.00     0.107 A 
ATOM      6  C   UNL     1     113.009  44.633  20.201  1.00  0.00     0.134 A 
ATOM      7  C   UNL     1     113.719  43.537  19.696  1.00  0.00     0.093 A 
ATOM      8  C   UNL     1     115.109  43.577  19.561  1.00  0.00     0.123 A 
ATOM      9  C   UNL     1     115.808  44.719  19.943  1.00  0.00     0.094 A 
ATOM     10  C   UNL     1     115.134  45.816  20.483  1.00  0.00     0.146 A 
ATOM     11  O   UNL     1     115.842  46.878  20.851  1.00  0.00    -0.456 OA
ENDROOT
BRANCH   1  12
ATOM     12  C   UNL     1     116.195  49.094  21.763  1.00  0.00     0.021 A 
ATOM     13  C   UNL     1     116.397  49.407  23.119  1.00  0.00     0.016 A 
ATOM     14  C   UNL     1     117.223  50.472  23.488  1.00  0.00     0.051 A 
ATOM     15  C   UNL     1     117.854  51.247  22.508  1.00  0.00     0.157 A 
ATOM     16  C   UNL     1     116.824  49.887  20.783  1.00  0.00     0.062 A 
ATOM     17  C   UNL     1     117.652  50.957  21.154  1.00  0.00     0.158 A 
BRANCH  15  18
ATOM     18  O   UNL     1     118.680  52.309  22.872  1.00  0.00    -0.504 OA
ATOM     19  H   UNL     1     119.677  52.293  22.689  1.00  0.00     0.293 HD
ENDBRANCH  15  18
BRANCH  17  20
ATOM     20  O   UNL     1     118.274  51.737  20.181  1.00  0.00    -0.504 OA
ATOM     21  H   UNL     1     118.733  51.321  19.380  1.00  0.00     0.293 HD
ENDBRANCH  17  20
ENDBRANCH   1  12
BRANCH   6  22
ATOM     22  O   UNL     1     111.616  44.519  20.216  1.00  0.00    -0.507 OA
ATOM     23  H   UNL     1     111.071  43.987  19.556  1.00  0.00     0.293 HD
ENDBRANCH   6  22
BRANCH   8  24
ATOM     24  O   UNL     1     115.803  42.486  19.042  1.00  0.00    -0.508 OA
ATOM     25  H   UNL     1     115.530  42.050  18.169  1.00  0.00     0.293 HD
ENDBRANCH   8  24
TORSDOF 5
ENDMDL
MODEL 6
REMARK VINA RESULT:    -5.805      8.035     10.597
REMARK INTER + INTRA:          -7.087
REMARK INTER:                  -6.769
REMARK INTRA:                  -0.318
REMARK UNBOUND:                -0.264
REMARK SMILES O=c1cc(-c2ccc(O)c(O)c2)oc2cc(O)cc(O)c12
REMARK SMILES IDX 4 1 3 2 2 3 1 4 21 5 19 6 18 7 16 8 15 9 14 10 13 11 5 12
REMARK SMILES IDX 6 13 7 14 8 15 12 16 10 17 9 18 11 20 20 22 17 24
REMARK H PARENT 9 19 11 21 20 23 17 25
REMARK Flexibility Score: inf
ROOT
ATOM      1  C   UNL     1     107.675  43.394  21.248  1.00  0.00     0.138 A 
ATOM      2  C   UNL     1     107.484  42.056  20.874  1.00  0.00     0.100 A 
ATOM      3  C   UNL     1     107.132  41.751  19.558  1.00  0.00     0.197 A 
ATOM      4  O   UNL     1     107.021  40.539  19.240  1.00  0.00    -0.289 OA
ATOM      5  C   UNL     1     106.935  42.794  18.622  1.00  0.00     0.107 A 
ATOM      6  C   UNL     1     106.542  42.605  17.262  1.00  0.00     0.134 A 
ATOM      7  C   UNL     1     106.475  43.709  16.403  1.00  0.00     0.093 A 
ATOM      8  C   UNL     1     106.730  45.002  16.869  1.00  0.00     0.123 A 
ATOM      9  C   UNL     1     107.066  45.202  18.205  1.00  0.00     0.094 A 
ATOM     10  C   UNL     1     107.175  44.118  19.079  1.00  0.00     0.146 A 
ATOM     11  O   UNL     1     107.516  44.352  20.342  1.00  0.00    -0.456 OA
ENDROOT
BRANCH   1  12
ATOM     12  C   UNL     1     108.048  43.775  22.633  1.00  0.00     0.021 A 
ATOM     13  C   UNL     1     108.237  42.771  23.598  1.00  0.00     0.016 A 
ATOM     14  C   UNL     1     108.581  43.102  24.912  1.00  0.00     0.051 A 
ATOM     15  C   UNL     1     108.732  44.442  25.284  1.00  0.00     0.157 A 
ATOM     16  C   UNL     1     108.189  45.123  23.020  1.00  0.00     0.062 A 
ATOM     17  C   UNL     1     108.533  45.454  24.339  1.00  0.00     0.158 A 
BRANCH  15  18
ATOM     18  O   UNL     1     109.076  44.776  26.593  1.00  0.00    -0.504 OA
ATOM     19  H   UNL     1     109.351  44.071  27.266  1.00  0.00     0.293 HD
ENDBRANCH  15  18
BRANCH  17  20
ATOM     20  O   UNL     1     108.673  46.789  24.716  1.00  0.00    -0.504 OA
ATOM     21  H   UNL     1     108.003  47.494  24.434  1.00  0.00     0.293 HD
ENDBRANCH  17  20
ENDBRANCH   1  12
BRANCH   6  22
ATOM     22  O   UNL     1     106.187  41.369  16.714  1.00  0.00    -0.507 OA
ATOM     23  H   UNL     1     105.630  40.668  17.176  1.00  0.00     0.293 HD
ENDBRANCH   6  22
BRANCH   8  24
ATOM     24  O   UNL     1     106.646  46.096  16.009  1.00  0.00    -0.508 OA
ATOM     25  H   UNL     1     107.385  46.786  15.955  1.00  0.00     0.293 HD
ENDBRANCH   8  24
TORSDOF 5
ENDMDL
MODEL 7
REMARK VINA RESULT:    -5.805      7.286      9.830
REMARK INTER + INTRA:          -7.087
REMARK INTER:                  -6.822
REMARK INTRA:                  -0.265
REMARK UNBOUND:                -0.264
REMARK SMILES O=c1cc(-c2ccc(O)c(O)c2)oc2cc(O)cc(O)c12
REMARK SMILES IDX 4 1 3 2 2 3 1 4 21 5 19 6 18 7 16 8 15 9 14 10 13 11 5 12
REMARK SMILES IDX 6 13 7 14 8 15 12 16 10 17 9 18 11 20 20 22 17 24
REMARK H PARENT 9 19 11 21 20 23 17 25
REMARK Flexibility Score: inf
ROOT
ATOM      1  C   UNL     1     107.672  43.316  24.305  1.00  0.00     0.138 A 
ATOM      2  C   UNL     1     108.397  44.406  24.806  1.00  0.00     0.100 A 
ATOM      3  C   UNL     1     108.673  45.493  23.975  1.00  0.00     0.197 A 
ATOM      4  O   UNL     1     109.278  46.478  24.469  1.00  0.00    -0.289 OA
ATOM      5  C   UNL     1     108.252  45.469  22.623  1.00  0.00     0.107 A 
ATOM      6  C   UNL     1     108.506  46.505  21.673  1.00  0.00     0.134 A 
ATOM      7  C   UNL     1     107.952  46.414  20.390  1.00  0.00     0.093 A 
ATOM      8  C   UNL     1     107.203  45.299  20.004  1.00  0.00     0.123 A 
ATOM      9  C   UNL     1     106.992  44.262  20.908  1.00  0.00     0.094 A 
ATOM     10  C   UNL     1     107.501  44.337  22.206  1.00  0.00     0.146 A 
ATOM     11  O   UNL     1     107.260  43.332  23.042  1.00  0.00    -0.456 OA
ENDROOT
BRANCH   1  12
ATOM     12  C   UNL     1     107.353  42.133  25.145  1.00  0.00     0.021 A 
ATOM     13  C   UNL     1     108.297  41.098  25.266  1.00  0.00     0.016 A 
ATOM     14  C   UNL     1     108.020  39.971  26.044  1.00  0.00     0.051 A 
ATOM     15  C   UNL     1     106.792  39.855  26.705  1.00  0.00     0.157 A 
ATOM     16  C   UNL     1     106.114  42.003  25.803  1.00  0.00     0.062 A 
ATOM     17  C   UNL     1     105.836  40.870  26.582  1.00  0.00     0.158 A 
BRANCH  15  18
ATOM     18  O   UNL     1     106.512  38.732  27.483  1.00  0.00    -0.504 OA
ATOM     19  H   UNL     1     107.199  38.341  28.116  1.00  0.00     0.293 HD
ENDBRANCH  15  18
BRANCH  17  20
ATOM     20  O   UNL     1     104.610  40.746  27.233  1.00  0.00    -0.504 OA
ATOM     21  H   UNL     1     104.229  41.498  27.796  1.00  0.00     0.293 HD
ENDBRANCH  17  20
ENDBRANCH   1  12
BRANCH   6  22
ATOM     22  O   UNL     1     109.306  47.623  21.928  1.00  0.00    -0.507 OA
ATOM     23  H   UNL     1     109.085  48.357  22.582  1.00  0.00     0.293 HD
ENDBRANCH   6  22
BRANCH   8  24
ATOM     24  O   UNL     1     106.670  45.212  18.720  1.00  0.00    -0.508 OA
ATOM     25  H   UNL     1     105.677  45.322  18.549  1.00  0.00     0.293 HD
ENDBRANCH   8  24
TORSDOF 5
ENDMDL
MODEL 8
REMARK VINA RESULT:    -5.781      6.322     11.179
REMARK INTER + INTRA:          -7.059
REMARK INTER:                  -6.795
REMARK INTRA:                  -0.263
REMARK UNBOUND:                -0.264
REMARK SMILES O=c1cc(-c2ccc(O)c(O)c2)oc2cc(O)cc(O)c12
REMARK SMILES IDX 4 1 3 2 2 3 1 4 21 5 19 6 18 7 16 8 15 9 14 10 13 11 5 12
REMARK SMILES IDX 6 13 7 14 8 15 12 16 10 17 9 18 11 20 20 22 17 24
REMARK H PARENT 9 19 11 21 20 23 17 25
REMARK Flexibility Score: inf
ROOT
ATOM      1  C   UNL     1     108.130  43.336  23.133  1.00  0.00     0.138 A 
ATOM      2  C   UNL     1     108.802  42.177  22.721  1.00  0.00     0.100 A 
ATOM      3  C   UNL     1     108.536  40.962  23.356  1.00  0.00     0.197 A 
ATOM      4  O   UNL     1     109.115  39.931  22.928  1.00  0.00    -0.289 OA
ATOM      5  C   UNL     1     107.618  40.917  24.433  1.00  0.00     0.107 A 
ATOM      6  C   UNL     1     107.293  39.743  25.177  1.00  0.00     0.134 A 
ATOM      7  C   UNL     1     106.295  39.802  26.157  1.00  0.00     0.093 A 
ATOM      8  C   UNL     1     105.651  41.004  26.460  1.00  0.00     0.123 A 
ATOM      9  C   UNL     1     105.996  42.165  25.774  1.00  0.00     0.094 A 
ATOM     10  C   UNL     1     106.963  42.133  24.767  1.00  0.00     0.146 A 
ATOM     11  O   UNL     1     107.249  43.261  24.125  1.00  0.00    -0.456 OA
ENDROOT
BRANCH   1  12
ATOM     12  C   UNL     1     108.376  44.654  22.495  1.00  0.00     0.021 A 
ATOM     13  C   UNL     1     107.593  45.045  21.394  1.00  0.00     0.016 A 
ATOM     14  C   UNL     1     107.808  46.276  20.770  1.00  0.00     0.051 A 
ATOM     15  C   UNL     1     108.814  47.134  21.230  1.00  0.00     0.157 A 
ATOM     16  C   UNL     1     109.394  45.518  22.944  1.00  0.00     0.062 A 
ATOM     17  C   UNL     1     109.611  46.753  22.315  1.00  0.00     0.158 A 
BRANCH  15  18
ATOM     18  O   UNL     1     109.031  48.364  20.611  1.00  0.00    -0.504 OA
ATOM     19  H   UNL     1     108.580  48.604  19.735  1.00  0.00     0.293 HD
ENDBRANCH  15  18
BRANCH  17  20
ATOM     20  O   UNL     1     110.619  47.605  22.764  1.00  0.00    -0.504 OA
ATOM     21  H   UNL     1     111.599  47.381  22.637  1.00  0.00     0.293 HD
ENDBRANCH  17  20
ENDBRANCH   1  12
BRANCH   6  22
ATOM     22  O   UNL     1     107.930  38.509  25.012  1.00  0.00    -0.507 OA
ATOM     23  H   UNL     1     107.750  37.860  24.262  1.00  0.00     0.293 HD
ENDBRANCH   6  22
BRANCH   8  24
ATOM     24  O   UNL     1     104.670  41.055  27.449  1.00  0.00    -0.508 OA
ATOM     25  H   UNL     1     104.878  40.832  28.414  1.00  0.00     0.293 HD
ENDBRANCH   8  24
TORSDOF 5
ENDMDL
MODEL 9
REMARK VINA RESULT:    -5.781      8.036     10.555
REMARK INTER + INTRA:          -7.058
REMARK INTER:                  -6.763
REMARK INTRA:                  -0.295
REMARK UNBOUND:                -0.264
REMARK SMILES O=c1cc(-c2ccc(O)c(O)c2)oc2cc(O)cc(O)c12
REMARK SMILES IDX 4 1 3 2 2 3 1 4 21 5 19 6 18 7 16 8 15 9 14 10 13 11 5 12
REMARK SMILES IDX 6 13 7 14 8 15 12 16 10 17 9 18 11 20 20 22 17 24
REMARK H PARENT 9 19 11 21 20 23 17 25
REMARK Flexibility Score: inf
ROOT
ATOM      1  C   UNL     1     107.565  44.318  21.031  1.00  0.00     0.138 A 
ATOM      2  C   UNL     1     107.474  45.525  20.324  1.00  0.00     0.100 A 
ATOM      3  C   UNL     1     107.192  45.505  18.957  1.00  0.00     0.197 A 
ATOM      4  O   UNL     1     107.064  46.606  18.362  1.00  0.00    -0.289 OA
ATOM      5  C   UNL     1     107.038  44.267  18.288  1.00  0.00     0.107 A 
ATOM      6  C   UNL     1     106.783  44.122  16.890  1.00  0.00     0.134 A 
ATOM      7  C   UNL     1     106.550  42.847  16.360  1.00  0.00     0.093 A 
ATOM      8  C   UNL     1     106.620  41.707  17.165  1.00  0.00     0.123 A 
ATOM      9  C   UNL     1     106.917  41.834  18.519  1.00  0.00     0.094 A 
ATOM     10  C   UNL     1     107.121  43.094  19.086  1.00  0.00     0.146 A 
ATOM     11  O   UNL     1     107.384  43.170  20.386  1.00  0.00    -0.456 OA
ENDROOT
BRANCH   1  12
ATOM     12  C   UNL     1     107.864  44.281  22.484  1.00  0.00     0.021 A 
ATOM     13  C   UNL     1     107.698  43.078  23.193  1.00  0.00     0.016 A 
ATOM     14  C   UNL     1     107.965  43.016  24.563  1.00  0.00     0.051 A 
ATOM     15  C   UNL     1     108.394  44.158  25.249  1.00  0.00     0.157 A 
ATOM     16  C   UNL     1     108.284  45.428  23.186  1.00  0.00     0.062 A 
ATOM     17  C   UNL     1     108.550  45.366  24.561  1.00  0.00     0.158 A 
BRANCH  15  18
ATOM     18  O   UNL     1     108.663  44.100  26.616  1.00  0.00    -0.504 OA
ATOM     19  H   UNL     1     109.583  44.309  26.985  1.00  0.00     0.293 HD
ENDBRANCH  15  18
BRANCH  17  20
ATOM     20  O   UNL     1     108.967  46.504  25.250  1.00  0.00    -0.504 OA
ATOM     21  H   UNL     1     109.712  46.467  25.936  1.00  0.00     0.293 HD
ENDBRANCH  17  20
ENDBRANCH   1  12
BRANCH   6  22
ATOM     22  O   UNL     1     106.770  45.185  15.982  1.00  0.00    -0.507 OA
ATOM     23  H   UNL     1     105.992  45.432  15.390  1.00  0.00     0.293 HD
ENDBRANCH   6  22
BRANCH   8  24
ATOM     24  O   UNL     1     106.401  40.441  16.624  1.00  0.00    -0.508 OA
ATOM     25  H   UNL     1     106.767  39.606  17.065  1.00  0.00     0.293 HD
ENDBRANCH   8  24
TORSDOF 5
ENDMDL
