MODEL 1
REMARK VINA RESULT:    15.217      0.000      0.000
REMARK INTER + INTRA:          22.124
REMARK INTER:                  21.445
REMARK INTRA:                   0.680
REMARK UNBOUND:                 0.680
REMARK SMILES C=C(CC[C@H](C(=O)[O-])[C@H]1[C@@H](O)C[C@]2(C)C3=C(CC[C@@]12C)[C@]1(C)CC[C@@H](O)C(C)(C)[C@H]1CC3)C(C)C
REMARK SMILES IDX 4 1 5 2 6 3 7 4 8 5 9 6 10 7 19 8 12 9 13 10 18 11 20 12
REMARK SMILES IDX 14 13 15 14 17 15 16 16 32 17 21 18 31 19 30 20 23 21 22 22
REMARK SMILES IDX 27 23 24 24 25 25 28 26 29 27 11 28 26 30 3 32 2 33 1 34
REMARK SMILES IDX 33 35 34 36 35 37
REMARK H PARENT 11 29 26 31
REMARK Flexibility Score: inf
ROOT
ATOM      1  C   UNL     1      71.461  34.804  54.269  1.00  0.00     0.014 C 
ENDROOT
BRANCH   1   2
ATOM      2  C   UNL     1      72.709  35.213  53.440  1.00  0.00     0.042 C 
BRANCH   2   3
ATOM      3  C   UNL     1      72.489  34.924  51.969  1.00  0.00     0.045 C 
ATOM      4  O   UNL     1      72.450  33.741  51.538  1.00  0.00    -0.550 OA
ATOM      5  O   UNL     1      72.221  35.961  51.085  1.00  0.00    -0.550 OA
ENDBRANCH   2   3
BRANCH   2   6
ATOM      6  C   UNL     1      74.031  34.647  54.097  1.00  0.00     0.033 C 
ATOM      7  C   UNL     1      74.073  33.165  54.590  1.00  0.00     0.119 C 
ATOM      8  C   UNL     1      75.402  34.862  53.362  1.00  0.00    -0.017 C 
ATOM      9  C   UNL     1      75.393  32.554  54.059  1.00  0.00     0.043 C 
ATOM     10  C   UNL     1      75.808  33.442  52.872  1.00  0.00    -0.003 C 
ATOM     11  C   UNL     1      75.469  35.827  52.164  1.00  0.00     0.012 C 
ATOM     12  C   UNL     1      76.401  35.422  54.445  1.00  0.00     0.013 C 
ATOM     13  C   UNL     1      75.057  32.908  51.615  1.00  0.00     0.017 C 
ATOM     14  C   UNL     1      77.277  33.469  52.470  1.00  0.00    -0.064 C 
ATOM     15  C   UNL     1      76.842  35.748  51.431  1.00  0.00     0.032 C 
ATOM     16  C   UNL     1      77.730  34.506  51.698  1.00  0.00    -0.064 C 
ATOM     17  C   UNL     1      78.220  32.381  52.934  1.00  0.00     0.032 C 
ATOM     18  C   UNL     1      79.184  34.475  51.170  1.00  0.00    -0.008 C 
ATOM     19  C   UNL     1      79.285  31.974  51.900  1.00  0.00     0.009 C 
ATOM     20  C   UNL     1      79.493  32.991  50.741  1.00  0.00     0.007 C 
ATOM     21  C   UNL     1      79.319  35.398  49.918  1.00  0.00     0.014 C 
ATOM     22  C   UNL     1      80.101  35.002  52.309  1.00  0.00     0.016 C 
ATOM     23  C   UNL     1      80.815  32.759  49.900  1.00  0.00    -0.006 C 
ATOM     24  C   UNL     1      80.634  35.223  49.151  1.00  0.00     0.033 C 
ATOM     25  C   UNL     1      80.824  33.764  48.703  1.00  0.00     0.120 C 
ATOM     26  C   UNL     1      82.120  32.886  50.735  1.00  0.00     0.014 C 
ATOM     27  C   UNL     1      80.793  31.325  49.310  1.00  0.00     0.014 C 
BRANCH   7  28
ATOM     28  O   UNL     1      72.972  32.418  54.149  1.00  0.00    -0.393 OA
ATOM     29  H   UNL     1      72.223  32.619  54.768  1.00  0.00     0.210 HD
ENDBRANCH   7  28
BRANCH  25  30
ATOM     30  O   UNL     1      81.978  33.628  47.905  1.00  0.00    -0.393 OA
ATOM     31  H   UNL     1      82.217  34.521  47.544  1.00  0.00     0.210 HD
ENDBRANCH  25  30
ENDBRANCH   2   6
ENDBRANCH   1   2
BRANCH   1  32
ATOM     32  C   UNL     1      71.637  35.055  55.777  1.00  0.00     0.031 C 
BRANCH  32  33
ATOM     33  C   UNL     1      70.848  34.053  56.593  1.00  0.00    -0.075 C 
ATOM     34  C   UNL     1      69.573  34.331  56.924  1.00  0.00     0.008 C 
BRANCH  33  35
ATOM     35  C   UNL     1      71.506  32.753  57.033  1.00  0.00     0.008 C 
ATOM     36  C   UNL     1      72.874  33.010  57.679  1.00  0.00     0.012 C 
ATOM     37  C   UNL     1      70.592  31.956  57.971  1.00  0.00     0.012 C 
ENDBRANCH  33  35
ENDBRANCH  32  33
ENDBRANCH   1  32
TORSDOF 8
ENDMDL
