MODEL 1
REMARK VINA RESULT:    -4.140      0.000      0.000
REMARK INTER + INTRA:          -4.393
REMARK INTER:                  -4.382
REMARK INTRA:                  -0.011
REMARK UNBOUND:                -0.011
REMARK SMILES O=Cc1ccco1
REMARK SMILES IDX 5 1 6 2 7 3 3 4 4 5 2 6 1 7
REMARK H PARENT
REMARK Flexibility Score: inf
ROOT
ATOM      1  C   UNL     1       9.619  28.101  19.278  1.00  0.00     0.043 A 
ATOM      2  C   UNL     1       8.593  28.121  20.201  1.00  0.00     0.196 A 
ATOM      3  O   UNL     1       7.526  27.553  19.688  1.00  0.00    -0.462 OA
ATOM      4  C   UNL     1       7.809  27.162  18.468  1.00  0.00     0.166 A 
ATOM      5  C   UNL     1       9.113  27.482  18.155  1.00  0.00     0.054 A 
ENDROOT
BRANCH   4   6
ATOM      6  C   UNL     1       6.862  26.485  17.579  1.00  0.00     0.298 C 
ATOM      7  O   UNL     1       6.620  26.952  16.436  1.00  0.00    -0.294 OA
ENDBRANCH   4   6
TORSDOF 1
ENDMDL
MODEL 2
REMARK VINA RESULT:    -3.970      1.159      3.057
REMARK INTER + INTRA:          -4.213
REMARK INTER:                  -4.197
REMARK INTRA:                  -0.016
REMARK UNBOUND:                -0.011
REMARK SMILES O=Cc1ccco1
REMARK SMILES IDX 5 1 6 2 7 3 3 4 4 5 2 6 1 7
REMARK H PARENT
REMARK Flexibility Score: inf
ROOT
ATOM      1  C   UNL     1       7.814  27.007  16.536  1.00  0.00     0.043 A 
ATOM      2  C   UNL     1       6.966  26.453  17.474  1.00  0.00     0.196 A 
ATOM      3  O   UNL     1       7.360  26.790  18.681  1.00  0.00    -0.462 OA
ATOM      4  C   UNL     1       8.431  27.542  18.573  1.00  0.00     0.166 A 
ATOM      5  C   UNL     1       8.763  27.712  17.246  1.00  0.00     0.054 A 
ENDROOT
BRANCH   4   6
ATOM      6  C   UNL     1       9.156  28.110  19.712  1.00  0.00     0.298 C 
ATOM      7  O   UNL     1       8.630  28.125  20.855  1.00  0.00    -0.294 OA
ENDBRANCH   4   6
TORSDOF 1
ENDMDL
MODEL 3
REMARK VINA RESULT:    -3.378     19.672     20.828
REMARK INTER + INTRA:          -3.587
REMARK INTER:                  -3.574
REMARK INTRA:                  -0.012
REMARK UNBOUND:                -0.011
REMARK SMILES O=Cc1ccco1
REMARK SMILES IDX 5 1 6 2 7 3 3 4 4 5 2 6 1 7
REMARK H PARENT
REMARK Flexibility Score: inf
ROOT
ATOM      1  C   UNL     1      -6.798  11.898  17.540  1.00  0.00     0.043 A 
ATOM      2  C   UNL     1      -6.750  11.092  16.421  1.00  0.00     0.196 A 
ATOM      3  O   UNL     1      -6.375  11.801  15.381  1.00  0.00    -0.462 OA
ATOM      4  C   UNL     1      -6.175  13.038  15.771  1.00  0.00     0.166 A 
ATOM      5  C   UNL     1      -6.427  13.159  17.121  1.00  0.00     0.054 A 
ENDROOT
BRANCH   4   6
ATOM      6  C   UNL     1      -5.747  14.123  14.885  1.00  0.00     0.298 C 
ATOM      7  O   UNL     1      -6.493  14.508  13.948  1.00  0.00    -0.294 OA
ENDBRANCH   4   6
TORSDOF 1
ENDMDL
MODEL 4
REMARK VINA RESULT:    -3.214      1.423      2.740
REMARK INTER + INTRA:          -3.413
REMARK INTER:                  -3.397
REMARK INTRA:                  -0.016
REMARK UNBOUND:                -0.011
REMARK SMILES O=Cc1ccco1
REMARK SMILES IDX 5 1 6 2 7 3 3 4 4 5 2 6 1 7
REMARK H PARENT
REMARK Flexibility Score: inf
ROOT
ATOM      1  C   UNL     1       8.794  27.268  17.525  1.00  0.00     0.043 A 
ATOM      2  C   UNL     1       7.604  26.628  17.247  1.00  0.00     0.196 A 
ATOM      3  O   UNL     1       6.854  26.599  18.325  1.00  0.00    -0.462 OA
ATOM      4  C   UNL     1       7.503  27.193  19.299  1.00  0.00     0.166 A 
ATOM      5  C   UNL     1       8.731  27.633  18.854  1.00  0.00     0.054 A 
ENDROOT
BRANCH   4   6
ATOM      6  C   UNL     1       6.982  27.354  20.658  1.00  0.00     0.298 C 
ATOM      7  O   UNL     1       5.892  26.819  20.987  1.00  0.00    -0.294 OA
ENDBRANCH   4   6
TORSDOF 1
ENDMDL
MODEL 5
REMARK VINA RESULT:    -3.191      1.380      3.211
REMARK INTER + INTRA:          -3.388
REMARK INTER:                  -3.372
REMARK INTRA:                  -0.016
REMARK UNBOUND:                -0.011
REMARK SMILES O=Cc1ccco1
REMARK SMILES IDX 5 1 6 2 7 3 3 4 4 5 2 6 1 7
REMARK H PARENT
REMARK Flexibility Score: inf
ROOT
ATOM      1  C   UNL     1       9.126  27.379  18.243  1.00  0.00     0.043 A 
ATOM      2  C   UNL     1       7.830  26.934  18.407  1.00  0.00     0.196 A 
ATOM      3  O   UNL     1       7.438  27.155  19.641  1.00  0.00    -0.462 OA
ATOM      4  C   UNL     1       8.423  27.727  20.294  1.00  0.00     0.166 A 
ATOM      5  C   UNL     1       9.512  27.892  19.464  1.00  0.00     0.054 A 
ENDROOT
BRANCH   4   6
ATOM      6  C   UNL     1       8.357  28.124  21.702  1.00  0.00     0.298 C 
ATOM      7  O   UNL     1       7.378  27.778  22.413  1.00  0.00    -0.294 OA
ENDBRANCH   4   6
TORSDOF 1
ENDMDL
MODEL 6
REMARK VINA RESULT:    -3.042     20.552     21.922
REMARK INTER + INTRA:          -3.231
REMARK INTER:                  -3.219
REMARK INTRA:                  -0.012
REMARK UNBOUND:                -0.011
REMARK SMILES O=Cc1ccco1
REMARK SMILES IDX 5 1 6 2 7 3 3 4 4 5 2 6 1 7
REMARK H PARENT
REMARK Flexibility Score: inf
ROOT
ATOM      1  C   UNL     1      -6.137  13.130  17.128  1.00  0.00     0.043 A 
ATOM      2  C   UNL     1      -5.869  13.043  15.777  1.00  0.00     0.196 A 
ATOM      3  O   UNL     1      -6.301  11.892  15.314  1.00  0.00    -0.462 OA
ATOM      4  C   UNL     1      -6.842  11.222  16.305  1.00  0.00     0.166 A 
ATOM      5  C   UNL     1      -6.766  11.952  17.471  1.00  0.00     0.054 A 
ENDROOT
BRANCH   4   6
ATOM      6  C   UNL     1      -7.434   9.889  16.171  1.00  0.00     0.298 C 
ATOM      7  O   UNL     1      -8.524   9.738  15.561  1.00  0.00    -0.294 OA
ENDBRANCH   4   6
TORSDOF 1
ENDMDL
MODEL 7
REMARK VINA RESULT:    -3.008     20.124     21.687
REMARK INTER + INTRA:          -3.195
REMARK INTER:                  -3.184
REMARK INTRA:                  -0.011
REMARK UNBOUND:                -0.011
REMARK SMILES O=Cc1ccco1
REMARK SMILES IDX 5 1 6 2 7 3 3 4 4 5 2 6 1 7
REMARK H PARENT
REMARK Flexibility Score: inf
ROOT
ATOM      1  C   UNL     1      -7.931  11.379  18.070  1.00  0.00     0.043 A 
ATOM      2  C   UNL     1      -7.787  10.373  17.137  1.00  0.00     0.196 A 
ATOM      3  O   UNL     1      -6.903  10.729  16.233  1.00  0.00    -0.462 OA
ATOM      4  C   UNL     1      -6.461  11.928  16.534  1.00  0.00     0.166 A 
ATOM      5  C   UNL     1      -7.074  12.388  17.680  1.00  0.00     0.054 A 
ENDROOT
BRANCH   4   6
ATOM      6  C   UNL     1      -5.461  12.658  15.752  1.00  0.00     0.298 C 
ATOM      7  O   UNL     1      -5.787  13.692  15.113  1.00  0.00    -0.294 OA
ENDBRANCH   4   6
TORSDOF 1
ENDMDL
MODEL 8
REMARK VINA RESULT:    -2.929     19.873     20.721
REMARK INTER + INTRA:          -3.111
REMARK INTER:                  -3.095
REMARK INTRA:                  -0.016
REMARK UNBOUND:                -0.011
REMARK SMILES O=Cc1ccco1
REMARK SMILES IDX 5 1 6 2 7 3 3 4 4 5 2 6 1 7
REMARK H PARENT
REMARK Flexibility Score: inf
ROOT
ATOM      1  C   UNL     1      -6.480  12.533  17.179  1.00  0.00     0.043 A 
ATOM      2  C   UNL     1      -6.622  11.189  17.458  1.00  0.00     0.196 A 
ATOM      3  O   UNL     1      -5.437  10.634  17.574  1.00  0.00    -0.462 OA
ATOM      4  C   UNL     1      -4.524  11.557  17.381  1.00  0.00     0.166 A 
ATOM      5  C   UNL     1      -5.123  12.773  17.128  1.00  0.00     0.054 A 
ENDROOT
BRANCH   4   6
ATOM      6  C   UNL     1      -3.081  11.313  17.432  1.00  0.00     0.298 C 
ATOM      7  O   UNL     1      -2.634  10.139  17.366  1.00  0.00    -0.294 OA
ENDBRANCH   4   6
TORSDOF 1
ENDMDL
MODEL 9
REMARK VINA RESULT:    -2.917     20.461     21.597
REMARK INTER + INTRA:          -3.099
REMARK INTER:                  -3.088
REMARK INTRA:                  -0.011
REMARK UNBOUND:                -0.011
REMARK SMILES O=Cc1ccco1
REMARK SMILES IDX 5 1 6 2 7 3 3 4 4 5 2 6 1 7
REMARK H PARENT
REMARK Flexibility Score: inf
ROOT
ATOM      1  C   UNL     1      -5.295  12.807  16.905  1.00  0.00     0.043 A 
ATOM      2  C   UNL     1      -4.971  11.470  17.005  1.00  0.00     0.196 A 
ATOM      3  O   UNL     1      -6.005  10.795  17.453  1.00  0.00    -0.462 OA
ATOM      4  C   UNL     1      -6.994  11.635  17.651  1.00  0.00     0.166 A 
ATOM      5  C   UNL     1      -6.605  12.916  17.324  1.00  0.00     0.054 A 
ENDROOT
BRANCH   4   6
ATOM      6  C   UNL     1      -8.316  11.248  18.150  1.00  0.00     0.298 C 
ATOM      7  O   UNL     1      -8.668  11.556  19.318  1.00  0.00    -0.294 OA
ENDBRANCH   4   6
TORSDOF 1
ENDMDL
