MODEL 1
REMARK VINA RESULT:    -4.674      0.000      0.000
REMARK INTER + INTRA:          -5.052
REMARK INTER:                  -4.947
REMARK INTRA:                  -0.104
REMARK UNBOUND:                -0.104
REMARK SMILES CC(C)[C@H]1CC[C@@H](C)CC1=O
REMARK SMILES IDX 8 1 7 2 6 3 5 4 4 5 10 6 11 7 9 8 2 9 1 10 3 11
REMARK H PARENT
REMARK Flexibility Score: inf
ROOT
ATOM      1  C   UNL     1     181.241 182.081 185.451  1.00  0.00     0.008 C 
ATOM      2  C   UNL     1     180.915 180.896 186.372  1.00  0.00    -0.007 C 
ATOM      3  C   UNL     1     182.051 179.846 186.385  1.00  0.00     0.004 C 
ATOM      4  C   UNL     1     182.143 179.037 185.074  1.00  0.00     0.012 C 
ATOM      5  C   UNL     1     180.797 178.359 184.719  1.00  0.00     0.058 C 
ATOM      6  C   UNL     1     179.722 179.430 184.749  1.00  0.00     0.136 C 
ATOM      7  O   UNL     1     179.050 179.702 183.764  1.00  0.00    -0.299 OA
ATOM      8  C   UNL     1     179.570 180.244 186.001  1.00  0.00     0.079 C 
ENDROOT
BRANCH   5   9
ATOM      9  C   UNL     1     180.840 177.575 183.365  1.00  0.00    -0.007 C 
ATOM     10  C   UNL     1     181.663 178.299 182.285  1.00  0.00     0.008 C 
ATOM     11  C   UNL     1     181.428 176.165 183.566  1.00  0.00     0.008 C 
ENDBRANCH   5   9
TORSDOF 1
ENDMDL
MODEL 2
REMARK VINA RESULT:    -4.644      1.798      3.968
REMARK INTER + INTRA:          -5.020
REMARK INTER:                  -4.843
REMARK INTRA:                  -0.177
REMARK UNBOUND:                -0.104
REMARK SMILES CC(C)[C@H]1CC[C@@H](C)CC1=O
REMARK SMILES IDX 8 1 7 2 6 3 5 4 4 5 10 6 11 7 9 8 2 9 1 10 3 11
REMARK H PARENT
REMARK Flexibility Score: inf
ROOT
ATOM      1  C   UNL     1     180.089 180.090 182.977  1.00  0.00     0.008 C 
ATOM      2  C   UNL     1     179.784 179.075 184.089  1.00  0.00    -0.007 C 
ATOM      3  C   UNL     1     179.381 179.770 185.410  1.00  0.00     0.004 C 
ATOM      4  C   UNL     1     180.566 180.462 186.116  1.00  0.00     0.012 C 
ATOM      5  C   UNL     1     181.740 179.483 186.368  1.00  0.00     0.058 C 
ATOM      6  C   UNL     1     182.070 178.816 185.045  1.00  0.00     0.136 C 
ATOM      7  O   UNL     1     183.174 178.913 184.528  1.00  0.00    -0.299 OA
ATOM      8  C   UNL     1     180.965 178.111 184.313  1.00  0.00     0.079 C 
ENDROOT
BRANCH   5   9
ATOM      9  C   UNL     1     182.980 180.167 187.033  1.00  0.00    -0.007 C 
ATOM     10  C   UNL     1     182.950 181.701 186.913  1.00  0.00     0.008 C 
ATOM     11  C   UNL     1     183.078 179.795 188.525  1.00  0.00     0.008 C 
ENDBRANCH   5   9
TORSDOF 1
ENDMDL
MODEL 3
REMARK VINA RESULT:    -4.623      2.476      3.690
REMARK INTER + INTRA:          -4.998
REMARK INTER:                  -4.860
REMARK INTRA:                  -0.137
REMARK UNBOUND:                -0.104
REMARK SMILES CC(C)[C@H]1CC[C@@H](C)CC1=O
REMARK SMILES IDX 8 1 7 2 6 3 5 4 4 5 10 6 11 7 9 8 2 9 1 10 3 11
REMARK H PARENT
REMARK Flexibility Score: inf
ROOT
ATOM      1  C   UNL     1     182.072 179.093 185.586  1.00  0.00     0.008 C 
ATOM      2  C   UNL     1     180.607 178.741 185.285  1.00  0.00    -0.007 C 
ATOM      3  C   UNL     1     180.390 178.404 183.791  1.00  0.00     0.004 C 
ATOM      4  C   UNL     1     180.471 179.643 182.874  1.00  0.00     0.012 C 
ATOM      5  C   UNL     1     179.488 180.755 183.316  1.00  0.00     0.058 C 
ATOM      6  C   UNL     1     179.731 181.020 184.790  1.00  0.00     0.136 C 
ATOM      7  O   UNL     1     180.072 182.120 185.203  1.00  0.00    -0.299 OA
ATOM      8  C   UNL     1     179.652 179.860 185.740  1.00  0.00     0.079 C 
ENDROOT
BRANCH   5   9
ATOM      9  C   UNL     1     179.585 182.047 182.439  1.00  0.00    -0.007 C 
ATOM     10  C   UNL     1     180.110 181.766 181.021  1.00  0.00     0.008 C 
ATOM     11  C   UNL     1     178.212 182.737 182.324  1.00  0.00     0.008 C 
ENDBRANCH   5   9
TORSDOF 1
ENDMDL
MODEL 4
REMARK VINA RESULT:    -4.573      2.623      3.666
REMARK INTER + INTRA:          -4.944
REMARK INTER:                  -4.791
REMARK INTRA:                  -0.153
REMARK UNBOUND:                -0.104
REMARK SMILES CC(C)[C@H]1CC[C@@H](C)CC1=O
REMARK SMILES IDX 8 1 7 2 6 3 5 4 4 5 10 6 11 7 9 8 2 9 1 10 3 11
REMARK H PARENT
REMARK Flexibility Score: inf
ROOT
ATOM      1  C   UNL     1     180.718 183.129 182.047  1.00  0.00     0.008 C 
ATOM      2  C   UNL     1     179.697 182.089 181.563  1.00  0.00    -0.007 C 
ATOM      3  C   UNL     1     178.798 181.585 182.716  1.00  0.00     0.004 C 
ATOM      4  C   UNL     1     179.542 180.662 183.705  1.00  0.00     0.012 C 
ATOM      5  C   UNL     1     180.207 179.463 182.986  1.00  0.00     0.058 C 
ATOM      6  C   UNL     1     181.051 180.018 181.853  1.00  0.00     0.136 C 
ATOM      7  O   UNL     1     182.258 179.832 181.793  1.00  0.00    -0.299 OA
ATOM      8  C   UNL     1     180.384 180.912 180.847  1.00  0.00     0.079 C 
ENDROOT
BRANCH   5   9
ATOM      9  C   UNL     1     181.017 178.537 183.953  1.00  0.00    -0.007 C 
ATOM     10  C   UNL     1     180.589 178.692 185.423  1.00  0.00     0.008 C 
ATOM     11  C   UNL     1     180.864 177.057 183.552  1.00  0.00     0.008 C 
ENDBRANCH   5   9
TORSDOF 1
ENDMDL
MODEL 5
REMARK VINA RESULT:    -4.545      1.386      1.748
REMARK INTER + INTRA:          -4.915
REMARK INTER:                  -4.793
REMARK INTRA:                  -0.123
REMARK UNBOUND:                -0.104
REMARK SMILES CC(C)[C@H]1CC[C@@H](C)CC1=O
REMARK SMILES IDX 8 1 7 2 6 3 5 4 4 5 10 6 11 7 9 8 2 9 1 10 3 11
REMARK H PARENT
REMARK Flexibility Score: inf
ROOT
ATOM      1  C   UNL     1     180.850 181.593 184.955  1.00  0.00     0.008 C 
ATOM      2  C   UNL     1     179.720 180.552 184.959  1.00  0.00    -0.007 C 
ATOM      3  C   UNL     1     180.111 179.280 185.748  1.00  0.00     0.004 C 
ATOM      4  C   UNL     1     181.155 178.411 185.015  1.00  0.00     0.012 C 
ATOM      5  C   UNL     1     180.690 178.029 183.588  1.00  0.00     0.058 C 
ATOM      6  C   UNL     1     180.296 179.311 182.877  1.00  0.00     0.136 C 
ATOM      7  O   UNL     1     180.848 179.678 181.849  1.00  0.00    -0.299 OA
ATOM      8  C   UNL     1     179.273 180.196 183.529  1.00  0.00     0.079 C 
ENDROOT
BRANCH   5   9
ATOM      9  C   UNL     1     181.751 177.194 182.797  1.00  0.00    -0.007 C 
ATOM     10  C   UNL     1     183.195 177.632 183.094  1.00  0.00     0.008 C 
ATOM     11  C   UNL     1     181.619 175.693 183.120  1.00  0.00     0.008 C 
ENDBRANCH   5   9
TORSDOF 1
ENDMDL
MODEL 6
REMARK VINA RESULT:    -4.299      3.092      4.891
REMARK INTER + INTRA:          -4.655
REMARK INTER:                  -4.491
REMARK INTRA:                  -0.164
REMARK UNBOUND:                -0.104
REMARK SMILES CC(C)[C@H]1CC[C@@H](C)CC1=O
REMARK SMILES IDX 8 1 7 2 6 3 5 4 4 5 10 6 11 7 9 8 2 9 1 10 3 11
REMARK H PARENT
REMARK Flexibility Score: inf
ROOT
ATOM      1  C   UNL     1     181.918 179.535 183.426  1.00  0.00     0.008 C 
ATOM      2  C   UNL     1     180.493 179.269 182.918  1.00  0.00    -0.007 C 
ATOM      3  C   UNL     1     180.233 179.944 181.551  1.00  0.00     0.004 C 
ATOM      4  C   UNL     1     180.107 181.479 181.648  1.00  0.00     0.012 C 
ATOM      5  C   UNL     1     179.021 181.906 182.666  1.00  0.00     0.058 C 
ATOM      6  C   UNL     1     179.314 181.193 183.974  1.00  0.00     0.136 C 
ATOM      7  O   UNL     1     179.540 181.804 185.009  1.00  0.00    -0.299 OA
ATOM      8  C   UNL     1     179.435 179.697 183.952  1.00  0.00     0.079 C 
ENDROOT
BRANCH   5   9
ATOM      9  C   UNL     1     178.906 183.458 182.830  1.00  0.00    -0.007 C 
ATOM     10  C   UNL     1     179.827 184.228 181.867  1.00  0.00     0.008 C 
ATOM     11  C   UNL     1     177.457 183.928 182.602  1.00  0.00     0.008 C 
ENDBRANCH   5   9
TORSDOF 1
ENDMDL
MODEL 7
REMARK VINA RESULT:    -4.292      1.686      4.296
REMARK INTER + INTRA:          -4.647
REMARK INTER:                  -4.480
REMARK INTRA:                  -0.167
REMARK UNBOUND:                -0.104
REMARK SMILES CC(C)[C@H]1CC[C@@H](C)CC1=O
REMARK SMILES IDX 8 1 7 2 6 3 5 4 4 5 10 6 11 7 9 8 2 9 1 10 3 11
REMARK H PARENT
REMARK Flexibility Score: inf
ROOT
ATOM      1  C   UNL     1     181.366 178.520 181.857  1.00  0.00     0.008 C 
ATOM      2  C   UNL     1     181.917 177.602 182.959  1.00  0.00    -0.007 C 
ATOM      3  C   UNL     1     180.891 177.389 184.097  1.00  0.00     0.004 C 
ATOM      4  C   UNL     1     180.699 178.639 184.981  1.00  0.00     0.012 C 
ATOM      5  C   UNL     1     182.041 179.145 185.564  1.00  0.00     0.058 C 
ATOM      6  C   UNL     1     183.010 179.309 184.407  1.00  0.00     0.136 C 
ATOM      7  O   UNL     1     183.518 180.388 184.135  1.00  0.00    -0.299 OA
ATOM      8  C   UNL     1     183.253 178.126 183.516  1.00  0.00     0.079 C 
ENDROOT
BRANCH   5   9
ATOM      9  C   UNL     1     181.889 180.446 186.421  1.00  0.00    -0.007 C 
ATOM     10  C   UNL     1     180.443 180.969 186.457  1.00  0.00     0.008 C 
ATOM     11  C   UNL     1     182.359 180.207 187.869  1.00  0.00     0.008 C 
ENDBRANCH   5   9
TORSDOF 1
ENDMDL
MODEL 8
REMARK VINA RESULT:    -4.241      2.338      3.149
REMARK INTER + INTRA:          -4.593
REMARK INTER:                  -4.441
REMARK INTRA:                  -0.153
REMARK UNBOUND:                -0.104
REMARK SMILES CC(C)[C@H]1CC[C@@H](C)CC1=O
REMARK SMILES IDX 8 1 7 2 6 3 5 4 4 5 10 6 11 7 9 8 2 9 1 10 3 11
REMARK H PARENT
REMARK Flexibility Score: inf
ROOT
ATOM      1  C   UNL     1     184.183 182.519 188.026  1.00  0.00     0.008 C 
ATOM      2  C   UNL     1     183.733 181.170 188.606  1.00  0.00    -0.007 C 
ATOM      3  C   UNL     1     184.400 179.978 187.880  1.00  0.00     0.004 C 
ATOM      4  C   UNL     1     183.852 179.755 186.454  1.00  0.00     0.012 C 
ATOM      5  C   UNL     1     182.313 179.587 186.447  1.00  0.00     0.058 C 
ATOM      6  C   UNL     1     181.720 180.767 187.194  1.00  0.00     0.136 C 
ATOM      7  O   UNL     1     180.942 181.547 186.661  1.00  0.00    -0.299 OA
ATOM      8  C   UNL     1     182.199 181.032 188.592  1.00  0.00     0.079 C 
ENDROOT
BRANCH   5   9
ATOM      9  C   UNL     1     181.719 179.414 185.009  1.00  0.00    -0.007 C 
ATOM     10  C   UNL     1     182.766 178.940 183.986  1.00  0.00     0.008 C 
ATOM     11  C   UNL     1     180.552 178.409 185.016  1.00  0.00     0.008 C 
ENDBRANCH   5   9
TORSDOF 1
ENDMDL
MODEL 9
REMARK VINA RESULT:    -4.189      2.715      3.787
REMARK INTER + INTRA:          -4.539
REMARK INTER:                  -4.472
REMARK INTRA:                  -0.067
REMARK UNBOUND:                -0.104
REMARK SMILES CC(C)[C@H]1CC[C@@H](C)CC1=O
REMARK SMILES IDX 8 1 7 2 6 3 5 4 4 5 10 6 11 7 9 8 2 9 1 10 3 11
REMARK H PARENT
REMARK Flexibility Score: inf
ROOT
ATOM      1  C   UNL     1     177.882 183.470 182.618  1.00  0.00     0.008 C 
ATOM      2  C   UNL     1     179.415 183.431 182.531  1.00  0.00    -0.007 C 
ATOM      3  C   UNL     1     179.917 182.206 181.732  1.00  0.00     0.004 C 
ATOM      4  C   UNL     1     179.745 180.875 182.493  1.00  0.00     0.012 C 
ATOM      5  C   UNL     1     180.422 180.914 183.886  1.00  0.00     0.058 C 
ATOM      6  C   UNL     1     179.911 182.148 184.608  1.00  0.00     0.136 C 
ATOM      7  O   UNL     1     179.310 182.074 185.671  1.00  0.00    -0.299 OA
ATOM      8  C   UNL     1     180.061 183.478 183.928  1.00  0.00     0.079 C 
ENDROOT
BRANCH   5   9
ATOM      9  C   UNL     1     180.218 179.598 184.707  1.00  0.00    -0.007 C 
ATOM     10  C   UNL     1     180.214 178.339 183.823  1.00  0.00     0.008 C 
ATOM     11  C   UNL     1     181.318 179.442 185.775  1.00  0.00     0.008 C 
ENDBRANCH   5   9
TORSDOF 1
ENDMDL
