MODEL 1
REMARK VINA RESULT:    11.668      0.000      0.000
REMARK INTER + INTRA:          17.251
REMARK INTER:                  17.807
REMARK INTRA:                  -0.557
REMARK UNBOUND:                -0.557
REMARK SMILES CCCCCCCCCCC(=O)[O-]
REMARK SMILES IDX 7 1 8 2 9 3 10 4 11 5 12 6 13 7 6 8 5 9 4 10 3 11 2 12 1 13
REMARK H PARENT
REMARK Flexibility Score: inf
ROOT
ATOM      1  C   UNL     1     -13.384  -7.969 -22.136  1.00  0.00     0.000 C 
ENDROOT
BRANCH   1   2
ATOM      2  C   UNL     1     -12.365  -9.019 -21.669  1.00  0.00     0.000 C 
BRANCH   2   3
ATOM      3  C   UNL     1     -11.825  -8.733 -20.260  1.00  0.00     0.006 C 
BRANCH   3   4
ATOM      4  C   UNL     1     -12.724  -7.777 -19.465  1.00  0.00     0.053 C 
BRANCH   4   5
ATOM      5  C   UNL     1     -13.307  -8.476 -18.277  1.00  0.00     0.041 C 
ATOM      6  O   UNL     1     -12.754  -9.508 -17.814  1.00  0.00    -0.550 OA
ATOM      7  O   UNL     1     -14.434  -7.959 -17.651  1.00  0.00    -0.550 OA
ENDBRANCH   4   5
ENDBRANCH   3   4
ENDBRANCH   2   3
ENDBRANCH   1   2
BRANCH   1   8
ATOM      8  C   UNL     1     -14.271  -8.525 -23.257  1.00  0.00     0.000 C 
BRANCH   8   9
ATOM      9  C   UNL     1     -15.678  -7.919 -23.200  1.00  0.00    -0.000 C 
BRANCH   9  10
ATOM     10  C   UNL     1     -15.931  -6.998 -24.403  1.00  0.00    -0.000 C 
BRANCH  10  11
ATOM     11  C   UNL     1     -14.624  -6.607 -25.125  1.00  0.00    -0.000 C 
BRANCH  11  12
ATOM     12  C   UNL     1     -14.348  -5.094 -25.124  1.00  0.00    -0.003 C 
ATOM     13  C   UNL     1     -12.916  -4.747 -24.722  1.00  0.00     0.004 C 
ENDBRANCH  11  12
ENDBRANCH  10  11
ENDBRANCH   9  10
ENDBRANCH   8   9
ENDBRANCH   1   8
TORSDOF 9
ENDMDL
MODEL 2
REMARK VINA RESULT:    11.926     14.054     15.925
REMARK INTER + INTRA:          17.643
REMARK INTER:                  18.102
REMARK INTRA:                  -0.459
REMARK UNBOUND:                -0.557
REMARK SMILES CCCCCCCCCCC(=O)[O-]
REMARK SMILES IDX 7 1 8 2 9 3 10 4 11 5 12 6 13 7 6 8 5 9 4 10 3 11 2 12 1 13
REMARK H PARENT
REMARK Flexibility Score: inf
ROOT
ATOM      1  C   UNL     1     -24.378  -3.509 -13.304  1.00  0.00     0.000 C 
ENDROOT
BRANCH   1   2
ATOM      2  C   UNL     1     -25.197  -3.891 -14.546  1.00  0.00     0.000 C 
BRANCH   2   3
ATOM      3  C   UNL     1     -24.645  -3.262 -15.835  1.00  0.00     0.006 C 
BRANCH   3   4
ATOM      4  C   UNL     1     -24.974  -4.089 -17.084  1.00  0.00     0.053 C 
BRANCH   4   5
ATOM      5  C   UNL     1     -23.720  -4.448 -17.818  1.00  0.00     0.041 C 
ATOM      6  O   UNL     1     -23.598  -5.584 -18.347  1.00  0.00    -0.550 OA
ATOM      7  O   UNL     1     -22.705  -3.511 -17.959  1.00  0.00    -0.550 OA
ENDBRANCH   4   5
ENDBRANCH   3   4
ENDBRANCH   2   3
ENDBRANCH   1   2
BRANCH   1   8
ATOM      8  C   UNL     1     -25.182  -3.751 -12.021  1.00  0.00     0.000 C 
BRANCH   8   9
ATOM      9  C   UNL     1     -25.914  -5.097 -12.075  1.00  0.00    -0.000 C 
BRANCH   9  10
ATOM     10  C   UNL     1     -27.310  -4.992 -11.443  1.00  0.00    -0.000 C 
BRANCH  10  11
ATOM     11  C   UNL     1     -27.730  -3.527 -11.194  1.00  0.00    -0.000 C 
BRANCH  11  12
ATOM     12  C   UNL     1     -29.249  -3.338 -11.047  1.00  0.00    -0.003 C 
ATOM     13  C   UNL     1     -29.887  -4.341 -10.088  1.00  0.00     0.004 C 
ENDBRANCH  11  12
ENDBRANCH  10  11
ENDBRANCH   9  10
ENDBRANCH   8   9
ENDBRANCH   1   8
TORSDOF 9
ENDMDL
MODEL 3
REMARK VINA RESULT:    12.721      2.921      5.982
REMARK INTER + INTRA:          18.858
REMARK INTER:                  18.300
REMARK INTRA:                   0.558
REMARK UNBOUND:                -0.557
REMARK SMILES CCCCCCCCCCC(=O)[O-]
REMARK SMILES IDX 7 1 8 2 9 3 10 4 11 5 12 6 13 7 6 8 5 9 4 10 3 11 2 12 1 13
REMARK H PARENT
REMARK Flexibility Score: inf
ROOT
ATOM      1  C   UNL     1     -14.384  -8.647 -23.040  1.00  0.00     0.000 C 
ENDROOT
BRANCH   1   2
ATOM      2  C   UNL     1     -15.326  -7.493 -23.413  1.00  0.00     0.000 C 
BRANCH   2   3
ATOM      3  C   UNL     1     -15.227  -7.105 -24.897  1.00  0.00     0.006 C 
BRANCH   3   4
ATOM      4  C   UNL     1     -14.929  -5.614 -25.099  1.00  0.00     0.053 C 
BRANCH   4   5
ATOM      5  C   UNL     1     -13.638  -5.245 -24.439  1.00  0.00     0.041 C 
ATOM      6  O   UNL     1     -12.680  -4.800 -25.124  1.00  0.00    -0.550 OA
ATOM      7  O   UNL     1     -13.508  -5.348 -23.060  1.00  0.00    -0.550 OA
ENDBRANCH   4   5
ENDBRANCH   3   4
ENDBRANCH   2   3
ENDBRANCH   1   2
BRANCH   1   8
ATOM      8  C   UNL     1     -12.976  -8.127 -22.728  1.00  0.00     0.000 C 
BRANCH   8   9
ATOM      9  C   UNL     1     -12.198  -9.125 -21.863  1.00  0.00    -0.000 C 
BRANCH   9  10
ATOM     10  C   UNL     1     -11.789  -8.493 -20.523  1.00  0.00    -0.000 C 
BRANCH  10  11
ATOM     11  C   UNL     1     -12.979  -7.813 -19.812  1.00  0.00    -0.000 C 
BRANCH  11  12
ATOM     12  C   UNL     1     -12.951  -7.966 -18.282  1.00  0.00    -0.003 C 
ATOM     13  C   UNL     1     -13.010  -9.422 -17.825  1.00  0.00     0.004 C 
ENDBRANCH  11  12
ENDBRANCH  10  11
ENDBRANCH   9  10
ENDBRANCH   8   9
ENDBRANCH   1   8
TORSDOF 9
ENDMDL
MODEL 4
REMARK VINA RESULT:    13.040     14.650     15.942
REMARK INTER + INTRA:          19.345
REMARK INTER:                  19.706
REMARK INTRA:                  -0.362
REMARK UNBOUND:                -0.557
REMARK SMILES CCCCCCCCCCC(=O)[O-]
REMARK SMILES IDX 7 1 8 2 9 3 10 4 11 5 12 6 13 7 6 8 5 9 4 10 3 11 2 12 1 13
REMARK H PARENT
REMARK Flexibility Score: inf
ROOT
ATOM      1  C   UNL     1     -24.769  -3.984 -12.090  1.00  0.00     0.000 C 
ENDROOT
BRANCH   1   2
ATOM      2  C   UNL     1     -26.127  -4.695 -12.004  1.00  0.00     0.000 C 
BRANCH   2   3
ATOM      3  C   UNL     1     -27.250  -3.768 -11.513  1.00  0.00     0.006 C 
BRANCH   3   4
ATOM      4  C   UNL     1     -28.256  -4.487 -10.605  1.00  0.00     0.053 C 
BRANCH   4   5
ATOM      5  C   UNL     1     -29.625  -3.908 -10.782  1.00  0.00     0.041 C 
ATOM      6  O   UNL     1     -29.790  -2.875 -11.483  1.00  0.00    -0.550 OA
ATOM      7  O   UNL     1     -30.725  -4.538 -10.214  1.00  0.00    -0.550 OA
ENDBRANCH   4   5
ENDBRANCH   3   4
ENDBRANCH   2   3
ENDBRANCH   1   2
BRANCH   1   8
ATOM      8  C   UNL     1     -24.676  -3.131 -13.362  1.00  0.00     0.000 C 
BRANCH   8   9
ATOM      9  C   UNL     1     -24.886  -3.987 -14.616  1.00  0.00    -0.000 C 
BRANCH   9  10
ATOM     10  C   UNL     1     -24.810  -3.129 -15.888  1.00  0.00    -0.000 C 
BRANCH  10  11
ATOM     11  C   UNL     1     -24.991  -3.969 -17.171  1.00  0.00    -0.000 C 
BRANCH  11  12
ATOM     12  C   UNL     1     -23.700  -4.661 -17.641  1.00  0.00    -0.003 C 
ATOM     13  C   UNL     1     -22.625  -3.676 -18.096  1.00  0.00     0.004 C 
ENDBRANCH  11  12
ENDBRANCH  10  11
ENDBRANCH   9  10
ENDBRANCH   8   9
ENDBRANCH   1   8
TORSDOF 9
ENDMDL
MODEL 5
REMARK VINA RESULT:    13.281      3.771      5.629
REMARK INTER + INTRA:          19.713
REMARK INTER:                  20.186
REMARK INTRA:                  -0.473
REMARK UNBOUND:                -0.557
REMARK SMILES CCCCCCCCCCC(=O)[O-]
REMARK SMILES IDX 7 1 8 2 9 3 10 4 11 5 12 6 13 7 6 8 5 9 4 10 3 11 2 12 1 13
REMARK H PARENT
REMARK Flexibility Score: inf
ROOT
ATOM      1  C   UNL     1     -13.882  -9.797 -23.258  1.00  0.00     0.000 C 
ENDROOT
BRANCH   1   2
ATOM      2  C   UNL     1     -14.082 -10.855 -24.354  1.00  0.00     0.000 C 
BRANCH   2   3
ATOM      3  C   UNL     1     -14.335 -12.258 -23.782  1.00  0.00     0.006 C 
BRANCH   3   4
ATOM      4  C   UNL     1     -15.196 -12.232 -22.512  1.00  0.00     0.053 C 
BRANCH   4   5
ATOM      5  C   UNL     1     -16.173 -13.365 -22.521  1.00  0.00     0.041 C 
ATOM      6  O   UNL     1     -16.499 -13.929 -21.443  1.00  0.00    -0.550 OA
ATOM      7  O   UNL     1     -16.761 -13.767 -23.714  1.00  0.00    -0.550 OA
ENDBRANCH   4   5
ENDBRANCH   3   4
ENDBRANCH   2   3
ENDBRANCH   1   2
BRANCH   1   8
ATOM      8  C   UNL     1     -14.614  -8.496 -23.612  1.00  0.00     0.000 C 
BRANCH   8   9
ATOM      9  C   UNL     1     -14.292  -7.390 -22.601  1.00  0.00    -0.000 C 
BRANCH   9  10
ATOM     10  C   UNL     1     -13.080  -7.769 -21.735  1.00  0.00    -0.000 C 
BRANCH  10  11
ATOM     11  C   UNL     1     -13.361  -7.589 -20.227  1.00  0.00    -0.000 C 
BRANCH  11  12
ATOM     12  C   UNL     1     -12.317  -8.263 -19.321  1.00  0.00    -0.003 C 
ATOM     13  C   UNL     1     -12.906  -8.779 -18.010  1.00  0.00     0.004 C 
ENDBRANCH  11  12
ENDBRANCH  10  11
ENDBRANCH   9  10
ENDBRANCH   8   9
ENDBRANCH   1   8
TORSDOF 9
ENDMDL
MODEL 6
REMARK VINA RESULT:    13.295      3.816      4.541
REMARK INTER + INTRA:          19.733
REMARK INTER:                  20.281
REMARK INTRA:                  -0.547
REMARK UNBOUND:                -0.557
REMARK SMILES CCCCCCCCCCC(=O)[O-]
REMARK SMILES IDX 7 1 8 2 9 3 10 4 11 5 12 6 13 7 6 8 5 9 4 10 3 11 2 12 1 13
REMARK H PARENT
REMARK Flexibility Score: inf
ROOT
ATOM      1  C   UNL     1     -14.380  -9.858 -23.674  1.00  0.00     0.000 C 
ENDROOT
BRANCH   1   2
ATOM      2  C   UNL     1     -13.547 -11.096 -24.040  1.00  0.00     0.000 C 
BRANCH   2   3
ATOM      3  C   UNL     1     -14.254 -12.412 -23.678  1.00  0.00     0.006 C 
BRANCH   3   4
ATOM      4  C   UNL     1     -15.345 -12.224 -22.616  1.00  0.00     0.053 C 
BRANCH   4   5
ATOM      5  C   UNL     1     -16.276 -13.396 -22.612  1.00  0.00     0.041 C 
ATOM      6  O   UNL     1     -16.836 -13.764 -23.679  1.00  0.00    -0.550 OA
ATOM      7  O   UNL     1     -16.488 -14.112 -21.441  1.00  0.00    -0.550 OA
ENDBRANCH   4   5
ENDBRANCH   3   4
ENDBRANCH   2   3
ENDBRANCH   1   2
BRANCH   1   8
ATOM      8  C   UNL     1     -13.537  -8.840 -22.897  1.00  0.00     0.000 C 
BRANCH   8   9
ATOM      9  C   UNL     1     -14.197  -7.456 -22.905  1.00  0.00    -0.000 C 
BRANCH   9  10
ATOM     10  C   UNL     1     -15.257  -7.357 -24.013  1.00  0.00    -0.000 C 
BRANCH  10  11
ATOM     11  C   UNL     1     -14.875  -6.324 -25.095  1.00  0.00    -0.000 C 
BRANCH  11  12
ATOM     12  C   UNL     1     -14.244  -5.041 -24.527  1.00  0.00    -0.003 C 
ATOM     13  C   UNL     1     -12.864  -4.744 -25.109  1.00  0.00     0.004 C 
ENDBRANCH  11  12
ENDBRANCH  10  11
ENDBRANCH   9  10
ENDBRANCH   8   9
ENDBRANCH   1   8
TORSDOF 9
ENDMDL
MODEL 7
REMARK VINA RESULT:    13.642     14.901     16.256
REMARK INTER + INTRA:          20.263
REMARK INTER:                  20.753
REMARK INTRA:                  -0.490
REMARK UNBOUND:                -0.557
REMARK SMILES CCCCCCCCCCC(=O)[O-]
REMARK SMILES IDX 7 1 8 2 9 3 10 4 11 5 12 6 13 7 6 8 5 9 4 10 3 11 2 12 1 13
REMARK H PARENT
REMARK Flexibility Score: inf
ROOT
ATOM      1  C   UNL     1     -25.164  -4.366 -13.451  1.00  0.00     0.000 C 
ENDROOT
BRANCH   1   2
ATOM      2  C   UNL     1     -25.520  -4.263 -11.960  1.00  0.00     0.000 C 
BRANCH   2   3
ATOM      3  C   UNL     1     -27.003  -4.560 -11.685  1.00  0.00     0.006 C 
BRANCH   3   4
ATOM      4  C   UNL     1     -27.703  -3.421 -10.932  1.00  0.00     0.053 C 
BRANCH   4   5
ATOM      5  C   UNL     1     -29.187  -3.618 -10.953  1.00  0.00     0.041 C 
ATOM      6  O   UNL     1     -29.735  -4.395 -10.128  1.00  0.00    -0.550 OA
ATOM      7  O   UNL     1     -29.970  -2.905 -11.852  1.00  0.00    -0.550 OA
ENDBRANCH   4   5
ENDBRANCH   3   4
ENDBRANCH   2   3
ENDBRANCH   1   2
BRANCH   1   8
ATOM      8  C   UNL     1     -24.747  -3.001 -14.011  1.00  0.00     0.000 C 
BRANCH   8   9
ATOM      9  C   UNL     1     -25.120  -2.875 -15.492  1.00  0.00    -0.000 C 
BRANCH   9  10
ATOM     10  C   UNL     1     -24.684  -4.121 -16.279  1.00  0.00    -0.000 C 
BRANCH  10  11
ATOM     11  C   UNL     1     -25.836  -4.712 -17.121  1.00  0.00    -0.000 C 
BRANCH  11  12
ATOM     12  C   UNL     1     -27.039  -5.173 -16.282  1.00  0.00    -0.003 C 
ATOM     13  C   UNL     1     -28.267  -5.504 -17.128  1.00  0.00     0.004 C 
ENDBRANCH  11  12
ENDBRANCH  10  11
ENDBRANCH   9  10
ENDBRANCH   8   9
ENDBRANCH   1   8
TORSDOF 9
ENDMDL
MODEL 8
REMARK VINA RESULT:    14.099      2.480      4.340
REMARK INTER + INTRA:          20.961
REMARK INTER:                  21.407
REMARK INTRA:                  -0.446
REMARK UNBOUND:                -0.557
REMARK SMILES CCCCCCCCCCC(=O)[O-]
REMARK SMILES IDX 7 1 8 2 9 3 10 4 11 5 12 6 13 7 6 8 5 9 4 10 3 11 2 12 1 13
REMARK H PARENT
REMARK Flexibility Score: inf
ROOT
ATOM      1  C   UNL     1     -14.492  -7.396 -22.813  1.00  0.00     0.000 C 
ENDROOT
BRANCH   1   2
ATOM      2  C   UNL     1     -13.201  -7.589 -22.003  1.00  0.00     0.000 C 
BRANCH   2   3
ATOM      3  C   UNL     1     -13.420  -7.414 -20.492  1.00  0.00     0.006 C 
BRANCH   3   4
ATOM      4  C   UNL     1     -12.350  -8.126 -19.654  1.00  0.00     0.053 C 
BRANCH   4   5
ATOM      5  C   UNL     1     -12.936  -8.612 -18.365  1.00  0.00     0.041 C 
ATOM      6  O   UNL     1     -13.633  -7.841 -17.655  1.00  0.00    -0.550 OA
ATOM      7  O   UNL     1     -12.752  -9.932 -17.972  1.00  0.00    -0.550 OA
ENDBRANCH   4   5
ENDBRANCH   3   4
ENDBRANCH   2   3
ENDBRANCH   1   2
BRANCH   1   8
ATOM      8  C   UNL     1     -14.786  -8.628 -23.677  1.00  0.00     0.000 C 
BRANCH   8   9
ATOM      9  C   UNL     1     -13.793  -9.758 -23.383  1.00  0.00    -0.000 C 
BRANCH   9  10
ATOM     10  C   UNL     1     -14.195 -11.049 -24.113  1.00  0.00    -0.000 C 
BRANCH  10  11
ATOM     11  C   UNL     1     -14.348 -12.243 -23.145  1.00  0.00    -0.000 C 
BRANCH  11  12
ATOM     12  C   UNL     1     -15.637 -13.052 -23.364  1.00  0.00    -0.003 C 
ATOM     13  C   UNL     1     -16.342 -13.419 -22.060  1.00  0.00     0.004 C 
ENDBRANCH  11  12
ENDBRANCH  10  11
ENDBRANCH   9  10
ENDBRANCH   8   9
ENDBRANCH   1   8
TORSDOF 9
ENDMDL
MODEL 9
REMARK VINA RESULT:    14.351      7.140      8.760
REMARK INTER + INTRA:          21.345
REMARK INTER:                  21.827
REMARK INTRA:                  -0.482
REMARK UNBOUND:                -0.557
REMARK SMILES CCCCCCCCCCC(=O)[O-]
REMARK SMILES IDX 7 1 8 2 9 3 10 4 11 5 12 6 13 7 6 8 5 9 4 10 3 11 2 12 1 13
REMARK H PARENT
REMARK Flexibility Score: inf
ROOT
ATOM      1  C   UNL     1     -18.494 -12.960 -23.745  1.00  0.00     0.000 C 
ENDROOT
BRANCH   1   2
ATOM      2  C   UNL     1     -19.166 -13.018 -25.125  1.00  0.00     0.000 C 
BRANCH   2   3
ATOM      3  C   UNL     1     -20.670 -13.323 -25.037  1.00  0.00     0.006 C 
BRANCH   3   4
ATOM      4  C   UNL     1     -21.224 -13.160 -23.616  1.00  0.00     0.053 C 
BRANCH   4   5
ATOM      5  C   UNL     1     -22.084 -14.329 -23.253  1.00  0.00     0.041 C 
ATOM      6  O   UNL     1     -22.609 -15.034 -24.155  1.00  0.00    -0.550 OA
ATOM      7  O   UNL     1     -22.266 -14.672 -21.919  1.00  0.00    -0.550 OA
ENDBRANCH   4   5
ENDBRANCH   3   4
ENDBRANCH   2   3
ENDBRANCH   1   2
BRANCH   1   8
ATOM      8  C   UNL     1     -17.121 -13.644 -23.775  1.00  0.00     0.000 C 
BRANCH   8   9
ATOM      9  C   UNL     1     -16.369 -13.429 -22.457  1.00  0.00    -0.000 C 
BRANCH   9  10
ATOM     10  C   UNL     1     -15.327 -12.308 -22.593  1.00  0.00    -0.000 C 
BRANCH  10  11
ATOM     11  C   UNL     1     -14.505 -12.430 -23.894  1.00  0.00    -0.000 C 
BRANCH  11  12
ATOM     12  C   UNL     1     -13.872 -11.104 -24.349  1.00  0.00    -0.003 C 
ATOM     13  C   UNL     1     -14.084  -9.966 -23.351  1.00  0.00     0.004 C 
ENDBRANCH  11  12
ENDBRANCH  10  11
ENDBRANCH   9  10
ENDBRANCH   8   9
ENDBRANCH   1   8
TORSDOF 9
ENDMDL
