MODEL 1
REMARK VINA RESULT:    -3.743      0.000      0.000
REMARK INTER + INTRA:          -4.749
REMARK INTER:                  -4.400
REMARK INTRA:                  -0.349
REMARK UNBOUND:                -0.349
REMARK SMILES [NH3+][C@H](CO)C(=O)[O-]
REMARK SMILES IDX 3 1 2 2 1 3 5 7 6 8 7 9 4 10
REMARK H PARENT 1 4 1 5 1 6 4 11
REMARK Flexibility Score: inf
ROOT
ATOM      1  C   UNL     1     169.330 168.832 170.141  1.00  0.00     0.227 C 
ENDROOT
BRANCH   1   2
ATOM      2  C   UNL     1     168.794 170.271 170.256  1.00  0.00     0.253 C 
BRANCH   2   3
ATOM      3  N   UNL     1     167.325 170.294 170.282  1.00  0.00    -0.348 N 
ATOM      4  H   UNL     1     166.951 169.429 169.828  1.00  0.00     0.345 HD
ATOM      5  H   UNL     1     166.975 171.122 169.749  1.00  0.00     0.345 HD
ATOM      6  H   UNL     1     166.969 170.344 171.265  1.00  0.00     0.345 HD
ENDBRANCH   2   3
BRANCH   2   7
ATOM      7  C   UNL     1     169.371 170.966 171.462  1.00  0.00     0.102 C 
ATOM      8  O   UNL     1     170.279 171.830 171.334  1.00  0.00    -0.544 OA
ATOM      9  O   UNL     1     168.866 170.688 172.727  1.00  0.00    -0.544 OA
ENDBRANCH   2   7
ENDBRANCH   1   2
BRANCH   1  10
ATOM     10  O   UNL     1     170.338 168.585 171.085  1.00  0.00    -0.390 OA
ATOM     11  H   UNL     1     170.479 169.430 171.585  1.00  0.00     0.210 HD
ENDBRANCH   1  10
TORSDOF 4
ENDMDL
MODEL 2
REMARK VINA RESULT:    -3.469      2.166      2.520
REMARK INTER + INTRA:          -4.427
REMARK INTER:                  -4.254
REMARK INTRA:                  -0.173
REMARK UNBOUND:                -0.349
REMARK SMILES [NH3+][C@H](CO)C(=O)[O-]
REMARK SMILES IDX 3 1 2 2 1 3 5 7 6 8 7 9 4 10
REMARK H PARENT 1 4 1 5 1 6 4 11
REMARK Flexibility Score: inf
ROOT
ATOM      1  C   UNL     1     167.882 169.369 171.285  1.00  0.00     0.227 C 
ENDROOT
BRANCH   1   2
ATOM      2  C   UNL     1     169.380 169.717 171.368  1.00  0.00     0.253 C 
BRANCH   2   3
ATOM      3  N   UNL     1     170.215 168.580 170.960  1.00  0.00    -0.348 N 
ATOM      4  H   UNL     1     171.112 168.589 171.499  1.00  0.00     0.345 HD
ATOM      5  H   UNL     1     170.444 168.657 169.942  1.00  0.00     0.345 HD
ATOM      6  H   UNL     1     169.723 167.672 171.132  1.00  0.00     0.345 HD
ENDBRANCH   2   3
BRANCH   2   7
ATOM      7  C   UNL     1     169.694 170.944 170.555  1.00  0.00     0.102 C 
ATOM      8  O   UNL     1     170.280 171.930 171.076  1.00  0.00    -0.544 OA
ATOM      9  O   UNL     1     169.379 170.975 169.201  1.00  0.00    -0.544 OA
ENDBRANCH   2   7
ENDBRANCH   1   2
BRANCH   1  10
ATOM     10  O   UNL     1     167.173 170.334 170.552  1.00  0.00    -0.390 OA
ATOM     11  H   UNL     1     166.324 169.910 170.264  1.00  0.00     0.210 HD
ENDBRANCH   1  10
TORSDOF 4
ENDMDL
MODEL 3
REMARK VINA RESULT:    -3.229      1.491      2.826
REMARK INTER + INTRA:          -4.144
REMARK INTER:                  -3.938
REMARK INTRA:                  -0.206
REMARK UNBOUND:                -0.349
REMARK SMILES [NH3+][C@H](CO)C(=O)[O-]
REMARK SMILES IDX 3 1 2 2 1 3 5 7 6 8 7 9 4 10
REMARK H PARENT 1 4 1 5 1 6 4 11
REMARK Flexibility Score: inf
ROOT
ATOM      1  C   UNL     1     169.841 171.384 172.064  1.00  0.00     0.227 C 
ENDROOT
BRANCH   1   2
ATOM      2  C   UNL     1     168.606 170.721 171.425  1.00  0.00     0.253 C 
BRANCH   2   3
ATOM      3  N   UNL     1     167.552 171.707 171.153  1.00  0.00    -0.348 N 
ATOM      4  H   UNL     1     166.791 171.615 171.865  1.00  0.00     0.345 HD
ATOM      5  H   UNL     1     167.139 171.531 170.208  1.00  0.00     0.345 HD
ATOM      6  H   UNL     1     167.932 172.682 171.184  1.00  0.00     0.345 HD
ENDBRANCH   2   3
BRANCH   2   7
ATOM      7  C   UNL     1     168.984 169.969 170.176  1.00  0.00     0.102 C 
ATOM      8  O   UNL     1     169.372 168.772 170.238  1.00  0.00    -0.544 OA
ATOM      9  O   UNL     1     168.860 170.584 168.935  1.00  0.00    -0.544 OA
ENDBRANCH   2   7
ENDBRANCH   1   2
BRANCH   1  10
ATOM     10  O   UNL     1     170.579 172.109 171.116  1.00  0.00    -0.390 OA
ATOM     11  H   UNL     1     171.036 172.841 171.605  1.00  0.00     0.210 HD
ENDBRANCH   1  10
TORSDOF 4
ENDMDL
MODEL 4
REMARK VINA RESULT:    -3.168      1.606      2.440
REMARK INTER + INTRA:          -4.073
REMARK INTER:                  -3.857
REMARK INTRA:                  -0.216
REMARK UNBOUND:                -0.349
REMARK SMILES [NH3+][C@H](CO)C(=O)[O-]
REMARK SMILES IDX 3 1 2 2 1 3 5 7 6 8 7 9 4 10
REMARK H PARENT 1 4 1 5 1 6 4 11
REMARK Flexibility Score: inf
ROOT
ATOM      1  C   UNL     1     170.294 171.192 170.659  1.00  0.00     0.227 C 
ENDROOT
BRANCH   1   2
ATOM      2  C   UNL     1     168.784 170.979 170.447  1.00  0.00     0.253 C 
BRANCH   2   3
ATOM      3  N   UNL     1     168.500 170.475 169.097  1.00  0.00    -0.348 N 
ATOM      4  H   UNL     1     168.996 171.065 168.389  1.00  0.00     0.345 HD
ATOM      5  H   UNL     1     167.473 170.530 168.908  1.00  0.00     0.345 HD
ATOM      6  H   UNL     1     168.814 169.482 168.993  1.00  0.00     0.345 HD
ENDBRANCH   2   3
BRANCH   2   7
ATOM      7  C   UNL     1     168.216 170.065 171.501  1.00  0.00     0.102 C 
ATOM      8  O   UNL     1     167.346 169.203 171.204  1.00  0.00    -0.544 OA
ATOM      9  O   UNL     1     168.689 170.137 172.806  1.00  0.00    -0.544 OA
ENDBRANCH   2   7
ENDBRANCH   1   2
BRANCH   1  10
ATOM     10  O   UNL     1     170.541 172.227 171.575  1.00  0.00    -0.390 OA
ATOM     11  H   UNL     1     171.325 172.731 171.236  1.00  0.00     0.210 HD
ENDBRANCH   1  10
TORSDOF 4
ENDMDL
MODEL 5
REMARK VINA RESULT:    -2.968      6.512      6.933
REMARK INTER + INTRA:          -3.838
REMARK INTER:                  -3.482
REMARK INTRA:                  -0.356
REMARK UNBOUND:                -0.349
REMARK SMILES [NH3+][C@H](CO)C(=O)[O-]
REMARK SMILES IDX 3 1 2 2 1 3 5 7 6 8 7 9 4 10
REMARK H PARENT 1 4 1 5 1 6 4 11
REMARK Flexibility Score: inf
ROOT
ATOM      1  C   UNL     1     169.709 168.539 163.450  1.00  0.00     0.227 C 
ENDROOT
BRANCH   1   2
ATOM      2  C   UNL     1     169.579 170.072 163.489  1.00  0.00     0.253 C 
BRANCH   2   3
ATOM      3  N   UNL     1     168.171 170.490 163.467  1.00  0.00    -0.348 N 
ATOM      4  H   UNL     1     167.564 169.673 163.226  1.00  0.00     0.345 HD
ATOM      5  H   UNL     1     168.033 171.228 162.739  1.00  0.00     0.345 HD
ATOM      6  H   UNL     1     167.878 170.870 164.398  1.00  0.00     0.345 HD
ENDBRANCH   2   3
BRANCH   2   7
ATOM      7  C   UNL     1     170.299 170.644 164.683  1.00  0.00     0.102 C 
ATOM      8  O   UNL     1     169.677 170.895 165.749  1.00  0.00    -0.544 OA
ATOM      9  O   UNL     1     171.672 170.852 164.627  1.00  0.00    -0.544 OA
ENDBRANCH   2   7
ENDBRANCH   1   2
BRANCH   1  10
ATOM     10  O   UNL     1     170.631 168.079 164.403  1.00  0.00    -0.390 OA
ATOM     11  H   UNL     1     171.365 168.746 164.439  1.00  0.00     0.210 HD
ENDBRANCH   1  10
TORSDOF 4
ENDMDL
MODEL 6
REMARK VINA RESULT:    -2.940      6.943      7.396
REMARK INTER + INTRA:          -3.805
REMARK INTER:                  -3.573
REMARK INTRA:                  -0.232
REMARK UNBOUND:                -0.349
REMARK SMILES [NH3+][C@H](CO)C(=O)[O-]
REMARK SMILES IDX 3 1 2 2 1 3 5 7 6 8 7 9 4 10
REMARK H PARENT 1 4 1 5 1 6 4 11
REMARK Flexibility Score: inf
ROOT
ATOM      1  C   UNL     1     169.789 169.018 163.894  1.00  0.00     0.227 C 
ENDROOT
BRANCH   1   2
ATOM      2  C   UNL     1     169.936 170.519 164.208  1.00  0.00     0.253 C 
BRANCH   2   3
ATOM      3  N   UNL     1     169.821 170.777 165.650  1.00  0.00    -0.348 N 
ATOM      4  H   UNL     1     170.764 170.709 166.097  1.00  0.00     0.345 HD
ATOM      5  H   UNL     1     169.198 170.059 166.088  1.00  0.00     0.345 HD
ATOM      6  H   UNL     1     169.425 171.729 165.829  1.00  0.00     0.345 HD
ENDBRANCH   2   3
BRANCH   2   7
ATOM      7  C   UNL     1     171.230 171.060 163.659  1.00  0.00     0.102 C 
ATOM      8  O   UNL     1     172.291 170.999 164.335  1.00  0.00    -0.544 OA
ATOM      9  O   UNL     1     171.268 171.590 162.375  1.00  0.00    -0.544 OA
ENDBRANCH   2   7
ENDBRANCH   1   2
BRANCH   1  10
ATOM     10  O   UNL     1     170.907 168.293 164.334  1.00  0.00    -0.390 OA
ATOM     11  H   UNL     1     171.706 168.720 163.931  1.00  0.00     0.210 HD
ENDBRANCH   1  10
TORSDOF 4
ENDMDL
MODEL 7
REMARK VINA RESULT:    -2.927      6.813      7.338
REMARK INTER + INTRA:          -3.789
REMARK INTER:                  -3.563
REMARK INTRA:                  -0.226
REMARK UNBOUND:                -0.349
REMARK SMILES [NH3+][C@H](CO)C(=O)[O-]
REMARK SMILES IDX 3 1 2 2 1 3 5 7 6 8 7 9 4 10
REMARK H PARENT 1 4 1 5 1 6 4 11
REMARK Flexibility Score: inf
ROOT
ATOM      1  C   UNL     1     169.424 171.011 164.665  1.00  0.00     0.227 C 
ENDROOT
BRANCH   1   2
ATOM      2  C   UNL     1     170.125 172.204 163.990  1.00  0.00     0.253 C 
BRANCH   2   3
ATOM      3  N   UNL     1     169.750 173.474 164.626  1.00  0.00    -0.348 N 
ATOM      4  H   UNL     1     168.863 173.833 164.202  1.00  0.00     0.345 HD
ATOM      5  H   UNL     1     170.500 174.185 164.465  1.00  0.00     0.345 HD
ATOM      6  H   UNL     1     169.610 173.351 165.656  1.00  0.00     0.345 HD
ENDBRANCH   2   3
BRANCH   2   7
ATOM      7  C   UNL     1     171.620 172.019 163.984  1.00  0.00     0.102 C 
ATOM      8  O   UNL     1     172.134 170.921 164.329  1.00  0.00    -0.544 OA
ATOM      9  O   UNL     1     172.443 173.051 163.550  1.00  0.00    -0.544 OA
ENDBRANCH   2   7
ENDBRANCH   1   2
BRANCH   1  10
ATOM     10  O   UNL     1     169.796 170.897 166.013  1.00  0.00    -0.390 OA
ATOM     11  H   UNL     1     169.848 169.927 166.217  1.00  0.00     0.210 HD
ENDBRANCH   1  10
TORSDOF 4
ENDMDL
MODEL 8
REMARK VINA RESULT:    -2.904      6.708      7.213
REMARK INTER + INTRA:          -3.763
REMARK INTER:                  -3.396
REMARK INTRA:                  -0.367
REMARK UNBOUND:                -0.349
REMARK SMILES [NH3+][C@H](CO)C(=O)[O-]
REMARK SMILES IDX 3 1 2 2 1 3 5 7 6 8 7 9 4 10
REMARK H PARENT 1 4 1 5 1 6 4 11
REMARK Flexibility Score: inf
ROOT
ATOM      1  C   UNL     1     172.075 171.379 164.093  1.00  0.00     0.227 C 
ENDROOT
BRANCH   1   2
ATOM      2  C   UNL     1     170.806 170.525 163.916  1.00  0.00     0.253 C 
BRANCH   2   3
ATOM      3  N   UNL     1     171.026 169.143 164.363  1.00  0.00    -0.348 N 
ATOM      4  H   UNL     1     171.799 169.119 165.068  1.00  0.00     0.345 HD
ATOM      5  H   UNL     1     171.306 168.548 163.549  1.00  0.00     0.345 HD
ATOM      6  H   UNL     1     170.159 168.746 164.795  1.00  0.00     0.345 HD
ENDBRANCH   2   3
BRANCH   2   7
ATOM      7  C   UNL     1     169.633 171.148 164.627  1.00  0.00     0.102 C 
ATOM      8  O   UNL     1     169.465 170.976 165.863  1.00  0.00    -0.544 OA
ATOM      9  O   UNL     1     168.752 171.961 163.924  1.00  0.00    -0.544 OA
ENDBRANCH   2   7
ENDBRANCH   1   2
BRANCH   1  10
ATOM     10  O   UNL     1     171.760 172.681 164.512  1.00  0.00    -0.390 OA
ATOM     11  H   UNL     1     171.403 173.161 163.721  1.00  0.00     0.210 HD
ENDBRANCH   1  10
TORSDOF 4
ENDMDL
MODEL 9
REMARK VINA RESULT:    -2.854      7.269      7.847
REMARK INTER + INTRA:          -3.704
REMARK INTER:                  -3.482
REMARK INTRA:                  -0.222
REMARK UNBOUND:                -0.349
REMARK SMILES [NH3+][C@H](CO)C(=O)[O-]
REMARK SMILES IDX 3 1 2 2 1 3 5 7 6 8 7 9 4 10
REMARK H PARENT 1 4 1 5 1 6 4 11
REMARK Flexibility Score: inf
ROOT
ATOM      1  C   UNL     1     170.800 170.803 164.658  1.00  0.00     0.227 C 
ENDROOT
BRANCH   1   2
ATOM      2  C   UNL     1     170.507 169.640 163.693  1.00  0.00     0.253 C 
BRANCH   2   3
ATOM      3  N   UNL     1     170.498 168.351 164.397  1.00  0.00    -0.348 N 
ATOM      4  H   UNL     1     169.511 168.053 164.575  1.00  0.00     0.345 HD
ATOM      5  H   UNL     1     170.982 168.449 165.320  1.00  0.00     0.345 HD
ATOM      6  H   UNL     1     170.982 167.612 163.834  1.00  0.00     0.345 HD
ENDBRANCH   2   3
BRANCH   2   7
ATOM      7  C   UNL     1     169.215 169.866 162.953  1.00  0.00     0.102 C 
ATOM      8  O   UNL     1     168.168 170.197 163.572  1.00  0.00    -0.544 OA
ATOM      9  O   UNL     1     169.184 169.756 161.568  1.00  0.00    -0.544 OA
ENDBRANCH   2   7
ENDBRANCH   1   2
BRANCH   1  10
ATOM     10  O   UNL     1     169.917 170.797 165.749  1.00  0.00    -0.390 OA
ATOM     11  H   UNL     1     169.650 171.739 165.909  1.00  0.00     0.210 HD
ENDBRANCH   1  10
TORSDOF 4
ENDMDL
