MODEL 1
REMARK VINA RESULT:    -5.028      0.000      0.000
REMARK INTER + INTRA:          -5.834
REMARK INTER:                  -5.615
REMARK INTRA:                  -0.219
REMARK UNBOUND:                -0.219
REMARK SMILES O=C([O-])c1ccccc1C(=O)[O-]
REMARK SMILES IDX 4 1 9 2 5 3 8 4 6 5 7 6 2 7 1 8 3 9 10 10 11 11 12 12
REMARK H PARENT
REMARK Flexibility Score: inf
ROOT
ATOM      1  C   UNL     1      50.105  32.328  61.468  1.00  0.00     0.006 A 
ATOM      2  C   UNL     1      51.196  31.791  60.729  1.00  0.00     0.006 A 
ATOM      3  C   UNL     1      49.326  33.351  60.893  1.00  0.00     0.010 A 
ATOM      4  C   UNL     1      51.506  32.340  59.472  1.00  0.00     0.010 A 
ATOM      5  C   UNL     1      49.640  33.864  59.635  1.00  0.00     0.001 A 
ATOM      6  C   UNL     1      50.734  33.368  58.930  1.00  0.00     0.001 A 
ENDROOT
BRANCH   1   7
ATOM      7  C   UNL     1      49.793  31.909  62.854  1.00  0.00     0.072 C 
ATOM      8  O   UNL     1      48.822  31.138  63.080  1.00  0.00    -0.545 OA
ATOM      9  O   UNL     1      50.523  32.407  63.928  1.00  0.00    -0.545 OA
ENDBRANCH   1   7
BRANCH   2  10
ATOM     10  C   UNL     1      51.985  30.626  61.191  1.00  0.00     0.072 C 
ATOM     11  O   UNL     1      51.699  29.460  60.808  1.00  0.00    -0.545 OA
ATOM     12  O   UNL     1      53.098  30.815  62.002  1.00  0.00    -0.545 OA
ENDBRANCH   2  10
TORSDOF 2
ENDMDL
MODEL 2
REMARK VINA RESULT:    -5.007      0.058      2.867
REMARK INTER + INTRA:          -5.811
REMARK INTER:                  -5.584
REMARK INTRA:                  -0.228
REMARK UNBOUND:                -0.219
REMARK SMILES O=C([O-])c1ccccc1C(=O)[O-]
REMARK SMILES IDX 4 1 9 2 5 3 8 4 6 5 7 6 2 7 1 8 3 9 10 10 11 11 12 12
REMARK H PARENT
REMARK Flexibility Score: inf
ROOT
ATOM      1  C   UNL     1      51.182  31.794  60.695  1.00  0.00     0.006 A 
ATOM      2  C   UNL     1      50.093  32.343  61.427  1.00  0.00     0.006 A 
ATOM      3  C   UNL     1      51.503  32.336  59.435  1.00  0.00     0.010 A 
ATOM      4  C   UNL     1      49.326  33.369  60.846  1.00  0.00     0.010 A 
ATOM      5  C   UNL     1      50.741  33.369  58.889  1.00  0.00     0.001 A 
ATOM      6  C   UNL     1      49.648  33.877  59.587  1.00  0.00     0.001 A 
ENDROOT
BRANCH   1   7
ATOM      7  C   UNL     1      51.955  30.622  61.168  1.00  0.00     0.072 C 
ATOM      8  O   UNL     1      51.585  29.456  60.866  1.00  0.00    -0.545 OA
ATOM      9  O   UNL     1      53.055  30.786  62.001  1.00  0.00    -0.545 OA
ENDBRANCH   1   7
BRANCH   2  10
ATOM     10  C   UNL     1      49.766  31.933  62.812  1.00  0.00     0.072 C 
ATOM     11  O   UNL     1      48.836  31.115  63.040  1.00  0.00    -0.545 OA
ATOM     12  O   UNL     1      50.529  32.399  63.877  1.00  0.00    -0.545 OA
ENDBRANCH   2  10
TORSDOF 2
ENDMDL
MODEL 3
REMARK VINA RESULT:    -4.610      1.955      4.100
REMARK INTER + INTRA:          -5.368
REMARK INTER:                  -5.170
REMARK INTRA:                  -0.198
REMARK UNBOUND:                -0.219
REMARK SMILES O=C([O-])c1ccccc1C(=O)[O-]
REMARK SMILES IDX 4 1 9 2 5 3 8 4 6 5 7 6 2 7 1 8 3 9 10 10 11 11 12 12
REMARK H PARENT
REMARK Flexibility Score: inf
ROOT
ATOM      1  C   UNL     1      51.366  30.765  61.042  1.00  0.00     0.006 A 
ATOM      2  C   UNL     1      50.117  31.028  61.672  1.00  0.00     0.006 A 
ATOM      3  C   UNL     1      51.595  29.494  60.480  1.00  0.00     0.010 A 
ATOM      4  C   UNL     1      49.171  29.992  61.774  1.00  0.00     0.010 A 
ATOM      5  C   UNL     1      50.632  28.489  60.575  1.00  0.00     0.001 A 
ATOM      6  C   UNL     1      49.428  28.734  61.230  1.00  0.00     0.001 A 
ENDROOT
BRANCH   1   7
ATOM      7  C   UNL     1      52.471  31.751  61.013  1.00  0.00     0.072 C 
ATOM      8  O   UNL     1      52.520  32.622  60.104  1.00  0.00    -0.545 OA
ATOM      9  O   UNL     1      53.502  31.689  61.944  1.00  0.00    -0.545 OA
ENDBRANCH   1   7
BRANCH   2  10
ATOM     10  C   UNL     1      49.733  32.369  62.169  1.00  0.00     0.072 C 
ATOM     11  O   UNL     1      49.803  32.647  63.396  1.00  0.00    -0.545 OA
ATOM     12  O   UNL     1      49.352  33.362  61.274  1.00  0.00    -0.545 OA
ENDBRANCH   2  10
TORSDOF 2
ENDMDL
MODEL 4
REMARK VINA RESULT:    -4.587      1.958      3.046
REMARK INTER + INTRA:          -5.342
REMARK INTER:                  -5.132
REMARK INTRA:                  -0.210
REMARK UNBOUND:                -0.219
REMARK SMILES O=C([O-])c1ccccc1C(=O)[O-]
REMARK SMILES IDX 4 1 9 2 5 3 8 4 6 5 7 6 2 7 1 8 3 9 10 10 11 11 12 12
REMARK H PARENT
REMARK Flexibility Score: inf
ROOT
ATOM      1  C   UNL     1      50.123  30.917  61.696  1.00  0.00     0.006 A 
ATOM      2  C   UNL     1      51.387  30.668  61.093  1.00  0.00     0.006 A 
ATOM      3  C   UNL     1      49.168  29.883  61.737  1.00  0.00     0.010 A 
ATOM      4  C   UNL     1      51.626  29.417  60.497  1.00  0.00     0.010 A 
ATOM      5  C   UNL     1      49.435  28.643  61.158  1.00  0.00     0.001 A 
ATOM      6  C   UNL     1      50.657  28.413  60.529  1.00  0.00     0.001 A 
ENDROOT
BRANCH   1   7
ATOM      7  C   UNL     1      49.736  32.247  62.223  1.00  0.00     0.072 C 
ATOM      8  O   UNL     1      49.676  32.443  63.466  1.00  0.00    -0.545 OA
ATOM      9  O   UNL     1      49.370  33.273  61.359  1.00  0.00    -0.545 OA
ENDBRANCH   1   7
BRANCH   2  10
ATOM     10  C   UNL     1      52.501  31.644  61.123  1.00  0.00     0.072 C 
ATOM     11  O   UNL     1      53.421  31.547  61.978  1.00  0.00    -0.545 OA
ATOM     12  O   UNL     1      52.577  32.644  60.161  1.00  0.00    -0.545 OA
ENDBRANCH   2  10
TORSDOF 2
ENDMDL
MODEL 5
REMARK VINA RESULT:    -4.488      5.822      7.177
REMARK INTER + INTRA:          -5.231
REMARK INTER:                  -5.001
REMARK INTRA:                  -0.230
REMARK UNBOUND:                -0.219
REMARK SMILES O=C([O-])c1ccccc1C(=O)[O-]
REMARK SMILES IDX 4 1 9 2 5 3 8 4 6 5 7 6 2 7 1 8 3 9 10 10 11 11 12 12
REMARK H PARENT
REMARK Flexibility Score: inf
ROOT
ATOM      1  C   UNL     1      48.882  32.798  67.245  1.00  0.00     0.006 A 
ATOM      2  C   UNL     1      48.152  31.707  67.794  1.00  0.00     0.006 A 
ATOM      3  C   UNL     1      48.211  34.006  66.977  1.00  0.00     0.010 A 
ATOM      4  C   UNL     1      46.766  31.843  67.994  1.00  0.00     0.010 A 
ATOM      5  C   UNL     1      46.840  34.125  67.204  1.00  0.00     0.001 A 
ATOM      6  C   UNL     1      46.117  33.043  67.701  1.00  0.00     0.001 A 
ENDROOT
BRANCH   1   7
ATOM      7  C   UNL     1      50.313  32.696  66.873  1.00  0.00     0.072 C 
ATOM      8  O   UNL     1      50.642  32.261  65.737  1.00  0.00    -0.545 OA
ATOM      9  O   UNL     1      51.309  33.015  67.788  1.00  0.00    -0.545 OA
ENDBRANCH   1   7
BRANCH   2  10
ATOM     10  C   UNL     1      48.794  30.447  68.235  1.00  0.00     0.072 C 
ATOM     11  O   UNL     1      48.786  29.426  67.497  1.00  0.00    -0.545 OA
ATOM     12  O   UNL     1      49.474  30.398  69.446  1.00  0.00    -0.545 OA
ENDBRANCH   2  10
TORSDOF 2
ENDMDL
MODEL 6
REMARK VINA RESULT:    -4.472      5.813      7.041
REMARK INTER + INTRA:          -5.214
REMARK INTER:                  -4.991
REMARK INTRA:                  -0.223
REMARK UNBOUND:                -0.219
REMARK SMILES O=C([O-])c1ccccc1C(=O)[O-]
REMARK SMILES IDX 4 1 9 2 5 3 8 4 6 5 7 6 2 7 1 8 3 9 10 10 11 11 12 12
REMARK H PARENT
REMARK Flexibility Score: inf
ROOT
ATOM      1  C   UNL     1      48.188  31.708  67.776  1.00  0.00     0.006 A 
ATOM      2  C   UNL     1      48.903  32.818  67.247  1.00  0.00     0.006 A 
ATOM      3  C   UNL     1      46.797  31.816  67.967  1.00  0.00     0.010 A 
ATOM      4  C   UNL     1      48.212  34.016  66.990  1.00  0.00     0.010 A 
ATOM      5  C   UNL     1      46.130  33.008  67.684  1.00  0.00     0.001 A 
ATOM      6  C   UNL     1      46.837  34.109  67.207  1.00  0.00     0.001 A 
ENDROOT
BRANCH   1   7
ATOM      7  C   UNL     1      48.856  30.457  68.207  1.00  0.00     0.072 C 
ATOM      8  O   UNL     1      48.822  29.435  67.471  1.00  0.00    -0.545 OA
ATOM      9  O   UNL     1      49.472  30.373  69.450  1.00  0.00    -0.545 OA
ENDBRANCH   1   7
BRANCH   2  10
ATOM     10  C   UNL     1      50.337  32.755  66.885  1.00  0.00     0.072 C 
ATOM     11  O   UNL     1      51.228  33.071  67.718  1.00  0.00    -0.545 OA
ATOM     12  O   UNL     1      50.721  32.278  65.636  1.00  0.00    -0.545 OA
ENDBRANCH   2  10
TORSDOF 2
ENDMDL
MODEL 7
REMARK VINA RESULT:    -4.439      1.334      3.340
REMARK INTER + INTRA:          -5.177
REMARK INTER:                  -4.979
REMARK INTRA:                  -0.199
REMARK UNBOUND:                -0.219
REMARK SMILES O=C([O-])c1ccccc1C(=O)[O-]
REMARK SMILES IDX 4 1 9 2 5 3 8 4 6 5 7 6 2 7 1 8 3 9 10 10 11 11 12 12
REMARK H PARENT
REMARK Flexibility Score: inf
ROOT
ATOM      1  C   UNL     1      50.820  31.379  60.189  1.00  0.00     0.006 A 
ATOM      2  C   UNL     1      49.417  31.465  60.409  1.00  0.00     0.006 A 
ATOM      3  C   UNL     1      51.441  32.327  59.354  1.00  0.00     0.010 A 
ATOM      4  C   UNL     1      48.679  32.456  59.737  1.00  0.00     0.010 A 
ATOM      5  C   UNL     1      50.692  33.314  58.714  1.00  0.00     0.001 A 
ATOM      6  C   UNL     1      49.312  33.372  58.896  1.00  0.00     0.001 A 
ENDROOT
BRANCH   1   7
ATOM      7  C   UNL     1      51.651  30.286  60.744  1.00  0.00     0.072 C 
ATOM      8  O   UNL     1      52.484  30.524  61.659  1.00  0.00    -0.545 OA
ATOM      9  O   UNL     1      51.573  28.999  60.222  1.00  0.00    -0.545 OA
ENDBRANCH   1   7
BRANCH   2  10
ATOM     10  C   UNL     1      48.698  30.602  61.374  1.00  0.00     0.072 C 
ATOM     11  O   UNL     1      48.702  30.868  62.606  1.00  0.00    -0.545 OA
ATOM     12  O   UNL     1      47.952  29.520  60.921  1.00  0.00    -0.545 OA
ENDBRANCH   2  10
TORSDOF 2
ENDMDL
MODEL 8
REMARK VINA RESULT:    -4.392      1.964      3.246
REMARK INTER + INTRA:          -5.125
REMARK INTER:                  -4.910
REMARK INTRA:                  -0.215
REMARK UNBOUND:                -0.219
REMARK SMILES O=C([O-])c1ccccc1C(=O)[O-]
REMARK SMILES IDX 4 1 9 2 5 3 8 4 6 5 7 6 2 7 1 8 3 9 10 10 11 11 12 12
REMARK H PARENT
REMARK Flexibility Score: inf
ROOT
ATOM      1  C   UNL     1      50.434  31.582  61.984  1.00  0.00     0.006 A 
ATOM      2  C   UNL     1      50.343  32.347  60.787  1.00  0.00     0.006 A 
ATOM      3  C   UNL     1      51.705  31.232  62.478  1.00  0.00     0.010 A 
ATOM      4  C   UNL     1      51.522  32.677  60.096  1.00  0.00     0.010 A 
ATOM      5  C   UNL     1      52.862  31.590  61.786  1.00  0.00     0.001 A 
ATOM      6  C   UNL     1      52.771  32.301  60.592  1.00  0.00     0.001 A 
ENDROOT
BRANCH   1   7
ATOM      7  C   UNL     1      49.241  31.071  62.699  1.00  0.00     0.072 C 
ATOM      8  O   UNL     1      48.732  29.966  62.374  1.00  0.00    -0.545 OA
ATOM      9  O   UNL     1      48.630  31.830  63.692  1.00  0.00    -0.545 OA
ENDBRANCH   1   7
BRANCH   2  10
ATOM     10  C   UNL     1      49.062  32.877  60.265  1.00  0.00     0.072 C 
ATOM     11  O   UNL     1      48.736  34.078  60.455  1.00  0.00    -0.545 OA
ATOM     12  O   UNL     1      48.233  32.066  59.497  1.00  0.00    -0.545 OA
ENDBRANCH   2  10
TORSDOF 2
ENDMDL
MODEL 9
REMARK VINA RESULT:    -4.212      4.865      6.119
REMARK INTER + INTRA:          -4.923
REMARK INTER:                  -4.691
REMARK INTRA:                  -0.232
REMARK UNBOUND:                -0.219
REMARK SMILES O=C([O-])c1ccccc1C(=O)[O-]
REMARK SMILES IDX 4 1 9 2 5 3 8 4 6 5 7 6 2 7 1 8 3 9 10 10 11 11 12 12
REMARK H PARENT
REMARK Flexibility Score: inf
ROOT
ATOM      1  C   UNL     1      47.346  31.796  65.743  1.00  0.00     0.006 A 
ATOM      2  C   UNL     1      48.330  32.756  66.114  1.00  0.00     0.006 A 
ATOM      3  C   UNL     1      45.994  32.050  66.044  1.00  0.00     0.010 A 
ATOM      4  C   UNL     1      47.933  33.901  66.827  1.00  0.00     0.010 A 
ATOM      5  C   UNL     1      45.622  33.204  66.733  1.00  0.00     0.001 A 
ATOM      6  C   UNL     1      46.589  34.123  67.133  1.00  0.00     0.001 A 
ENDROOT
BRANCH   1   7
ATOM      7  C   UNL     1      47.690  30.499  65.116  1.00  0.00     0.072 C 
ATOM      8  O   UNL     1      47.985  29.506  65.834  1.00  0.00    -0.545 OA
ATOM      9  O   UNL     1      47.757  30.375  63.733  1.00  0.00    -0.545 OA
ENDBRANCH   1   7
BRANCH   2  10
ATOM     10  C   UNL     1      49.753  32.643  65.722  1.00  0.00     0.072 C 
ATOM     11  O   UNL     1      50.606  32.167  66.518  1.00  0.00    -0.545 OA
ATOM     12  O   UNL     1      50.155  33.000  64.440  1.00  0.00    -0.545 OA
ENDBRANCH   2  10
TORSDOF 2
ENDMDL
