MODEL 1
REMARK VINA RESULT:    -1.953      0.000      0.000
REMARK INTER + INTRA:          -3.340
REMARK INTER:                  -2.981
REMARK INTRA:                  -0.359
REMARK UNBOUND:                -0.359
REMARK SMILES CC1=CCC[C@@H](C)C(=O)C[C@@H](C(C)C)C(=O)C1
REMARK SMILES IDX 8 1 9 2 6 3 7 4 5 5 4 6 3 7 2 8 1 9 10 11 11 12 15 13 16 14
REMARK SMILES IDX 17 15 12 17 13 18 14 19
REMARK H PARENT
REMARK Flexibility Score: 70.00
ROOT
ATOM      1  C   UNL     1     167.856 169.382 152.065  1.00  0.00     0.136 C 
ATOM      2  O   UNL     1     166.843 168.702 152.153  1.00  0.00    -0.299 OA
ENDROOT
BRANCH   1   3
ATOM      3  C   UNL     1     167.716 170.891 151.976  1.00  0.00     0.053 C 
ATOM      4  C   UNL     1     166.834 171.430 153.109  1.00  0.00     0.016 C 
BRANCH   3   5
ATOM      5  C   UNL     1     167.182 171.328 150.599  1.00  0.00     0.015 C 
BRANCH   5   6
ATOM      6  C   UNL     1     168.244 172.094 149.789  1.00  0.00     0.028 C 
BRANCH   6   7
ATOM      7  C   UNL     1     168.685 171.302 148.586  1.00  0.00    -0.028 C 
ATOM      8  C   UNL     1     169.884 170.682 148.471  1.00  0.00    -0.070 CG0
ATOM      9  C   UNL     1     170.155 169.891 147.217  1.00  0.00     0.039 C 
ATOM     10  G   UNL     1     170.960 170.755 149.544  1.00  0.00     0.000 G0
ENDBRANCH   6   7
ENDBRANCH   5   6
ENDBRANCH   3   5
ENDBRANCH   1   3
BRANCH   1  11
ATOM     11  C   UNL     1     169.197 168.683 152.021  1.00  0.00     0.087 C 
BRANCH  11  12
ATOM     12  C   UNL     1     170.378 169.682 151.884  1.00  0.00     0.066 C 
BRANCH  12  13
ATOM     13  C   UNL     1     170.966 169.573 150.484  1.00  0.00     0.140 C 
ATOM     14  O   UNL     1     171.520 168.535 150.144  1.00  0.00    -0.299 OA
BRANCH  13  15
ATOM     15  C   UNL     1     170.982 170.760 149.554  1.00  0.00     0.106 CG0
ATOM     16  G   UNL     1     169.876 170.689 148.511  1.00  0.00     0.000 G0
ENDBRANCH  13  15
ENDBRANCH  12  13
BRANCH  12  17
ATOM     17  C   UNL     1     171.487 169.453 152.963  1.00  0.00    -0.006 C 
ATOM     18  C   UNL     1     171.461 168.020 153.531  1.00  0.00     0.008 C 
ATOM     19  C   UNL     1     171.344 170.445 154.137  1.00  0.00     0.008 C 
ENDBRANCH  12  17
ENDBRANCH  11  12
ENDBRANCH   1  11
TORSDOF 1
ENDMDL
MODEL 2
REMARK VINA RESULT:    -1.859      6.699      9.375
REMARK INTER + INTRA:          -3.196
REMARK INTER:                  -2.858
REMARK INTRA:                  -0.339
REMARK UNBOUND:                -0.359
REMARK SMILES CC1=CCC[C@@H](C)C(=O)C[C@@H](C(C)C)C(=O)C1
REMARK SMILES IDX 8 1 9 2 6 3 7 4 5 5 4 6 3 7 2 8 1 9 10 11 11 12 15 13 16 14
REMARK SMILES IDX 17 15 12 17 13 18 14 19
REMARK H PARENT
REMARK Flexibility Score: 70.00
ROOT
ATOM      1  C   UNL     1     169.330 167.884 143.356  1.00  0.00     0.136 C 
ATOM      2  O   UNL     1     168.809 167.030 144.058  1.00  0.00    -0.299 OA
ENDROOT
BRANCH   1   3
ATOM      3  C   UNL     1     170.368 168.803 143.975  1.00  0.00     0.053 C 
ATOM      4  C   UNL     1     171.601 168.012 144.431  1.00  0.00     0.016 C 
BRANCH   3   5
ATOM      5  C   UNL     1     169.775 169.626 145.133  1.00  0.00     0.015 C 
BRANCH   5   6
ATOM      6  C   UNL     1     169.121 170.928 144.636  1.00  0.00     0.028 C 
BRANCH   6   7
ATOM      7  C   UNL     1     167.619 170.811 144.625  1.00  0.00    -0.028 C 
ATOM      8  C   UNL     1     166.843 170.975 143.527  1.00  0.00    -0.070 CG0
ATOM      9  C   UNL     1     165.356 170.782 143.675  1.00  0.00     0.039 C 
ATOM     10  G   UNL     1     167.405 171.348 142.163  1.00  0.00     0.000 G0
ENDBRANCH   6   7
ENDBRANCH   5   6
ENDBRANCH   3   5
ENDBRANCH   1   3
BRANCH   1  11
ATOM     11  C   UNL     1     168.893 168.003 141.912  1.00  0.00     0.087 C 
BRANCH  11  12
ATOM     12  C   UNL     1     169.054 169.447 141.364  1.00  0.00     0.066 C 
BRANCH  12  13
ATOM     13  C   UNL     1     167.690 170.119 141.313  1.00  0.00     0.140 C 
ATOM     14  O   UNL     1     166.853 169.720 140.513  1.00  0.00    -0.299 OA
BRANCH  13  15
ATOM     15  C   UNL     1     167.394 171.339 142.147  1.00  0.00     0.106 CG0
ATOM     16  G   UNL     1     166.846 170.980 143.521  1.00  0.00     0.000 G0
ENDBRANCH  13  15
ENDBRANCH  12  13
BRANCH  12  17
ATOM     17  C   UNL     1     169.736 169.482 139.956  1.00  0.00    -0.006 C 
ATOM     18  C   UNL     1     169.515 168.175 139.168  1.00  0.00     0.008 C 
ATOM     19  C   UNL     1     171.253 169.732 140.070  1.00  0.00     0.008 C 
ENDBRANCH  12  17
ENDBRANCH  11  12
ENDBRANCH   1  11
TORSDOF 1
ENDMDL
MODEL 3
REMARK VINA RESULT:    -1.805     20.474     21.979
REMARK INTER + INTRA:          -3.113
REMARK INTER:                  -2.987
REMARK INTRA:                  -0.125
REMARK UNBOUND:                -0.359
REMARK SMILES CC1=CCC[C@@H](C)C(=O)C[C@@H](C(C)C)C(=O)C1
REMARK SMILES IDX 8 1 9 2 6 3 7 4 5 5 4 6 3 7 2 8 1 9 10 11 11 12 15 13 16 14
REMARK SMILES IDX 17 15 12 17 13 18 14 19
REMARK H PARENT
REMARK Flexibility Score: 70.00
ROOT
ATOM      1  C   UNL     1     156.943 154.883 149.150  1.00  0.00     0.136 C 
ATOM      2  O   UNL     1     157.618 155.901 149.099  1.00  0.00    -0.299 OA
ENDROOT
BRANCH   1   3
ATOM      3  C   UNL     1     157.609 153.588 149.581  1.00  0.00     0.053 C 
ATOM      4  C   UNL     1     158.111 153.681 151.027  1.00  0.00     0.016 C 
BRANCH   3   5
ATOM      5  C   UNL     1     158.746 153.191 148.621  1.00  0.00     0.015 C 
BRANCH   5   6
ATOM      6  C   UNL     1     158.300 152.111 147.619  1.00  0.00     0.028 C 
BRANCH   6   7
ATOM      7  C   UNL     1     157.981 152.716 146.276  1.00  0.00    -0.028 C 
ATOM      8  C   UNL     1     156.740 152.786 145.740  1.00  0.00    -0.070 CG0
ATOM      9  C   UNL     1     156.583 153.462 144.402  1.00  0.00     0.039 C 
ATOM     10  G   UNL     1     155.508 152.211 146.423  1.00  0.00     0.000 G0
ENDBRANCH   6   7
ENDBRANCH   5   6
ENDBRANCH   3   5
ENDBRANCH   1   3
BRANCH   1  11
ATOM     11  C   UNL     1     155.485 154.958 148.755  1.00  0.00     0.087 C 
BRANCH  11  12
ATOM     12  C   UNL     1     154.843 153.552 148.596  1.00  0.00     0.066 C 
BRANCH  12  13
ATOM     13  C   UNL     1     154.657 153.251 147.116  1.00  0.00     0.140 C 
ATOM     14  O   UNL     1     153.758 153.808 146.499  1.00  0.00    -0.299 OA
BRANCH  13  15
ATOM     15  C   UNL     1     155.483 152.195 146.428  1.00  0.00     0.106 CG0
ATOM     16  G   UNL     1     156.714 152.778 145.748  1.00  0.00     0.000 G0
ENDBRANCH  13  15
ENDBRANCH  12  13
BRANCH  12  17
ATOM     17  C   UNL     1     153.483 153.423 149.358  1.00  0.00    -0.006 C 
ATOM     18  C   UNL     1     152.548 154.618 149.089  1.00  0.00     0.008 C 
ATOM     19  C   UNL     1     153.698 153.305 150.881  1.00  0.00     0.008 C 
ENDBRANCH  12  17
ENDBRANCH  11  12
ENDBRANCH   1  11
TORSDOF 1
ENDMDL
MODEL 4
REMARK VINA RESULT:    -1.800     20.505     22.030
REMARK INTER + INTRA:          -3.105
REMARK INTER:                  -2.731
REMARK INTRA:                  -0.374
REMARK UNBOUND:                -0.359
REMARK SMILES CC1=CCC[C@@H](C)C(=O)C[C@@H](C(C)C)C(=O)C1
REMARK SMILES IDX 8 1 9 2 6 3 7 4 5 5 4 6 3 7 2 8 1 9 10 11 11 12 15 13 16 14
REMARK SMILES IDX 17 15 12 17 13 18 14 19
REMARK H PARENT
REMARK Flexibility Score: 70.00
ROOT
ATOM      1  C   UNL     1     153.840 156.551 149.897  1.00  0.00     0.136 C 
ATOM      2  O   UNL     1     153.336 157.665 149.913  1.00  0.00    -0.299 OA
ENDROOT
BRANCH   1   3
ATOM      3  C   UNL     1     155.291 156.413 149.471  1.00  0.00     0.053 C 
ATOM      4  C   UNL     1     156.222 157.152 150.440  1.00  0.00     0.016 C 
BRANCH   3   5
ATOM      5  C   UNL     1     155.502 156.892 148.022  1.00  0.00     0.015 C 
BRANCH   5   6
ATOM      6  C   UNL     1     155.013 155.853 146.997  1.00  0.00     0.028 C 
BRANCH   6   7
ATOM      7  C   UNL     1     155.722 154.536 147.178  1.00  0.00    -0.028 C 
ATOM      8  C   UNL     1     155.124 153.390 147.582  1.00  0.00    -0.070 CG0
ATOM      9  C   UNL     1     155.968 152.144 147.672  1.00  0.00     0.039 C 
ATOM     10  G   UNL     1     153.650 153.309 147.950  1.00  0.00     0.000 G0
ENDBRANCH   6   7
ENDBRANCH   5   6
ENDBRANCH   3   5
ENDBRANCH   1   3
BRANCH   1  11
ATOM     11  C   UNL     1     152.984 155.362 150.275  1.00  0.00     0.087 C 
BRANCH  11  12
ATOM     12  C   UNL     1     153.825 154.072 150.483  1.00  0.00     0.066 C 
BRANCH  12  13
ATOM     13  C   UNL     1     153.433 153.044 149.432  1.00  0.00     0.140 C 
ATOM     14  O   UNL     1     153.023 151.947 149.789  1.00  0.00    -0.299 OA
BRANCH  13  15
ATOM     15  C   UNL     1     153.653 153.311 147.964  1.00  0.00     0.106 CG0
ATOM     16  G   UNL     1     155.130 153.384 147.606  1.00  0.00     0.000 G0
ENDBRANCH  13  15
ENDBRANCH  12  13
BRANCH  12  17
ATOM     17  C   UNL     1     153.664 153.476 151.920  1.00  0.00    -0.006 C 
ATOM     18  C   UNL     1     152.677 154.288 152.781  1.00  0.00     0.008 C 
ATOM     19  C   UNL     1     155.017 153.413 152.659  1.00  0.00     0.008 C 
ENDBRANCH  12  17
ENDBRANCH  11  12
ENDBRANCH   1  11
TORSDOF 1
ENDMDL
MODEL 5
REMARK VINA RESULT:    -1.788     21.422     22.482
REMARK INTER + INTRA:          -3.088
REMARK INTER:                  -2.728
REMARK INTRA:                  -0.360
REMARK UNBOUND:                -0.359
REMARK SMILES CC1=CCC[C@@H](C)C(=O)C[C@@H](C(C)C)C(=O)C1
REMARK SMILES IDX 8 1 9 2 6 3 7 4 5 5 4 6 3 7 2 8 1 9 10 11 11 12 15 13 16 14
REMARK SMILES IDX 17 15 12 17 13 18 14 19
REMARK H PARENT
REMARK Flexibility Score: 70.00
ROOT
ATOM      1  C   UNL     1     155.938 154.432 145.452  1.00  0.00     0.136 C 
ATOM      2  O   UNL     1     155.992 154.339 146.670  1.00  0.00    -0.299 OA
ENDROOT
BRANCH   1   3
ATOM      3  C   UNL     1     155.500 155.751 144.840  1.00  0.00     0.053 C 
ATOM      4  C   UNL     1     156.150 156.937 145.565  1.00  0.00     0.016 C 
BRANCH   3   5
ATOM      5  C   UNL     1     153.966 155.883 144.820  1.00  0.00     0.015 C 
BRANCH   5   6
ATOM      6  C   UNL     1     153.317 154.894 143.835  1.00  0.00     0.028 C 
BRANCH   6   7
ATOM      7  C   UNL     1     153.687 155.224 142.412  1.00  0.00    -0.028 C 
ATOM      8  C   UNL     1     154.329 154.381 141.569  1.00  0.00    -0.070 CG0
ATOM      9  C   UNL     1     154.589 154.849 140.161  1.00  0.00     0.039 C 
ATOM     10  G   UNL     1     154.802 152.996 141.984  1.00  0.00     0.000 G0
ENDBRANCH   6   7
ENDBRANCH   5   6
ENDBRANCH   3   5
ENDBRANCH   1   3
BRANCH   1  11
ATOM     11  C   UNL     1     156.283 153.219 144.615  1.00  0.00     0.087 C 
BRANCH  11  12
ATOM     12  C   UNL     1     157.025 153.599 143.305  1.00  0.00     0.066 C 
BRANCH  12  13
ATOM     13  C   UNL     1     156.330 152.934 142.125  1.00  0.00     0.140 C 
ATOM     14  O   UNL     1     157.005 152.435 141.234  1.00  0.00    -0.299 OA
BRANCH  13  15
ATOM     15  C   UNL     1     154.830 152.985 141.978  1.00  0.00     0.106 CG0
ATOM     16  G   UNL     1     154.335 154.370 141.590  1.00  0.00     0.000 G0
ENDBRANCH  13  15
ENDBRANCH  12  13
BRANCH  12  17
ATOM     17  C   UNL     1     158.540 153.210 143.338  1.00  0.00    -0.006 C 
ATOM     18  C   UNL     1     158.841 152.126 144.392  1.00  0.00     0.008 C 
ATOM     19  C   UNL     1     159.429 154.436 143.632  1.00  0.00     0.008 C 
ENDBRANCH  12  17
ENDBRANCH  11  12
ENDBRANCH   1  11
TORSDOF 1
ENDMDL
MODEL 6
REMARK VINA RESULT:    -1.701      3.411      5.226
REMARK INTER + INTRA:          -2.955
REMARK INTER:                  -3.001
REMARK INTRA:                   0.046
REMARK UNBOUND:                -0.359
REMARK SMILES CC1=CCC[C@@H](C)C(=O)C[C@@H](C(C)C)C(=O)C1
REMARK SMILES IDX 8 1 9 2 6 3 7 4 5 5 4 6 3 7 2 8 1 9 10 11 11 12 15 13 16 14
REMARK SMILES IDX 17 15 12 17 13 18 14 19
REMARK H PARENT
REMARK Flexibility Score: 70.00
ROOT
ATOM      1  C   UNL     1     166.072 170.294 146.061  1.00  0.00     0.136 C 
ATOM      2  O   UNL     1     165.847 169.308 145.374  1.00  0.00    -0.299 OA
ENDROOT
BRANCH   1   3
ATOM      3  C   UNL     1     165.988 171.666 145.416  1.00  0.00     0.053 C 
ATOM      4  C   UNL     1     164.529 172.097 145.224  1.00  0.00     0.016 C 
BRANCH   3   5
ATOM      5  C   UNL     1     166.762 171.713 144.086  1.00  0.00     0.015 C 
BRANCH   5   6
ATOM      6  C   UNL     1     168.269 171.938 144.306  1.00  0.00     0.028 C 
BRANCH   6   7
ATOM      7  C   UNL     1     169.051 170.678 144.038  1.00  0.00    -0.028 C 
ATOM      8  C   UNL     1     169.802 170.029 144.958  1.00  0.00    -0.070 CG0
ATOM      9  C   UNL     1     170.490 168.755 144.540  1.00  0.00     0.039 C 
ATOM     10  G   UNL     1     169.984 170.531 146.383  1.00  0.00     0.000 G0
ENDBRANCH   6   7
ENDBRANCH   5   6
ENDBRANCH   3   5
ENDBRANCH   1   3
BRANCH   1  11
ATOM     11  C   UNL     1     166.450 170.097 147.513  1.00  0.00     0.087 C 
BRANCH  11  12
ATOM     12  C   UNL     1     167.798 170.780 147.870  1.00  0.00     0.066 C 
BRANCH  12  13
ATOM     13  C   UNL     1     168.944 169.936 147.331  1.00  0.00     0.140 C 
ATOM     14  O   UNL     1     169.091 168.791 147.739  1.00  0.00    -0.299 OA
BRANCH  13  15
ATOM     15  C   UNL     1     169.968 170.524 146.394  1.00  0.00     0.106 CG0
ATOM     16  G   UNL     1     169.796 170.028 144.966  1.00  0.00     0.000 G0
ENDBRANCH  13  15
ENDBRANCH  12  13
BRANCH  12  17
ATOM     17  C   UNL     1     167.965 171.014 149.407  1.00  0.00    -0.006 C 
ATOM     18  C   UNL     1     169.446 171.090 149.828  1.00  0.00     0.008 C 
ATOM     19  C   UNL     1     167.284 169.897 150.225  1.00  0.00     0.008 C 
ENDBRANCH  12  17
ENDBRANCH  11  12
ENDBRANCH   1  11
TORSDOF 1
ENDMDL
MODEL 7
REMARK VINA RESULT:    -1.691     20.793     22.124
REMARK INTER + INTRA:          -2.939
REMARK INTER:                  -2.445
REMARK INTRA:                  -0.494
REMARK UNBOUND:                -0.359
REMARK SMILES CC1=CCC[C@@H](C)C(=O)C[C@@H](C(C)C)C(=O)C1
REMARK SMILES IDX 8 1 9 2 6 3 7 4 5 5 4 6 3 7 2 8 1 9 10 11 11 12 15 13 16 14
REMARK SMILES IDX 17 15 12 17 13 18 14 19
REMARK H PARENT
REMARK Flexibility Score: 70.00
ROOT
ATOM      1  C   UNL     1     157.531 156.204 140.967  1.00  0.00     0.136 C 
ATOM      2  O   UNL     1     158.323 156.597 140.122  1.00  0.00    -0.299 OA
ENDROOT
BRANCH   1   3
ATOM      3  C   UNL     1     157.476 156.921 142.304  1.00  0.00     0.053 C 
ATOM      4  C   UNL     1     157.204 158.419 142.115  1.00  0.00     0.016 C 
BRANCH   3   5
ATOM      5  C   UNL     1     158.758 156.688 143.124  1.00  0.00     0.015 C 
BRANCH   5   6
ATOM      6  C   UNL     1     158.543 155.655 144.245  1.00  0.00     0.028 C 
BRANCH   6   7
ATOM      7  C   UNL     1     159.114 154.313 143.864  1.00  0.00    -0.028 C 
ATOM      8  C   UNL     1     158.375 153.209 143.602  1.00  0.00    -0.070 CG0
ATOM      9  C   UNL     1     159.099 151.953 143.193  1.00  0.00     0.039 C 
ATOM     10  G   UNL     1     156.858 153.184 143.710  1.00  0.00     0.000 G0
ENDBRANCH   6   7
ENDBRANCH   5   6
ENDBRANCH   3   5
ENDBRANCH   1   3
BRANCH   1  11
ATOM     11  C   UNL     1     156.666 155.004 140.648  1.00  0.00     0.087 C 
BRANCH  11  12
ATOM     12  C   UNL     1     155.735 154.618 141.829  1.00  0.00     0.066 C 
BRANCH  12  13
ATOM     13  C   UNL     1     156.162 153.266 142.382  1.00  0.00     0.140 C 
ATOM     14  O   UNL     1     155.856 152.247 141.777  1.00  0.00    -0.299 OA
BRANCH  13  15
ATOM     15  C   UNL     1     156.850 153.156 143.719  1.00  0.00     0.106 CG0
ATOM     16  G   UNL     1     158.365 153.210 143.593  1.00  0.00     0.000 G0
ENDBRANCH  13  15
ENDBRANCH  12  13
BRANCH  12  17
ATOM     17  C   UNL     1     154.225 154.592 141.420  1.00  0.00    -0.006 C 
ATOM     18  C   UNL     1     154.031 154.719 139.896  1.00  0.00     0.008 C 
ATOM     19  C   UNL     1     153.435 155.724 142.108  1.00  0.00     0.008 C 
ENDBRANCH  12  17
ENDBRANCH  11  12
ENDBRANCH   1  11
TORSDOF 1
ENDMDL
MODEL 8
REMARK VINA RESULT:    -1.592      2.638      4.384
REMARK INTER + INTRA:          -2.789
REMARK INTER:                  -2.415
REMARK INTRA:                  -0.373
REMARK UNBOUND:                -0.359
REMARK SMILES CC1=CCC[C@@H](C)C(=O)C[C@@H](C(C)C)C(=O)C1
REMARK SMILES IDX 8 1 9 2 6 3 7 4 5 5 4 6 3 7 2 8 1 9 10 11 11 12 15 13 16 14
REMARK SMILES IDX 17 15 12 17 13 18 14 19
REMARK H PARENT
REMARK Flexibility Score: 70.00
ROOT
ATOM      1  C   UNL     1     165.879 169.757 147.511  1.00  0.00     0.136 C 
ATOM      2  O   UNL     1     165.804 168.847 146.698  1.00  0.00    -0.299 OA
ENDROOT
BRANCH   1   3
ATOM      3  C   UNL     1     165.975 171.184 147.002  1.00  0.00     0.053 C 
ATOM      4  C   UNL     1     164.633 171.654 146.425  1.00  0.00     0.016 C 
BRANCH   3   5
ATOM      5  C   UNL     1     167.109 171.342 145.973  1.00  0.00     0.015 C 
BRANCH   5   6
ATOM      6  C   UNL     1     168.428 171.781 146.634  1.00  0.00     0.028 C 
BRANCH   6   7
ATOM      7  C   UNL     1     169.336 170.602 146.870  1.00  0.00    -0.028 C 
ATOM      8  C   UNL     1     169.686 170.132 148.091  1.00  0.00    -0.070 CG0
ATOM      9  C   UNL     1     170.571 168.914 148.155  1.00  0.00     0.039 C 
ATOM     10  G   UNL     1     169.231 170.782 149.390  1.00  0.00     0.000 G0
ENDBRANCH   6   7
ENDBRANCH   5   6
ENDBRANCH   3   5
ENDBRANCH   1   3
BRANCH   1  11
ATOM     11  C   UNL     1     165.902 169.414 148.985  1.00  0.00     0.087 C 
BRANCH  11  12
ATOM     12  C   UNL     1     166.641 170.487 149.829  1.00  0.00     0.066 C 
BRANCH  12  13
ATOM     13  C   UNL     1     168.082 170.049 150.047  1.00  0.00     0.140 C 
ATOM     14  O   UNL     1     168.320 169.140 150.832  1.00  0.00    -0.299 OA
BRANCH  13  15
ATOM     15  C   UNL     1     169.225 170.791 149.403  1.00  0.00     0.106 CG0
ATOM     16  G   UNL     1     169.675 170.141 148.103  1.00  0.00     0.000 G0
ENDBRANCH  13  15
ENDBRANCH  12  13
BRANCH  12  17
ATOM     17  C   UNL     1     165.938 170.762 151.200  1.00  0.00    -0.006 C 
ATOM     18  C   UNL     1     164.505 171.302 151.022  1.00  0.00     0.008 C 
ATOM     19  C   UNL     1     166.737 171.771 152.050  1.00  0.00     0.008 C 
ENDBRANCH  12  17
ENDBRANCH  11  12
ENDBRANCH   1  11
TORSDOF 1
ENDMDL
MODEL 9
REMARK VINA RESULT:    -1.580     20.340     21.838
REMARK INTER + INTRA:          -2.769
REMARK INTER:                  -2.625
REMARK INTRA:                  -0.144
REMARK UNBOUND:                -0.359
REMARK SMILES CC1=CCC[C@@H](C)C(=O)C[C@@H](C(C)C)C(=O)C1
REMARK SMILES IDX 8 1 9 2 6 3 7 4 5 5 4 6 3 7 2 8 1 9 10 11 11 12 15 13 16 14
REMARK SMILES IDX 17 15 12 17 13 18 14 19
REMARK H PARENT
REMARK Flexibility Score: 70.00
ROOT
ATOM      1  C   UNL     1     159.509 154.348 143.523  1.00  0.00     0.136 C 
ATOM      2  O   UNL     1     159.922 155.498 143.579  1.00  0.00    -0.299 OA
ENDROOT
BRANCH   1   3
ATOM      3  C   UNL     1     160.346 153.243 144.142  1.00  0.00     0.053 C 
ATOM      4  C   UNL     1     160.187 151.930 143.365  1.00  0.00     0.016 C 
BRANCH   3   5
ATOM      5  C   UNL     1     160.014 153.051 145.633  1.00  0.00     0.015 C 
BRANCH   5   6
ATOM      6  C   UNL     1     158.897 152.013 145.844  1.00  0.00     0.028 C 
BRANCH   6   7
ATOM      7  C   UNL     1     157.744 152.605 146.613  1.00  0.00    -0.028 C 
ATOM      8  C   UNL     1     156.562 152.972 146.064  1.00  0.00    -0.070 CG0
ATOM      9  C   UNL     1     155.492 153.511 146.979  1.00  0.00     0.039 C 
ATOM     10  G   UNL     1     156.273 152.870 144.573  1.00  0.00     0.000 G0
ENDBRANCH   6   7
ENDBRANCH   5   6
ENDBRANCH   3   5
ENDBRANCH   1   3
BRANCH   1  11
ATOM     11  C   UNL     1     158.199 154.080 142.815  1.00  0.00     0.087 C 
BRANCH  11  12
ATOM     12  C   UNL     1     157.066 155.028 143.292  1.00  0.00     0.066 C 
BRANCH  12  13
ATOM     13  C   UNL     1     155.960 154.204 143.934  1.00  0.00     0.140 C 
ATOM     14  O   UNL     1     154.834 154.676 144.024  1.00  0.00    -0.299 OA
BRANCH  13  15
ATOM     15  C   UNL     1     156.255 152.867 144.566  1.00  0.00     0.106 CG0
ATOM     16  G   UNL     1     156.553 152.985 146.053  1.00  0.00     0.000 G0
ENDBRANCH  13  15
ENDBRANCH  12  13
BRANCH  12  17
ATOM     17  C   UNL     1     156.491 155.909 142.134  1.00  0.00    -0.006 C 
ATOM     18  C   UNL     1     157.294 155.750 140.828  1.00  0.00     0.008 C 
ATOM     19  C   UNL     1     156.475 157.403 142.517  1.00  0.00     0.008 C 
ENDBRANCH  12  17
ENDBRANCH  11  12
ENDBRANCH   1  11
TORSDOF 1
ENDMDL
