MODEL 1
REMARK VINA RESULT:    -2.057      0.000      0.000
REMARK INTER + INTRA:          -2.117
REMARK INTER:                  -2.117
REMARK INTRA:                   0.000
REMARK UNBOUND:                 0.000
REMARK SMILES Oc1ccc2[nH]ccc2c1
REMARK SMILES IDX 3 1 4 2 5 3 9 4 8 5 7 6 6 7 10 8 2 9 1 11
REMARK H PARENT 6 10 1 12
REMARK Flexibility Score: inf
ROOT
ATOM      1  C   UNL     1      14.388   8.703 131.569  1.00  0.00     0.048 A 
ATOM      2  C   UNL     1      15.584   8.325 130.932  1.00  0.00     0.030 A 
ATOM      3  C   UNL     1      16.769   8.427 131.658  1.00  0.00     0.046 A 
ATOM      4  C   UNL     1      16.784   8.879 132.951  1.00  0.00     0.003 A 
ATOM      5  C   UNL     1      18.094   8.861 133.379  1.00  0.00     0.028 A 
ATOM      6  C   UNL     1      18.824   8.386 132.294  1.00  0.00     0.083 A 
ATOM      7  N   UNL     1      18.010   8.123 131.245  1.00  0.00    -0.361 N 
ATOM      8  C   UNL     1      15.619   9.262 133.612  1.00  0.00     0.056 A 
ATOM      9  C   UNL     1      14.401   9.170 132.904  1.00  0.00     0.116 A 
ATOM     10  H   UNL     1      18.293   7.757 130.309  1.00  0.00     0.166 HD
ENDROOT
BRANCH   9  11
ATOM     11  O   UNL     1      13.203   9.538 133.512  1.00  0.00    -0.508 OA
ATOM     12  H   UNL     1      12.309   9.213 133.160  1.00  0.00     0.293 HD
ENDBRANCH   9  11
TORSDOF 1
ENDMDL
MODEL 2
REMARK VINA RESULT:    -1.755      1.852      1.947
REMARK INTER + INTRA:          -1.806
REMARK INTER:                  -1.806
REMARK INTRA:                   0.000
REMARK UNBOUND:                 0.000
REMARK SMILES Oc1ccc2[nH]ccc2c1
REMARK SMILES IDX 3 1 4 2 5 3 9 4 8 5 7 6 6 7 10 8 2 9 1 11
REMARK H PARENT 6 10 1 12
REMARK Flexibility Score: inf
ROOT
ATOM      1  C   UNL     1      14.285   8.165 130.711  1.00  0.00     0.048 A 
ATOM      2  C   UNL     1      15.155   9.253 130.522  1.00  0.00     0.030 A 
ATOM      3  C   UNL     1      16.292   9.325 131.324  1.00  0.00     0.046 A 
ATOM      4  C   UNL     1      16.566   8.375 132.271  1.00  0.00     0.003 A 
ATOM      5  C   UNL     1      17.747   8.733 132.886  1.00  0.00     0.028 A 
ATOM      6  C   UNL     1      18.137   9.913 132.262  1.00  0.00     0.083 A 
ATOM      7  N   UNL     1      17.245  10.271 131.308  1.00  0.00    -0.361 N 
ATOM      8  C   UNL     1      15.725   7.285 132.486  1.00  0.00     0.056 A 
ATOM      9  C   UNL     1      14.565   7.182 131.689  1.00  0.00     0.116 A 
ATOM     10  H   UNL     1      17.293  11.111 130.690  1.00  0.00     0.166 HD
ENDROOT
BRANCH   9  11
ATOM     11  O   UNL     1      13.687   6.113 131.857  1.00  0.00    -0.508 OA
ATOM     12  H   UNL     1      13.077   5.807 131.108  1.00  0.00     0.293 HD
ENDBRANCH   9  11
TORSDOF 1
ENDMDL
MODEL 3
REMARK VINA RESULT:    -1.611      2.643      4.104
REMARK INTER + INTRA:          -1.658
REMARK INTER:                  -1.658
REMARK INTRA:                   0.000
REMARK UNBOUND:                 0.000
REMARK SMILES Oc1ccc2[nH]ccc2c1
REMARK SMILES IDX 3 1 4 2 5 3 9 4 8 5 7 6 6 7 10 8 2 9 1 11
REMARK H PARENT 6 10 1 12
REMARK Flexibility Score: inf
ROOT
ATOM      1  C   UNL     1      18.338   8.732 133.262  1.00  0.00     0.048 A 
ATOM      2  C   UNL     1      17.079   9.171 133.707  1.00  0.00     0.030 A 
ATOM      3  C   UNL     1      15.979   8.940 132.883  1.00  0.00     0.046 A 
ATOM      4  C   UNL     1      16.106   8.307 131.675  1.00  0.00     0.003 A 
ATOM      5  C   UNL     1      14.849   8.236 131.113  1.00  0.00     0.028 A 
ATOM      6  C   UNL     1      14.005   8.846 132.035  1.00  0.00     0.083 A 
ATOM      7  N   UNL     1      14.700   9.275 133.115  1.00  0.00    -0.361 N 
ATOM      8  C   UNL     1      17.338   7.860 131.203  1.00  0.00     0.056 A 
ATOM      9  C   UNL     1      18.472   8.078 132.015  1.00  0.00     0.116 A 
ATOM     10  H   UNL     1      14.315   9.764 133.952  1.00  0.00     0.166 HD
ENDROOT
BRANCH   9  11
ATOM     11  O   UNL     1      19.731   7.652 131.596  1.00  0.00    -0.508 OA
ATOM     12  H   UNL     1      20.361   7.166 132.224  1.00  0.00     0.293 HD
ENDBRANCH   9  11
TORSDOF 1
ENDMDL
MODEL 4
REMARK VINA RESULT:    -1.342      2.464      3.750
REMARK INTER + INTRA:          -1.382
REMARK INTER:                  -1.382
REMARK INTRA:                   0.000
REMARK UNBOUND:                 0.000
REMARK SMILES Oc1ccc2[nH]ccc2c1
REMARK SMILES IDX 3 1 4 2 5 3 9 4 8 5 7 6 6 7 10 8 2 9 1 11
REMARK H PARENT 6 10 1 12
REMARK Flexibility Score: inf
ROOT
ATOM      1  C   UNL     1      18.186   9.135 132.560  1.00  0.00     0.048 A 
ATOM      2  C   UNL     1      17.315   8.066 132.834  1.00  0.00     0.030 A 
ATOM      3  C   UNL     1      16.082   8.047 132.186  1.00  0.00     0.046 A 
ATOM      4  C   UNL     1      15.715   9.032 131.307  1.00  0.00     0.003 A 
ATOM      5  C   UNL     1      14.454   8.724 130.845  1.00  0.00     0.028 A 
ATOM      6  C   UNL     1      14.113   7.536 131.484  1.00  0.00     0.083 A 
ATOM      7  N   UNL     1      15.111   7.127 132.302  1.00  0.00    -0.361 N 
ATOM      8  C   UNL     1      16.553  10.106 131.014  1.00  0.00     0.056 A 
ATOM      9  C   UNL     1      17.810  10.155 131.654  1.00  0.00     0.116 A 
ATOM     10  H   UNL     1      15.119   6.271 132.899  1.00  0.00     0.166 HD
ENDROOT
BRANCH   9  11
ATOM     11  O   UNL     1      18.691  11.204 131.400  1.00  0.00    -0.508 OA
ATOM     12  H   UNL     1      19.309  11.561 132.119  1.00  0.00     0.293 HD
ENDBRANCH   9  11
TORSDOF 1
ENDMDL
MODEL 5
REMARK VINA RESULT:    -1.123      7.512      8.863
REMARK INTER + INTRA:          -1.156
REMARK INTER:                  -1.156
REMARK INTRA:                   0.000
REMARK UNBOUND:                 0.000
REMARK SMILES Oc1ccc2[nH]ccc2c1
REMARK SMILES IDX 3 1 4 2 5 3 9 4 8 5 7 6 6 7 10 8 2 9 1 11
REMARK H PARENT 6 10 1 12
REMARK Flexibility Score: inf
ROOT
ATOM      1  C   UNL     1      21.556   5.570 140.358  1.00  0.00     0.048 A 
ATOM      2  C   UNL     1      21.859   6.260 139.170  1.00  0.00     0.030 A 
ATOM      3  C   UNL     1      20.861   7.049 138.602  1.00  0.00     0.046 A 
ATOM      4  C   UNL     1      19.620   7.160 139.171  1.00  0.00     0.003 A 
ATOM      5  C   UNL     1      18.875   8.002 138.375  1.00  0.00     0.028 A 
ATOM      6  C   UNL     1      19.727   8.368 137.338  1.00  0.00     0.083 A 
ATOM      7  N   UNL     1      20.939   7.783 137.481  1.00  0.00    -0.361 N 
ATOM      8  C   UNL     1      19.287   6.490 140.347  1.00  0.00     0.056 A 
ATOM      9  C   UNL     1      20.275   5.682 140.948  1.00  0.00     0.116 A 
ATOM     10  H   UNL     1      21.762   7.885 136.847  1.00  0.00     0.166 HD
ENDROOT
BRANCH   9  11
ATOM     11  O   UNL     1      20.000   4.989 142.125  1.00  0.00    -0.508 OA
ATOM     12  H   UNL     1      20.086   5.433 143.032  1.00  0.00     0.293 HD
ENDBRANCH   9  11
TORSDOF 1
ENDMDL
MODEL 6
REMARK VINA RESULT:    -0.994      7.413      8.655
REMARK INTER + INTRA:          -1.023
REMARK INTER:                  -1.023
REMARK INTRA:                   0.000
REMARK UNBOUND:                 0.000
REMARK SMILES Oc1ccc2[nH]ccc2c1
REMARK SMILES IDX 3 1 4 2 5 3 9 4 8 5 7 6 6 7 10 8 2 9 1 11
REMARK H PARENT 6 10 1 12
REMARK Flexibility Score: inf
ROOT
ATOM      1  C   UNL     1      19.217   8.044 137.985  1.00  0.00     0.048 A 
ATOM      2  C   UNL     1      18.883   7.830 139.334  1.00  0.00     0.030 A 
ATOM      3  C   UNL     1      19.646   6.915 140.057  1.00  0.00     0.046 A 
ATOM      4  C   UNL     1      20.691   6.238 139.485  1.00  0.00     0.003 A 
ATOM      5  C   UNL     1      21.232   5.420 140.453  1.00  0.00     0.028 A 
ATOM      6  C   UNL     1      20.467   5.651 141.592  1.00  0.00     0.083 A 
ATOM      7  N   UNL     1      19.499   6.565 141.345  1.00  0.00    -0.361 N 
ATOM      8  C   UNL     1      21.048   6.426 138.151  1.00  0.00     0.056 A 
ATOM      9  C   UNL     1      20.295   7.346 137.391  1.00  0.00     0.116 A 
ATOM     10  H   UNL     1      18.787   6.921 142.020  1.00  0.00     0.166 HD
ENDROOT
BRANCH   9  11
ATOM     11  O   UNL     1      20.606   7.576 136.053  1.00  0.00    -0.508 OA
ATOM     12  H   UNL     1      20.510   8.496 135.638  1.00  0.00     0.293 HD
ENDBRANCH   9  11
TORSDOF 1
ENDMDL
MODEL 7
REMARK VINA RESULT:    -0.924      2.646      3.753
REMARK INTER + INTRA:          -0.951
REMARK INTER:                  -0.951
REMARK INTRA:                   0.000
REMARK UNBOUND:                 0.000
REMARK SMILES Oc1ccc2[nH]ccc2c1
REMARK SMILES IDX 3 1 4 2 5 3 9 4 8 5 7 6 6 7 10 8 2 9 1 11
REMARK H PARENT 6 10 1 12
REMARK Flexibility Score: inf
ROOT
ATOM      1  C   UNL     1      17.864   9.879 131.962  1.00  0.00     0.048 A 
ATOM      2  C   UNL     1      16.599  10.119 131.396  1.00  0.00     0.030 A 
ATOM      3  C   UNL     1      15.688   9.066 131.366  1.00  0.00     0.046 A 
ATOM      4  C   UNL     1      16.000   7.830 131.867  1.00  0.00     0.003 A 
ATOM      5  C   UNL     1      14.899   7.021 131.687  1.00  0.00     0.028 A 
ATOM      6  C   UNL     1      13.951   7.831 131.070  1.00  0.00     0.083 A 
ATOM      7  N   UNL     1      14.438   9.079 130.876  1.00  0.00    -0.361 N 
ATOM      8  C   UNL     1      17.244   7.557 132.433  1.00  0.00     0.056 A 
ATOM      9  C   UNL     1      18.190   8.604 132.479  1.00  0.00     0.116 A 
ATOM     10  H   UNL     1      13.939   9.884 130.436  1.00  0.00     0.166 HD
ENDROOT
BRANCH   9  11
ATOM     11  O   UNL     1      19.450   8.391 133.034  1.00  0.00    -0.508 OA
ATOM     12  H   UNL     1      19.635   7.599 133.638  1.00  0.00     0.293 HD
ENDBRANCH   9  11
TORSDOF 1
ENDMDL
MODEL 8
REMARK VINA RESULT:    -0.826      1.547      2.177
REMARK INTER + INTRA:          -0.850
REMARK INTER:                  -0.850
REMARK INTRA:                   0.000
REMARK UNBOUND:                 0.000
REMARK SMILES Oc1ccc2[nH]ccc2c1
REMARK SMILES IDX 3 1 4 2 5 3 9 4 8 5 7 6 6 7 10 8 2 9 1 11
REMARK H PARENT 6 10 1 12
REMARK Flexibility Score: inf
ROOT
ATOM      1  C   UNL     1      14.345   8.827 132.354  1.00  0.00     0.048 A 
ATOM      2  C   UNL     1      15.388   9.406 133.099  1.00  0.00     0.030 A 
ATOM      3  C   UNL     1      16.687   8.970 132.850  1.00  0.00     0.046 A 
ATOM      4  C   UNL     1      16.956   8.009 131.912  1.00  0.00     0.003 A 
ATOM      5  C   UNL     1      18.319   7.804 131.909  1.00  0.00     0.028 A 
ATOM      6  C   UNL     1      18.818   8.676 132.871  1.00  0.00     0.083 A 
ATOM      7  N   UNL     1      17.818   9.386 133.443  1.00  0.00    -0.361 N 
ATOM      8  C   UNL     1      15.947   7.414 131.156  1.00  0.00     0.056 A 
ATOM      9  C   UNL     1      14.619   7.834 131.385  1.00  0.00     0.116 A 
ATOM     10  H   UNL     1      17.911  10.108 134.191  1.00  0.00     0.166 HD
ENDROOT
BRANCH   9  11
ATOM     11  O   UNL     1      13.568   7.277 130.659  1.00  0.00    -0.508 OA
ATOM     12  H   UNL     1      12.672   7.082 131.091  1.00  0.00     0.293 HD
ENDBRANCH   9  11
TORSDOF 1
ENDMDL
MODEL 9
REMARK VINA RESULT:    -0.781      8.006      9.498
REMARK INTER + INTRA:          -0.804
REMARK INTER:                  -0.804
REMARK INTRA:                   0.000
REMARK UNBOUND:                 0.000
REMARK SMILES Oc1ccc2[nH]ccc2c1
REMARK SMILES IDX 3 1 4 2 5 3 9 4 8 5 7 6 6 7 10 8 2 9 1 11
REMARK H PARENT 6 10 1 12
REMARK Flexibility Score: inf
ROOT
ATOM      1  C   UNL     1      21.629   5.590 140.871  1.00  0.00     0.048 A 
ATOM      2  C   UNL     1      20.358   6.192 140.859  1.00  0.00     0.030 A 
ATOM      3  C   UNL     1      19.979   6.893 139.716  1.00  0.00     0.046 A 
ATOM      4  C   UNL     1      20.809   7.002 138.631  1.00  0.00     0.003 A 
ATOM      5  C   UNL     1      20.148   7.750 137.680  1.00  0.00     0.028 A 
ATOM      6  C   UNL     1      18.920   8.062 138.254  1.00  0.00     0.083 A 
ATOM      7  N   UNL     1      18.821   7.537 139.497  1.00  0.00    -0.361 N 
ATOM      8  C   UNL     1      22.074   6.420 138.610  1.00  0.00     0.056 A 
ATOM      9  C   UNL     1      22.488   5.702 139.753  1.00  0.00     0.116 A 
ATOM     10  H   UNL     1      18.010   7.618 140.149  1.00  0.00     0.166 HD
ENDROOT
BRANCH   9  11
ATOM     11  O   UNL     1      23.742   5.096 139.790  1.00  0.00    -0.508 OA
ATOM     12  H   UNL     1      24.425   5.249 139.056  1.00  0.00     0.293 HD
ENDBRANCH   9  11
TORSDOF 1
ENDMDL
