MODEL 1
REMARK VINA RESULT:    -4.960      0.000      0.000
REMARK INTER + INTRA:         -15.203
REMARK INTER:                 -12.499
REMARK INTRA:                  -2.704
REMARK UNBOUND:                -2.704
REMARK SMILES CCCCCCCCCCCCCCCCCCCCCCCCCCCC(=O)[O-]
REMARK SMILES IDX 15 1 16 2 17 3 18 4 19 5 20 6 21 7 22 8 23 9 24 10 25 11
REMARK SMILES IDX 26 12 27 13 28 14 29 15 30 16 14 17 13 18 12 19 11 20 10 21
REMARK SMILES IDX 9 22 8 23 7 24 6 25 5 26 4 27 3 28 2 29 1 30
REMARK H PARENT
REMARK Flexibility Score: inf
ROOT
ATOM      1  C   UNL     1      22.290  -7.351 -37.159  1.00  0.00     0.000 C 
ENDROOT
BRANCH   1   2
ATOM      2  C   UNL     1      23.197  -6.256 -36.560  1.00  0.00     0.000 C 
BRANCH   2   3
ATOM      3  C   UNL     1      22.530  -4.880 -36.382  1.00  0.00     0.000 C 
BRANCH   3   4
ATOM      4  C   UNL     1      21.253  -4.723 -37.224  1.00  0.00     0.000 C 
BRANCH   4   5
ATOM      5  C   UNL     1      21.285  -3.488 -38.144  1.00  0.00     0.000 C 
BRANCH   5   6
ATOM      6  C   UNL     1      21.544  -3.783 -39.632  1.00  0.00     0.000 C 
BRANCH   6   7
ATOM      7  C   UNL     1      22.383  -5.044 -39.910  1.00  0.00     0.000 C 
BRANCH   7   8
ATOM      8  C   UNL     1      23.905  -4.787 -39.934  1.00  0.00     0.000 C 
BRANCH   8   9
ATOM      9  C   UNL     1      24.248  -3.287 -39.945  1.00  0.00     0.000 C 
BRANCH   9  10
ATOM     10  C   UNL     1      25.011  -2.849 -38.684  1.00  0.00     0.000 C 
BRANCH  10  11
ATOM     11  C   UNL     1      25.869  -3.981 -38.089  1.00  0.00     0.000 C 
BRANCH  11  12
ATOM     12  C   UNL     1      27.378  -3.778 -38.323  1.00  0.00     0.006 C 
BRANCH  12  13
ATOM     13  C   UNL     1      28.241  -4.971 -37.880  1.00  0.00     0.053 C 
BRANCH  13  14
ATOM     14  C   UNL     1      27.486  -6.265 -37.898  1.00  0.00     0.041 C 
ATOM     15  O   UNL     1      27.039  -6.723 -38.983  1.00  0.00    -0.550 OA
ATOM     16  O   UNL     1      27.295  -6.977 -36.722  1.00  0.00    -0.550 OA
ENDBRANCH  13  14
ENDBRANCH  12  13
ENDBRANCH  11  12
ENDBRANCH  10  11
ENDBRANCH   9  10
ENDBRANCH   8   9
ENDBRANCH   7   8
ENDBRANCH   6   7
ENDBRANCH   5   6
ENDBRANCH   4   5
ENDBRANCH   3   4
ENDBRANCH   2   3
ENDBRANCH   1   2
BRANCH   1  17
ATOM     17  C   UNL     1      22.952  -8.234 -38.235  1.00  0.00     0.000 C 
BRANCH  17  18
ATOM     18  C   UNL     1      24.454  -8.511 -38.021  1.00  0.00     0.000 C 
BRANCH  18  19
ATOM     19  C   UNL     1      25.054  -9.577 -38.955  1.00  0.00     0.000 C 
BRANCH  19  20
ATOM     20  C   UNL     1      24.276  -9.718 -40.274  1.00  0.00     0.000 C 
BRANCH  20  21
ATOM     21  C   UNL     1      24.653 -10.994 -41.045  1.00  0.00     0.000 C 
BRANCH  21  22
ATOM     22  C   UNL     1      25.063 -12.146 -40.110  1.00  0.00    -0.000 C 
BRANCH  22  23
ATOM     23  C   UNL     1      24.695 -13.527 -40.692  1.00  0.00    -0.000 C 
BRANCH  23  24
ATOM     24  C   UNL     1      24.447 -14.602 -39.620  1.00  0.00    -0.000 C 
BRANCH  24  25
ATOM     25  C   UNL     1      23.980 -15.939 -40.217  1.00  0.00    -0.000 C 
BRANCH  25  26
ATOM     26  C   UNL     1      24.079 -15.980 -41.752  1.00  0.00    -0.000 C 
BRANCH  26  27
ATOM     27  C   UNL     1      24.304 -17.379 -42.362  1.00  0.00    -0.000 C 
BRANCH  27  28
ATOM     28  C   UNL     1      25.700 -17.981 -42.118  1.00  0.00    -0.000 C 
BRANCH  28  29
ATOM     29  C   UNL     1      25.791 -19.457 -42.529  1.00  0.00    -0.003 C 
ATOM     30  C   UNL     1      27.239 -19.869 -42.783  1.00  0.00     0.004 C 
ENDBRANCH  28  29
ENDBRANCH  27  28
ENDBRANCH  26  27
ENDBRANCH  25  26
ENDBRANCH  24  25
ENDBRANCH  23  24
ENDBRANCH  22  23
ENDBRANCH  21  22
ENDBRANCH  20  21
ENDBRANCH  19  20
ENDBRANCH  18  19
ENDBRANCH  17  18
ENDBRANCH   1  17
TORSDOF 26
ENDMDL
MODEL 2
REMARK VINA RESULT:    -4.924      3.644     10.962
REMARK INTER + INTRA:         -15.113
REMARK INTER:                 -12.473
REMARK INTRA:                  -2.641
REMARK UNBOUND:                -2.704
REMARK SMILES CCCCCCCCCCCCCCCCCCCCCCCCCCCC(=O)[O-]
REMARK SMILES IDX 15 1 16 2 17 3 18 4 19 5 20 6 21 7 22 8 23 9 24 10 25 11
REMARK SMILES IDX 26 12 27 13 28 14 29 15 30 16 14 17 13 18 12 19 11 20 10 21
REMARK SMILES IDX 9 22 8 23 7 24 6 25 5 26 4 27 3 28 2 29 1 30
REMARK H PARENT
REMARK Flexibility Score: inf
ROOT
ATOM      1  C   UNL     1      23.129  -8.241 -38.031  1.00  0.00     0.000 C 
ENDROOT
BRANCH   1   2
ATOM      2  C   UNL     1      24.668  -8.241 -38.140  1.00  0.00     0.000 C 
BRANCH   2   3
ATOM      3  C   UNL     1      25.244  -9.126 -39.261  1.00  0.00     0.000 C 
BRANCH   3   4
ATOM      4  C   UNL     1      24.157  -9.697 -40.187  1.00  0.00     0.000 C 
BRANCH   4   5
ATOM      5  C   UNL     1      24.632 -10.926 -40.986  1.00  0.00     0.000 C 
BRANCH   5   6
ATOM      6  C   UNL     1      25.045 -12.142 -40.138  1.00  0.00     0.000 C 
BRANCH   6   7
ATOM      7  C   UNL     1      24.648 -13.511 -40.723  1.00  0.00     0.000 C 
BRANCH   7   8
ATOM      8  C   UNL     1      24.421 -14.602 -39.656  1.00  0.00     0.000 C 
BRANCH   8   9
ATOM      9  C   UNL     1      23.697 -15.837 -40.220  1.00  0.00     0.000 C 
BRANCH   9  10
ATOM     10  C   UNL     1      24.665 -16.849 -40.854  1.00  0.00     0.000 C 
BRANCH  10  11
ATOM     11  C   UNL     1      24.554 -16.892 -42.389  1.00  0.00     0.000 C 
BRANCH  11  12
ATOM     12  C   UNL     1      25.781 -17.537 -43.062  1.00  0.00     0.006 C 
BRANCH  12  13
ATOM     13  C   UNL     1      26.237 -18.847 -42.397  1.00  0.00     0.053 C 
BRANCH  13  14
ATOM     14  C   UNL     1      27.421 -19.457 -43.082  1.00  0.00     0.041 C 
ATOM     15  O   UNL     1      28.573 -18.980 -42.901  1.00  0.00    -0.550 OA
ATOM     16  O   UNL     1      27.258 -20.567 -43.901  1.00  0.00    -0.550 OA
ENDBRANCH  13  14
ENDBRANCH  12  13
ENDBRANCH  11  12
ENDBRANCH  10  11
ENDBRANCH   9  10
ENDBRANCH   8   9
ENDBRANCH   7   8
ENDBRANCH   6   7
ENDBRANCH   5   6
ENDBRANCH   4   5
ENDBRANCH   3   4
ENDBRANCH   2   3
ENDBRANCH   1   2
BRANCH   1  17
ATOM     17  C   UNL     1      22.535  -7.123 -37.150  1.00  0.00     0.000 C 
BRANCH  17  18
ATOM     18  C   UNL     1      23.566  -6.303 -36.349  1.00  0.00     0.000 C 
BRANCH  18  19
ATOM     19  C   UNL     1      23.222  -4.812 -36.189  1.00  0.00     0.000 C 
BRANCH  19  20
ATOM     20  C   UNL     1      21.707  -4.556 -36.106  1.00  0.00     0.000 C 
BRANCH  20  21
ATOM     21  C   UNL     1      21.202  -3.646 -37.237  1.00  0.00     0.000 C 
BRANCH  21  22
ATOM     22  C   UNL     1      20.696  -4.442 -38.452  1.00  0.00    -0.000 C 
BRANCH  22  23
ATOM     23  C   UNL     1      21.834  -4.794 -39.434  1.00  0.00    -0.000 C 
BRANCH  23  24
ATOM     24  C   UNL     1      22.757  -3.607 -39.757  1.00  0.00    -0.000 C 
BRANCH  24  25
ATOM     25  C   UNL     1      24.245  -3.992 -39.746  1.00  0.00    -0.000 C 
BRANCH  25  26
ATOM     26  C   UNL     1      25.137  -2.927 -39.082  1.00  0.00    -0.000 C 
BRANCH  26  27
ATOM     27  C   UNL     1      26.441  -3.458 -38.451  1.00  0.00    -0.000 C 
BRANCH  27  28
ATOM     28  C   UNL     1      26.360  -4.891 -37.893  1.00  0.00    -0.000 C 
BRANCH  28  29
ATOM     29  C   UNL     1      27.649  -5.693 -38.123  1.00  0.00    -0.003 C 
ATOM     30  C   UNL     1      27.753  -6.859 -37.144  1.00  0.00     0.004 C 
ENDBRANCH  28  29
ENDBRANCH  27  28
ENDBRANCH  26  27
ENDBRANCH  25  26
ENDBRANCH  24  25
ENDBRANCH  23  24
ENDBRANCH  22  23
ENDBRANCH  21  22
ENDBRANCH  20  21
ENDBRANCH  19  20
ENDBRANCH  18  19
ENDBRANCH  17  18
ENDBRANCH   1  17
TORSDOF 26
ENDMDL
MODEL 3
REMARK VINA RESULT:    -4.874      2.161      3.855
REMARK INTER + INTRA:         -14.987
REMARK INTER:                 -12.219
REMARK INTRA:                  -2.769
REMARK UNBOUND:                -2.704
REMARK SMILES CCCCCCCCCCCCCCCCCCCCCCCCCCCC(=O)[O-]
REMARK SMILES IDX 15 1 16 2 17 3 18 4 19 5 20 6 21 7 22 8 23 9 24 10 25 11
REMARK SMILES IDX 26 12 27 13 28 14 29 15 30 16 14 17 13 18 12 19 11 20 10 21
REMARK SMILES IDX 9 22 8 23 7 24 6 25 5 26 4 27 3 28 2 29 1 30
REMARK H PARENT
REMARK Flexibility Score: inf
ROOT
ATOM      1  C   UNL     1      21.927  -6.433 -39.319  1.00  0.00     0.000 C 
ENDROOT
BRANCH   1   2
ATOM      2  C   UNL     1      22.497  -5.239 -40.113  1.00  0.00     0.000 C 
BRANCH   2   3
ATOM      3  C   UNL     1      24.001  -4.976 -39.908  1.00  0.00     0.000 C 
BRANCH   3   4
ATOM      4  C   UNL     1      24.316  -3.497 -39.633  1.00  0.00     0.000 C 
BRANCH   4   5
ATOM      5  C   UNL     1      25.251  -3.294 -38.426  1.00  0.00     0.000 C 
BRANCH   5   6
ATOM      6  C   UNL     1      26.744  -3.549 -38.701  1.00  0.00     0.000 C 
BRANCH   6   7
ATOM      7  C   UNL     1      27.400  -4.617 -37.804  1.00  0.00     0.000 C 
BRANCH   7   8
ATOM      8  C   UNL     1      26.827  -6.036 -38.005  1.00  0.00     0.000 C 
BRANCH   8   9
ATOM      9  C   UNL     1      26.149  -6.582 -36.735  1.00  0.00     0.000 C 
BRANCH   9  10
ATOM     10  C   UNL     1      24.621  -6.670 -36.875  1.00  0.00     0.000 C 
BRANCH  10  11
ATOM     11  C   UNL     1      23.881  -5.940 -35.739  1.00  0.00     0.000 C 
BRANCH  11  12
ATOM     12  C   UNL     1      23.340  -4.560 -36.163  1.00  0.00     0.006 C 
BRANCH  12  13
ATOM     13  C   UNL     1      21.818  -4.531 -36.382  1.00  0.00     0.053 C 
BRANCH  13  14
ATOM     14  C   UNL     1      21.321  -3.176 -36.783  1.00  0.00     0.041 C 
ATOM     15  O   UNL     1      21.337  -2.225 -35.957  1.00  0.00    -0.550 OA
ATOM     16  O   UNL     1      20.863  -2.955 -38.075  1.00  0.00    -0.550 OA
ENDBRANCH  13  14
ENDBRANCH  12  13
ENDBRANCH  11  12
ENDBRANCH  10  11
ENDBRANCH   9  10
ENDBRANCH   8   9
ENDBRANCH   7   8
ENDBRANCH   6   7
ENDBRANCH   5   6
ENDBRANCH   4   5
ENDBRANCH   3   4
ENDBRANCH   2   3
ENDBRANCH   1   2
BRANCH   1  17
ATOM     17  C   UNL     1      22.293  -7.824 -39.875  1.00  0.00     0.000 C 
BRANCH  17  18
ATOM     18  C   UNL     1      23.316  -8.616 -39.036  1.00  0.00     0.000 C 
BRANCH  18  19
ATOM     19  C   UNL     1      24.721  -8.716 -39.656  1.00  0.00     0.000 C 
BRANCH  19  20
ATOM     20  C   UNL     1      25.362 -10.100 -39.456  1.00  0.00     0.000 C 
BRANCH  20  21
ATOM     21  C   UNL     1      24.933 -11.108 -40.535  1.00  0.00     0.000 C 
BRANCH  21  22
ATOM     22  C   UNL     1      25.072 -12.567 -40.066  1.00  0.00    -0.000 C 
BRANCH  22  23
ATOM     23  C   UNL     1      24.318 -13.549 -40.988  1.00  0.00    -0.000 C 
BRANCH  23  24
ATOM     24  C   UNL     1      24.222 -14.975 -40.421  1.00  0.00    -0.000 C 
BRANCH  24  25
ATOM     25  C   UNL     1      23.207 -15.848 -41.177  1.00  0.00    -0.000 C 
BRANCH  25  26
ATOM     26  C   UNL     1      23.873 -16.851 -42.136  1.00  0.00    -0.000 C 
BRANCH  26  27
ATOM     27  C   UNL     1      25.169 -17.504 -41.611  1.00  0.00    -0.000 C 
BRANCH  27  28
ATOM     28  C   UNL     1      25.871 -18.450 -42.602  1.00  0.00    -0.000 C 
BRANCH  28  29
ATOM     29  C   UNL     1      25.958 -19.893 -42.086  1.00  0.00    -0.003 C 
ATOM     30  C   UNL     1      27.201 -20.596 -42.625  1.00  0.00     0.004 C 
ENDBRANCH  28  29
ENDBRANCH  27  28
ENDBRANCH  26  27
ENDBRANCH  25  26
ENDBRANCH  24  25
ENDBRANCH  23  24
ENDBRANCH  22  23
ENDBRANCH  21  22
ENDBRANCH  20  21
ENDBRANCH  19  20
ENDBRANCH  18  19
ENDBRANCH  17  18
ENDBRANCH   1  17
TORSDOF 26
ENDMDL
MODEL 4
REMARK VINA RESULT:    -4.871      3.806     11.428
REMARK INTER + INTRA:         -14.979
REMARK INTER:                 -11.905
REMARK INTRA:                  -3.074
REMARK UNBOUND:                -2.704
REMARK SMILES CCCCCCCCCCCCCCCCCCCCCCCCCCCC(=O)[O-]
REMARK SMILES IDX 15 1 16 2 17 3 18 4 19 5 20 6 21 7 22 8 23 9 24 10 25 11
REMARK SMILES IDX 26 12 27 13 28 14 29 15 30 16 14 17 13 18 12 19 11 20 10 21
REMARK SMILES IDX 9 22 8 23 7 24 6 25 5 26 4 27 3 28 2 29 1 30
REMARK H PARENT
REMARK Flexibility Score: inf
ROOT
ATOM      1  C   UNL     1      23.054  -8.127 -38.050  1.00  0.00     0.000 C 
ENDROOT
BRANCH   1   2
ATOM      2  C   UNL     1      24.515  -8.619 -38.036  1.00  0.00     0.000 C 
BRANCH   2   3
ATOM      3  C   UNL     1      25.090  -9.000 -39.413  1.00  0.00     0.000 C 
BRANCH   3   4
ATOM      4  C   UNL     1      24.087  -9.772 -40.285  1.00  0.00     0.000 C 
BRANCH   4   5
ATOM      5  C   UNL     1      24.716 -10.983 -40.999  1.00  0.00     0.000 C 
BRANCH   5   6
ATOM      6  C   UNL     1      25.045 -12.183 -40.093  1.00  0.00     0.000 C 
BRANCH   6   7
ATOM      7  C   UNL     1      24.690 -13.562 -40.682  1.00  0.00     0.000 C 
BRANCH   7   8
ATOM      8  C   UNL     1      24.342 -14.623 -39.617  1.00  0.00     0.000 C 
BRANCH   8   9
ATOM      9  C   UNL     1      23.346 -15.674 -40.138  1.00  0.00     0.000 C 
BRANCH   9  10
ATOM     10  C   UNL     1      23.878 -16.432 -41.366  1.00  0.00     0.000 C 
BRANCH  10  11
ATOM     11  C   UNL     1      25.092 -17.318 -41.033  1.00  0.00     0.000 C 
BRANCH  11  12
ATOM     12  C   UNL     1      25.743 -17.940 -42.284  1.00  0.00     0.006 C 
BRANCH  12  13
ATOM     13  C   UNL     1      25.548 -19.462 -42.393  1.00  0.00     0.053 C 
BRANCH  13  14
ATOM     14  C   UNL     1      26.831 -20.188 -42.656  1.00  0.00     0.041 C 
ATOM     15  O   UNL     1      27.836 -19.563 -43.088  1.00  0.00    -0.550 OA
ATOM     16  O   UNL     1      26.927 -21.550 -42.402  1.00  0.00    -0.550 OA
ENDBRANCH  13  14
ENDBRANCH  12  13
ENDBRANCH  11  12
ENDBRANCH  10  11
ENDBRANCH   9  10
ENDBRANCH   8   9
ENDBRANCH   7   8
ENDBRANCH   6   7
ENDBRANCH   5   6
ENDBRANCH   4   5
ENDBRANCH   3   4
ENDBRANCH   2   3
ENDBRANCH   1   2
BRANCH   1  17
ATOM     17  C   UNL     1      22.740  -6.976 -37.073  1.00  0.00     0.000 C 
BRANCH  17  18
ATOM     18  C   UNL     1      23.926  -6.517 -36.201  1.00  0.00     0.000 C 
BRANCH  18  19
ATOM     19  C   UNL     1      24.534  -5.160 -36.601  1.00  0.00     0.000 C 
BRANCH  19  20
ATOM     20  C   UNL     1      25.842  -5.307 -37.398  1.00  0.00     0.000 C 
BRANCH  20  21
ATOM     21  C   UNL     1      26.062  -4.146 -38.383  1.00  0.00     0.000 C 
BRANCH  21  22
ATOM     22  C   UNL     1      24.820  -3.249 -38.522  1.00  0.00    -0.000 C 
BRANCH  22  23
ATOM     23  C   UNL     1      24.047  -3.522 -39.830  1.00  0.00    -0.000 C 
BRANCH  23  24
ATOM     24  C   UNL     1      23.608  -4.987 -39.991  1.00  0.00    -0.000 C 
BRANCH  24  25
ATOM     25  C   UNL     1      22.095  -5.132 -40.222  1.00  0.00    -0.000 C 
BRANCH  25  26
ATOM     26  C   UNL     1      21.295  -3.906 -39.747  1.00  0.00    -0.000 C 
BRANCH  26  27
ATOM     27  C   UNL     1      20.931  -3.897 -38.247  1.00  0.00    -0.000 C 
BRANCH  27  28
ATOM     28  C   UNL     1      20.922  -2.506 -37.586  1.00  0.00    -0.000 C 
BRANCH  28  29
ATOM     29  C   UNL     1      21.853  -2.422 -36.368  1.00  0.00    -0.003 C 
ATOM     30  C   UNL     1      21.677  -3.634 -35.457  1.00  0.00     0.004 C 
ENDBRANCH  28  29
ENDBRANCH  27  28
ENDBRANCH  26  27
ENDBRANCH  25  26
ENDBRANCH  24  25
ENDBRANCH  23  24
ENDBRANCH  22  23
ENDBRANCH  21  22
ENDBRANCH  20  21
ENDBRANCH  19  20
ENDBRANCH  18  19
ENDBRANCH  17  18
ENDBRANCH   1  17
TORSDOF 26
ENDMDL
MODEL 5
REMARK VINA RESULT:    -4.866      3.366     10.430
REMARK INTER + INTRA:         -14.966
REMARK INTER:                 -11.688
REMARK INTRA:                  -3.278
REMARK UNBOUND:                -2.704
REMARK SMILES CCCCCCCCCCCCCCCCCCCCCCCCCCCC(=O)[O-]
REMARK SMILES IDX 15 1 16 2 17 3 18 4 19 5 20 6 21 7 22 8 23 9 24 10 25 11
REMARK SMILES IDX 26 12 27 13 28 14 29 15 30 16 14 17 13 18 12 19 11 20 10 21
REMARK SMILES IDX 9 22 8 23 7 24 6 25 5 26 4 27 3 28 2 29 1 30
REMARK H PARENT
REMARK Flexibility Score: inf
ROOT
ATOM      1  C   UNL     1      22.289  -4.568 -39.736  1.00  0.00     0.000 C 
ENDROOT
BRANCH   1   2
ATOM      2  C   UNL     1      22.693  -5.993 -40.164  1.00  0.00     0.000 C 
BRANCH   2   3
ATOM      3  C   UNL     1      21.870  -7.126 -39.522  1.00  0.00     0.000 C 
BRANCH   3   4
ATOM      4  C   UNL     1      22.745  -8.283 -39.011  1.00  0.00     0.000 C 
BRANCH   4   5
ATOM      5  C   UNL     1      23.685  -8.850 -40.092  1.00  0.00     0.000 C 
BRANCH   5   6
ATOM      6  C   UNL     1      24.738  -9.853 -39.587  1.00  0.00     0.000 C 
BRANCH   6   7
ATOM      7  C   UNL     1      25.025 -11.031 -40.536  1.00  0.00     0.000 C 
BRANCH   7   8
ATOM      8  C   UNL     1      25.020 -12.408 -39.839  1.00  0.00     0.000 C 
BRANCH   8   9
ATOM      9  C   UNL     1      24.646 -13.552 -40.798  1.00  0.00     0.000 C 
BRANCH   9  10
ATOM     10  C   UNL     1      24.249 -14.838 -40.054  1.00  0.00     0.000 C 
BRANCH  10  11
ATOM     11  C   UNL     1      23.370 -15.768 -40.911  1.00  0.00     0.000 C 
BRANCH  11  12
ATOM     12  C   UNL     1      24.155 -16.464 -42.040  1.00  0.00     0.006 C 
BRANCH  12  13
ATOM     13  C   UNL     1      25.004 -17.654 -41.563  1.00  0.00     0.053 C 
BRANCH  13  14
ATOM     14  C   UNL     1      25.961 -18.133 -42.611  1.00  0.00     0.041 C 
ATOM     15  O   UNL     1      26.457 -19.289 -42.537  1.00  0.00    -0.550 OA
ATOM     16  O   UNL     1      26.289 -17.314 -43.684  1.00  0.00    -0.550 OA
ENDBRANCH  13  14
ENDBRANCH  12  13
ENDBRANCH  11  12
ENDBRANCH  10  11
ENDBRANCH   9  10
ENDBRANCH   8   9
ENDBRANCH   7   8
ENDBRANCH   6   7
ENDBRANCH   5   6
ENDBRANCH   4   5
ENDBRANCH   3   4
ENDBRANCH   2   3
ENDBRANCH   1   2
BRANCH   1  17
ATOM     17  C   UNL     1      21.000  -4.029 -40.388  1.00  0.00     0.000 C 
BRANCH  17  18
ATOM     18  C   UNL     1      20.179  -3.062 -39.510  1.00  0.00     0.000 C 
BRANCH  18  19
ATOM     19  C   UNL     1      20.182  -3.392 -38.007  1.00  0.00     0.000 C 
BRANCH  19  20
ATOM     20  C   UNL     1      20.846  -2.295 -37.158  1.00  0.00     0.000 C 
BRANCH  20  21
ATOM     21  C   UNL     1      22.055  -2.819 -36.365  1.00  0.00     0.000 C 
BRANCH  21  22
ATOM     22  C   UNL     1      22.112  -4.356 -36.324  1.00  0.00    -0.000 C 
BRANCH  22  23
ATOM     23  C   UNL     1      23.540  -4.879 -36.063  1.00  0.00    -0.000 C 
BRANCH  23  24
ATOM     24  C   UNL     1      23.716  -6.374 -36.381  1.00  0.00    -0.000 C 
BRANCH  24  25
ATOM     25  C   UNL     1      25.192  -6.780 -36.524  1.00  0.00    -0.000 C 
BRANCH  25  26
ATOM     26  C   UNL     1      25.763  -6.486 -37.923  1.00  0.00    -0.000 C 
BRANCH  26  27
ATOM     27  C   UNL     1      26.980  -5.538 -37.953  1.00  0.00    -0.000 C 
BRANCH  27  28
ATOM     28  C   UNL     1      26.638  -4.039 -38.034  1.00  0.00    -0.000 C 
BRANCH  28  29
ATOM     29  C   UNL     1      25.393  -3.759 -38.887  1.00  0.00    -0.003 C 
ATOM     30  C   UNL     1      24.993  -2.288 -38.809  1.00  0.00     0.004 C 
ENDBRANCH  28  29
ENDBRANCH  27  28
ENDBRANCH  26  27
ENDBRANCH  25  26
ENDBRANCH  24  25
ENDBRANCH  23  24
ENDBRANCH  22  23
ENDBRANCH  21  22
ENDBRANCH  20  21
ENDBRANCH  19  20
ENDBRANCH  18  19
ENDBRANCH  17  18
ENDBRANCH   1  17
TORSDOF 26
ENDMDL
MODEL 6
REMARK VINA RESULT:    -4.791      1.738      3.729
REMARK INTER + INTRA:         -14.776
REMARK INTER:                 -12.389
REMARK INTRA:                  -2.387
REMARK UNBOUND:                -2.704
REMARK SMILES CCCCCCCCCCCCCCCCCCCCCCCCCCCC(=O)[O-]
REMARK SMILES IDX 15 1 16 2 17 3 18 4 19 5 20 6 21 7 22 8 23 9 24 10 25 11
REMARK SMILES IDX 26 12 27 13 28 14 29 15 30 16 14 17 13 18 12 19 11 20 10 21
REMARK SMILES IDX 9 22 8 23 7 24 6 25 5 26 4 27 3 28 2 29 1 30
REMARK H PARENT
REMARK Flexibility Score: inf
ROOT
ATOM      1  C   UNL     1      26.089  -7.106 -37.610  1.00  0.00     0.000 C 
ENDROOT
BRANCH   1   2
ATOM      2  C   UNL     1      27.408  -6.306 -37.616  1.00  0.00     0.000 C 
BRANCH   2   3
ATOM      3  C   UNL     1      27.277  -4.834 -38.050  1.00  0.00     0.000 C 
BRANCH   3   4
ATOM      4  C   UNL     1      25.836  -4.308 -37.947  1.00  0.00     0.000 C 
BRANCH   4   5
ATOM      5  C   UNL     1      25.492  -3.275 -39.037  1.00  0.00     0.000 C 
BRANCH   5   6
ATOM      6  C   UNL     1      24.085  -2.657 -38.937  1.00  0.00     0.000 C 
BRANCH   6   7
ATOM      7  C   UNL     1      23.807  -1.875 -37.639  1.00  0.00     0.000 C 
BRANCH   7   8
ATOM      8  C   UNL     1      22.427  -2.174 -37.015  1.00  0.00     0.000 C 
BRANCH   8   9
ATOM      9  C   UNL     1      21.417  -2.705 -38.048  1.00  0.00     0.000 C 
BRANCH   9  10
ATOM     10  C   UNL     1      20.812  -4.058 -37.638  1.00  0.00     0.000 C 
BRANCH  10  11
ATOM     11  C   UNL     1      21.661  -4.788 -36.581  1.00  0.00     0.000 C 
BRANCH  11  12
ATOM     12  C   UNL     1      22.690  -5.753 -37.199  1.00  0.00     0.006 C 
BRANCH  12  13
ATOM     13  C   UNL     1      22.064  -7.006 -37.835  1.00  0.00     0.053 C 
BRANCH  13  14
ATOM     14  C   UNL     1      22.169  -7.005 -39.330  1.00  0.00     0.041 C 
ATOM     15  O   UNL     1      21.893  -8.046 -39.985  1.00  0.00    -0.550 OA
ATOM     16  O   UNL     1      22.548  -5.851 -40.002  1.00  0.00    -0.550 OA
ENDBRANCH  13  14
ENDBRANCH  12  13
ENDBRANCH  11  12
ENDBRANCH  10  11
ENDBRANCH   9  10
ENDBRANCH   8   9
ENDBRANCH   7   8
ENDBRANCH   6   7
ENDBRANCH   5   6
ENDBRANCH   4   5
ENDBRANCH   3   4
ENDBRANCH   2   3
ENDBRANCH   1   2
BRANCH   1  17
ATOM     17  C   UNL     1      25.781  -7.870 -38.913  1.00  0.00     0.000 C 
BRANCH  17  18
ATOM     18  C   UNL     1      24.958  -9.162 -38.735  1.00  0.00     0.000 C 
BRANCH  18  19
ATOM     19  C   UNL     1      24.750  -9.979 -40.023  1.00  0.00     0.000 C 
BRANCH  19  20
ATOM     20  C   UNL     1      25.469 -11.338 -39.988  1.00  0.00     0.000 C 
BRANCH  20  21
ATOM     21  C   UNL     1      24.762 -12.399 -40.848  1.00  0.00     0.000 C 
BRANCH  21  22
ATOM     22  C   UNL     1      24.729 -13.779 -40.169  1.00  0.00    -0.000 C 
BRANCH  22  23
ATOM     23  C   UNL     1      23.999 -14.833 -41.029  1.00  0.00    -0.000 C 
BRANCH  23  24
ATOM     24  C   UNL     1      24.344 -16.283 -40.651  1.00  0.00    -0.000 C 
BRANCH  24  25
ATOM     25  C   UNL     1      24.418 -17.214 -41.872  1.00  0.00    -0.000 C 
BRANCH  25  26
ATOM     26  C   UNL     1      25.590 -18.210 -41.799  1.00  0.00    -0.000 C 
BRANCH  26  27
ATOM     27  C   UNL     1      26.399 -18.373 -43.102  1.00  0.00    -0.000 C 
BRANCH  27  28
ATOM     28  C   UNL     1      27.435 -19.512 -43.089  1.00  0.00    -0.000 C 
BRANCH  28  29
ATOM     29  C   UNL     1      26.888 -20.807 -42.473  1.00  0.00    -0.003 C 
ATOM     30  C   UNL     1      27.880 -21.955 -42.636  1.00  0.00     0.004 C 
ENDBRANCH  28  29
ENDBRANCH  27  28
ENDBRANCH  26  27
ENDBRANCH  25  26
ENDBRANCH  24  25
ENDBRANCH  23  24
ENDBRANCH  22  23
ENDBRANCH  21  22
ENDBRANCH  20  21
ENDBRANCH  19  20
ENDBRANCH  18  19
ENDBRANCH  17  18
ENDBRANCH   1  17
TORSDOF 26
ENDMDL
MODEL 7
REMARK VINA RESULT:    -4.740      3.807     11.059
REMARK INTER + INTRA:         -14.648
REMARK INTER:                 -11.524
REMARK INTRA:                  -3.124
REMARK UNBOUND:                -2.704
REMARK SMILES CCCCCCCCCCCCCCCCCCCCCCCCCCCC(=O)[O-]
REMARK SMILES IDX 15 1 16 2 17 3 18 4 19 5 20 6 21 7 22 8 23 9 24 10 25 11
REMARK SMILES IDX 26 12 27 13 28 14 29 15 30 16 14 17 13 18 12 19 11 20 10 21
REMARK SMILES IDX 9 22 8 23 7 24 6 25 5 26 4 27 3 28 2 29 1 30
REMARK H PARENT
REMARK Flexibility Score: inf
ROOT
ATOM      1  C   UNL     1      22.024  -7.379 -39.415  1.00  0.00     0.000 C 
ENDROOT
BRANCH   1   2
ATOM      2  C   UNL     1      22.931  -8.599 -39.158  1.00  0.00     0.000 C 
BRANCH   2   3
ATOM      3  C   UNL     1      24.320  -8.531 -39.819  1.00  0.00     0.000 C 
BRANCH   3   4
ATOM      4  C   UNL     1      25.198  -9.750 -39.489  1.00  0.00     0.000 C 
BRANCH   4   5
ATOM      5  C   UNL     1      24.986 -10.926 -40.462  1.00  0.00     0.000 C 
BRANCH   5   6
ATOM      6  C   UNL     1      25.144 -12.327 -39.844  1.00  0.00     0.000 C 
BRANCH   6   7
ATOM      7  C   UNL     1      24.675 -13.491 -40.739  1.00  0.00     0.000 C 
BRANCH   7   8
ATOM      8  C   UNL     1      24.301 -14.767 -39.955  1.00  0.00     0.000 C 
BRANCH   8   9
ATOM      9  C   UNL     1      23.372 -15.697 -40.755  1.00  0.00     0.000 C 
BRANCH   9  10
ATOM     10  C   UNL     1      24.094 -16.384 -41.926  1.00  0.00     0.000 C 
BRANCH  10  11
ATOM     11  C   UNL     1      25.034 -17.511 -41.461  1.00  0.00     0.000 C 
BRANCH  11  12
ATOM     12  C   UNL     1      25.863 -18.116 -42.611  1.00  0.00     0.006 C 
BRANCH  12  13
ATOM     13  C   UNL     1      26.153 -19.617 -42.445  1.00  0.00     0.053 C 
BRANCH  13  14
ATOM     14  C   UNL     1      27.469 -20.017 -43.037  1.00  0.00     0.041 C 
ATOM     15  O   UNL     1      27.678 -21.215 -43.367  1.00  0.00    -0.550 OA
ATOM     16  O   UNL     1      28.458 -19.065 -43.248  1.00  0.00    -0.550 OA
ENDBRANCH  13  14
ENDBRANCH  12  13
ENDBRANCH  11  12
ENDBRANCH  10  11
ENDBRANCH   9  10
ENDBRANCH   8   9
ENDBRANCH   7   8
ENDBRANCH   6   7
ENDBRANCH   5   6
ENDBRANCH   4   5
ENDBRANCH   3   4
ENDBRANCH   2   3
ENDBRANCH   1   2
BRANCH   1  17
ATOM     17  C   UNL     1      22.714  -6.183 -40.101  1.00  0.00     0.000 C 
BRANCH  17  18
ATOM     18  C   UNL     1      21.792  -4.986 -40.411  1.00  0.00     0.000 C 
BRANCH  18  19
ATOM     19  C   UNL     1      22.148  -3.686 -39.668  1.00  0.00     0.000 C 
BRANCH  19  20
ATOM     20  C   UNL     1      23.666  -3.481 -39.523  1.00  0.00     0.000 C 
BRANCH  20  21
ATOM     21  C   UNL     1      24.022  -2.520 -38.377  1.00  0.00     0.000 C 
BRANCH  21  22
ATOM     22  C   UNL     1      22.786  -2.079 -37.573  1.00  0.00    -0.000 C 
BRANCH  22  23
ATOM     23  C   UNL     1      22.718  -2.759 -36.190  1.00  0.00    -0.000 C 
BRANCH  23  24
ATOM     24  C   UNL     1      21.702  -3.912 -36.119  1.00  0.00    -0.000 C 
BRANCH  24  25
ATOM     25  C   UNL     1      22.336  -5.281 -36.416  1.00  0.00    -0.000 C 
BRANCH  25  26
ATOM     26  C   UNL     1      23.835  -5.336 -36.071  1.00  0.00    -0.000 C 
BRANCH  26  27
ATOM     27  C   UNL     1      24.636  -6.446 -36.784  1.00  0.00    -0.000 C 
BRANCH  27  28
ATOM     28  C   UNL     1      25.554  -5.962 -37.921  1.00  0.00    -0.000 C 
BRANCH  28  29
ATOM     29  C   UNL     1      26.964  -6.565 -37.843  1.00  0.00    -0.003 C 
ATOM     30  C   UNL     1      28.032  -5.475 -37.894  1.00  0.00     0.004 C 
ENDBRANCH  28  29
ENDBRANCH  27  28
ENDBRANCH  26  27
ENDBRANCH  25  26
ENDBRANCH  24  25
ENDBRANCH  23  24
ENDBRANCH  22  23
ENDBRANCH  21  22
ENDBRANCH  20  21
ENDBRANCH  19  20
ENDBRANCH  18  19
ENDBRANCH  17  18
ENDBRANCH   1  17
TORSDOF 26
ENDMDL
MODEL 8
REMARK VINA RESULT:    -4.735      1.257      2.760
REMARK INTER + INTRA:         -14.636
REMARK INTER:                 -11.948
REMARK INTRA:                  -2.688
REMARK UNBOUND:                -2.704
REMARK SMILES CCCCCCCCCCCCCCCCCCCCCCCCCCCC(=O)[O-]
REMARK SMILES IDX 15 1 16 2 17 3 18 4 19 5 20 6 21 7 22 8 23 9 24 10 25 11
REMARK SMILES IDX 26 12 27 13 28 14 29 15 30 16 14 17 13 18 12 19 11 20 10 21
REMARK SMILES IDX 9 22 8 23 7 24 6 25 5 26 4 27 3 28 2 29 1 30
REMARK H PARENT
REMARK Flexibility Score: inf
ROOT
ATOM      1  C   UNL     1      23.461  -7.962 -39.776  1.00  0.00     0.000 C 
ENDROOT
BRANCH   1   2
ATOM      2  C   UNL     1      21.985  -7.650 -39.456  1.00  0.00     0.000 C 
BRANCH   2   3
ATOM      3  C   UNL     1      21.712  -6.217 -38.961  1.00  0.00     0.000 C 
BRANCH   3   4
ATOM      4  C   UNL     1      22.349  -5.145 -39.860  1.00  0.00     0.000 C 
BRANCH   4   5
ATOM      5  C   UNL     1      21.611  -3.794 -39.802  1.00  0.00     0.000 C 
BRANCH   5   6
ATOM      6  C   UNL     1      20.447  -3.724 -38.796  1.00  0.00     0.000 C 
BRANCH   6   7
ATOM      7  C   UNL     1      20.504  -2.537 -37.816  1.00  0.00     0.000 C 
BRANCH   7   8
ATOM      8  C   UNL     1      21.639  -2.641 -36.776  1.00  0.00     0.000 C 
BRANCH   8   9
ATOM      9  C   UNL     1      21.810  -4.071 -36.233  1.00  0.00     0.000 C 
BRANCH   9  10
ATOM     10  C   UNL     1      23.287  -4.462 -36.060  1.00  0.00     0.000 C 
BRANCH  10  11
ATOM     11  C   UNL     1      23.499  -5.987 -36.068  1.00  0.00     0.000 C 
BRANCH  11  12
ATOM     12  C   UNL     1      24.855  -6.403 -36.671  1.00  0.00     0.006 C 
BRANCH  12  13
ATOM     13  C   UNL     1      25.436  -5.376 -37.659  1.00  0.00     0.053 C 
BRANCH  13  14
ATOM     14  C   UNL     1      26.884  -5.619 -37.956  1.00  0.00     0.041 C 
ATOM     15  O   UNL     1      27.283  -6.775 -38.259  1.00  0.00    -0.550 OA
ATOM     16  O   UNL     1      27.789  -4.567 -37.921  1.00  0.00    -0.550 OA
ENDBRANCH  13  14
ENDBRANCH  12  13
ENDBRANCH  11  12
ENDBRANCH  10  11
ENDBRANCH   9  10
ENDBRANCH   8   9
ENDBRANCH   7   8
ENDBRANCH   6   7
ENDBRANCH   5   6
ENDBRANCH   4   5
ENDBRANCH   3   4
ENDBRANCH   2   3
ENDBRANCH   1   2
BRANCH   1  17
ATOM     17  C   UNL     1      24.109  -9.044 -38.889  1.00  0.00     0.000 C 
BRANCH  17  18
ATOM     18  C   UNL     1      25.256  -9.833 -39.553  1.00  0.00     0.000 C 
BRANCH  18  19
ATOM     19  C   UNL     1      24.804 -10.988 -40.463  1.00  0.00     0.000 C 
BRANCH  19  20
ATOM     20  C   UNL     1      25.348 -12.353 -40.007  1.00  0.00     0.000 C 
BRANCH  20  21
ATOM     21  C   UNL     1      24.591 -13.530 -40.646  1.00  0.00     0.000 C 
BRANCH  21  22
ATOM     22  C   UNL     1      24.266 -14.640 -39.631  1.00  0.00    -0.000 C 
BRANCH  22  23
ATOM     23  C   UNL     1      24.212 -16.034 -40.292  1.00  0.00    -0.000 C 
BRANCH  23  24
ATOM     24  C   UNL     1      23.749 -16.004 -41.758  1.00  0.00    -0.000 C 
BRANCH  24  25
ATOM     25  C   UNL     1      24.205 -17.239 -42.551  1.00  0.00    -0.000 C 
BRANCH  25  26
ATOM     26  C   UNL     1      25.664 -17.139 -43.033  1.00  0.00    -0.000 C 
BRANCH  26  27
ATOM     27  C   UNL     1      26.468 -18.455 -42.979  1.00  0.00    -0.000 C 
BRANCH  27  28
ATOM     28  C   UNL     1      25.860 -19.556 -42.092  1.00  0.00    -0.000 C 
BRANCH  28  29
ATOM     29  C   UNL     1      26.609 -20.892 -42.205  1.00  0.00    -0.003 C 
ATOM     30  C   UNL     1      27.937 -20.717 -42.938  1.00  0.00     0.004 C 
ENDBRANCH  28  29
ENDBRANCH  27  28
ENDBRANCH  26  27
ENDBRANCH  25  26
ENDBRANCH  24  25
ENDBRANCH  23  24
ENDBRANCH  22  23
ENDBRANCH  21  22
ENDBRANCH  20  21
ENDBRANCH  19  20
ENDBRANCH  18  19
ENDBRANCH  17  18
ENDBRANCH   1  17
TORSDOF 26
ENDMDL
MODEL 9
REMARK VINA RESULT:    -4.710      1.789      4.230
REMARK INTER + INTRA:         -14.574
REMARK INTER:                 -12.248
REMARK INTRA:                  -2.325
REMARK UNBOUND:                -2.704
REMARK SMILES CCCCCCCCCCCCCCCCCCCCCCCCCCCC(=O)[O-]
REMARK SMILES IDX 15 1 16 2 17 3 18 4 19 5 20 6 21 7 22 8 23 9 24 10 25 11
REMARK SMILES IDX 26 12 27 13 28 14 29 15 30 16 14 17 13 18 12 19 11 20 10 21
REMARK SMILES IDX 9 22 8 23 7 24 6 25 5 26 4 27 3 28 2 29 1 30
REMARK H PARENT
REMARK Flexibility Score: inf
ROOT
ATOM      1  C   UNL     1      25.133  -9.312 -39.136  1.00  0.00     0.000 C 
ENDROOT
BRANCH   1   2
ATOM      2  C   UNL     1      25.628  -7.864 -39.327  1.00  0.00     0.000 C 
BRANCH   2   3
ATOM      3  C   UNL     1      25.956  -7.108 -38.025  1.00  0.00     0.000 C 
BRANCH   3   4
ATOM      4  C   UNL     1      27.248  -6.281 -38.125  1.00  0.00     0.000 C 
BRANCH   4   5
ATOM      5  C   UNL     1      27.018  -4.775 -37.900  1.00  0.00     0.000 C 
BRANCH   5   6
ATOM      6  C   UNL     1      25.544  -4.338 -37.834  1.00  0.00     0.000 C 
BRANCH   6   7
ATOM      7  C   UNL     1      25.110  -3.340 -38.925  1.00  0.00     0.000 C 
BRANCH   7   8
ATOM      8  C   UNL     1      23.655  -2.848 -38.776  1.00  0.00     0.000 C 
BRANCH   8   9
ATOM      9  C   UNL     1      23.303  -2.484 -37.323  1.00  0.00     0.000 C 
BRANCH   9  10
ATOM     10  C   UNL     1      21.859  -2.864 -36.954  1.00  0.00     0.000 C 
BRANCH  10  11
ATOM     11  C   UNL     1      21.758  -4.271 -36.335  1.00  0.00     0.000 C 
BRANCH  11  12
ATOM     12  C   UNL     1      21.222  -5.325 -37.322  1.00  0.00     0.006 C 
BRANCH  12  13
ATOM     13  C   UNL     1      22.304  -6.275 -37.863  1.00  0.00     0.053 C 
BRANCH  13  14
ATOM     14  C   UNL     1      22.174  -6.514 -39.336  1.00  0.00     0.041 C 
ATOM     15  O   UNL     1      22.607  -5.662 -40.158  1.00  0.00    -0.550 OA
ATOM     16  O   UNL     1      21.598  -7.688 -39.804  1.00  0.00    -0.550 OA
ENDBRANCH  13  14
ENDBRANCH  12  13
ENDBRANCH  11  12
ENDBRANCH  10  11
ENDBRANCH   9  10
ENDBRANCH   8   9
ENDBRANCH   7   8
ENDBRANCH   6   7
ENDBRANCH   5   6
ENDBRANCH   4   5
ENDBRANCH   3   4
ENDBRANCH   2   3
ENDBRANCH   1   2
BRANCH   1  17
ATOM     17  C   UNL     1      24.211  -9.842 -40.252  1.00  0.00     0.000 C 
BRANCH  17  18
ATOM     18  C   UNL     1      24.719 -11.106 -40.975  1.00  0.00     0.000 C 
BRANCH  18  19
ATOM     19  C   UNL     1      25.037 -12.295 -40.051  1.00  0.00     0.000 C 
BRANCH  19  20
ATOM     20  C   UNL     1      24.635 -13.648 -40.663  1.00  0.00     0.000 C 
BRANCH  20  21
ATOM     21  C   UNL     1      24.300 -14.700 -39.592  1.00  0.00     0.000 C 
BRANCH  21  22
ATOM     22  C   UNL     1      24.251 -16.127 -40.165  1.00  0.00    -0.000 C 
BRANCH  22  23
ATOM     23  C   UNL     1      23.698 -16.158 -41.605  1.00  0.00    -0.000 C 
BRANCH  23  24
ATOM     24  C   UNL     1      24.382 -17.201 -42.506  1.00  0.00    -0.000 C 
BRANCH  24  25
ATOM     25  C   UNL     1      25.795 -16.777 -42.937  1.00  0.00    -0.000 C 
BRANCH  25  26
ATOM     26  C   UNL     1      26.538 -17.873 -43.721  1.00  0.00    -0.000 C 
BRANCH  26  27
ATOM     27  C   UNL     1      27.619 -18.636 -42.926  1.00  0.00    -0.000 C 
BRANCH  27  28
ATOM     28  C   UNL     1      27.852 -20.091 -43.371  1.00  0.00    -0.000 C 
BRANCH  28  29
ATOM     29  C   UNL     1      27.293 -21.115 -42.373  1.00  0.00    -0.003 C 
ATOM     30  C   UNL     1      25.959 -20.648 -41.796  1.00  0.00     0.004 C 
ENDBRANCH  28  29
ENDBRANCH  27  28
ENDBRANCH  26  27
ENDBRANCH  25  26
ENDBRANCH  24  25
ENDBRANCH  23  24
ENDBRANCH  22  23
ENDBRANCH  21  22
ENDBRANCH  20  21
ENDBRANCH  19  20
ENDBRANCH  18  19
ENDBRANCH  17  18
ENDBRANCH   1  17
TORSDOF 26
ENDMDL
