MODEL 1
REMARK VINA RESULT:    -3.890      0.000      0.000
REMARK INTER + INTRA:          -6.508
REMARK INTER:                  -5.937
REMARK INTRA:                  -0.571
REMARK UNBOUND:                -0.571
REMARK SMILES CCCCCCCCCCC(=O)[O-]
REMARK SMILES IDX 7 1 8 2 9 3 10 4 11 5 12 6 13 7 6 8 5 9 4 10 3 11 2 12 1 13
REMARK H PARENT
REMARK Flexibility Score: inf
ROOT
ATOM      1  C   UNL     1     -98.790 -62.219 -69.273  1.00  0.00     0.000 C 
ENDROOT
BRANCH   1   2
ATOM      2  C   UNL     1     -97.384 -62.720 -69.640  1.00  0.00     0.000 C 
BRANCH   2   3
ATOM      3  C   UNL     1     -96.766 -61.945 -70.814  1.00  0.00     0.006 C 
BRANCH   3   4
ATOM      4  C   UNL     1     -95.810 -60.859 -70.310  1.00  0.00     0.053 C 
BRANCH   4   5
ATOM      5  C   UNL     1     -94.392 -61.327 -70.403  1.00  0.00     0.041 C 
ATOM      6  O   UNL     1     -93.935 -62.136 -69.554  1.00  0.00    -0.550 OA
ATOM      7  O   UNL     1     -93.589 -60.907 -71.455  1.00  0.00    -0.550 OA
ENDBRANCH   4   5
ENDBRANCH   3   4
ENDBRANCH   2   3
ENDBRANCH   1   2
BRANCH   1   8
ATOM      8  C   UNL     1     -99.477 -63.102 -68.220  1.00  0.00     0.000 C 
BRANCH   8   9
ATOM      9  C   UNL     1     -99.736 -62.315 -66.930  1.00  0.00    -0.000 C 
BRANCH   9  10
ATOM     10  C   UNL     1     -99.868 -60.814 -67.217  1.00  0.00    -0.000 C 
BRANCH  10  11
ATOM     11  C   UNL     1     -98.930 -59.998 -66.315  1.00  0.00    -0.000 C 
BRANCH  11  12
ATOM     12  C   UNL     1     -98.190 -58.891 -67.082  1.00  0.00    -0.003 C 
ATOM     13  C   UNL     1     -97.143 -58.176 -66.226  1.00  0.00     0.004 C 
ENDBRANCH  11  12
ENDBRANCH  10  11
ENDBRANCH   9  10
ENDBRANCH   8   9
ENDBRANCH   1   8
TORSDOF 9
ENDMDL
MODEL 2
REMARK VINA RESULT:    -3.635      3.068      5.750
REMARK INTER + INTRA:          -6.118
REMARK INTER:                  -5.690
REMARK INTRA:                  -0.429
REMARK UNBOUND:                -0.571
REMARK SMILES CCCCCCCCCCC(=O)[O-]
REMARK SMILES IDX 7 1 8 2 9 3 10 4 11 5 12 6 13 7 6 8 5 9 4 10 3 11 2 12 1 13
REMARK H PARENT
REMARK Flexibility Score: inf
ROOT
ATOM      1  C   UNL     1     -98.144 -62.057 -69.650  1.00  0.00     0.000 C 
ENDROOT
BRANCH   1   2
ATOM      2  C   UNL     1     -98.898 -63.066 -68.769  1.00  0.00     0.000 C 
BRANCH   2   3
ATOM      3  C   UNL     1    -100.112 -62.445 -68.062  1.00  0.00     0.006 C 
BRANCH   3   4
ATOM      4  C   UNL     1     -99.717 -61.872 -66.698  1.00  0.00     0.053 C 
BRANCH   4   5
ATOM      5  C   UNL     1    -100.086 -60.425 -66.611  1.00  0.00     0.041 C 
ATOM      6  O   UNL     1    -101.257 -60.087 -66.293  1.00  0.00    -0.550 OA
ATOM      7  O   UNL     1     -99.125 -59.447 -66.833  1.00  0.00    -0.550 OA
ENDBRANCH   4   5
ENDBRANCH   3   4
ENDBRANCH   2   3
ENDBRANCH   1   2
BRANCH   1   8
ATOM      8  C   UNL     1     -96.839 -62.629 -70.223  1.00  0.00     0.000 C 
BRANCH   8   9
ATOM      9  C   UNL     1     -96.403 -61.855 -71.472  1.00  0.00    -0.000 C 
BRANCH   9  10
ATOM     10  C   UNL     1     -95.510 -60.665 -71.101  1.00  0.00    -0.000 C 
BRANCH  10  11
ATOM     11  C   UNL     1     -94.488 -61.060 -70.024  1.00  0.00    -0.000 C 
BRANCH  11  12
ATOM     12  C   UNL     1     -93.482 -62.109 -70.522  1.00  0.00    -0.003 C 
ATOM     13  C   UNL     1     -93.121 -63.139 -69.451  1.00  0.00     0.004 C 
ENDBRANCH  11  12
ENDBRANCH  10  11
ENDBRANCH   9  10
ENDBRANCH   8   9
ENDBRANCH   1   8
TORSDOF 9
ENDMDL
MODEL 3
REMARK VINA RESULT:    -3.618      2.370      4.974
REMARK INTER + INTRA:          -6.092
REMARK INTER:                  -5.496
REMARK INTRA:                  -0.596
REMARK UNBOUND:                -0.571
REMARK SMILES CCCCCCCCCCC(=O)[O-]
REMARK SMILES IDX 7 1 8 2 9 3 10 4 11 5 12 6 13 7 6 8 5 9 4 10 3 11 2 12 1 13
REMARK H PARENT
REMARK Flexibility Score: inf
ROOT
ATOM      1  C   UNL     1     -99.984 -62.222 -67.802  1.00  0.00     0.000 C 
ENDROOT
BRANCH   1   2
ATOM      2  C   UNL     1     -99.607 -62.111 -66.316  1.00  0.00     0.000 C 
BRANCH   2   3
ATOM      3  C   UNL     1     -99.594 -60.660 -65.814  1.00  0.00     0.006 C 
BRANCH   3   4
ATOM      4  C   UNL     1     -99.468 -59.678 -66.983  1.00  0.00     0.053 C 
BRANCH   4   5
ATOM      5  C   UNL     1     -98.120 -59.027 -66.977  1.00  0.00     0.041 C 
ATOM      6  O   UNL     1     -97.379 -59.096 -67.992  1.00  0.00    -0.550 OA
ATOM      7  O   UNL     1     -97.703 -58.303 -65.868  1.00  0.00    -0.550 OA
ENDBRANCH   4   5
ENDBRANCH   3   4
ENDBRANCH   2   3
ENDBRANCH   1   2
BRANCH   1   8
ATOM      8  C   UNL     1     -98.966 -63.036 -68.613  1.00  0.00     0.000 C 
BRANCH   8   9
ATOM      9  C   UNL     1     -98.328 -62.178 -69.712  1.00  0.00    -0.000 C 
BRANCH   9  10
ATOM     10  C   UNL     1     -96.878 -62.604 -69.974  1.00  0.00    -0.000 C 
BRANCH  10  11
ATOM     11  C   UNL     1     -96.014 -61.398 -70.371  1.00  0.00    -0.000 C 
BRANCH  11  12
ATOM     12  C   UNL     1     -94.605 -61.807 -70.829  1.00  0.00    -0.003 C 
ATOM     13  C   UNL     1     -93.681 -62.155 -69.661  1.00  0.00     0.004 C 
ENDBRANCH  11  12
ENDBRANCH  10  11
ENDBRANCH   9  10
ENDBRANCH   8   9
ENDBRANCH   1   8
TORSDOF 9
ENDMDL
MODEL 4
REMARK VINA RESULT:    -3.509      3.418      5.778
REMARK INTER + INTRA:          -5.926
REMARK INTER:                  -5.528
REMARK INTRA:                  -0.397
REMARK UNBOUND:                -0.571
REMARK SMILES CCCCCCCCCCC(=O)[O-]
REMARK SMILES IDX 7 1 8 2 9 3 10 4 11 5 12 6 13 7 6 8 5 9 4 10 3 11 2 12 1 13
REMARK H PARENT
REMARK Flexibility Score: inf
ROOT
ATOM      1  C   UNL     1     -99.519 -62.592 -69.016  1.00  0.00     0.000 C 
ENDROOT
BRANCH   1   2
ATOM      2  C   UNL     1     -99.929 -62.576 -67.535  1.00  0.00     0.000 C 
BRANCH   2   3
ATOM      3  C   UNL     1     -99.569 -61.257 -66.834  1.00  0.00     0.006 C 
BRANCH   3   4
ATOM      4  C   UNL     1     -99.951 -61.304 -65.351  1.00  0.00     0.053 C 
BRANCH   4   5
ATOM      5  C   UNL     1     -98.932 -62.073 -64.572  1.00  0.00     0.041 C 
ATOM      6  O   UNL     1     -97.944 -61.481 -64.062  1.00  0.00    -0.550 OA
ATOM      7  O   UNL     1     -99.097 -63.437 -64.367  1.00  0.00    -0.550 OA
ENDBRANCH   4   5
ENDBRANCH   3   4
ENDBRANCH   2   3
ENDBRANCH   1   2
BRANCH   1   8
ATOM      8  C   UNL     1     -98.047 -62.979 -69.219  1.00  0.00     0.000 C 
BRANCH   8   9
ATOM      9  C   UNL     1     -97.380 -62.075 -70.262  1.00  0.00    -0.000 C 
BRANCH   9  10
ATOM     10  C   UNL     1     -95.994 -62.605 -70.648  1.00  0.00    -0.000 C 
BRANCH  10  11
ATOM     11  C   UNL     1     -94.988 -61.454 -70.801  1.00  0.00    -0.000 C 
BRANCH  11  12
ATOM     12  C   UNL     1     -93.829 -61.545 -69.797  1.00  0.00    -0.003 C 
ATOM     13  C   UNL     1     -93.506 -62.984 -69.395  1.00  0.00     0.004 C 
ENDBRANCH  11  12
ENDBRANCH  10  11
ENDBRANCH   9  10
ENDBRANCH   8   9
ENDBRANCH   1   8
TORSDOF 9
ENDMDL
MODEL 5
REMARK VINA RESULT:    -3.398     13.763     15.096
REMARK INTER + INTRA:          -5.757
REMARK INTER:                  -4.572
REMARK INTRA:                  -1.185
REMARK UNBOUND:                -0.571
REMARK SMILES CCCCCCCCCCC(=O)[O-]
REMARK SMILES IDX 7 1 8 2 9 3 10 4 11 5 12 6 13 7 6 8 5 9 4 10 3 11 2 12 1 13
REMARK H PARENT
REMARK Flexibility Score: inf
ROOT
ATOM      1  C   UNL     1     -95.057 -45.894 -68.346  1.00  0.00     0.000 C 
ENDROOT
BRANCH   1   2
ATOM      2  C   UNL     1     -93.973 -46.867 -68.837  1.00  0.00     0.000 C 
BRANCH   2   3
ATOM      3  C   UNL     1     -93.735 -46.774 -70.352  1.00  0.00     0.006 C 
BRANCH   3   4
ATOM      4  C   UNL     1     -94.353 -47.973 -71.078  1.00  0.00     0.053 C 
BRANCH   4   5
ATOM      5  C   UNL     1     -94.923 -47.550 -72.396  1.00  0.00     0.041 C 
ATOM      6  O   UNL     1     -95.272 -48.415 -73.241  1.00  0.00    -0.550 OA
ATOM      7  O   UNL     1     -95.114 -46.203 -72.671  1.00  0.00    -0.550 OA
ENDBRANCH   4   5
ENDBRANCH   3   4
ENDBRANCH   2   3
ENDBRANCH   1   2
BRANCH   1   8
ATOM      8  C   UNL     1     -95.393 -44.810 -69.380  1.00  0.00     0.000 C 
BRANCH   8   9
ATOM      9  C   UNL     1     -96.869 -44.882 -69.789  1.00  0.00    -0.000 C 
BRANCH   9  10
ATOM     10  C   UNL     1     -97.660 -45.795 -68.844  1.00  0.00    -0.000 C 
BRANCH  10  11
ATOM     11  C   UNL     1     -98.355 -46.922 -69.624  1.00  0.00    -0.000 C 
BRANCH  11  12
ATOM     12  C   UNL     1     -98.290 -46.715 -71.145  1.00  0.00    -0.003 C 
ATOM     13  C   UNL     1     -98.607 -47.988 -71.929  1.00  0.00     0.004 C 
ENDBRANCH  11  12
ENDBRANCH  10  11
ENDBRANCH   9  10
ENDBRANCH   8   9
ENDBRANCH   1   8
TORSDOF 9
ENDMDL
MODEL 6
REMARK VINA RESULT:    -3.396     13.690     14.848
REMARK INTER + INTRA:          -5.753
REMARK INTER:                  -4.704
REMARK INTRA:                  -1.049
REMARK UNBOUND:                -0.571
REMARK SMILES CCCCCCCCCCC(=O)[O-]
REMARK SMILES IDX 7 1 8 2 9 3 10 4 11 5 12 6 13 7 6 8 5 9 4 10 3 11 2 12 1 13
REMARK H PARENT
REMARK Flexibility Score: inf
ROOT
ATOM      1  C   UNL     1     -93.969 -46.889 -68.844  1.00  0.00     0.000 C 
ENDROOT
BRANCH   1   2
ATOM      2  C   UNL     1     -93.263 -46.112 -69.966  1.00  0.00     0.000 C 
BRANCH   2   3
ATOM      3  C   UNL     1     -93.339 -46.829 -71.322  1.00  0.00     0.006 C 
BRANCH   3   4
ATOM      4  C   UNL     1     -94.382 -47.950 -71.291  1.00  0.00     0.053 C 
BRANCH   4   5
ATOM      5  C   UNL     1     -94.428 -48.659 -72.607  1.00  0.00     0.041 C 
ATOM      6  O   UNL     1     -95.535 -48.955 -73.129  1.00  0.00    -0.550 OA
ATOM      7  O   UNL     1     -93.249 -48.950 -73.282  1.00  0.00    -0.550 OA
ENDBRANCH   4   5
ENDBRANCH   3   4
ENDBRANCH   2   3
ENDBRANCH   1   2
BRANCH   1   8
ATOM      8  C   UNL     1     -95.059 -46.063 -68.146  1.00  0.00     0.000 C 
BRANCH   8   9
ATOM      9  C   UNL     1     -95.446 -44.842 -68.989  1.00  0.00    -0.000 C 
BRANCH   9  10
ATOM     10  C   UNL     1     -96.831 -45.026 -69.622  1.00  0.00    -0.000 C 
BRANCH  10  11
ATOM     11  C   UNL     1     -97.707 -45.954 -68.767  1.00  0.00    -0.000 C 
BRANCH  11  12
ATOM     12  C   UNL     1     -98.512 -46.952 -69.614  1.00  0.00    -0.003 C 
ATOM     13  C   UNL     1     -98.002 -47.053 -71.052  1.00  0.00     0.004 C 
ENDBRANCH  11  12
ENDBRANCH  10  11
ENDBRANCH   9  10
ENDBRANCH   8   9
ENDBRANCH   1   8
TORSDOF 9
ENDMDL
MODEL 7
REMARK VINA RESULT:    -3.353     14.162     15.391
REMARK INTER + INTRA:          -5.688
REMARK INTER:                  -4.377
REMARK INTRA:                  -1.311
REMARK UNBOUND:                -0.571
REMARK SMILES CCCCCCCCCCC(=O)[O-]
REMARK SMILES IDX 7 1 8 2 9 3 10 4 11 5 12 6 13 7 6 8 5 9 4 10 3 11 2 12 1 13
REMARK H PARENT
REMARK Flexibility Score: inf
ROOT
ATOM      1  C   UNL     1     -96.694 -44.832 -69.276  1.00  0.00     0.000 C 
ENDROOT
BRANCH   1   2
ATOM      2  C   UNL     1     -97.463 -46.043 -68.723  1.00  0.00     0.000 C 
BRANCH   2   3
ATOM      3  C   UNL     1     -98.295 -46.757 -69.799  1.00  0.00     0.006 C 
BRANCH   3   4
ATOM      4  C   UNL     1     -97.773 -46.430 -71.202  1.00  0.00     0.053 C 
BRANCH   4   5
ATOM      5  C   UNL     1     -97.957 -47.600 -72.115  1.00  0.00     0.041 C 
ATOM      6  O   UNL     1     -96.964 -48.117 -72.691  1.00  0.00    -0.550 OA
ATOM      7  O   UNL     1     -99.219 -48.152 -72.292  1.00  0.00    -0.550 OA
ENDBRANCH   4   5
ENDBRANCH   3   4
ENDBRANCH   2   3
ENDBRANCH   1   2
BRANCH   1   8
ATOM      8  C   UNL     1     -95.205 -44.853 -68.898  1.00  0.00     0.000 C 
BRANCH   8   9
ATOM      9  C   UNL     1     -94.825 -46.186 -68.244  1.00  0.00    -0.000 C 
BRANCH   9  10
ATOM     10  C   UNL     1     -93.760 -46.921 -69.069  1.00  0.00    -0.000 C 
BRANCH  10  11
ATOM     11  C   UNL     1     -94.387 -47.600 -70.296  1.00  0.00    -0.000 C 
BRANCH  11  12
ATOM     12  C   UNL     1     -93.646 -47.264 -71.600  1.00  0.00    -0.003 C 
ATOM     13  C   UNL     1     -94.140 -45.969 -72.244  1.00  0.00     0.004 C 
ENDBRANCH  11  12
ENDBRANCH  10  11
ENDBRANCH   9  10
ENDBRANCH   8   9
ENDBRANCH   1   8
TORSDOF 9
ENDMDL
MODEL 8
REMARK VINA RESULT:    -3.324     14.536     15.761
REMARK INTER + INTRA:          -5.643
REMARK INTER:                  -4.613
REMARK INTRA:                  -1.030
REMARK UNBOUND:                -0.571
REMARK SMILES CCCCCCCCCCC(=O)[O-]
REMARK SMILES IDX 7 1 8 2 9 3 10 4 11 5 12 6 13 7 6 8 5 9 4 10 3 11 2 12 1 13
REMARK H PARENT
REMARK Flexibility Score: inf
ROOT
ATOM      1  C   UNL     1     -97.693 -45.687 -68.796  1.00  0.00     0.000 C 
ENDROOT
BRANCH   1   2
ATOM      2  C   UNL     1     -98.355 -46.896 -69.477  1.00  0.00     0.000 C 
BRANCH   2   3
ATOM      3  C   UNL     1     -98.001 -47.004 -70.968  1.00  0.00     0.006 C 
BRANCH   3   4
ATOM      4  C   UNL     1     -99.225 -47.418 -71.791  1.00  0.00     0.053 C 
BRANCH   4   5
ATOM      5  C   UNL     1    -100.340 -46.440 -71.600  1.00  0.00     0.041 C 
ATOM      6  O   UNL     1    -100.199 -45.240 -71.954  1.00  0.00    -0.550 OA
ATOM      7  O   UNL     1    -101.555 -46.863 -71.075  1.00  0.00    -0.550 OA
ENDBRANCH   4   5
ENDBRANCH   3   4
ENDBRANCH   2   3
ENDBRANCH   1   2
BRANCH   1   8
ATOM      8  C   UNL     1     -96.781 -44.898 -69.747  1.00  0.00     0.000 C 
BRANCH   8   9
ATOM      9  C   UNL     1     -95.357 -44.801 -69.186  1.00  0.00    -0.000 C 
BRANCH   9  10
ATOM     10  C   UNL     1     -95.100 -45.896 -68.144  1.00  0.00    -0.000 C 
BRANCH  10  11
ATOM     11  C   UNL     1     -94.042 -46.893 -68.643  1.00  0.00    -0.000 C 
BRANCH  11  12
ATOM     12  C   UNL     1     -93.727 -46.719 -70.137  1.00  0.00    -0.003 C 
ATOM     13  C   UNL     1     -94.309 -47.841 -70.998  1.00  0.00     0.004 C 
ENDBRANCH  11  12
ENDBRANCH  10  11
ENDBRANCH   9  10
ENDBRANCH   8   9
ENDBRANCH   1   8
TORSDOF 9
ENDMDL
MODEL 9
REMARK VINA RESULT:    -3.317     14.273     15.764
REMARK INTER + INTRA:          -5.633
REMARK INTER:                  -4.339
REMARK INTRA:                  -1.293
REMARK UNBOUND:                -0.571
REMARK SMILES CCCCCCCCCCC(=O)[O-]
REMARK SMILES IDX 7 1 8 2 9 3 10 4 11 5 12 6 13 7 6 8 5 9 4 10 3 11 2 12 1 13
REMARK H PARENT
REMARK Flexibility Score: inf
ROOT
ATOM      1  C   UNL     1     -95.100 -45.998 -68.188  1.00  0.00     0.000 C 
ENDROOT
BRANCH   1   2
ATOM      2  C   UNL     1     -95.690 -44.944 -69.139  1.00  0.00     0.000 C 
BRANCH   2   3
ATOM      3  C   UNL     1     -97.219 -45.043 -69.259  1.00  0.00     0.006 C 
BRANCH   3   4
ATOM      4  C   UNL     1     -97.666 -46.505 -69.366  1.00  0.00     0.053 C 
BRANCH   4   5
ATOM      5  C   UNL     1     -98.795 -46.637 -70.338  1.00  0.00     0.041 C 
ATOM      6  O   UNL     1     -98.848 -47.625 -71.117  1.00  0.00    -0.550 OA
ATOM      7  O   UNL     1     -99.816 -45.696 -70.350  1.00  0.00    -0.550 OA
ENDBRANCH   4   5
ENDBRANCH   3   4
ENDBRANCH   2   3
ENDBRANCH   1   2
BRANCH   1   8
ATOM      8  C   UNL     1     -93.995 -46.837 -68.846  1.00  0.00     0.000 C 
BRANCH   8   9
ATOM      9  C   UNL     1     -93.315 -46.057 -69.978  1.00  0.00    -0.000 C 
BRANCH   9  10
ATOM     10  C   UNL     1     -93.300 -46.871 -71.277  1.00  0.00    -0.000 C 
BRANCH  10  11
ATOM     11  C   UNL     1     -94.352 -47.990 -71.237  1.00  0.00    -0.000 C 
BRANCH  11  12
ATOM     12  C   UNL     1     -95.373 -47.882 -72.380  1.00  0.00    -0.003 C 
ATOM     13  C   UNL     1     -95.821 -46.443 -72.638  1.00  0.00     0.004 C 
ENDBRANCH  11  12
ENDBRANCH  10  11
ENDBRANCH   9  10
ENDBRANCH   8   9
ENDBRANCH   1   8
TORSDOF 9
ENDMDL
