MODEL 1
REMARK VINA RESULT:    -3.378      0.000      0.000
REMARK INTER + INTRA:          -5.156
REMARK INTER:                  -4.564
REMARK INTRA:                  -0.593
REMARK UNBOUND:                -0.593
REMARK SMILES CCCCCCCC(C)=O
REMARK SMILES IDX 5 1 4 2 3 3 2 4 1 5 6 6 7 7 8 8 10 9 9 10
REMARK H PARENT
REMARK Flexibility Score: inf
ROOT
ATOM      1  C   UNL     1       0.861   8.963   4.157  1.00  0.00     0.000 C 
ENDROOT
BRANCH   1   2
ATOM      2  C   UNL     1      -0.608   8.670   3.792  1.00  0.00     0.000 C 
BRANCH   2   3
ATOM      3  C   UNL     1      -0.815   7.542   2.761  1.00  0.00    -0.000 C 
BRANCH   3   4
ATOM      4  C   UNL     1      -1.011   6.140   3.367  1.00  0.00    -0.003 C 
ATOM      5  C   UNL     1      -0.664   5.018   2.389  1.00  0.00     0.004 C 
ENDBRANCH   3   4
ENDBRANCH   2   3
ENDBRANCH   1   2
BRANCH   1   6
ATOM      6  C   UNL     1       1.255   8.603   5.600  1.00  0.00     0.008 C 
BRANCH   6   7
ATOM      7  C   UNL     1       1.555   7.109   5.780  1.00  0.00     0.075 C 
BRANCH   7   8
ATOM      8  C   UNL     1       0.608   6.492   6.772  1.00  0.00     0.129 C 
ATOM      9  O   UNL     1       0.867   5.403   7.262  1.00  0.00    -0.300 OA
ATOM     10  C   UNL     1      -0.663   7.192   7.146  1.00  0.00     0.087 C 
ENDBRANCH   7   8
ENDBRANCH   6   7
ENDBRANCH   1   6
TORSDOF 6
ENDMDL
MODEL 2
REMARK VINA RESULT:    -3.327     13.735     15.627
REMARK INTER + INTRA:          -5.086
REMARK INTER:                  -4.648
REMARK INTRA:                  -0.438
REMARK UNBOUND:                -0.593
REMARK SMILES CCCCCCCC(C)=O
REMARK SMILES IDX 5 1 4 2 3 3 2 4 1 5 6 6 7 7 8 8 10 9 9 10
REMARK H PARENT
REMARK Flexibility Score: inf
ROOT
ATOM      1  C   UNL     1       9.131  -5.519   0.237  1.00  0.00     0.000 C 
ENDROOT
BRANCH   1   2
ATOM      2  C   UNL     1       8.458  -4.396  -0.578  1.00  0.00     0.000 C 
BRANCH   2   3
ATOM      3  C   UNL     1       8.164  -3.102   0.207  1.00  0.00    -0.000 C 
BRANCH   3   4
ATOM      4  C   UNL     1       7.089  -3.239   1.301  1.00  0.00    -0.003 C 
ATOM      5  C   UNL     1       7.142  -2.111   2.330  1.00  0.00     0.004 C 
ENDBRANCH   3   4
ENDBRANCH   2   3
ENDBRANCH   1   2
BRANCH   1   6
ATOM      6  C   UNL     1       8.765  -6.947  -0.202  1.00  0.00     0.008 C 
BRANCH   6   7
ATOM      7  C   UNL     1       7.282  -7.097  -0.568  1.00  0.00     0.075 C 
BRANCH   7   8
ATOM      8  C   UNL     1       6.451  -7.328   0.664  1.00  0.00     0.129 C 
ATOM      9  O   UNL     1       5.727  -6.437   1.083  1.00  0.00    -0.300 OA
ATOM     10  C   UNL     1       6.523  -8.634   1.395  1.00  0.00     0.087 C 
ENDBRANCH   7   8
ENDBRANCH   6   7
ENDBRANCH   1   6
TORSDOF 6
ENDMDL
MODEL 3
REMARK VINA RESULT:    -3.321     11.977     13.584
REMARK INTER + INTRA:          -5.078
REMARK INTER:                  -4.584
REMARK INTRA:                  -0.494
REMARK UNBOUND:                -0.593
REMARK SMILES CCCCCCCC(C)=O
REMARK SMILES IDX 5 1 4 2 3 3 2 4 1 5 6 6 7 7 8 8 10 9 9 10
REMARK H PARENT
REMARK Flexibility Score: inf
ROOT
ATOM      1  C   UNL     1       8.882  -2.594   1.021  1.00  0.00     0.000 C 
ENDROOT
BRANCH   1   2
ATOM      2  C   UNL     1       8.464  -2.045   2.400  1.00  0.00     0.000 C 
BRANCH   2   3
ATOM      3  C   UNL     1       6.944  -1.912   2.619  1.00  0.00    -0.000 C 
BRANCH   3   4
ATOM      4  C   UNL     1       6.528  -1.530   4.051  1.00  0.00    -0.003 C 
ATOM      5  C   UNL     1       6.887  -0.089   4.409  1.00  0.00     0.004 C 
ENDBRANCH   3   4
ENDBRANCH   2   3
ENDBRANCH   1   2
BRANCH   1   6
ATOM      6  C   UNL     1       7.768  -3.319   0.246  1.00  0.00     0.008 C 
BRANCH   6   7
ATOM      7  C   UNL     1       7.935  -4.844   0.250  1.00  0.00     0.075 C 
BRANCH   7   8
ATOM      8  C   UNL     1       7.090  -5.469   1.326  1.00  0.00     0.129 C 
ATOM      9  O   UNL     1       5.939  -5.798   1.080  1.00  0.00    -0.300 OA
ATOM     10  C   UNL     1       7.642  -5.671   2.705  1.00  0.00     0.087 C 
ENDBRANCH   7   8
ENDBRANCH   6   7
ENDBRANCH   1   6
TORSDOF 6
ENDMDL
MODEL 4
REMARK VINA RESULT:    -3.310      2.481      3.158
REMARK INTER + INTRA:          -5.064
REMARK INTER:                  -4.435
REMARK INTRA:                  -0.629
REMARK UNBOUND:                -0.593
REMARK SMILES CCCCCCCC(C)=O
REMARK SMILES IDX 5 1 4 2 3 3 2 4 1 5 6 6 7 7 8 8 10 9 9 10
REMARK H PARENT
REMARK Flexibility Score: inf
ROOT
ATOM      1  C   UNL     1      -0.112   6.583   6.084  1.00  0.00     0.000 C 
ENDROOT
BRANCH   1   2
ATOM      2  C   UNL     1       0.563   6.672   4.701  1.00  0.00     0.000 C 
BRANCH   2   3
ATOM      3  C   UNL     1      -0.212   7.482   3.644  1.00  0.00    -0.000 C 
BRANCH   3   4
ATOM      4  C   UNL     1      -1.147   6.650   2.748  1.00  0.00    -0.003 C 
ATOM      5  C   UNL     1      -0.637   5.228   2.516  1.00  0.00     0.004 C 
ENDBRANCH   3   4
ENDBRANCH   2   3
ENDBRANCH   1   2
BRANCH   1   6
ATOM      6  C   UNL     1      -0.442   7.939   6.733  1.00  0.00     0.008 C 
BRANCH   6   7
ATOM      7  C   UNL     1      -1.901   8.035   7.200  1.00  0.00     0.075 C 
BRANCH   7   8
ATOM      8  C   UNL     1      -2.795   8.459   6.067  1.00  0.00     0.129 C 
ATOM      9  O   UNL     1      -2.785   9.620   5.688  1.00  0.00    -0.300 OA
ATOM     10  C   UNL     1      -3.715   7.471   5.416  1.00  0.00     0.087 C 
ENDBRANCH   7   8
ENDBRANCH   6   7
ENDBRANCH   1   6
TORSDOF 6
ENDMDL
MODEL 5
REMARK VINA RESULT:    -3.288      2.299      3.167
REMARK INTER + INTRA:          -5.034
REMARK INTER:                  -4.325
REMARK INTRA:                  -0.709
REMARK UNBOUND:                -0.593
REMARK SMILES CCCCCCCC(C)=O
REMARK SMILES IDX 5 1 4 2 3 3 2 4 1 5 6 6 7 7 8 8 10 9 9 10
REMARK H PARENT
REMARK Flexibility Score: inf
ROOT
ATOM      1  C   UNL     1       1.145   6.924   5.131  1.00  0.00     0.000 C 
ENDROOT
BRANCH   1   2
ATOM      2  C   UNL     1      -0.270   6.467   5.538  1.00  0.00     0.000 C 
BRANCH   2   3
ATOM      3  C   UNL     1      -1.353   6.645   4.456  1.00  0.00    -0.000 C 
BRANCH   3   4
ATOM      4  C   UNL     1      -0.836   6.585   3.007  1.00  0.00    -0.003 C 
ATOM      5  C   UNL     1      -0.743   5.158   2.469  1.00  0.00     0.004 C 
ENDBRANCH   3   4
ENDBRANCH   2   3
ENDBRANCH   1   2
BRANCH   1   6
ATOM      6  C   UNL     1       1.553   8.314   5.652  1.00  0.00     0.008 C 
BRANCH   6   7
ATOM      7  C   UNL     1       1.870   9.303   4.522  1.00  0.00     0.075 C 
BRANCH   7   8
ATOM      8  C   UNL     1       0.604   9.854   3.926  1.00  0.00     0.129 C 
ATOM      9  O   UNL     1       0.488   9.928   2.712  1.00  0.00    -0.300 OA
ATOM     10  C   UNL     1      -0.505  10.335   4.811  1.00  0.00     0.087 C 
ENDBRANCH   7   8
ENDBRANCH   6   7
ENDBRANCH   1   6
TORSDOF 6
ENDMDL
MODEL 6
REMARK VINA RESULT:    -3.257     15.327     16.093
REMARK INTER + INTRA:          -4.992
REMARK INTER:                  -4.797
REMARK INTRA:                  -0.195
REMARK UNBOUND:                -0.593
REMARK SMILES CCCCCCCC(C)=O
REMARK SMILES IDX 5 1 4 2 3 3 2 4 1 5 6 6 7 7 8 8 10 9 9 10
REMARK H PARENT
REMARK Flexibility Score: inf
ROOT
ATOM      1  C   UNL     1      10.299   2.340  -8.082  1.00  0.00     0.000 C 
ENDROOT
BRANCH   1   2
ATOM      2  C   UNL     1       8.967   1.588  -8.277  1.00  0.00     0.000 C 
BRANCH   2   3
ATOM      3  C   UNL     1       8.545   0.685  -7.101  1.00  0.00    -0.000 C 
BRANCH   3   4
ATOM      4  C   UNL     1       7.364  -0.257  -7.399  1.00  0.00    -0.003 C 
ATOM      5  C   UNL     1       6.317   0.376  -8.315  1.00  0.00     0.004 C 
ENDBRANCH   3   4
ENDBRANCH   2   3
ENDBRANCH   1   2
BRANCH   1   6
ATOM      6  C   UNL     1      10.388   3.178  -6.795  1.00  0.00     0.008 C 
BRANCH   6   7
ATOM      7  C   UNL     1      11.299   4.404  -6.945  1.00  0.00     0.075 C 
BRANCH   7   8
ATOM      8  C   UNL     1      11.469   5.105  -5.625  1.00  0.00     0.129 C 
ATOM      9  O   UNL     1      11.384   6.323  -5.570  1.00  0.00    -0.300 OA
ATOM     10  C   UNL     1      11.765   4.323  -4.382  1.00  0.00     0.087 C 
ENDBRANCH   7   8
ENDBRANCH   6   7
ENDBRANCH   1   6
TORSDOF 6
ENDMDL
MODEL 7
REMARK VINA RESULT:    -3.225      2.141      4.155
REMARK INTER + INTRA:          -4.949
REMARK INTER:                  -4.217
REMARK INTRA:                  -0.733
REMARK UNBOUND:                -0.593
REMARK SMILES CCCCCCCC(C)=O
REMARK SMILES IDX 5 1 4 2 3 3 2 4 1 5 6 6 7 7 8 8 10 9 9 10
REMARK H PARENT
REMARK Flexibility Score: inf
ROOT
ATOM      1  C   UNL     1       0.725   7.152   6.204  1.00  0.00     0.000 C 
ENDROOT
BRANCH   1   2
ATOM      2  C   UNL     1       2.018   7.430   5.411  1.00  0.00     0.000 C 
BRANCH   2   3
ATOM      3  C   UNL     1       2.329   8.919   5.166  1.00  0.00    -0.000 C 
BRANCH   3   4
ATOM      4  C   UNL     1       1.462   9.593   4.087  1.00  0.00    -0.003 C 
ATOM      5  C   UNL     1       0.420  10.546   4.671  1.00  0.00     0.004 C 
ENDBRANCH   3   4
ENDBRANCH   2   3
ENDBRANCH   1   2
BRANCH   1   6
ATOM      6  C   UNL     1      -0.413   6.515   5.387  1.00  0.00     0.008 C 
BRANCH   6   7
ATOM      7  C   UNL     1       0.023   6.114   3.971  1.00  0.00     0.075 C 
BRANCH   7   8
ATOM      8  C   UNL     1      -0.972   6.596   2.951  1.00  0.00     0.129 C 
ATOM      9  O   UNL     1      -1.111   5.983   1.903  1.00  0.00    -0.300 OA
ATOM     10  C   UNL     1      -1.777   7.834   3.202  1.00  0.00     0.087 C 
ENDBRANCH   7   8
ENDBRANCH   6   7
ENDBRANCH   1   6
TORSDOF 6
ENDMDL
MODEL 8
REMARK VINA RESULT:    -3.150      1.913      3.052
REMARK INTER + INTRA:          -4.847
REMARK INTER:                  -4.018
REMARK INTRA:                  -0.829
REMARK UNBOUND:                -0.593
REMARK SMILES CCCCCCCC(C)=O
REMARK SMILES IDX 5 1 4 2 3 3 2 4 1 5 6 6 7 7 8 8 10 9 9 10
REMARK H PARENT
REMARK Flexibility Score: inf
ROOT
ATOM      1  C   UNL     1      -0.876  10.066   3.909  1.00  0.00     0.000 C 
ENDROOT
BRANCH   1   2
ATOM      2  C   UNL     1      -2.342   9.904   4.356  1.00  0.00     0.000 C 
BRANCH   2   3
ATOM      3  C   UNL     1      -3.012   8.580   3.937  1.00  0.00    -0.000 C 
BRANCH   3   4
ATOM      4  C   UNL     1      -3.350   7.630   5.100  1.00  0.00    -0.003 C 
ATOM      5  C   UNL     1      -2.679   8.034   6.412  1.00  0.00     0.004 C 
ENDBRANCH   3   4
ENDBRANCH   2   3
ENDBRANCH   1   2
BRANCH   1   6
ATOM      6  C   UNL     1      -0.219   8.788   3.360  1.00  0.00     0.008 C 
BRANCH   6   7
ATOM      7  C   UNL     1       0.584   8.027   4.423  1.00  0.00     0.075 C 
BRANCH   7   8
ATOM      8  C   UNL     1       0.153   6.587   4.485  1.00  0.00     0.129 C 
ATOM      9  O   UNL     1       0.281   5.960   5.526  1.00  0.00    -0.300 OA
ATOM     10  C   UNL     1      -0.408   5.909   3.273  1.00  0.00     0.087 C 
ENDBRANCH   7   8
ENDBRANCH   6   7
ENDBRANCH   1   6
TORSDOF 6
ENDMDL
MODEL 9
REMARK VINA RESULT:    -3.141     15.969     16.943
REMARK INTER + INTRA:          -4.836
REMARK INTER:                  -4.434
REMARK INTRA:                  -0.402
REMARK UNBOUND:                -0.593
REMARK SMILES CCCCCCCC(C)=O
REMARK SMILES IDX 5 1 4 2 3 3 2 4 1 5 6 6 7 7 8 8 10 9 9 10
REMARK H PARENT
REMARK Flexibility Score: inf
ROOT
ATOM      1  C   UNL     1       6.421  -0.052  -8.230  1.00  0.00     0.000 C 
ENDROOT
BRANCH   1   2
ATOM      2  C   UNL     1       7.546   0.451  -7.303  1.00  0.00     0.000 C 
BRANCH   2   3
ATOM      3  C   UNL     1       8.650  -0.580  -6.994  1.00  0.00    -0.000 C 
BRANCH   3   4
ATOM      4  C   UNL     1       9.791  -0.058  -6.102  1.00  0.00    -0.003 C 
ATOM      5  C   UNL     1       9.844   1.468  -6.037  1.00  0.00     0.004 C 
ENDBRANCH   3   4
ENDBRANCH   2   3
ENDBRANCH   1   2
BRANCH   1   6
ATOM      6  C   UNL     1       6.445  -1.563  -8.519  1.00  0.00     0.008 C 
BRANCH   6   7
ATOM      7  C   UNL     1       5.194  -2.288  -8.004  1.00  0.00     0.075 C 
BRANCH   7   8
ATOM      8  C   UNL     1       5.550  -3.648  -7.470  1.00  0.00     0.129 C 
ATOM      9  O   UNL     1       4.786  -4.586  -7.642  1.00  0.00    -0.300 OA
ATOM     10  C   UNL     1       6.823  -3.857  -6.708  1.00  0.00     0.087 C 
ENDBRANCH   7   8
ENDBRANCH   6   7
ENDBRANCH   1   6
TORSDOF 6
ENDMDL
