MODEL 1
REMARK VINA RESULT:    -5.929      0.000      0.000
REMARK INTER + INTRA:          -8.236
REMARK INTER:                  -8.009
REMARK INTRA:                  -0.227
REMARK UNBOUND:                -0.227
REMARK SMILES C[C@H](O)[C@H](O)[C@@H](O)[C@H](O)C=O
REMARK SMILES IDX 4 1 2 2 1 3 3 4 6 6 8 7 10 8 11 9 9 10 7 12 5 14
REMARK H PARENT 3 5 9 11 7 13 5 15
REMARK Flexibility Score: inf
ROOT
ATOM      1  C   UNL     1       0.590  30.267  41.346  1.00  0.00     0.174 C 
ENDROOT
BRANCH   1   2
ATOM      2  C   UNL     1       0.136  29.592  40.022  1.00  0.00     0.142 C 
ATOM      3  C   UNL     1      -1.176  28.809  40.143  1.00  0.00     0.041 C 
BRANCH   2   4
ATOM      4  O   UNL     1       1.153  28.769  39.510  1.00  0.00    -0.391 OA
ATOM      5  H   UNL     1       0.816  28.387  38.658  1.00  0.00     0.211 HD
ENDBRANCH   2   4
ENDBRANCH   1   2
BRANCH   1   6
ATOM      6  C   UNL     1       0.009  29.699  42.676  1.00  0.00     0.181 C 
BRANCH   6   7
ATOM      7  C   UNL     1      -0.939  30.642  43.469  1.00  0.00     0.209 C 
BRANCH   7   8
ATOM      8  C   UNL     1      -2.236  29.964  43.826  1.00  0.00     0.258 C 
ATOM      9  O   UNL     1      -2.479  28.836  43.426  1.00  0.00    -0.300 OA
ENDBRANCH   7   8
BRANCH   7  10
ATOM     10  O   UNL     1      -0.297  31.052  44.649  1.00  0.00    -0.383 OA
ATOM     11  H   UNL     1      -0.949  31.599  45.159  1.00  0.00     0.211 HD
ENDBRANCH   7  10
ENDBRANCH   6   7
BRANCH   6  12
ATOM     12  O   UNL     1       1.046  29.188  43.483  1.00  0.00    -0.387 OA
ATOM     13  H   UNL     1       1.640  28.619  42.932  1.00  0.00     0.211 HD
ENDBRANCH   6  12
ENDBRANCH   1   6
BRANCH   1  14
ATOM     14  O   UNL     1       1.994  30.252  41.417  1.00  0.00    -0.388 OA
ATOM     15  H   UNL     1       2.281  29.302  41.349  1.00  0.00     0.211 HD
ENDBRANCH   1  14
TORSDOF 8
ENDMDL
MODEL 2
REMARK VINA RESULT:    -5.925      1.845      2.329
REMARK INTER + INTRA:          -8.231
REMARK INTER:                  -8.022
REMARK INTRA:                  -0.209
REMARK UNBOUND:                -0.227
REMARK SMILES C[C@H](O)[C@H](O)[C@@H](O)[C@H](O)C=O
REMARK SMILES IDX 4 1 2 2 1 3 3 4 6 6 8 7 10 8 11 9 9 10 7 12 5 14
REMARK H PARENT 3 5 9 11 7 13 5 15
REMARK Flexibility Score: inf
ROOT
ATOM      1  C   UNL     1       0.360  30.070  40.901  1.00  0.00     0.174 C 
ENDROOT
BRANCH   1   2
ATOM      2  C   UNL     1       0.423  28.519  40.829  1.00  0.00     0.142 C 
ATOM      3  C   UNL     1       0.837  27.853  42.147  1.00  0.00     0.041 C 
BRANCH   2   4
ATOM      4  O   UNL     1       1.264  28.104  39.784  1.00  0.00    -0.391 OA
ATOM      5  H   UNL     1       0.684  27.914  39.002  1.00  0.00     0.211 HD
ENDBRANCH   2   4
ENDBRANCH   1   2
BRANCH   1   6
ATOM      6  C   UNL     1      -0.821  30.704  41.697  1.00  0.00     0.181 C 
BRANCH   6   7
ATOM      7  C   UNL     1      -2.176  29.946  41.631  1.00  0.00     0.209 C 
BRANCH   7   8
ATOM      8  C   UNL     1      -2.715  29.638  43.003  1.00  0.00     0.258 C 
ATOM      9  O   UNL     1      -2.344  28.645  43.610  1.00  0.00    -0.300 OA
ENDBRANCH   7   8
BRANCH   7  10
ATOM     10  O   UNL     1      -3.110  30.735  40.939  1.00  0.00    -0.383 OA
ATOM     11  H   UNL     1      -2.717  30.935  40.049  1.00  0.00     0.211 HD
ENDBRANCH   7  10
ENDBRANCH   6   7
BRANCH   6  12
ATOM     12  O   UNL     1      -0.958  32.067  41.365  1.00  0.00    -0.387 OA
ATOM     13  H   UNL     1      -1.867  32.227  41.006  1.00  0.00     0.211 HD
ENDBRANCH   6  12
ENDBRANCH   1   6
BRANCH   1  14
ATOM     14  O   UNL     1       1.573  30.560  41.417  1.00  0.00    -0.388 OA
ATOM     15  H   UNL     1       1.362  31.383  41.932  1.00  0.00     0.211 HD
ENDBRANCH   1  14
TORSDOF 8
ENDMDL
MODEL 3
REMARK VINA RESULT:    -5.754     20.468     21.211
REMARK INTER + INTRA:          -7.999
REMARK INTER:                  -7.830
REMARK INTRA:                  -0.169
REMARK UNBOUND:                -0.227
REMARK SMILES C[C@H](O)[C@H](O)[C@@H](O)[C@H](O)C=O
REMARK SMILES IDX 4 1 2 2 1 3 3 4 6 6 8 7 10 8 11 9 9 10 7 12 5 14
REMARK H PARENT 3 5 9 11 7 13 5 15
REMARK Flexibility Score: inf
ROOT
ATOM      1  C   UNL     1      15.100  15.961  44.092  1.00  0.00     0.174 C 
ENDROOT
BRANCH   1   2
ATOM      2  C   UNL     1      13.733  15.722  43.393  1.00  0.00     0.142 C 
ATOM      3  C   UNL     1      12.984  14.485  43.903  1.00  0.00     0.041 C 
BRANCH   2   4
ATOM      4  O   UNL     1      13.891  15.659  42.000  1.00  0.00    -0.391 OA
ATOM      5  H   UNL     1      13.029  15.941  41.596  1.00  0.00     0.211 HD
ENDBRANCH   2   4
ENDBRANCH   1   2
BRANCH   1   6
ATOM      6  C   UNL     1      15.519  14.959  45.210  1.00  0.00     0.181 C 
BRANCH   6   7
ATOM      7  C   UNL     1      15.581  15.530  46.655  1.00  0.00     0.209 C 
BRANCH   7   8
ATOM      8  C   UNL     1      14.339  15.204  47.442  1.00  0.00     0.258 C 
ATOM      9  O   UNL     1      14.063  15.827  48.455  1.00  0.00    -0.300 OA
ENDBRANCH   7   8
BRANCH   7  10
ATOM     10  O   UNL     1      16.697  14.989  47.314  1.00  0.00    -0.383 OA
ATOM     11  H   UNL     1      17.476  15.106  46.710  1.00  0.00     0.211 HD
ENDBRANCH   7  10
ENDBRANCH   6   7
BRANCH   6  12
ATOM     12  O   UNL     1      16.709  14.295  44.850  1.00  0.00    -0.387 OA
ATOM     13  H   UNL     1      17.449  14.952  44.803  1.00  0.00     0.211 HD
ENDBRANCH   6  12
ENDBRANCH   1   6
BRANCH   1  14
ATOM     14  O   UNL     1      16.115  16.011  43.120  1.00  0.00    -0.388 OA
ATOM     15  H   UNL     1      16.780  16.685  43.424  1.00  0.00     0.211 HD
ENDBRANCH   1  14
TORSDOF 8
ENDMDL
MODEL 4
REMARK VINA RESULT:    -5.687     21.070     21.818
REMARK INTER + INTRA:          -7.909
REMARK INTER:                  -7.491
REMARK INTRA:                  -0.418
REMARK UNBOUND:                -0.227
REMARK SMILES C[C@H](O)[C@H](O)[C@@H](O)[C@H](O)C=O
REMARK SMILES IDX 4 1 2 2 1 3 3 4 6 6 8 7 10 8 11 9 9 10 7 12 5 14
REMARK H PARENT 3 5 9 11 7 13 5 15
REMARK Flexibility Score: inf
ROOT
ATOM      1  C   UNL     1      15.427  14.805  45.242  1.00  0.00     0.174 C 
ENDROOT
BRANCH   1   2
ATOM      2  C   UNL     1      14.832  13.836  44.182  1.00  0.00     0.142 C 
ATOM      3  C   UNL     1      13.524  14.332  43.554  1.00  0.00     0.041 C 
BRANCH   2   4
ATOM      4  O   UNL     1      14.659  12.552  44.723  1.00  0.00    -0.391 OA
ATOM      5  H   UNL     1      15.119  12.544  45.604  1.00  0.00     0.211 HD
ENDBRANCH   2   4
ENDBRANCH   1   2
BRANCH   1   6
ATOM      6  C   UNL     1      15.646  14.246  46.681  1.00  0.00     0.181 C 
BRANCH   6   7
ATOM      7  C   UNL     1      14.383  14.164  47.583  1.00  0.00     0.209 C 
BRANCH   7   8
ATOM      8  C   UNL     1      13.382  15.239  47.248  1.00  0.00     0.258 C 
ATOM      9  O   UNL     1      13.434  16.330  47.794  1.00  0.00    -0.300 OA
ENDBRANCH   7   8
BRANCH   7  10
ATOM     10  O   UNL     1      13.779  12.907  47.414  1.00  0.00    -0.383 OA
ATOM     11  H   UNL     1      14.452  12.318  46.983  1.00  0.00     0.211 HD
ENDBRANCH   7  10
ENDBRANCH   6   7
BRANCH   6  12
ATOM     12  O   UNL     1      16.707  14.927  47.313  1.00  0.00    -0.387 OA
ATOM     13  H   UNL     1      17.537  14.395  47.220  1.00  0.00     0.211 HD
ENDBRANCH   6  12
ENDBRANCH   1   6
BRANCH   1  14
ATOM     14  O   UNL     1      16.643  15.324  44.764  1.00  0.00    -0.388 OA
ATOM     15  H   UNL     1      17.217  14.550  44.521  1.00  0.00     0.211 HD
ENDBRANCH   1  14
TORSDOF 8
ENDMDL
MODEL 5
REMARK VINA RESULT:    -5.665     20.545     21.661
REMARK INTER + INTRA:          -7.879
REMARK INTER:                  -7.651
REMARK INTRA:                  -0.228
REMARK UNBOUND:                -0.227
REMARK SMILES C[C@H](O)[C@H](O)[C@@H](O)[C@H](O)C=O
REMARK SMILES IDX 4 1 2 2 1 3 3 4 6 6 8 7 10 8 11 9 9 10 7 12 5 14
REMARK H PARENT 3 5 9 11 7 13 5 15
REMARK Flexibility Score: inf
ROOT
ATOM      1  C   UNL     1      13.014  14.731  47.309  1.00  0.00     0.174 C 
ENDROOT
BRANCH   1   2
ATOM      2  C   UNL     1      13.115  16.182  47.857  1.00  0.00     0.142 C 
ATOM      3  C   UNL     1      14.411  16.903  47.469  1.00  0.00     0.041 C 
BRANCH   2   4
ATOM      4  O   UNL     1      12.941  16.201  49.250  1.00  0.00    -0.391 OA
ATOM      5  H   UNL     1      13.845  16.273  49.654  1.00  0.00     0.211 HD
ENDBRANCH   2   4
ENDBRANCH   1   2
BRANCH   1   6
ATOM      6  C   UNL     1      14.277  14.138  46.614  1.00  0.00     0.181 C 
BRANCH   6   7
ATOM      7  C   UNL     1      14.145  13.834  45.095  1.00  0.00     0.209 C 
BRANCH   7   8
ATOM      8  C   UNL     1      14.952  14.790  44.259  1.00  0.00     0.258 C 
ATOM      9  O   UNL     1      16.059  15.156  44.624  1.00  0.00    -0.300 OA
ENDBRANCH   7   8
BRANCH   7  10
ATOM     10  O   UNL     1      14.588  12.524  44.850  1.00  0.00    -0.383 OA
ATOM     11  H   UNL     1      15.270  12.578  44.130  1.00  0.00     0.211 HD
ENDBRANCH   7  10
ENDBRANCH   6   7
BRANCH   6  12
ATOM     12  O   UNL     1      14.757  13.027  47.338  1.00  0.00    -0.387 OA
ATOM     13  H   UNL     1      15.072  12.334  46.704  1.00  0.00     0.211 HD
ENDBRANCH   6  12
ENDBRANCH   1   6
BRANCH   1  14
ATOM     14  O   UNL     1      12.619  13.870  48.348  1.00  0.00    -0.388 OA
ATOM     15  H   UNL     1      11.843  14.295  48.803  1.00  0.00     0.211 HD
ENDBRANCH   1  14
TORSDOF 8
ENDMDL
MODEL 6
REMARK VINA RESULT:    -5.609     20.871     21.837
REMARK INTER + INTRA:          -7.804
REMARK INTER:                  -7.210
REMARK INTRA:                  -0.594
REMARK UNBOUND:                -0.227
REMARK SMILES C[C@H](O)[C@H](O)[C@@H](O)[C@H](O)C=O
REMARK SMILES IDX 4 1 2 2 1 3 3 4 6 6 8 7 10 8 11 9 9 10 7 12 5 14
REMARK H PARENT 3 5 9 11 7 13 5 15
REMARK Flexibility Score: inf
ROOT
ATOM      1  C   UNL     1      14.320  14.158  46.449  1.00  0.00     0.174 C 
ENDROOT
BRANCH   1   2
ATOM      2  C   UNL     1      15.098  15.091  47.418  1.00  0.00     0.142 C 
ATOM      3  C   UNL     1      14.514  16.505  47.520  1.00  0.00     0.041 C 
BRANCH   2   4
ATOM      4  O   UNL     1      16.458  15.145  47.071  1.00  0.00    -0.391 OA
ATOM      5  H   UNL     1      16.572  14.589  46.256  1.00  0.00     0.211 HD
ENDBRANCH   2   4
ENDBRANCH   1   2
BRANCH   1   6
ATOM      6  C   UNL     1      15.070  13.661  45.175  1.00  0.00     0.181 C 
BRANCH   6   7
ATOM      7  C   UNL     1      15.042  14.615  43.948  1.00  0.00     0.209 C 
BRANCH   7   8
ATOM      8  C   UNL     1      13.662  15.160  43.691  1.00  0.00     0.258 C 
ATOM      9  O   UNL     1      12.742  14.412  43.397  1.00  0.00    -0.300 OA
ENDBRANCH   7   8
BRANCH   7  10
ATOM     10  O   UNL     1      15.922  15.686  44.179  1.00  0.00    -0.383 OA
ATOM     11  H   UNL     1      16.774  15.465  43.721  1.00  0.00     0.211 HD
ENDBRANCH   7  10
ENDBRANCH   6   7
BRANCH   6  12
ATOM     12  O   UNL     1      14.655  12.356  44.842  1.00  0.00    -0.387 OA
ATOM     13  H   UNL     1      14.135  11.976  45.594  1.00  0.00     0.211 HD
ENDBRANCH   6  12
ENDBRANCH   1   6
BRANCH   1  14
ATOM     14  O   UNL     1      13.843  13.044  47.161  1.00  0.00    -0.388 OA
ATOM     15  H   UNL     1      12.866  13.174  47.291  1.00  0.00     0.211 HD
ENDBRANCH   1  14
TORSDOF 8
ENDMDL
MODEL 7
REMARK VINA RESULT:    -5.586     19.808     20.718
REMARK INTER + INTRA:          -7.773
REMARK INTER:                  -7.538
REMARK INTRA:                  -0.235
REMARK UNBOUND:                -0.227
REMARK SMILES C[C@H](O)[C@H](O)[C@@H](O)[C@H](O)C=O
REMARK SMILES IDX 4 1 2 2 1 3 3 4 6 6 8 7 10 8 11 9 9 10 7 12 5 14
REMARK H PARENT 3 5 9 11 7 13 5 15
REMARK Flexibility Score: inf
ROOT
ATOM      1  C   UNL     1      13.708  14.550  48.060  1.00  0.00     0.174 C 
ENDROOT
BRANCH   1   2
ATOM      2  C   UNL     1      14.644  14.039  46.929  1.00  0.00     0.142 C 
ATOM      3  C   UNL     1      13.911  13.684  45.630  1.00  0.00     0.041 C 
BRANCH   2   4
ATOM      4  O   UNL     1      15.410  12.949  47.373  1.00  0.00    -0.391 OA
ATOM      5  H   UNL     1      15.865  12.569  46.577  1.00  0.00     0.211 HD
ENDBRANCH   2   4
ENDBRANCH   1   2
BRANCH   1   6
ATOM      6  C   UNL     1      13.228  16.031  47.977  1.00  0.00     0.181 C 
BRANCH   6   7
ATOM      7  C   UNL     1      14.120  16.996  47.146  1.00  0.00     0.209 C 
BRANCH   7   8
ATOM      8  C   UNL     1      13.373  17.585  45.979  1.00  0.00     0.258 C 
ATOM      9  O   UNL     1      12.495  16.949  45.416  1.00  0.00    -0.300 OA
ENDBRANCH   7   8
BRANCH   7  10
ATOM     10  O   UNL     1      14.567  18.037  47.977  1.00  0.00    -0.383 OA
ATOM     11  H   UNL     1      15.551  17.934  48.065  1.00  0.00     0.211 HD
ENDBRANCH   7  10
ENDBRANCH   6   7
BRANCH   6  12
ATOM     12  O   UNL     1      12.964  16.532  49.269  1.00  0.00    -0.387 OA
ATOM     13  H   UNL     1      13.810  16.850  49.675  1.00  0.00     0.211 HD
ENDBRANCH   6  12
ENDBRANCH   1   6
BRANCH   1  14
ATOM     14  O   UNL     1      12.584  13.710  48.147  1.00  0.00    -0.388 OA
ATOM     15  H   UNL     1      12.708  13.137  48.950  1.00  0.00     0.211 HD
ENDBRANCH   1  14
TORSDOF 8
ENDMDL
MODEL 8
REMARK VINA RESULT:    -5.576      1.399      4.087
REMARK INTER + INTRA:          -7.759
REMARK INTER:                  -7.408
REMARK INTRA:                  -0.351
REMARK UNBOUND:                -0.227
REMARK SMILES C[C@H](O)[C@H](O)[C@@H](O)[C@H](O)C=O
REMARK SMILES IDX 4 1 2 2 1 3 3 4 6 6 8 7 10 8 11 9 9 10 7 12 5 14
REMARK H PARENT 3 5 9 11 7 13 5 15
REMARK Flexibility Score: inf
ROOT
ATOM      1  C   UNL     1      -0.518  29.970  44.026  1.00  0.00     0.174 C 
ENDROOT
BRANCH   1   2
ATOM      2  C   UNL     1      -1.780  29.231  44.554  1.00  0.00     0.142 C 
ATOM      3  C   UNL     1      -1.467  28.086  45.524  1.00  0.00     0.041 C 
BRANCH   2   4
ATOM      4  O   UNL     1      -2.568  28.769  43.487  1.00  0.00    -0.391 OA
ATOM      5  H   UNL     1      -1.945  28.435  42.790  1.00  0.00     0.211 HD
ENDBRANCH   2   4
ENDBRANCH   1   2
BRANCH   1   6
ATOM      6  C   UNL     1      -0.134  29.753  42.531  1.00  0.00     0.181 C 
BRANCH   6   7
ATOM      7  C   UNL     1       0.918  28.644  42.248  1.00  0.00     0.209 C 
BRANCH   7   8
ATOM      8  C   UNL     1       0.845  28.150  40.827  1.00  0.00     0.258 C 
ATOM      9  O   UNL     1       0.886  28.934  39.892  1.00  0.00    -0.300 OA
ENDBRANCH   7   8
BRANCH   7  10
ATOM     10  O   UNL     1       2.203  29.159  42.488  1.00  0.00    -0.383 OA
ATOM     11  H   UNL     1       2.123  30.149  42.489  1.00  0.00     0.211 HD
ENDBRANCH   7  10
ENDBRANCH   6   7
BRANCH   6  12
ATOM     12  O   UNL     1       0.216  30.982  41.934  1.00  0.00    -0.387 OA
ATOM     13  H   UNL     1       1.013  30.851  41.360  1.00  0.00     0.211 HD
ENDBRANCH   6  12
ENDBRANCH   1   6
BRANCH   1  14
ATOM     14  O   UNL     1      -0.654  31.349  44.267  1.00  0.00    -0.388 OA
ATOM     15  H   UNL     1       0.260  31.714  44.409  1.00  0.00     0.211 HD
ENDBRANCH   1  14
TORSDOF 8
ENDMDL
MODEL 9
REMARK VINA RESULT:    -5.510     19.096     20.165
REMARK INTER + INTRA:          -7.670
REMARK INTER:                  -7.387
REMARK INTRA:                  -0.284
REMARK UNBOUND:                -0.227
REMARK SMILES C[C@H](O)[C@H](O)[C@@H](O)[C@H](O)C=O
REMARK SMILES IDX 4 1 2 2 1 3 3 4 6 6 8 7 10 8 11 9 9 10 7 12 5 14
REMARK H PARENT 3 5 9 11 7 13 5 15
REMARK Flexibility Score: inf
ROOT
ATOM      1  C   UNL     1      14.171  16.666  47.202  1.00  0.00     0.174 C 
ENDROOT
BRANCH   1   2
ATOM      2  C   UNL     1      13.836  15.669  48.348  1.00  0.00     0.142 C 
ATOM      3  C   UNL     1      13.298  14.320  47.859  1.00  0.00     0.041 C 
BRANCH   2   4
ATOM      4  O   UNL     1      12.946  16.249  49.266  1.00  0.00    -0.391 OA
ATOM      5  H   UNL     1      13.472  16.886  49.818  1.00  0.00     0.211 HD
ENDBRANCH   2   4
ENDBRANCH   1   2
BRANCH   1   6
ATOM      6  C   UNL     1      13.077  16.903  46.117  1.00  0.00     0.181 C 
BRANCH   6   7
ATOM      7  C   UNL     1      13.466  16.532  44.659  1.00  0.00     0.209 C 
BRANCH   7   8
ATOM      8  C   UNL     1      14.686  15.650  44.610  1.00  0.00     0.258 C 
ATOM      9  O   UNL     1      14.578  14.445  44.445  1.00  0.00    -0.300 OA
ENDBRANCH   7   8
BRANCH   7  10
ATOM     10  O   UNL     1      12.391  15.859  44.054  1.00  0.00    -0.383 OA
ATOM     11  H   UNL     1      12.031  15.224  44.727  1.00  0.00     0.211 HD
ENDBRANCH   7  10
ENDBRANCH   6   7
BRANCH   6  12
ATOM     12  O   UNL     1      12.570  18.215  46.214  1.00  0.00    -0.387 OA
ATOM     13  H   UNL     1      11.811  18.227  46.850  1.00  0.00     0.211 HD
ENDBRANCH   6  12
ENDBRANCH   1   6
BRANCH   1  14
ATOM     14  O   UNL     1      14.539  17.903  47.758  1.00  0.00    -0.388 OA
ATOM     15  H   UNL     1      14.991  17.714  48.623  1.00  0.00     0.211 HD
ENDBRANCH   1  14
TORSDOF 8
ENDMDL
