MODEL 1
REMARK VINA RESULT:    -5.494      0.000      0.000
REMARK INTER + INTRA:          -8.698
REMARK INTER:                  -8.384
REMARK INTRA:                  -0.314
REMARK UNBOUND:                -0.314
REMARK SMILES CCCCCCCCCCC(=O)[O-]
REMARK SMILES IDX 7 1 8 2 9 3 10 4 11 5 12 6 13 7 6 8 5 9 4 10 3 11 2 12 1 13
REMARK H PARENT
REMARK Flexibility Score: inf
ROOT
ATOM      1  C   UNL     1      88.055 326.284 196.911  1.00  0.00     0.000 C 
ENDROOT
BRANCH   1   2
ATOM      2  C   UNL     1      88.860 326.872 198.081  1.00  0.00     0.000 C 
BRANCH   2   3
ATOM      3  C   UNL     1      89.112 325.848 199.202  1.00  0.00     0.006 C 
BRANCH   3   4
ATOM      4  C   UNL     1      89.720 326.498 200.453  1.00  0.00     0.053 C 
BRANCH   4   5
ATOM      5  C   UNL     1      88.933 326.175 201.687  1.00  0.00     0.041 C 
ATOM      6  O   UNL     1      88.145 325.192 201.697  1.00  0.00    -0.550 OA
ATOM      7  O   UNL     1      89.092 326.941 202.835  1.00  0.00    -0.550 OA
ENDBRANCH   4   5
ENDBRANCH   3   4
ENDBRANCH   2   3
ENDBRANCH   1   2
BRANCH   1   8
ATOM      8  C   UNL     1      88.782 326.423 195.562  1.00  0.00     0.000 C 
BRANCH   8   9
ATOM      9  C   UNL     1      87.822 326.735 194.404  1.00  0.00    -0.000 C 
BRANCH   9  10
ATOM     10  C   UNL     1      86.593 325.809 194.386  1.00  0.00    -0.000 C 
BRANCH  10  11
ATOM     11  C   UNL     1      86.618 324.819 193.210  1.00  0.00    -0.000 C 
BRANCH  11  12
ATOM     12  C   UNL     1      88.009 324.698 192.570  1.00  0.00    -0.003 C 
ATOM     13  C   UNL     1      87.936 323.968 191.232  1.00  0.00     0.004 C 
ENDBRANCH  11  12
ENDBRANCH  10  11
ENDBRANCH   9  10
ENDBRANCH   8   9
ENDBRANCH   1   8
TORSDOF 9
ENDMDL
MODEL 2
REMARK VINA RESULT:    -5.487      5.320      7.848
REMARK INTER + INTRA:          -8.688
REMARK INTER:                  -7.881
REMARK INTRA:                  -0.807
REMARK UNBOUND:                -0.314
REMARK SMILES CCCCCCCCCCC(=O)[O-]
REMARK SMILES IDX 7 1 8 2 9 3 10 4 11 5 12 6 13 7 6 8 5 9 4 10 3 11 2 12 1 13
REMARK H PARENT
REMARK Flexibility Score: inf
ROOT
ATOM      1  C   UNL     1      88.137 325.371 193.208  1.00  0.00     0.000 C 
ENDROOT
BRANCH   1   2
ATOM      2  C   UNL     1      86.806 324.633 192.983  1.00  0.00     0.000 C 
BRANCH   2   3
ATOM      3  C   UNL     1      86.849 323.689 191.769  1.00  0.00     0.006 C 
BRANCH   3   4
ATOM      4  C   UNL     1      88.088 323.925 190.896  1.00  0.00     0.053 C 
BRANCH   4   5
ATOM      5  C   UNL     1      88.330 322.786 189.952  1.00  0.00     0.041 C 
ATOM      6  O   UNL     1      87.735 322.745 188.844  1.00  0.00    -0.550 OA
ATOM      7  O   UNL     1      89.236 321.786 190.286  1.00  0.00    -0.550 OA
ENDBRANCH   4   5
ENDBRANCH   3   4
ENDBRANCH   2   3
ENDBRANCH   1   2
BRANCH   1   8
ATOM      8  C   UNL     1      87.971 326.648 194.050  1.00  0.00     0.000 C 
BRANCH   8   9
ATOM      9  C   UNL     1      86.628 326.692 194.795  1.00  0.00    -0.000 C 
BRANCH   9  10
ATOM     10  C   UNL     1      86.778 326.431 196.305  1.00  0.00    -0.000 C 
BRANCH  10  11
ATOM     11  C   UNL     1      88.248 326.393 196.754  1.00  0.00    -0.000 C 
BRANCH  11  12
ATOM     12  C   UNL     1      88.605 325.097 197.496  1.00  0.00    -0.003 C 
ATOM     13  C   UNL     1      88.980 323.989 196.517  1.00  0.00     0.004 C 
ENDBRANCH  11  12
ENDBRANCH  10  11
ENDBRANCH   9  10
ENDBRANCH   8   9
ENDBRANCH   1   8
TORSDOF 9
ENDMDL
MODEL 3
REMARK VINA RESULT:    -5.451     20.566     22.056
REMARK INTER + INTRA:          -8.632
REMARK INTER:                  -7.870
REMARK INTRA:                  -0.762
REMARK UNBOUND:                -0.314
REMARK SMILES CCCCCCCCCCC(=O)[O-]
REMARK SMILES IDX 7 1 8 2 9 3 10 4 11 5 12 6 13 7 6 8 5 9 4 10 3 11 2 12 1 13
REMARK H PARENT
REMARK Flexibility Score: inf
ROOT
ATOM      1  C   UNL     1     104.157 313.004 192.276  1.00  0.00     0.000 C 
ENDROOT
BRANCH   1   2
ATOM      2  C   UNL     1     105.472 313.565 191.710  1.00  0.00     0.000 C 
BRANCH   2   3
ATOM      3  C   UNL     1     105.247 314.533 190.535  1.00  0.00     0.006 C 
BRANCH   3   4
ATOM      4  C   UNL     1     103.757 314.758 190.248  1.00  0.00     0.053 C 
BRANCH   4   5
ATOM      5  C   UNL     1     103.471 314.794 188.777  1.00  0.00     0.041 C 
ATOM      6  O   UNL     1     104.220 315.444 188.002  1.00  0.00    -0.550 OA
ATOM      7  O   UNL     1     102.394 314.084 188.259  1.00  0.00    -0.550 OA
ENDBRANCH   4   5
ENDBRANCH   3   4
ENDBRANCH   2   3
ENDBRANCH   1   2
BRANCH   1   8
ATOM      8  C   UNL     1     104.355 311.676 193.028  1.00  0.00     0.000 C 
BRANCH   8   9
ATOM      9  C   UNL     1     105.764 311.542 193.625  1.00  0.00    -0.000 C 
BRANCH   9  10
ATOM     10  C   UNL     1     105.761 311.558 195.164  1.00  0.00    -0.000 C 
BRANCH  10  11
ATOM     11  C   UNL     1     104.351 311.733 195.750  1.00  0.00    -0.000 C 
BRANCH  11  12
ATOM     12  C   UNL     1     104.218 313.006 196.598  1.00  0.00    -0.003 C 
ATOM     13  C   UNL     1     103.859 314.209 195.731  1.00  0.00     0.004 C 
ENDBRANCH  11  12
ENDBRANCH  10  11
ENDBRANCH   9  10
ENDBRANCH   8   9
ENDBRANCH   1   8
TORSDOF 9
ENDMDL
MODEL 4
REMARK VINA RESULT:    -5.421     20.550     21.214
REMARK INTER + INTRA:          -8.587
REMARK INTER:                  -8.313
REMARK INTRA:                  -0.275
REMARK UNBOUND:                -0.314
REMARK SMILES CCCCCCCCCCC(=O)[O-]
REMARK SMILES IDX 7 1 8 2 9 3 10 4 11 5 12 6 13 7 6 8 5 9 4 10 3 11 2 12 1 13
REMARK H PARENT
REMARK Flexibility Score: inf
ROOT
ATOM      1  C   UNL     1     103.846 311.175 196.925  1.00  0.00     0.000 C 
ENDROOT
BRANCH   1   2
ATOM      2  C   UNL     1     103.871 312.145 198.118  1.00  0.00     0.000 C 
BRANCH   2   3
ATOM      3  C   UNL     1     103.286 311.524 199.400  1.00  0.00     0.006 C 
BRANCH   3   4
ATOM      4  C   UNL     1     104.153 311.815 200.631  1.00  0.00     0.053 C 
BRANCH   4   5
ATOM      5  C   UNL     1     103.533 311.284 201.888  1.00  0.00     0.041 C 
ATOM      6  O   UNL     1     102.333 310.903 201.890  1.00  0.00    -0.550 OA
ATOM      7  O   UNL     1     104.290 311.182 203.049  1.00  0.00    -0.550 OA
ENDBRANCH   4   5
ENDBRANCH   3   4
ENDBRANCH   2   3
ENDBRANCH   1   2
BRANCH   1   8
ATOM      8  C   UNL     1     104.115 311.880 195.584  1.00  0.00     0.000 C 
BRANCH   8   9
ATOM      9  C   UNL     1     105.552 311.666 195.084  1.00  0.00    -0.000 C 
BRANCH   9  10
ATOM     10  C   UNL     1     105.674 311.787 193.555  1.00  0.00    -0.000 C 
BRANCH  10  11
ATOM     11  C   UNL     1     104.337 312.139 192.883  1.00  0.00    -0.000 C 
BRANCH  11  12
ATOM     12  C   UNL     1     104.301 313.581 192.358  1.00  0.00    -0.003 C 
ATOM     13  C   UNL     1     104.041 313.613 190.855  1.00  0.00     0.004 C 
ENDBRANCH  11  12
ENDBRANCH  10  11
ENDBRANCH   9  10
ENDBRANCH   8   9
ENDBRANCH   1   8
TORSDOF 9
ENDMDL
MODEL 5
REMARK VINA RESULT:    -5.402     20.167     20.963
REMARK INTER + INTRA:          -8.558
REMARK INTER:                  -7.741
REMARK INTRA:                  -0.817
REMARK UNBOUND:                -0.314
REMARK SMILES CCCCCCCCCCC(=O)[O-]
REMARK SMILES IDX 7 1 8 2 9 3 10 4 11 5 12 6 13 7 6 8 5 9 4 10 3 11 2 12 1 13
REMARK H PARENT
REMARK Flexibility Score: inf
ROOT
ATOM      1  C   UNL     1     103.639 311.508 194.703  1.00  0.00     0.000 C 
ENDROOT
BRANCH   1   2
ATOM      2  C   UNL     1     104.657 312.022 195.735  1.00  0.00     0.000 C 
BRANCH   2   3
ATOM      3  C   UNL     1     103.991 312.516 197.031  1.00  0.00     0.006 C 
BRANCH   3   4
ATOM      4  C   UNL     1     103.811 311.388 198.055  1.00  0.00     0.053 C 
BRANCH   4   5
ATOM      5  C   UNL     1     103.534 311.920 199.428  1.00  0.00     0.041 C 
ATOM      6  O   UNL     1     102.361 312.239 199.759  1.00  0.00    -0.550 OA
ATOM      7  O   UNL     1     104.565 312.034 200.353  1.00  0.00    -0.550 OA
ENDBRANCH   4   5
ENDBRANCH   3   4
ENDBRANCH   2   3
ENDBRANCH   1   2
BRANCH   1   8
ATOM      8  C   UNL     1     104.265 311.282 193.316  1.00  0.00     0.000 C 
BRANCH   8   9
ATOM      9  C   UNL     1     105.666 311.900 193.194  1.00  0.00    -0.000 C 
BRANCH   9  10
ATOM     10  C   UNL     1     105.697 313.122 192.258  1.00  0.00    -0.000 C 
BRANCH  10  11
ATOM     11  C   UNL     1     104.313 313.454 191.676  1.00  0.00    -0.000 C 
BRANCH  11  12
ATOM     12  C   UNL     1     103.841 314.868 192.043  1.00  0.00    -0.003 C 
ATOM     13  C   UNL     1     103.743 315.039 193.556  1.00  0.00     0.004 C 
ENDBRANCH  11  12
ENDBRANCH  10  11
ENDBRANCH   9  10
ENDBRANCH   8   9
ENDBRANCH   1   8
TORSDOF 9
ENDMDL
MODEL 6
REMARK VINA RESULT:    -5.383     20.073     21.063
REMARK INTER + INTRA:          -8.529
REMARK INTER:                  -7.886
REMARK INTRA:                  -0.643
REMARK UNBOUND:                -0.314
REMARK SMILES CCCCCCCCCCC(=O)[O-]
REMARK SMILES IDX 7 1 8 2 9 3 10 4 11 5 12 6 13 7 6 8 5 9 4 10 3 11 2 12 1 13
REMARK H PARENT
REMARK Flexibility Score: inf
ROOT
ATOM      1  C   UNL     1     104.240 311.621 192.959  1.00  0.00     0.000 C 
ENDROOT
BRANCH   1   2
ATOM      2  C   UNL     1     105.583 311.228 193.597  1.00  0.00     0.000 C 
BRANCH   2   3
ATOM      3  C   UNL     1     105.764 311.816 195.008  1.00  0.00     0.006 C 
BRANCH   3   4
ATOM      4  C   UNL     1     104.485 311.707 195.848  1.00  0.00     0.053 C 
BRANCH   4   5
ATOM      5  C   UNL     1     104.066 313.036 196.400  1.00  0.00     0.041 C 
ATOM      6  O   UNL     1     104.371 314.098 195.796  1.00  0.00    -0.550 OA
ATOM      7  O   UNL     1     103.312 313.099 197.566  1.00  0.00    -0.550 OA
ENDBRANCH   4   5
ENDBRANCH   3   4
ENDBRANCH   2   3
ENDBRANCH   1   2
BRANCH   1   8
ATOM      8  C   UNL     1     104.248 313.054 192.398  1.00  0.00     0.000 C 
BRANCH   8   9
ATOM      9  C   UNL     1     105.593 313.427 191.754  1.00  0.00    -0.000 C 
BRANCH   9  10
ATOM     10  C   UNL     1     105.445 314.470 190.631  1.00  0.00    -0.000 C 
BRANCH  10  11
ATOM     11  C   UNL     1     103.976 314.819 190.340  1.00  0.00    -0.000 C 
BRANCH  11  12
ATOM     12  C   UNL     1     103.698 314.998 188.841  1.00  0.00    -0.003 C 
ATOM     13  C   UNL     1     102.549 314.104 188.385  1.00  0.00     0.004 C 
ENDBRANCH  11  12
ENDBRANCH  10  11
ENDBRANCH   9  10
ENDBRANCH   8   9
ENDBRANCH   1   8
TORSDOF 9
ENDMDL
MODEL 7
REMARK VINA RESULT:    -5.334     20.686     22.083
REMARK INTER + INTRA:          -8.454
REMARK INTER:                  -7.882
REMARK INTRA:                  -0.572
REMARK UNBOUND:                -0.314
REMARK SMILES CCCCCCCCCCC(=O)[O-]
REMARK SMILES IDX 7 1 8 2 9 3 10 4 11 5 12 6 13 7 6 8 5 9 4 10 3 11 2 12 1 13
REMARK H PARENT
REMARK Flexibility Score: inf
ROOT
ATOM      1  C   UNL     1     104.231 311.228 193.492  1.00  0.00     0.000 C 
ENDROOT
BRANCH   1   2
ATOM      2  C   UNL     1     105.622 311.876 193.387  1.00  0.00     0.000 C 
BRANCH   2   3
ATOM      3  C   UNL     1     105.629 313.122 192.483  1.00  0.00     0.006 C 
BRANCH   3   4
ATOM      4  C   UNL     1     104.291 313.319 191.759  1.00  0.00     0.053 C 
BRANCH   4   5
ATOM      5  C   UNL     1     104.449 314.120 190.503  1.00  0.00     0.041 C 
ATOM      6  O   UNL     1     103.484 314.240 189.703  1.00  0.00    -0.550 OA
ATOM      7  O   UNL     1     105.653 314.759 190.231  1.00  0.00    -0.550 OA
ENDBRANCH   4   5
ENDBRANCH   3   4
ENDBRANCH   2   3
ENDBRANCH   1   2
BRANCH   1   8
ATOM      8  C   UNL     1     103.546 311.512 194.840  1.00  0.00     0.000 C 
BRANCH   8   9
ATOM      9  C   UNL     1     104.534 311.996 195.913  1.00  0.00    -0.000 C 
BRANCH   9  10
ATOM     10  C   UNL     1     104.155 313.370 196.495  1.00  0.00    -0.000 C 
BRANCH  10  11
ATOM     11  C   UNL     1     103.765 313.294 197.980  1.00  0.00    -0.000 C 
BRANCH  11  12
ATOM     12  C   UNL     1     103.679 311.850 198.495  1.00  0.00    -0.003 C 
ATOM     13  C   UNL     1     103.772 311.804 200.017  1.00  0.00     0.004 C 
ENDBRANCH  11  12
ENDBRANCH  10  11
ENDBRANCH   9  10
ENDBRANCH   8   9
ENDBRANCH   1   8
TORSDOF 9
ENDMDL
MODEL 8
REMARK VINA RESULT:    -5.330      5.752      8.375
REMARK INTER + INTRA:          -8.448
REMARK INTER:                  -7.850
REMARK INTRA:                  -0.598
REMARK UNBOUND:                -0.314
REMARK SMILES CCCCCCCCCCC(=O)[O-]
REMARK SMILES IDX 7 1 8 2 9 3 10 4 11 5 12 6 13 7 6 8 5 9 4 10 3 11 2 12 1 13
REMARK H PARENT
REMARK Flexibility Score: inf
ROOT
ATOM      1  C   UNL     1      86.766 324.589 193.045  1.00  0.00     0.000 C 
ENDROOT
BRANCH   1   2
ATOM      2  C   UNL     1      86.759 323.718 191.777  1.00  0.00     0.000 C 
BRANCH   2   3
ATOM      3  C   UNL     1      88.057 323.850 190.961  1.00  0.00     0.006 C 
BRANCH   3   4
ATOM      4  C   UNL     1      88.626 322.484 190.555  1.00  0.00     0.053 C 
BRANCH   4   5
ATOM      5  C   UNL     1      89.212 322.512 189.176  1.00  0.00     0.041 C 
ATOM      6  O   UNL     1      89.048 321.535 188.398  1.00  0.00    -0.550 OA
ATOM      7  O   UNL     1      89.914 323.629 188.739  1.00  0.00    -0.550 OA
ENDBRANCH   4   5
ENDBRANCH   3   4
ENDBRANCH   2   3
ENDBRANCH   1   2
BRANCH   1   8
ATOM      8  C   UNL     1      88.128 325.261 193.294  1.00  0.00     0.000 C 
BRANCH   8   9
ATOM      9  C   UNL     1      87.999 326.588 194.057  1.00  0.00    -0.000 C 
BRANCH   9  10
ATOM     10  C   UNL     1      86.649 326.727 194.784  1.00  0.00    -0.000 C 
BRANCH  10  11
ATOM     11  C   UNL     1      86.762 326.466 196.295  1.00  0.00    -0.000 C 
BRANCH  11  12
ATOM     12  C   UNL     1      88.218 326.320 196.761  1.00  0.00    -0.003 C 
ATOM     13  C   UNL     1      88.483 324.918 197.302  1.00  0.00     0.004 C 
ENDBRANCH  11  12
ENDBRANCH  10  11
ENDBRANCH   9  10
ENDBRANCH   8   9
ENDBRANCH   1   8
TORSDOF 9
ENDMDL
MODEL 9
REMARK VINA RESULT:    -5.327      3.701      7.023
REMARK INTER + INTRA:          -8.444
REMARK INTER:                  -7.967
REMARK INTRA:                  -0.477
REMARK UNBOUND:                -0.314
REMARK SMILES CCCCCCCCCCC(=O)[O-]
REMARK SMILES IDX 7 1 8 2 9 3 10 4 11 5 12 6 13 7 6 8 5 9 4 10 3 11 2 12 1 13
REMARK H PARENT
REMARK Flexibility Score: inf
ROOT
ATOM      1  C   UNL     1      86.799 326.852 194.741  1.00  0.00     0.000 C 
ENDROOT
BRANCH   1   2
ATOM      2  C   UNL     1      88.124 326.486 194.053  1.00  0.00     0.000 C 
BRANCH   2   3
ATOM      3  C   UNL     1      87.963 325.359 193.017  1.00  0.00     0.006 C 
BRANCH   3   4
ATOM      4  C   UNL     1      88.113 323.969 193.647  1.00  0.00     0.053 C 
BRANCH   4   5
ATOM      5  C   UNL     1      86.899 323.120 193.421  1.00  0.00     0.041 C 
ATOM      6  O   UNL     1      86.238 323.231 192.355  1.00  0.00    -0.550 OA
ATOM      7  O   UNL     1      86.515 322.186 194.376  1.00  0.00    -0.550 OA
ENDBRANCH   4   5
ENDBRANCH   3   4
ENDBRANCH   2   3
ENDBRANCH   1   2
BRANCH   1   8
ATOM      8  C   UNL     1      86.793 326.500 196.239  1.00  0.00     0.000 C 
BRANCH   8   9
ATOM      9  C   UNL     1      88.123 325.888 196.705  1.00  0.00    -0.000 C 
BRANCH   9  10
ATOM     10  C   UNL     1      88.761 326.667 197.869  1.00  0.00    -0.000 C 
BRANCH  10  11
ATOM     11  C   UNL     1      89.176 325.754 199.034  1.00  0.00    -0.000 C 
BRANCH  11  12
ATOM     12  C   UNL     1      89.547 326.542 200.299  1.00  0.00    -0.003 C 
ATOM     13  C   UNL     1      88.671 326.132 201.478  1.00  0.00     0.004 C 
ENDBRANCH  11  12
ENDBRANCH  10  11
ENDBRANCH   9  10
ENDBRANCH   8   9
ENDBRANCH   1   8
TORSDOF 9
ENDMDL
