MODEL 1
REMARK VINA RESULT:     0.024      0.000      0.000
REMARK INTER + INTRA:           0.462
REMARK INTER:                   0.028
REMARK INTRA:                   0.434
REMARK UNBOUND:                 0.434
REMARK SMILES O=c1c(O)c(-c2ccc(O)c(O)c2)oc2cc(O)cc(O)c12
REMARK SMILES IDX 5 1 3 2 2 3 1 4 22 5 20 6 19 7 17 8 16 9 15 10 14 11 6 12
REMARK SMILES IDX 7 13 8 14 9 15 13 16 11 17 10 18 12 20 4 22 21 24 18 26
REMARK H PARENT 10 19 12 21 4 23 21 25 18 27
REMARK Flexibility Score: inf
ROOT
ATOM      1  C   UNL     1       0.054  25.692  29.342  1.00  0.00     0.180 A 
ATOM      2  C   UNL     1       0.177  26.979  28.791  1.00  0.00     0.208 A 
ATOM      3  C   UNL     1       0.166  28.091  29.649  1.00  0.00     0.238 A 
ATOM      4  O   UNL     1       0.330  29.237  29.154  1.00  0.00    -0.285 OA
ATOM      5  C   UNL     1       0.017  27.904  31.044  1.00  0.00     0.111 A 
ATOM      6  C   UNL     1      -0.046  28.960  32.001  1.00  0.00     0.134 A 
ATOM      7  C   UNL     1      -0.063  28.653  33.368  1.00  0.00     0.093 A 
ATOM      8  C   UNL     1      -0.084  27.328  33.808  1.00  0.00     0.123 A 
ATOM      9  C   UNL     1      -0.081  26.290  32.880  1.00  0.00     0.094 A 
ATOM     10  C   UNL     1      -0.029  26.564  31.511  1.00  0.00     0.146 A 
ATOM     11  O   UNL     1      -0.017  25.545  30.660  1.00  0.00    -0.452 OA
ENDROOT
BRANCH   1  12
ATOM     12  C   UNL     1       0.031  24.473  28.501  1.00  0.00     0.025 A 
ATOM     13  C   UNL     1      -0.081  24.552  27.102  1.00  0.00     0.016 A 
ATOM     14  C   UNL     1      -0.124  23.388  26.331  1.00  0.00     0.051 A 
ATOM     15  C   UNL     1      -0.071  22.130  26.944  1.00  0.00     0.157 A 
ATOM     16  C   UNL     1       0.063  23.210  29.113  1.00  0.00     0.062 A 
ATOM     17  C   UNL     1       0.021  22.042  28.344  1.00  0.00     0.158 A 
BRANCH  15  18
ATOM     18  O   UNL     1      -0.113  20.970  26.172  1.00  0.00    -0.504 OA
ATOM     19  H   UNL     1      -0.864  20.298  26.266  1.00  0.00     0.293 HD
ENDBRANCH  15  18
BRANCH  17  20
ATOM     20  O   UNL     1       0.069  20.806  28.986  1.00  0.00    -0.504 OA
ATOM     21  H   UNL     1      -0.229  20.686  29.947  1.00  0.00     0.293 HD
ENDBRANCH  17  20
ENDBRANCH   1  12
BRANCH   2  22
ATOM     22  O   UNL     1       0.343  27.141  27.413  1.00  0.00    -0.502 OA
ATOM     23  H   UNL     1       0.801  26.446  26.835  1.00  0.00     0.293 HD
ENDBRANCH   2  22
BRANCH   6  24
ATOM     24  O   UNL     1      -0.123  30.314  31.665  1.00  0.00    -0.507 OA
ATOM     25  H   UNL     1       0.543  31.016  31.949  1.00  0.00     0.293 HD
ENDBRANCH   6  24
BRANCH   8  26
ATOM     26  O   UNL     1      -0.116  27.033  35.170  1.00  0.00    -0.508 OA
ATOM     27  H   UNL     1      -0.147  26.078  35.505  1.00  0.00     0.293 HD
ENDBRANCH   8  26
TORSDOF 6
ENDMDL
MODEL 2
REMARK VINA RESULT:     1.098      1.095      6.566
REMARK INTER + INTRA:           1.756
REMARK INTER:                   1.305
REMARK INTRA:                   0.452
REMARK UNBOUND:                 0.434
REMARK SMILES O=c1c(O)c(-c2ccc(O)c(O)c2)oc2cc(O)cc(O)c12
REMARK SMILES IDX 5 1 3 2 2 3 1 4 22 5 20 6 19 7 17 8 16 9 15 10 14 11 6 12
REMARK SMILES IDX 7 13 8 14 9 15 13 16 11 17 10 18 12 20 4 22 21 24 18 26
REMARK H PARENT 10 19 12 21 4 23 21 25 18 27
REMARK Flexibility Score: inf
ROOT
ATOM      1  C   UNL     1      -0.006  26.633  30.465  1.00  0.00     0.180 A 
ATOM      2  C   UNL     1      -0.042  27.239  29.198  1.00  0.00     0.208 A 
ATOM      3  C   UNL     1      -0.037  26.425  28.053  1.00  0.00     0.238 A 
ATOM      4  O   UNL     1      -0.124  26.972  26.922  1.00  0.00    -0.285 OA
ATOM      5  C   UNL     1       0.022  25.017  28.189  1.00  0.00     0.111 A 
ATOM      6  C   UNL     1       0.072  24.099  27.098  1.00  0.00     0.134 A 
ATOM      7  C   UNL     1      -0.005  22.722  27.350  1.00  0.00     0.093 A 
ATOM      8  C   UNL     1      -0.064  22.232  28.656  1.00  0.00     0.123 A 
ATOM      9  C   UNL     1      -0.055  23.118  29.729  1.00  0.00     0.094 A 
ATOM     10  C   UNL     1      -0.015  24.497  29.509  1.00  0.00     0.146 A 
ATOM     11  O   UNL     1      -0.018  25.308  30.561  1.00  0.00    -0.452 OA
ENDROOT
BRANCH   1  12
ATOM     12  C   UNL     1       0.017  27.424  31.717  1.00  0.00     0.025 A 
ATOM     13  C   UNL     1       0.161  28.822  31.696  1.00  0.00     0.016 A 
ATOM     14  C   UNL     1       0.203  29.545  32.891  1.00  0.00     0.051 A 
ATOM     15  C   UNL     1       0.117  28.883  34.122  1.00  0.00     0.157 A 
ATOM     16  C   UNL     1      -0.048  26.762  32.954  1.00  0.00     0.062 A 
ATOM     17  C   UNL     1      -0.007  27.484  34.153  1.00  0.00     0.158 A 
BRANCH  15  18
ATOM     18  O   UNL     1       0.158  29.608  35.313  1.00  0.00    -0.504 OA
ATOM     19  H   UNL     1       0.060  29.154  36.212  1.00  0.00     0.293 HD
ENDBRANCH  15  18
BRANCH  17  20
ATOM     20  O   UNL     1      -0.088  26.794  35.361  1.00  0.00    -0.504 OA
ATOM     21  H   UNL     1       0.661  26.812  36.043  1.00  0.00     0.293 HD
ENDBRANCH  17  20
ENDBRANCH   1  12
BRANCH   2  22
ATOM     22  O   UNL     1      -0.121  28.630  29.085  1.00  0.00    -0.502 OA
ATOM     23  H   UNL     1       0.325  29.141  28.333  1.00  0.00     0.293 HD
ENDBRANCH   2  22
BRANCH   6  24
ATOM     24  O   UNL     1       0.224  24.481  25.763  1.00  0.00    -0.507 OA
ATOM     25  H   UNL     1       0.159  25.430  25.425  1.00  0.00     0.293 HD
ENDBRANCH   6  24
BRANCH   8  26
ATOM     26  O   UNL     1      -0.125  20.861  28.897  1.00  0.00    -0.508 OA
ATOM     27  H   UNL     1      -0.104  20.188  28.141  1.00  0.00     0.293 HD
ENDBRANCH   8  26
TORSDOF 6
ENDMDL
