MODEL 1
REMARK VINA RESULT:    -5.643      0.000      0.000
REMARK INTER + INTRA:          -6.900
REMARK INTER:                  -6.632
REMARK INTRA:                  -0.268
REMARK UNBOUND:                -0.268
REMARK SMILES O=c1c(O)c(-c2ccc(O)c(O)c2)oc2cc(O)ccc12
REMARK SMILES IDX 5 1 3 2 2 3 1 4 21 5 15 6 14 7 16 8 17 9 19 10 20 11 6 12
REMARK SMILES IDX 7 13 8 14 9 15 13 16 11 17 10 18 12 20 4 22 18 24
REMARK H PARENT 10 19 12 21 4 23 18 25
REMARK Flexibility Score: inf
ROOT
ATOM      1  C   UNL     1      -7.572  83.624  -8.757  1.00  0.00     0.180 A 
ATOM      2  C   UNL     1      -8.011  84.957  -8.623  1.00  0.00     0.208 A 
ATOM      3  C   UNL     1      -9.383  85.232  -8.721  1.00  0.00     0.235 A 
ATOM      4  O   UNL     1      -9.799  86.418  -8.615  1.00  0.00    -0.285 OA
ATOM      5  C   UNL     1     -10.285  84.176  -8.929  1.00  0.00     0.069 A 
ATOM      6  C   UNL     1      -9.770  82.866  -9.029  1.00  0.00     0.142 A 
ATOM      7  O   UNL     1      -8.462  82.650  -8.940  1.00  0.00    -0.452 OA
ATOM      8  C   UNL     1     -10.637  81.785  -9.227  1.00  0.00     0.094 A 
ATOM      9  C   UNL     1     -12.019  81.999  -9.328  1.00  0.00     0.119 A 
ATOM     10  C   UNL     1     -12.531  83.297  -9.231  1.00  0.00     0.047 A 
ATOM     11  C   UNL     1     -11.673  84.383  -9.032  1.00  0.00     0.020 A 
ENDROOT
BRANCH   1  12
ATOM     12  C   UNL     1      -6.141  83.255  -8.685  1.00  0.00     0.025 A 
ATOM     13  C   UNL     1      -5.509  83.181  -7.436  1.00  0.00     0.016 A 
ATOM     14  C   UNL     1      -4.165  82.817  -7.343  1.00  0.00     0.051 A 
ATOM     15  C   UNL     1      -3.429  82.505  -8.491  1.00  0.00     0.157 A 
ATOM     16  C   UNL     1      -5.411  82.921  -9.839  1.00  0.00     0.062 A 
ATOM     17  C   UNL     1      -4.063  82.551  -9.756  1.00  0.00     0.158 A 
BRANCH  15  18
ATOM     18  O   UNL     1      -2.087  82.155  -8.332  1.00  0.00    -0.504 OA
ATOM     19  H   UNL     1      -1.388  82.764  -7.931  1.00  0.00     0.293 HD
ENDBRANCH  15  18
BRANCH  17  20
ATOM     20  O   UNL     1      -3.400  82.233 -10.943  1.00  0.00    -0.504 OA
ATOM     21  H   UNL     1      -2.431  81.952 -10.991  1.00  0.00     0.293 HD
ENDBRANCH  17  20
ENDBRANCH   1  12
BRANCH   2  22
ATOM     22  O   UNL     1      -7.095  85.981  -8.368  1.00  0.00    -0.502 OA
ATOM     23  H   UNL     1      -7.325  86.959  -8.497  1.00  0.00     0.293 HD
ENDBRANCH   2  22
BRANCH   9  24
ATOM     24  O   UNL     1     -12.890  80.930  -9.525  1.00  0.00    -0.508 OA
ATOM     25  H   UNL     1     -12.994  80.493 -10.433  1.00  0.00     0.293 HD
ENDBRANCH   9  24
TORSDOF 5
ENDMDL
MODEL 2
REMARK VINA RESULT:    -5.500      9.875     11.753
REMARK INTER + INTRA:          -6.733
REMARK INTER:                  -6.567
REMARK INTRA:                  -0.166
REMARK UNBOUND:                -0.268
REMARK SMILES O=c1c(O)c(-c2ccc(O)c(O)c2)oc2cc(O)ccc12
REMARK SMILES IDX 5 1 3 2 2 3 1 4 21 5 15 6 14 7 16 8 17 9 19 10 20 11 6 12
REMARK SMILES IDX 7 13 8 14 9 15 13 16 11 17 10 18 12 20 4 22 18 24
REMARK H PARENT 10 19 12 21 4 23 18 25
REMARK Flexibility Score: inf
ROOT
ATOM      1  C   UNL     1      -4.517  91.282 -14.730  1.00  0.00     0.180 A 
ATOM      2  C   UNL     1      -5.097  90.137 -14.146  1.00  0.00     0.208 A 
ATOM      3  C   UNL     1      -5.322  90.124 -12.761  1.00  0.00     0.235 A 
ATOM      4  O   UNL     1      -5.830  89.107 -12.214  1.00  0.00    -0.285 OA
ATOM      5  C   UNL     1      -4.986  91.252 -11.996  1.00  0.00     0.069 A 
ATOM      6  C   UNL     1      -4.431  92.368 -12.659  1.00  0.00     0.142 A 
ATOM      7  O   UNL     1      -4.225  92.337 -13.970  1.00  0.00    -0.452 OA
ATOM      8  C   UNL     1      -4.092  93.516 -11.932  1.00  0.00     0.094 A 
ATOM      9  C   UNL     1      -4.298  93.561 -10.547  1.00  0.00     0.119 A 
ATOM     10  C   UNL     1      -4.846  92.455  -9.889  1.00  0.00     0.047 A 
ATOM     11  C   UNL     1      -5.190  91.305 -10.605  1.00  0.00     0.020 A 
ENDROOT
BRANCH   1  12
ATOM     12  C   UNL     1      -4.231  91.367 -16.180  1.00  0.00     0.025 A 
ATOM     13  C   UNL     1      -2.901  91.398 -16.620  1.00  0.00     0.016 A 
ATOM     14  C   UNL     1      -2.609  91.458 -17.983  1.00  0.00     0.051 A 
ATOM     15  C   UNL     1      -3.635  91.472 -18.933  1.00  0.00     0.157 A 
ATOM     16  C   UNL     1      -5.265  91.358 -17.132  1.00  0.00     0.062 A 
ATOM     17  C   UNL     1      -4.981  91.414 -18.502  1.00  0.00     0.158 A 
BRANCH  15  18
ATOM     18  O   UNL     1      -3.276  91.540 -20.281  1.00  0.00    -0.504 OA
ATOM     19  H   UNL     1      -3.825  92.006 -20.989  1.00  0.00     0.293 HD
ENDBRANCH  15  18
BRANCH  17  20
ATOM     20  O   UNL     1      -6.058  91.404 -19.391  1.00  0.00    -0.504 OA
ATOM     21  H   UNL     1      -6.032  90.974 -20.305  1.00  0.00     0.293 HD
ENDBRANCH  17  20
ENDBRANCH   1  12
BRANCH   2  22
ATOM     22  O   UNL     1      -5.466  89.049 -14.939  1.00  0.00    -0.502 OA
ATOM     23  H   UNL     1      -5.838  89.160 -15.875  1.00  0.00     0.293 HD
ENDBRANCH   2  22
BRANCH   9  24
ATOM     24  O   UNL     1      -3.964  94.699  -9.816  1.00  0.00    -0.508 OA
ATOM     25  H   UNL     1      -4.669  95.246  -9.337  1.00  0.00     0.293 HD
ENDBRANCH   9  24
TORSDOF 5
ENDMDL
MODEL 3
REMARK VINA RESULT:    -5.479      9.737     11.625
REMARK INTER + INTRA:          -6.707
REMARK INTER:                  -6.996
REMARK INTRA:                   0.289
REMARK UNBOUND:                -0.268
REMARK SMILES O=c1c(O)c(-c2ccc(O)c(O)c2)oc2cc(O)ccc12
REMARK SMILES IDX 5 1 3 2 2 3 1 4 21 5 15 6 14 7 16 8 17 9 19 10 20 11 6 12
REMARK SMILES IDX 7 13 8 14 9 15 13 16 11 17 10 18 12 20 4 22 18 24
REMARK H PARENT 10 19 12 21 4 23 18 25
REMARK Flexibility Score: inf
ROOT
ATOM      1  C   UNL     1      -5.253  90.423 -15.263  1.00  0.00     0.180 A 
ATOM      2  C   UNL     1      -3.845  90.455 -15.208  1.00  0.00     0.208 A 
ATOM      3  C   UNL     1      -3.140  91.051 -16.265  1.00  0.00     0.235 A 
ATOM      4  O   UNL     1      -1.878  91.083 -16.244  1.00  0.00    -0.285 OA
ATOM      5  C   UNL     1      -3.850  91.614 -17.337  1.00  0.00     0.069 A 
ATOM      6  C   UNL     1      -5.260  91.562 -17.307  1.00  0.00     0.142 A 
ATOM      7  O   UNL     1      -5.888  90.981 -16.291  1.00  0.00    -0.452 OA
ATOM      8  C   UNL     1      -6.004  92.121 -18.352  1.00  0.00     0.094 A 
ATOM      9  C   UNL     1      -5.354  92.733 -19.433  1.00  0.00     0.119 A 
ATOM     10  C   UNL     1      -3.957  92.784 -19.465  1.00  0.00     0.047 A 
ATOM     11  C   UNL     1      -3.204  92.229 -18.425  1.00  0.00     0.020 A 
ENDROOT
BRANCH   1  12
ATOM     12  C   UNL     1      -6.067  89.797 -14.197  1.00  0.00     0.025 A 
ATOM     13  C   UNL     1      -5.627  89.856 -12.867  1.00  0.00     0.016 A 
ATOM     14  C   UNL     1      -6.389  89.290 -11.844  1.00  0.00     0.051 A 
ATOM     15  C   UNL     1      -7.610  88.667 -12.124  1.00  0.00     0.157 A 
ATOM     16  C   UNL     1      -7.304  89.192 -14.480  1.00  0.00     0.062 A 
ATOM     17  C   UNL     1      -8.077  88.624 -13.459  1.00  0.00     0.158 A 
BRANCH  15  18
ATOM     18  O   UNL     1      -8.321  88.114 -11.057  1.00  0.00    -0.504 OA
ATOM     19  H   UNL     1      -9.124  88.551 -10.627  1.00  0.00     0.293 HD
ENDBRANCH  15  18
BRANCH  17  20
ATOM     20  O   UNL     1      -9.295  88.039 -13.813  1.00  0.00    -0.504 OA
ATOM     21  H   UNL     1      -9.978  88.476 -14.415  1.00  0.00     0.293 HD
ENDBRANCH  17  20
ENDBRANCH   1  12
BRANCH   2  22
ATOM     22  O   UNL     1      -3.167  89.930 -14.105  1.00  0.00    -0.502 OA
ATOM     23  H   UNL     1      -2.156  89.884 -14.061  1.00  0.00     0.293 HD
ENDBRANCH   2  22
BRANCH   9  24
ATOM     24  O   UNL     1      -6.086  93.292 -20.477  1.00  0.00    -0.508 OA
ATOM     25  H   UNL     1      -6.791  92.760 -20.973  1.00  0.00     0.293 HD
ENDBRANCH   9  24
TORSDOF 5
ENDMDL
MODEL 4
REMARK VINA RESULT:    -5.384      2.982      7.261
REMARK INTER + INTRA:          -6.596
REMARK INTER:                  -6.276
REMARK INTRA:                  -0.320
REMARK UNBOUND:                -0.268
REMARK SMILES O=c1c(O)c(-c2ccc(O)c(O)c2)oc2cc(O)ccc12
REMARK SMILES IDX 5 1 3 2 2 3 1 4 21 5 15 6 14 7 16 8 17 9 19 10 20 11 6 12
REMARK SMILES IDX 7 13 8 14 9 15 13 16 11 17 10 18 12 20 4 22 18 24
REMARK H PARENT 10 19 12 21 4 23 18 25
REMARK Flexibility Score: inf
ROOT
ATOM      1  C   UNL     1      -5.474  84.060  -7.311  1.00  0.00     0.180 A 
ATOM      2  C   UNL     1      -4.294  83.297  -7.202  1.00  0.00     0.208 A 
ATOM      3  C   UNL     1      -3.075  83.960  -6.993  1.00  0.00     0.235 A 
ATOM      4  O   UNL     1      -2.004  83.300  -6.901  1.00  0.00    -0.285 OA
ATOM      5  C   UNL     1      -3.062  85.359  -6.878  1.00  0.00     0.069 A 
ATOM      6  C   UNL     1      -4.289  86.050  -6.976  1.00  0.00     0.142 A 
ATOM      7  O   UNL     1      -5.419  85.384  -7.184  1.00  0.00    -0.452 OA
ATOM      8  C   UNL     1      -4.319  87.445  -6.858  1.00  0.00     0.094 A 
ATOM      9  C   UNL     1      -3.133  88.160  -6.644  1.00  0.00     0.119 A 
ATOM     10  C   UNL     1      -1.916  87.477  -6.548  1.00  0.00     0.047 A 
ATOM     11  C   UNL     1      -1.875  86.084  -6.664  1.00  0.00     0.020 A 
ENDROOT
BRANCH   1  12
ATOM     12  C   UNL     1      -6.795  83.436  -7.550  1.00  0.00     0.025 A 
ATOM     13  C   UNL     1      -7.579  83.040  -6.458  1.00  0.00     0.016 A 
ATOM     14  C   UNL     1      -8.835  82.467  -6.661  1.00  0.00     0.051 A 
ATOM     15  C   UNL     1      -9.341  82.294  -7.953  1.00  0.00     0.157 A 
ATOM     16  C   UNL     1      -7.308  83.285  -8.850  1.00  0.00     0.062 A 
ATOM     17  C   UNL     1      -8.570  82.715  -9.063  1.00  0.00     0.158 A 
BRANCH  15  18
ATOM     18  O   UNL     1     -10.602  81.709  -8.088  1.00  0.00    -0.504 OA
ATOM     19  H   UNL     1     -11.042  81.514  -8.976  1.00  0.00     0.293 HD
ENDBRANCH  15  18
BRANCH  17  20
ATOM     20  O   UNL     1      -9.017  82.594 -10.380  1.00  0.00    -0.504 OA
ATOM     21  H   UNL     1      -8.601  81.975 -11.063  1.00  0.00     0.293 HD
ENDBRANCH  17  20
ENDBRANCH   1  12
BRANCH   2  22
ATOM     22  O   UNL     1      -4.344  81.902  -7.270  1.00  0.00    -0.502 OA
ATOM     23  H   UNL     1      -3.765  81.369  -7.908  1.00  0.00     0.293 HD
ENDBRANCH   2  22
BRANCH   9  24
ATOM     24  O   UNL     1      -3.153  89.548  -6.525  1.00  0.00    -0.508 OA
ATOM     25  H   UNL     1      -2.325  90.067  -6.257  1.00  0.00     0.293 HD
ENDBRANCH   9  24
TORSDOF 5
ENDMDL
MODEL 5
REMARK VINA RESULT:    -5.231      9.791     11.972
REMARK INTER + INTRA:          -6.416
REMARK INTER:                  -6.105
REMARK INTRA:                  -0.312
REMARK UNBOUND:                -0.268
REMARK SMILES O=c1c(O)c(-c2ccc(O)c(O)c2)oc2cc(O)ccc12
REMARK SMILES IDX 5 1 3 2 2 3 1 4 21 5 15 6 14 7 16 8 17 9 19 10 20 11 6 12
REMARK SMILES IDX 7 13 8 14 9 15 13 16 11 17 10 18 12 20 4 22 18 24
REMARK H PARENT 10 19 12 21 4 23 18 25
REMARK Flexibility Score: inf
ROOT
ATOM      1  C   UNL     1      -5.904  92.037 -14.070  1.00  0.00     0.180 A 
ATOM      2  C   UNL     1      -6.831  91.378 -13.236  1.00  0.00     0.208 A 
ATOM      3  C   UNL     1      -6.724  91.537 -11.846  1.00  0.00     0.235 A 
ATOM      4  O   UNL     1      -7.535  90.950 -11.079  1.00  0.00    -0.285 OA
ATOM      5  C   UNL     1      -5.714  92.360 -11.321  1.00  0.00     0.069 A 
ATOM      6  C   UNL     1      -4.840  93.003 -12.223  1.00  0.00     0.142 A 
ATOM      7  O   UNL     1      -4.970  92.819 -13.532  1.00  0.00    -0.452 OA
ATOM      8  C   UNL     1      -3.827  93.840 -11.740  1.00  0.00     0.094 A 
ATOM      9  C   UNL     1      -3.675  94.040 -10.361  1.00  0.00     0.119 A 
ATOM     10  C   UNL     1      -4.539  93.401  -9.466  1.00  0.00     0.047 A 
ATOM     11  C   UNL     1      -5.556  92.565  -9.939  1.00  0.00     0.020 A 
ENDROOT
BRANCH   1  12
ATOM     12  C   UNL     1      -5.939  91.905 -15.543  1.00  0.00     0.025 A 
ATOM     13  C   UNL     1      -5.175  90.908 -16.166  1.00  0.00     0.016 A 
ATOM     14  C   UNL     1      -5.209  90.753 -17.552  1.00  0.00     0.051 A 
ATOM     15  C   UNL     1      -6.015  91.578 -18.343  1.00  0.00     0.157 A 
ATOM     16  C   UNL     1      -6.769  92.721 -16.332  1.00  0.00     0.062 A 
ATOM     17  C   UNL     1      -6.812  92.571 -17.724  1.00  0.00     0.158 A 
BRANCH  15  18
ATOM     18  O   UNL     1      -5.999  91.377 -19.725  1.00  0.00    -0.504 OA
ATOM     19  H   UNL     1      -5.245  90.923 -20.221  1.00  0.00     0.293 HD
ENDBRANCH  15  18
BRANCH  17  20
ATOM     20  O   UNL     1      -7.657  93.417 -18.445  1.00  0.00    -0.504 OA
ATOM     21  H   UNL     1      -8.639  93.236 -18.601  1.00  0.00     0.293 HD
ENDBRANCH  17  20
ENDBRANCH   1  12
BRANCH   2  22
ATOM     22  O   UNL     1      -7.855  90.605 -13.789  1.00  0.00    -0.502 OA
ATOM     23  H   UNL     1      -7.671  89.777 -14.342  1.00  0.00     0.293 HD
ENDBRANCH   2  22
BRANCH   9  24
ATOM     24  O   UNL     1      -2.669  94.870  -9.871  1.00  0.00    -0.508 OA
ATOM     25  H   UNL     1      -2.772  95.878  -9.865  1.00  0.00     0.293 HD
ENDBRANCH   9  24
TORSDOF 5
ENDMDL
MODEL 6
REMARK VINA RESULT:    -5.223      9.134     10.648
REMARK INTER + INTRA:          -6.407
REMARK INTER:                  -6.096
REMARK INTRA:                  -0.310
REMARK UNBOUND:                -0.268
REMARK SMILES O=c1c(O)c(-c2ccc(O)c(O)c2)oc2cc(O)ccc12
REMARK SMILES IDX 5 1 3 2 2 3 1 4 21 5 15 6 14 7 16 8 17 9 19 10 20 11 6 12
REMARK SMILES IDX 7 13 8 14 9 15 13 16 11 17 10 18 12 20 4 22 18 24
REMARK H PARENT 10 19 12 21 4 23 18 25
REMARK Flexibility Score: inf
ROOT
ATOM      1  C   UNL     1      -5.616  91.265 -14.538  1.00  0.00     0.180 A 
ATOM      2  C   UNL     1      -4.956  92.124 -13.636  1.00  0.00     0.208 A 
ATOM      3  C   UNL     1      -4.988  91.821 -12.266  1.00  0.00     0.235 A 
ATOM      4  O   UNL     1      -4.414  92.580 -11.438  1.00  0.00    -0.285 OA
ATOM      5  C   UNL     1      -5.655  90.665 -11.831  1.00  0.00     0.069 A 
ATOM      6  C   UNL     1      -6.271  89.843 -12.799  1.00  0.00     0.142 A 
ATOM      7  O   UNL     1      -6.225  90.171 -14.085  1.00  0.00    -0.452 OA
ATOM      8  C   UNL     1      -6.938  88.677 -12.406  1.00  0.00     0.094 A 
ATOM      9  C   UNL     1      -6.998  88.321 -11.051  1.00  0.00     0.119 A 
ATOM     10  C   UNL     1      -6.390  89.135 -10.091  1.00  0.00     0.047 A 
ATOM     11  C   UNL     1      -5.721  90.302 -10.473  1.00  0.00     0.020 A 
ENDROOT
BRANCH   1  12
ATOM     12  C   UNL     1      -5.643  91.526 -15.995  1.00  0.00     0.025 A 
ATOM     13  C   UNL     1      -6.708  92.251 -16.547  1.00  0.00     0.016 A 
ATOM     14  C   UNL     1      -6.744  92.525 -17.915  1.00  0.00     0.051 A 
ATOM     15  C   UNL     1      -5.713  92.095 -18.756  1.00  0.00     0.157 A 
ATOM     16  C   UNL     1      -4.594  91.111 -16.833  1.00  0.00     0.062 A 
ATOM     17  C   UNL     1      -4.619  91.384 -18.207  1.00  0.00     0.158 A 
BRANCH  15  18
ATOM     18  O   UNL     1      -5.811  92.395 -20.116  1.00  0.00    -0.504 OA
ATOM     19  H   UNL     1      -5.016  92.512 -20.728  1.00  0.00     0.293 HD
ENDBRANCH  15  18
BRANCH  17  20
ATOM     20  O   UNL     1      -3.544  90.941 -18.980  1.00  0.00    -0.504 OA
ATOM     21  H   UNL     1      -3.019  90.099 -18.787  1.00  0.00     0.293 HD
ENDBRANCH  17  20
ENDBRANCH   1  12
BRANCH   2  22
ATOM     22  O   UNL     1      -4.259  93.241 -14.103  1.00  0.00    -0.502 OA
ATOM     23  H   UNL     1      -3.249  93.305 -14.063  1.00  0.00     0.293 HD
ENDBRANCH   2  22
BRANCH   9  24
ATOM     24  O   UNL     1      -7.659  87.162 -10.651  1.00  0.00    -0.508 OA
ATOM     25  H   UNL     1      -7.180  86.272 -10.598  1.00  0.00     0.293 HD
ENDBRANCH   9  24
TORSDOF 5
ENDMDL
MODEL 7
REMARK VINA RESULT:    -5.216      1.330      6.659
REMARK INTER + INTRA:          -6.399
REMARK INTER:                  -6.372
REMARK INTRA:                  -0.027
REMARK UNBOUND:                -0.268
REMARK SMILES O=c1c(O)c(-c2ccc(O)c(O)c2)oc2cc(O)ccc12
REMARK SMILES IDX 5 1 3 2 2 3 1 4 21 5 15 6 14 7 16 8 17 9 19 10 20 11 6 12
REMARK SMILES IDX 7 13 8 14 9 15 13 16 11 17 10 18 12 20 4 22 18 24
REMARK H PARENT 10 19 12 21 4 23 18 25
REMARK Flexibility Score: inf
ROOT
ATOM      1  C   UNL     1      -8.772  83.662  -8.450  1.00  0.00     0.180 A 
ATOM      2  C   UNL     1      -8.384  84.300  -7.254  1.00  0.00     0.208 A 
ATOM      3  C   UNL     1      -7.018  84.389  -6.946  1.00  0.00     0.235 A 
ATOM      4  O   UNL     1      -6.647  84.946  -5.877  1.00  0.00    -0.285 OA
ATOM      5  C   UNL     1      -6.073  83.863  -7.841  1.00  0.00     0.069 A 
ATOM      6  C   UNL     1      -6.540  83.260  -9.028  1.00  0.00     0.142 A 
ATOM      7  O   UNL     1      -7.843  83.187  -9.278  1.00  0.00    -0.452 OA
ATOM      8  C   UNL     1      -5.629  82.731  -9.951  1.00  0.00     0.094 A 
ATOM      9  C   UNL     1      -4.252  82.796  -9.698  1.00  0.00     0.119 A 
ATOM     10  C   UNL     1      -3.788  83.392  -8.521  1.00  0.00     0.047 A 
ATOM     11  C   UNL     1      -4.690  83.924  -7.594  1.00  0.00     0.020 A 
ENDROOT
BRANCH   1  12
ATOM     12  C   UNL     1     -10.193  83.511  -8.836  1.00  0.00     0.025 A 
ATOM     13  C   UNL     1     -11.008  84.648  -8.928  1.00  0.00     0.016 A 
ATOM     14  C   UNL     1     -12.345  84.530  -9.310  1.00  0.00     0.051 A 
ATOM     15  C   UNL     1     -12.891  83.280  -9.621  1.00  0.00     0.157 A 
ATOM     16  C   UNL     1     -10.731  82.256  -9.171  1.00  0.00     0.062 A 
ATOM     17  C   UNL     1     -12.071  82.129  -9.558  1.00  0.00     0.158 A 
BRANCH  15  18
ATOM     18  O   UNL     1     -14.237  83.229  -9.989  1.00  0.00    -0.504 OA
ATOM     19  H   UNL     1     -14.609  82.599 -10.685  1.00  0.00     0.293 HD
ENDBRANCH  15  18
BRANCH  17  20
ATOM     20  O   UNL     1     -12.539  80.851  -9.874  1.00  0.00    -0.504 OA
ATOM     21  H   UNL     1     -12.274  80.013  -9.377  1.00  0.00     0.293 HD
ENDBRANCH  17  20
ENDBRANCH   1  12
BRANCH   2  22
ATOM     22  O   UNL     1      -9.344  84.858  -6.407  1.00  0.00    -0.502 OA
ATOM     23  H   UNL     1     -10.338  84.771  -6.581  1.00  0.00     0.293 HD
ENDBRANCH   2  22
BRANCH   9  24
ATOM     24  O   UNL     1      -3.338  82.273 -10.610  1.00  0.00    -0.508 OA
ATOM     25  H   UNL     1      -3.642  81.830 -11.469  1.00  0.00     0.293 HD
ENDBRANCH   9  24
TORSDOF 5
ENDMDL
MODEL 8
REMARK VINA RESULT:    -5.180      8.504      9.892
REMARK INTER + INTRA:          -6.356
REMARK INTER:                  -6.239
REMARK INTRA:                  -0.116
REMARK UNBOUND:                -0.268
REMARK SMILES O=c1c(O)c(-c2ccc(O)c(O)c2)oc2cc(O)ccc12
REMARK SMILES IDX 5 1 3 2 2 3 1 4 21 5 15 6 14 7 16 8 17 9 19 10 20 11 6 12
REMARK SMILES IDX 7 13 8 14 9 15 13 16 11 17 10 18 12 20 4 22 18 24
REMARK H PARENT 10 19 12 21 4 23 18 25
REMARK Flexibility Score: inf
ROOT
ATOM      1  C   UNL     1      -4.846  90.855 -13.721  1.00  0.00     0.180 A 
ATOM      2  C   UNL     1      -4.549  91.849 -12.766  1.00  0.00     0.208 A 
ATOM      3  C   UNL     1      -4.993  91.675 -11.446  1.00  0.00     0.235 A 
ATOM      4  O   UNL     1      -4.748  92.555 -10.576  1.00  0.00    -0.285 OA
ATOM      5  C   UNL     1      -5.703  90.512 -11.105  1.00  0.00     0.069 A 
ATOM      6  C   UNL     1      -5.940  89.554 -12.113  1.00  0.00     0.142 A 
ATOM      7  O   UNL     1      -5.510  89.761 -13.353  1.00  0.00    -0.452 OA
ATOM      8  C   UNL     1      -6.636  88.377 -11.810  1.00  0.00     0.094 A 
ATOM      9  C   UNL     1      -7.100  88.147 -10.508  1.00  0.00     0.119 A 
ATOM     10  C   UNL     1      -6.867  89.097  -9.508  1.00  0.00     0.047 A 
ATOM     11  C   UNL     1      -6.172  90.275  -9.800  1.00  0.00     0.020 A 
ENDROOT
BRANCH   1  12
ATOM     12  C   UNL     1      -4.429  90.974 -15.136  1.00  0.00     0.025 A 
ATOM     13  C   UNL     1      -3.064  91.011 -15.452  1.00  0.00     0.016 A 
ATOM     14  C   UNL     1      -2.648  91.103 -16.782  1.00  0.00     0.051 A 
ATOM     15  C   UNL     1      -3.584  91.145 -17.821  1.00  0.00     0.157 A 
ATOM     16  C   UNL     1      -5.372  90.992 -16.178  1.00  0.00     0.062 A 
ATOM     17  C   UNL     1      -4.964  91.081 -17.516  1.00  0.00     0.158 A 
BRANCH  15  18
ATOM     18  O   UNL     1      -3.104  91.244 -19.128  1.00  0.00    -0.504 OA
ATOM     19  H   UNL     1      -3.239  90.535 -19.835  1.00  0.00     0.293 HD
ENDBRANCH  15  18
BRANCH  17  20
ATOM     20  O   UNL     1      -5.955  91.096 -18.499  1.00  0.00    -0.504 OA
ATOM     21  H   UNL     1      -6.472  90.279 -18.794  1.00  0.00     0.293 HD
ENDBRANCH  17  20
ENDBRANCH   1  12
BRANCH   2  22
ATOM     22  O   UNL     1      -3.798  92.972 -13.124  1.00  0.00    -0.502 OA
ATOM     23  H   UNL     1      -3.154  93.420 -12.483  1.00  0.00     0.293 HD
ENDBRANCH   2  22
BRANCH   9  24
ATOM     24  O   UNL     1      -7.793  86.979 -10.197  1.00  0.00    -0.508 OA
ATOM     25  H   UNL     1      -8.561  86.652 -10.771  1.00  0.00     0.293 HD
ENDBRANCH   9  24
TORSDOF 5
ENDMDL
MODEL 9
REMARK VINA RESULT:    -5.135      8.316     11.237
REMARK INTER + INTRA:          -6.304
REMARK INTER:                  -6.012
REMARK INTRA:                  -0.291
REMARK UNBOUND:                -0.268
REMARK SMILES O=c1c(O)c(-c2ccc(O)c(O)c2)oc2cc(O)ccc12
REMARK SMILES IDX 5 1 3 2 2 3 1 4 21 5 15 6 14 7 16 8 17 9 19 10 20 11 6 12
REMARK SMILES IDX 7 13 8 14 9 15 13 16 11 17 10 18 12 20 4 22 18 24
REMARK H PARENT 10 19 12 21 4 23 18 25
REMARK Flexibility Score: inf
ROOT
ATOM      1  C   UNL     1      -8.069  90.927 -13.566  1.00  0.00     0.180 A 
ATOM      2  C   UNL     1      -7.281  90.892 -12.397  1.00  0.00     0.208 A 
ATOM      3  C   UNL     1      -5.887  90.798 -12.523  1.00  0.00     0.235 A 
ATOM      4  O   UNL     1      -5.161  90.754 -11.492  1.00  0.00    -0.285 OA
ATOM      5  C   UNL     1      -5.311  90.762 -13.802  1.00  0.00     0.069 A 
ATOM      6  C   UNL     1      -6.166  90.825 -14.923  1.00  0.00     0.142 A 
ATOM      7  O   UNL     1      -7.482  90.904 -14.760  1.00  0.00    -0.452 OA
ATOM      8  C   UNL     1      -5.629  90.801 -16.216  1.00  0.00     0.094 A 
ATOM      9  C   UNL     1      -4.243  90.713 -16.403  1.00  0.00     0.119 A 
ATOM     10  C   UNL     1      -3.394  90.648 -15.293  1.00  0.00     0.047 A 
ATOM     11  C   UNL     1      -3.920  90.672 -13.997  1.00  0.00     0.020 A 
ENDROOT
BRANCH   1  12
ATOM     12  C   UNL     1      -9.546  91.006 -13.516  1.00  0.00     0.025 A 
ATOM     13  C   UNL     1     -10.165  92.252 -13.338  1.00  0.00     0.016 A 
ATOM     14  C   UNL     1     -11.557  92.352 -13.308  1.00  0.00     0.051 A 
ATOM     15  C   UNL     1     -12.358  91.217 -13.470  1.00  0.00     0.157 A 
ATOM     16  C   UNL     1     -10.348  89.867 -13.703  1.00  0.00     0.062 A 
ATOM     17  C   UNL     1     -11.745  89.958 -13.678  1.00  0.00     0.158 A 
BRANCH  15  18
ATOM     18  O   UNL     1     -13.744  91.383 -13.424  1.00  0.00    -0.504 OA
ATOM     19  H   UNL     1     -14.360  90.827 -12.849  1.00  0.00     0.293 HD
ENDBRANCH  15  18
BRANCH  17  20
ATOM     20  O   UNL     1     -12.478  88.785 -13.868  1.00  0.00    -0.504 OA
ATOM     21  H   UNL     1     -13.265  88.511 -13.297  1.00  0.00     0.293 HD
ENDBRANCH  17  20
ENDBRANCH   1  12
BRANCH   2  22
ATOM     22  O   UNL     1      -7.880  90.979 -11.138  1.00  0.00    -0.502 OA
ATOM     23  H   UNL     1      -7.961  91.854 -10.635  1.00  0.00     0.293 HD
ENDBRANCH   2  22
BRANCH   9  24
ATOM     24  O   UNL     1      -3.700  90.688 -17.685  1.00  0.00    -0.508 OA
ATOM     25  H   UNL     1      -2.703  90.785 -17.839  1.00  0.00     0.293 HD
ENDBRANCH   9  24
TORSDOF 5
ENDMDL
