MODEL 1
REMARK VINA RESULT:    -2.993      0.000      0.000
REMARK INTER + INTRA:          -5.634
REMARK INTER:                  -5.268
REMARK INTRA:                  -0.366
REMARK UNBOUND:                -0.366
REMARK SMILES CCCCCCCCCCCCCCC(=O)[O-]
REMARK SMILES IDX 9 1 10 2 11 3 12 4 13 5 14 6 15 7 16 8 17 9 8 10 7 11 6 12
REMARK SMILES IDX 5 13 4 14 3 15 2 16 1 17
REMARK H PARENT
REMARK Flexibility Score: inf
ROOT
ATOM      1  C   UNL     1      -8.147  15.857 -12.757  1.00  0.00     0.000 C 
ENDROOT
BRANCH   1   2
ATOM      2  C   UNL     1      -8.470  17.242 -12.177  1.00  0.00     0.000 C 
BRANCH   2   3
ATOM      3  C   UNL     1      -8.604  18.328 -13.259  1.00  0.00     0.000 C 
BRANCH   3   4
ATOM      4  C   UNL     1      -7.881  19.654 -12.949  1.00  0.00     0.000 C 
BRANCH   4   5
ATOM      5  C   UNL     1      -7.769  20.630 -14.134  1.00  0.00     0.006 C 
BRANCH   5   6
ATOM      6  C   UNL     1      -6.320  21.035 -14.436  1.00  0.00     0.053 C 
BRANCH   6   7
ATOM      7  C   UNL     1      -5.370  20.011 -13.902  1.00  0.00     0.041 C 
ATOM      8  O   UNL     1      -4.996  20.060 -12.700  1.00  0.00    -0.550 OA
ATOM      9  O   UNL     1      -4.936  18.974 -14.717  1.00  0.00    -0.550 OA
ENDBRANCH   6   7
ENDBRANCH   5   6
ENDBRANCH   4   5
ENDBRANCH   3   4
ENDBRANCH   2   3
ENDBRANCH   1   2
BRANCH   1  10
ATOM     10  C   UNL     1      -8.259  15.864 -14.289  1.00  0.00     0.000 C 
BRANCH  10  11
ATOM     11  C   UNL     1      -6.914  16.127 -14.991  1.00  0.00    -0.000 C 
BRANCH  11  12
ATOM     12  C   UNL     1      -5.675  15.570 -14.266  1.00  0.00    -0.000 C 
BRANCH  12  13
ATOM     13  C   UNL     1      -4.876  14.575 -15.124  1.00  0.00    -0.000 C 
BRANCH  13  14
ATOM     14  C   UNL     1      -5.479  13.158 -15.118  1.00  0.00    -0.000 C 
BRANCH  14  15
ATOM     15  C   UNL     1      -5.999  12.668 -13.751  1.00  0.00    -0.000 C 
BRANCH  15  16
ATOM     16  C   UNL     1      -7.530  12.655 -13.604  1.00  0.00    -0.003 C 
ATOM     17  C   UNL     1      -8.258  12.744 -14.946  1.00  0.00     0.004 C 
ENDBRANCH  15  16
ENDBRANCH  14  15
ENDBRANCH  13  14
ENDBRANCH  12  13
ENDBRANCH  11  12
ENDBRANCH  10  11
ENDBRANCH   1  10
TORSDOF 13
ENDMDL
MODEL 2
REMARK VINA RESULT:    -2.949      1.390      2.792
REMARK INTER + INTRA:          -5.557
REMARK INTER:                  -4.811
REMARK INTRA:                  -0.746
REMARK UNBOUND:                -0.366
REMARK SMILES CCCCCCCCCCCCCCC(=O)[O-]
REMARK SMILES IDX 9 1 10 2 11 3 12 4 13 5 14 6 15 7 16 8 17 9 8 10 7 11 6 12
REMARK SMILES IDX 5 13 4 14 3 15 2 16 1 17
REMARK H PARENT
REMARK Flexibility Score: inf
ROOT
ATOM      1  C   UNL     1      -8.153  16.202 -14.534  1.00  0.00     0.000 C 
ENDROOT
BRANCH   1   2
ATOM      2  C   UNL     1      -7.202  17.303 -15.027  1.00  0.00     0.000 C 
BRANCH   2   3
ATOM      3  C   UNL     1      -5.719  16.955 -14.808  1.00  0.00     0.000 C 
BRANCH   3   4
ATOM      4  C   UNL     1      -4.922  17.982 -13.977  1.00  0.00     0.000 C 
BRANCH   4   5
ATOM      5  C   UNL     1      -4.896  19.409 -14.553  1.00  0.00     0.006 C 
BRANCH   5   6
ATOM      6  C   UNL     1      -6.225  20.151 -14.364  1.00  0.00     0.053 C 
BRANCH   6   7
ATOM      7  C   UNL     1      -6.488  20.389 -12.910  1.00  0.00     0.041 C 
ATOM      8  O   UNL     1      -5.612  20.938 -12.190  1.00  0.00    -0.550 OA
ATOM      9  O   UNL     1      -7.718  20.050 -12.362  1.00  0.00    -0.550 OA
ENDBRANCH   6   7
ENDBRANCH   5   6
ENDBRANCH   4   5
ENDBRANCH   3   4
ENDBRANCH   2   3
ENDBRANCH   1   2
BRANCH   1  10
ATOM     10  C   UNL     1      -9.171  16.763 -13.531  1.00  0.00     0.000 C 
BRANCH  10  11
ATOM     11  C   UNL     1      -8.672  16.719 -12.075  1.00  0.00    -0.000 C 
BRANCH  11  12
ATOM     12  C   UNL     1      -7.465  15.797 -11.824  1.00  0.00    -0.000 C 
BRANCH  12  13
ATOM     13  C   UNL     1      -7.765  14.321 -12.133  1.00  0.00    -0.000 C 
BRANCH  13  14
ATOM     14  C   UNL     1      -6.610  13.616 -12.870  1.00  0.00    -0.000 C 
BRANCH  14  15
ATOM     15  C   UNL     1      -7.034  12.694 -14.031  1.00  0.00    -0.000 C 
BRANCH  15  16
ATOM     16  C   UNL     1      -5.971  12.495 -15.125  1.00  0.00    -0.003 C 
ATOM     17  C   UNL     1      -4.875  13.560 -15.092  1.00  0.00     0.004 C 
ENDBRANCH  15  16
ENDBRANCH  14  15
ENDBRANCH  13  14
ENDBRANCH  12  13
ENDBRANCH  11  12
ENDBRANCH  10  11
ENDBRANCH   1  10
TORSDOF 13
ENDMDL
MODEL 3
REMARK VINA RESULT:    -2.641      2.632      6.205
REMARK INTER + INTRA:          -5.014
REMARK INTER:                  -5.087
REMARK INTRA:                   0.073
REMARK UNBOUND:                -0.366
REMARK SMILES CCCCCCCCCCCCCCC(=O)[O-]
REMARK SMILES IDX 9 1 10 2 11 3 12 4 13 5 14 6 15 7 16 8 17 9 8 10 7 11 6 12
REMARK SMILES IDX 5 13 4 14 3 15 2 16 1 17
REMARK H PARENT
REMARK Flexibility Score: inf
ROOT
ATOM      1  C   UNL     1      -8.846  16.672 -11.823  1.00  0.00     0.000 C 
ENDROOT
BRANCH   1   2
ATOM      2  C   UNL     1      -7.638  15.868 -12.326  1.00  0.00     0.000 C 
BRANCH   2   3
ATOM      3  C   UNL     1      -7.810  15.370 -13.772  1.00  0.00     0.000 C 
BRANCH   3   4
ATOM      4  C   UNL     1      -8.007  13.848 -13.920  1.00  0.00     0.000 C 
BRANCH   4   5
ATOM      5  C   UNL     1      -7.281  13.209 -15.118  1.00  0.00     0.006 C 
BRANCH   5   6
ATOM      6  C   UNL     1      -5.754  13.301 -15.006  1.00  0.00     0.053 C 
BRANCH   6   7
ATOM      7  C   UNL     1      -5.260  12.438 -13.888  1.00  0.00     0.041 C 
ATOM      8  O   UNL     1      -4.946  11.238 -14.106  1.00  0.00    -0.550 OA
ATOM      9  O   UNL     1      -5.100  12.972 -12.616  1.00  0.00    -0.550 OA
ENDBRANCH   6   7
ENDBRANCH   5   6
ENDBRANCH   4   5
ENDBRANCH   3   4
ENDBRANCH   2   3
ENDBRANCH   1   2
BRANCH   1  10
ATOM     10  C   UNL     1      -8.823  18.104 -12.379  1.00  0.00     0.000 C 
BRANCH  10  11
ATOM     11  C   UNL     1      -7.774  18.303 -13.489  1.00  0.00    -0.000 C 
BRANCH  11  12
ATOM     12  C   UNL     1      -8.180  19.282 -14.606  1.00  0.00    -0.000 C 
BRANCH  12  13
ATOM     13  C   UNL     1      -7.589  20.688 -14.414  1.00  0.00    -0.000 C 
BRANCH  13  14
ATOM     14  C   UNL     1      -6.539  20.749 -13.289  1.00  0.00    -0.000 C 
BRANCH  14  15
ATOM     15  C   UNL     1      -5.075  20.578 -13.743  1.00  0.00    -0.000 C 
BRANCH  15  16
ATOM     16  C   UNL     1      -4.892  19.852 -15.087  1.00  0.00    -0.003 C 
ATOM     17  C   UNL     1      -4.875  18.330 -14.946  1.00  0.00     0.004 C 
ENDBRANCH  15  16
ENDBRANCH  14  15
ENDBRANCH  13  14
ENDBRANCH  12  13
ENDBRANCH  11  12
ENDBRANCH  10  11
ENDBRANCH   1  10
TORSDOF 13
ENDMDL
MODEL 4
REMARK VINA RESULT:    -2.631      2.739      6.191
REMARK INTER + INTRA:          -4.997
REMARK INTER:                  -5.261
REMARK INTRA:                   0.265
REMARK UNBOUND:                -0.366
REMARK SMILES CCCCCCCCCCCCCCC(=O)[O-]
REMARK SMILES IDX 9 1 10 2 11 3 12 4 13 5 14 6 15 7 16 8 17 9 8 10 7 11 6 12
REMARK SMILES IDX 5 13 4 14 3 15 2 16 1 17
REMARK H PARENT
REMARK Flexibility Score: inf
ROOT
ATOM      1  C   UNL     1      -9.043  16.124 -12.245  1.00  0.00     0.000 C 
ENDROOT
BRANCH   1   2
ATOM      2  C   UNL     1      -7.602  15.808 -11.817  1.00  0.00     0.000 C 
BRANCH   2   3
ATOM      3  C   UNL     1      -7.214  14.339 -12.064  1.00  0.00     0.000 C 
BRANCH   3   4
ATOM      4  C   UNL     1      -7.144  13.922 -13.547  1.00  0.00     0.000 C 
BRANCH   4   5
ATOM      5  C   UNL     1      -6.137  14.714 -14.401  1.00  0.00     0.006 C 
BRANCH   5   6
ATOM      6  C   UNL     1      -4.897  13.891 -14.773  1.00  0.00     0.053 C 
BRANCH   6   7
ATOM      7  C   UNL     1      -4.927  12.562 -14.087  1.00  0.00     0.041 C 
ATOM      8  O   UNL     1      -4.875  12.497 -12.830  1.00  0.00    -0.550 OA
ATOM      9  O   UNL     1      -5.062  11.398 -14.832  1.00  0.00    -0.550 OA
ENDBRANCH   6   7
ENDBRANCH   5   6
ENDBRANCH   4   5
ENDBRANCH   3   4
ENDBRANCH   2   3
ENDBRANCH   1   2
BRANCH   1  10
ATOM     10  C   UNL     1      -9.082  17.336 -13.187  1.00  0.00     0.000 C 
BRANCH  10  11
ATOM     11  C   UNL     1      -8.218  17.149 -14.448  1.00  0.00    -0.000 C 
BRANCH  11  12
ATOM     12  C   UNL     1      -7.318  18.344 -14.810  1.00  0.00    -0.000 C 
BRANCH  12  13
ATOM     13  C   UNL     1      -7.899  19.692 -14.349  1.00  0.00    -0.000 C 
BRANCH  13  14
ATOM     14  C   UNL     1      -7.122  20.900 -14.905  1.00  0.00    -0.000 C 
BRANCH  14  15
ATOM     15  C   UNL     1      -5.588  20.820 -14.763  1.00  0.00    -0.000 C 
BRANCH  15  16
ATOM     16  C   UNL     1      -5.086  20.313 -13.400  1.00  0.00    -0.003 C 
ATOM     17  C   UNL     1      -5.632  21.125 -12.225  1.00  0.00     0.004 C 
ENDBRANCH  15  16
ENDBRANCH  14  15
ENDBRANCH  13  14
ENDBRANCH  12  13
ENDBRANCH  11  12
ENDBRANCH  10  11
ENDBRANCH   1  10
TORSDOF 13
ENDMDL
MODEL 5
REMARK VINA RESULT:    -2.503      0.895      2.373
REMARK INTER + INTRA:          -4.771
REMARK INTER:                  -4.708
REMARK INTRA:                  -0.062
REMARK UNBOUND:                -0.366
REMARK SMILES CCCCCCCCCCCCCCC(=O)[O-]
REMARK SMILES IDX 9 1 10 2 11 3 12 4 13 5 14 6 15 7 16 8 17 9 8 10 7 11 6 12
REMARK SMILES IDX 5 13 4 14 3 15 2 16 1 17
REMARK H PARENT
REMARK Flexibility Score: inf
ROOT
ATOM      1  C   UNL     1      -7.783  14.982 -12.386  1.00  0.00     0.000 C 
ENDROOT
BRANCH   1   2
ATOM      2  C   UNL     1      -7.772  16.326 -11.642  1.00  0.00     0.000 C 
BRANCH   2   3
ATOM      3  C   UNL     1      -8.787  17.333 -12.213  1.00  0.00     0.000 C 
BRANCH   3   4
ATOM      4  C   UNL     1      -8.210  18.333 -13.236  1.00  0.00     0.000 C 
BRANCH   4   5
ATOM      5  C   UNL     1      -8.215  19.805 -12.784  1.00  0.00     0.006 C 
BRANCH   5   6
ATOM      6  C   UNL     1      -7.427  20.720 -13.730  1.00  0.00     0.053 C 
BRANCH   6   7
ATOM      7  C   UNL     1      -5.982  20.336 -13.743  1.00  0.00     0.041 C 
ATOM      8  O   UNL     1      -5.347  20.294 -14.831  1.00  0.00    -0.550 OA
ATOM      9  O   UNL     1      -5.321  20.074 -12.550  1.00  0.00    -0.550 OA
ENDBRANCH   6   7
ENDBRANCH   5   6
ENDBRANCH   4   5
ENDBRANCH   3   4
ENDBRANCH   2   3
ENDBRANCH   1   2
BRANCH   1  10
ATOM     10  C   UNL     1      -8.625  15.070 -13.667  1.00  0.00     0.000 C 
BRANCH  10  11
ATOM     11  C   UNL     1      -8.606  13.769 -14.492  1.00  0.00    -0.000 C 
BRANCH  11  12
ATOM     12  C   UNL     1      -7.680  12.664 -13.952  1.00  0.00    -0.000 C 
BRANCH  12  13
ATOM     13  C   UNL     1      -6.533  12.319 -14.917  1.00  0.00    -0.000 C 
BRANCH  13  14
ATOM     14  C   UNL     1      -5.188  12.942 -14.497  1.00  0.00    -0.000 C 
BRANCH  14  15
ATOM     15  C   UNL     1      -4.876  14.318 -15.121  1.00  0.00    -0.000 C 
BRANCH  15  16
ATOM     16  C   UNL     1      -5.931  15.406 -14.858  1.00  0.00    -0.003 C 
ATOM     17  C   UNL     1      -5.381  16.822 -15.026  1.00  0.00     0.004 C 
ENDBRANCH  15  16
ENDBRANCH  14  15
ENDBRANCH  13  14
ENDBRANCH  12  13
ENDBRANCH  11  12
ENDBRANCH  10  11
ENDBRANCH   1  10
TORSDOF 13
ENDMDL
MODEL 6
REMARK VINA RESULT:    -2.102      2.418      6.170
REMARK INTER + INTRA:          -4.066
REMARK INTER:                  -2.942
REMARK INTRA:                  -1.124
REMARK UNBOUND:                -0.366
REMARK SMILES CCCCCCCCCCCCCCC(=O)[O-]
REMARK SMILES IDX 9 1 10 2 11 3 12 4 13 5 14 6 15 7 16 8 17 9 8 10 7 11 6 12
REMARK SMILES IDX 5 13 4 14 3 15 2 16 1 17
REMARK H PARENT
REMARK Flexibility Score: inf
ROOT
ATOM      1  C   UNL     1      -8.151  16.995 -12.504  1.00  0.00     0.000 C 
ENDROOT
BRANCH   1   2
ATOM      2  C   UNL     1      -8.516  15.522 -12.739  1.00  0.00     0.000 C 
BRANCH   2   3
ATOM      3  C   UNL     1      -8.995  15.247 -14.176  1.00  0.00     0.000 C 
BRANCH   3   4
ATOM      4  C   UNL     1      -7.996  14.473 -15.061  1.00  0.00     0.000 C 
BRANCH   4   5
ATOM      5  C   UNL     1      -7.983  12.948 -14.851  1.00  0.00     0.006 C 
BRANCH   5   6
ATOM      6  C   UNL     1      -7.016  12.508 -13.745  1.00  0.00     0.053 C 
BRANCH   6   7
ATOM      7  C   UNL     1      -5.599  12.727 -14.174  1.00  0.00     0.041 C 
ATOM      8  O   UNL     1      -5.073  11.969 -15.031  1.00  0.00    -0.550 OA
ATOM      9  O   UNL     1      -4.876  13.797 -13.664  1.00  0.00    -0.550 OA
ENDBRANCH   6   7
ENDBRANCH   5   6
ENDBRANCH   4   5
ENDBRANCH   3   4
ENDBRANCH   2   3
ENDBRANCH   1   2
BRANCH   1  10
ATOM     10  C   UNL     1      -6.634  17.209 -12.607  1.00  0.00     0.000 C 
BRANCH  10  11
ATOM     11  C   UNL     1      -6.173  17.584 -14.027  1.00  0.00    -0.000 C 
BRANCH  11  12
ATOM     12  C   UNL     1      -4.875  18.409 -14.099  1.00  0.00    -0.000 C 
BRANCH  12  13
ATOM     13  C   UNL     1      -4.948  19.553 -15.125  1.00  0.00    -0.000 C 
BRANCH  13  14
ATOM     14  C   UNL     1      -5.018  20.944 -14.468  1.00  0.00    -0.000 C 
BRANCH  14  15
ATOM     15  C   UNL     1      -5.502  20.959 -13.004  1.00  0.00    -0.000 C 
BRANCH  15  16
ATOM     16  C   UNL     1      -7.030  20.960 -12.823  1.00  0.00    -0.003 C 
ATOM     17  C   UNL     1      -7.786  21.082 -14.146  1.00  0.00     0.004 C 
ENDBRANCH  15  16
ENDBRANCH  14  15
ENDBRANCH  13  14
ENDBRANCH  12  13
ENDBRANCH  11  12
ENDBRANCH  10  11
ENDBRANCH   1  10
TORSDOF 13
ENDMDL
MODEL 7
REMARK VINA RESULT:    -1.936      1.599      2.868
REMARK INTER + INTRA:          -3.772
REMARK INTER:                  -3.508
REMARK INTRA:                  -0.265
REMARK UNBOUND:                -0.366
REMARK SMILES CCCCCCCCCCCCCCC(=O)[O-]
REMARK SMILES IDX 9 1 10 2 11 3 12 4 13 5 14 6 15 7 16 8 17 9 8 10 7 11 6 12
REMARK SMILES IDX 5 13 4 14 3 15 2 16 1 17
REMARK H PARENT
REMARK Flexibility Score: inf
ROOT
ATOM      1  C   UNL     1      -7.643  15.446 -15.125  1.00  0.00     0.000 C 
ENDROOT
BRANCH   1   2
ATOM      2  C   UNL     1      -8.291  16.785 -14.744  1.00  0.00     0.000 C 
BRANCH   2   3
ATOM      3  C   UNL     1      -7.420  17.998 -15.117  1.00  0.00     0.000 C 
BRANCH   3   4
ATOM      4  C   UNL     1      -6.144  18.172 -14.269  1.00  0.00     0.000 C 
BRANCH   4   5
ATOM      5  C   UNL     1      -5.134  19.200 -14.812  1.00  0.00     0.006 C 
BRANCH   5   6
ATOM      6  C   UNL     1      -5.541  20.648 -14.512  1.00  0.00     0.053 C 
BRANCH   6   7
ATOM      7  C   UNL     1      -6.061  20.765 -13.115  1.00  0.00     0.041 C 
ATOM      8  O   UNL     1      -5.288  20.593 -12.135  1.00  0.00    -0.550 OA
ATOM      9  O   UNL     1      -7.387  21.115 -12.893  1.00  0.00    -0.550 OA
ENDBRANCH   6   7
ENDBRANCH   5   6
ENDBRANCH   4   5
ENDBRANCH   3   4
ENDBRANCH   2   3
ENDBRANCH   1   2
BRANCH   1  10
ATOM     10  C   UNL     1      -8.615  14.280 -14.892  1.00  0.00     0.000 C 
BRANCH  10  11
ATOM     11  C   UNL     1      -7.951  12.900 -15.054  1.00  0.00    -0.000 C 
BRANCH  11  12
ATOM     12  C   UNL     1      -6.455  12.846 -14.695  1.00  0.00    -0.000 C 
BRANCH  12  13
ATOM     13  C   UNL     1      -6.093  13.743 -13.499  1.00  0.00    -0.000 C 
BRANCH  13  14
ATOM     14  C   UNL     1      -6.730  13.270 -12.180  1.00  0.00    -0.000 C 
BRANCH  14  15
ATOM     15  C   UNL     1      -7.754  14.241 -11.556  1.00  0.00    -0.000 C 
BRANCH  15  16
ATOM     16  C   UNL     1      -7.340  15.722 -11.574  1.00  0.00    -0.003 C 
ATOM     17  C   UNL     1      -8.535  16.675 -11.571  1.00  0.00     0.004 C 
ENDBRANCH  15  16
ENDBRANCH  14  15
ENDBRANCH  13  14
ENDBRANCH  12  13
ENDBRANCH  11  12
ENDBRANCH  10  11
ENDBRANCH   1  10
TORSDOF 13
ENDMDL
