MODEL 1
REMARK VINA RESULT:    -4.076      0.000      0.000
REMARK INTER + INTRA:          -4.937
REMARK INTER:                  -4.791
REMARK INTRA:                  -0.146
REMARK UNBOUND:                -0.146
REMARK SMILES O=C([O-])CCC(=O)[O-]
REMARK SMILES IDX 4 1 2 2 1 3 3 4 5 5 6 6 7 7 8 8
REMARK H PARENT
REMARK Flexibility Score: inf
ROOT
ATOM      1  C   UNL     1      65.058 149.290   5.402  1.00  0.00     0.059 C 
ENDROOT
BRANCH   1   2
ATOM      2  C   UNL     1      63.666 149.018   5.885  1.00  0.00     0.042 C 
ATOM      3  O   UNL     1      63.152 149.742   6.778  1.00  0.00    -0.550 OA
ATOM      4  O   UNL     1      62.952 147.940   5.378  1.00  0.00    -0.550 OA
ENDBRANCH   1   2
BRANCH   1   5
ATOM      5  C   UNL     1      65.059 149.862   3.980  1.00  0.00     0.059 C 
BRANCH   5   6
ATOM      6  C   UNL     1      64.577 151.279   3.956  1.00  0.00     0.042 C 
ATOM      7  O   UNL     1      63.573 151.597   3.264  1.00  0.00    -0.550 OA
ATOM      8  O   UNL     1      65.259 152.259   4.667  1.00  0.00    -0.550 OA
ENDBRANCH   5   6
ENDBRANCH   1   5
TORSDOF 3
ENDMDL
MODEL 2
REMARK VINA RESULT:    -4.070      0.178      1.155
REMARK INTER + INTRA:          -4.930
REMARK INTER:                  -4.779
REMARK INTRA:                  -0.151
REMARK UNBOUND:                -0.146
REMARK SMILES O=C([O-])CCC(=O)[O-]
REMARK SMILES IDX 4 1 2 2 1 3 3 4 5 5 6 6 7 7 8 8
REMARK H PARENT
REMARK Flexibility Score: inf
ROOT
ATOM      1  C   UNL     1      65.025 149.460   5.400  1.00  0.00     0.059 C 
ENDROOT
BRANCH   1   2
ATOM      2  C   UNL     1      63.656 149.088   5.882  1.00  0.00     0.042 C 
ATOM      3  O   UNL     1      63.075 148.072   5.418  1.00  0.00    -0.550 OA
ATOM      4  O   UNL     1      63.005 149.888   6.812  1.00  0.00    -0.550 OA
ENDBRANCH   1   2
BRANCH   1   5
ATOM      5  C   UNL     1      64.995 149.973   3.957  1.00  0.00     0.059 C 
BRANCH   5   6
ATOM      6  C   UNL     1      64.451 151.366   3.878  1.00  0.00     0.042 C 
ATOM      7  O   UNL     1      63.418 151.606   3.198  1.00  0.00    -0.550 OA
ATOM      8  O   UNL     1      65.106 152.407   4.524  1.00  0.00    -0.550 OA
ENDBRANCH   5   6
ENDBRANCH   1   5
TORSDOF 3
ENDMDL
MODEL 3
REMARK VINA RESULT:    -4.040      0.103      3.619
REMARK INTER + INTRA:          -4.895
REMARK INTER:                  -4.745
REMARK INTRA:                  -0.150
REMARK UNBOUND:                -0.146
REMARK SMILES O=C([O-])CCC(=O)[O-]
REMARK SMILES IDX 4 1 2 2 1 3 3 4 5 5 6 6 7 7 8 8
REMARK H PARENT
REMARK Flexibility Score: inf
ROOT
ATOM      1  C   UNL     1      64.986 149.823   3.947  1.00  0.00     0.059 C 
ENDROOT
BRANCH   1   2
ATOM      2  C   UNL     1      64.464 151.228   3.911  1.00  0.00     0.042 C 
ATOM      3  O   UNL     1      63.468 151.515   3.197  1.00  0.00    -0.550 OA
ATOM      4  O   UNL     1      65.104 152.226   4.634  1.00  0.00    -0.550 OA
ENDBRANCH   1   2
BRANCH   1   5
ATOM      5  C   UNL     1      65.010 149.268   5.375  1.00  0.00     0.059 C 
BRANCH   5   6
ATOM      6  C   UNL     1      63.629 148.984   5.879  1.00  0.00     0.042 C 
ATOM      7  O   UNL     1      63.121 149.703   6.780  1.00  0.00    -0.550 OA
ATOM      8  O   UNL     1      62.916 147.901   5.381  1.00  0.00    -0.550 OA
ENDBRANCH   5   6
ENDBRANCH   1   5
TORSDOF 3
ENDMDL
MODEL 4
REMARK VINA RESULT:    -3.757      1.690      3.329
REMARK INTER + INTRA:          -4.562
REMARK INTER:                  -4.404
REMARK INTRA:                  -0.158
REMARK UNBOUND:                -0.146
REMARK SMILES O=C([O-])CCC(=O)[O-]
REMARK SMILES IDX 4 1 2 2 1 3 3 4 5 5 6 6 7 7 8 8
REMARK H PARENT
REMARK Flexibility Score: inf
ROOT
ATOM      1  C   UNL     1      64.638 151.903   4.233  1.00  0.00     0.059 C 
ENDROOT
BRANCH   1   2
ATOM      2  C   UNL     1      63.163 151.793   3.989  1.00  0.00     0.042 C 
ATOM      3  O   UNL     1      62.719 151.715   2.813  1.00  0.00    -0.550 OA
ATOM      4  O   UNL     1      62.279 151.817   5.059  1.00  0.00    -0.550 OA
ENDBRANCH   1   2
BRANCH   1   5
ATOM      5  C   UNL     1      65.096 150.964   5.353  1.00  0.00     0.059 C 
BRANCH   5   6
ATOM      6  C   UNL     1      64.835 149.530   5.010  1.00  0.00     0.042 C 
ATOM      7  O   UNL     1      64.187 148.796   5.802  1.00  0.00    -0.550 OA
ATOM      8  O   UNL     1      65.343 148.992   3.834  1.00  0.00    -0.550 OA
ENDBRANCH   5   6
ENDBRANCH   1   5
TORSDOF 3
ENDMDL
MODEL 5
REMARK VINA RESULT:    -3.751      1.681      2.059
REMARK INTER + INTRA:          -4.555
REMARK INTER:                  -4.424
REMARK INTRA:                  -0.130
REMARK UNBOUND:                -0.146
REMARK SMILES O=C([O-])CCC(=O)[O-]
REMARK SMILES IDX 4 1 2 2 1 3 3 4 5 5 6 6 7 7 8 8
REMARK H PARENT
REMARK Flexibility Score: inf
ROOT
ATOM      1  C   UNL     1      65.120 151.048   5.291  1.00  0.00     0.059 C 
ENDROOT
BRANCH   1   2
ATOM      2  C   UNL     1      64.871 149.587   5.069  1.00  0.00     0.042 C 
ATOM      3  O   UNL     1      64.333 148.891   5.969  1.00  0.00    -0.550 OA
ATOM      4  O   UNL     1      65.273 148.987   3.882  1.00  0.00    -0.550 OA
ENDBRANCH   1   2
BRANCH   1   5
ATOM      5  C   UNL     1      64.617 151.891   4.114  1.00  0.00     0.059 C 
BRANCH   5   6
ATOM      6  C   UNL     1      63.133 151.779   3.950  1.00  0.00     0.042 C 
ATOM      7  O   UNL     1      62.625 151.707   2.800  1.00  0.00    -0.550 OA
ATOM      8  O   UNL     1      62.307 151.793   5.067  1.00  0.00    -0.550 OA
ENDBRANCH   5   6
ENDBRANCH   1   5
TORSDOF 3
ENDMDL
MODEL 6
REMARK VINA RESULT:    -3.494     17.210     17.923
REMARK INTER + INTRA:          -4.253
REMARK INTER:                  -4.137
REMARK INTRA:                  -0.116
REMARK UNBOUND:                -0.146
REMARK SMILES O=C([O-])CCC(=O)[O-]
REMARK SMILES IDX 4 1 2 2 1 3 3 4 5 5 6 6 7 7 8 8
REMARK H PARENT
REMARK Flexibility Score: inf
ROOT
ATOM      1  C   UNL     1      70.368 137.960  -7.249  1.00  0.00     0.059 C 
ENDROOT
BRANCH   1   2
ATOM      2  C   UNL     1      69.593 138.317  -6.017  1.00  0.00     0.042 C 
ATOM      3  O   UNL     1      69.216 139.503  -5.827  1.00  0.00    -0.550 OA
ATOM      4  O   UNL     1      69.323 137.347  -5.060  1.00  0.00    -0.550 OA
ENDBRANCH   1   2
BRANCH   1   5
ATOM      5  C   UNL     1      69.914 138.783  -8.458  1.00  0.00     0.059 C 
BRANCH   5   6
ATOM      6  C   UNL     1      71.038 139.589  -9.031  1.00  0.00     0.042 C 
ATOM      7  O   UNL     1      71.749 140.309  -8.281  1.00  0.00    -0.550 OA
ATOM      8  O   UNL     1      71.278 139.575 -10.399  1.00  0.00    -0.550 OA
ENDBRANCH   5   6
ENDBRANCH   1   5
TORSDOF 3
ENDMDL
MODEL 7
REMARK VINA RESULT:    -3.489     17.221     18.221
REMARK INTER + INTRA:          -4.247
REMARK INTER:                  -4.131
REMARK INTRA:                  -0.116
REMARK UNBOUND:                -0.146
REMARK SMILES O=C([O-])CCC(=O)[O-]
REMARK SMILES IDX 4 1 2 2 1 3 3 4 5 5 6 6 7 7 8 8
REMARK H PARENT
REMARK Flexibility Score: inf
ROOT
ATOM      1  C   UNL     1      69.920 138.762  -8.436  1.00  0.00     0.059 C 
ENDROOT
BRANCH   1   2
ATOM      2  C   UNL     1      71.067 139.533  -9.015  1.00  0.00     0.042 C 
ATOM      3  O   UNL     1      71.792 140.244  -8.271  1.00  0.00    -0.550 OA
ATOM      4  O   UNL     1      71.308 139.499 -10.382  1.00  0.00    -0.550 OA
ENDBRANCH   1   2
BRANCH   1   5
ATOM      5  C   UNL     1      70.356 137.926  -7.228  1.00  0.00     0.059 C 
BRANCH   5   6
ATOM      6  C   UNL     1      69.598 138.304  -5.993  1.00  0.00     0.042 C 
ATOM      7  O   UNL     1      69.256 139.501  -5.799  1.00  0.00    -0.550 OA
ATOM      8  O   UNL     1      69.303 137.342  -5.036  1.00  0.00    -0.550 OA
ENDBRANCH   5   6
ENDBRANCH   1   5
TORSDOF 3
ENDMDL
MODEL 8
REMARK VINA RESULT:    -3.415     17.423     18.434
REMARK INTER + INTRA:          -4.161
REMARK INTER:                  -4.130
REMARK INTRA:                  -0.030
REMARK UNBOUND:                -0.146
REMARK SMILES O=C([O-])CCC(=O)[O-]
REMARK SMILES IDX 4 1 2 2 1 3 3 4 5 5 6 6 7 7 8 8
REMARK H PARENT
REMARK Flexibility Score: inf
ROOT
ATOM      1  C   UNL     1      69.862 139.792  -8.482  1.00  0.00     0.059 C 
ENDROOT
BRANCH   1   2
ATOM      2  C   UNL     1      69.974 139.719  -9.975  1.00  0.00     0.042 C 
ATOM      3  O   UNL     1      71.080 139.459 -10.516  1.00  0.00    -0.550 OA
ATOM      4  O   UNL     1      68.864 139.979 -10.768  1.00  0.00    -0.550 OA
ENDBRANCH   1   2
BRANCH   1   5
ATOM      5  C   UNL     1      70.258 138.467  -7.822  1.00  0.00     0.059 C 
BRANCH   5   6
ATOM      6  C   UNL     1      70.050 138.505  -6.340  1.00  0.00     0.042 C 
ATOM      7  O   UNL     1      70.804 137.848  -5.576  1.00  0.00    -0.550 OA
ATOM      8  O   UNL     1      68.997 139.237  -5.804  1.00  0.00    -0.550 OA
ENDBRANCH   5   6
ENDBRANCH   1   5
TORSDOF 3
ENDMDL
MODEL 9
REMARK VINA RESULT:    -3.337      1.794      3.947
REMARK INTER + INTRA:          -4.069
REMARK INTER:                  -3.964
REMARK INTRA:                  -0.105
REMARK UNBOUND:                -0.146
REMARK SMILES O=C([O-])CCC(=O)[O-]
REMARK SMILES IDX 4 1 2 2 1 3 3 4 5 5 6 6 7 7 8 8
REMARK H PARENT
REMARK Flexibility Score: inf
ROOT
ATOM      1  C   UNL     1      63.364 149.985   6.130  1.00  0.00     0.059 C 
ENDROOT
BRANCH   1   2
ATOM      2  C   UNL     1      64.628 149.901   5.330  1.00  0.00     0.042 C 
ATOM      3  O   UNL     1      65.506 149.046   5.618  1.00  0.00    -0.550 OA
ATOM      4  O   UNL     1      64.854 150.795   4.291  1.00  0.00    -0.550 OA
ENDBRANCH   1   2
BRANCH   1   5
ATOM      5  C   UNL     1      62.150 149.525   5.316  1.00  0.00     0.059 C 
BRANCH   5   6
ATOM      6  C   UNL     1      61.752 148.124   5.664  1.00  0.00     0.042 C 
ATOM      7  O   UNL     1      60.879 147.913   6.546  1.00  0.00    -0.550 OA
ATOM      8  O   UNL     1      62.375 147.049   5.041  1.00  0.00    -0.550 OA
ENDBRANCH   5   6
ENDBRANCH   1   5
TORSDOF 3
ENDMDL
