MODEL 1
REMARK VINA RESULT:    -4.062      0.000      0.000
REMARK INTER + INTRA:          -6.224
REMARK INTER:                  -5.725
REMARK INTRA:                  -0.499
REMARK UNBOUND:                -0.499
REMARK SMILES CCCCCCCCC(=O)[O-]
REMARK SMILES IDX 6 1 7 2 8 3 9 4 10 5 11 6 5 7 4 8 3 9 2 10 1 11
REMARK H PARENT
REMARK Flexibility Score: inf
ROOT
ATOM      1  C   UNL     1      15.656  12.281 -13.815  1.00  0.00     0.000 C 
ENDROOT
BRANCH   1   2
ATOM      2  C   UNL     1      14.540  11.231 -13.838  1.00  0.00     0.006 C 
BRANCH   2   3
ATOM      3  C   UNL     1      14.774  10.204 -14.949  1.00  0.00     0.053 C 
BRANCH   3   4
ATOM      4  C   UNL     1      15.409   8.968 -14.395  1.00  0.00     0.041 C 
ATOM      5  O   UNL     1      14.719   7.931 -14.205  1.00  0.00    -0.550 OA
ATOM      6  O   UNL     1      16.773   8.944 -14.134  1.00  0.00    -0.550 OA
ENDBRANCH   3   4
ENDBRANCH   2   3
ENDBRANCH   1   2
BRANCH   1   7
ATOM      7  C   UNL     1      16.297  12.435 -15.199  1.00  0.00     0.000 C 
BRANCH   7   8
ATOM      8  C   UNL     1      17.806  12.683 -15.083  1.00  0.00    -0.000 C 
BRANCH   8   9
ATOM      9  C   UNL     1      18.405  11.889 -13.912  1.00  0.00    -0.000 C 
BRANCH   9  10
ATOM     10  C   UNL     1      19.824  12.352 -13.551  1.00  0.00    -0.003 C 
ATOM     11  C   UNL     1      20.285  13.552 -14.377  1.00  0.00     0.004 C 
ENDBRANCH   9  10
ENDBRANCH   8   9
ENDBRANCH   7   8
ENDBRANCH   1   7
TORSDOF 7
ENDMDL
MODEL 2
REMARK VINA RESULT:    -3.886      1.741      2.637
REMARK INTER + INTRA:          -5.975
REMARK INTER:                  -5.593
REMARK INTRA:                  -0.383
REMARK UNBOUND:                -0.499
REMARK SMILES CCCCCCCCC(=O)[O-]
REMARK SMILES IDX 6 1 7 2 8 3 9 4 10 5 11 6 5 7 4 8 3 9 2 10 1 11
REMARK H PARENT
REMARK Flexibility Score: inf
ROOT
ATOM      1  C   UNL     1      17.921  11.288 -13.938  1.00  0.00     0.000 C 
ENDROOT
BRANCH   1   2
ATOM      2  C   UNL     1      16.977  12.288 -14.614  1.00  0.00     0.006 C 
BRANCH   2   3
ATOM      3  C   UNL     1      15.805  11.568 -15.287  1.00  0.00     0.053 C 
BRANCH   3   4
ATOM      4  C   UNL     1      14.954  10.882 -14.264  1.00  0.00     0.041 C 
ATOM      5  O   UNL     1      14.257  11.559 -13.463  1.00  0.00    -0.550 OA
ATOM      6  O   UNL     1      14.893   9.495 -14.228  1.00  0.00    -0.550 OA
ENDBRANCH   3   4
ENDBRANCH   2   3
ENDBRANCH   1   2
BRANCH   1   7
ATOM      7  C   UNL     1      19.310  11.902 -13.722  1.00  0.00     0.000 C 
BRANCH   7   8
ATOM      8  C   UNL     1      19.568  13.043 -14.714  1.00  0.00    -0.000 C 
BRANCH   8   9
ATOM      9  C   UNL     1      20.812  13.850 -14.312  1.00  0.00    -0.000 C 
BRANCH   9  10
ATOM     10  C   UNL     1      21.584  13.203 -13.152  1.00  0.00    -0.003 C 
ATOM     11  C   UNL     1      23.012  13.732 -13.024  1.00  0.00     0.004 C 
ENDBRANCH   9  10
ENDBRANCH   8   9
ENDBRANCH   7   8
ENDBRANCH   1   7
TORSDOF 7
ENDMDL
MODEL 3
REMARK VINA RESULT:    -3.860      2.076      2.678
REMARK INTER + INTRA:          -5.939
REMARK INTER:                  -5.452
REMARK INTRA:                  -0.487
REMARK UNBOUND:                -0.499
REMARK SMILES CCCCCCCCC(=O)[O-]
REMARK SMILES IDX 6 1 7 2 8 3 9 4 10 5 11 6 5 7 4 8 3 9 2 10 1 11
REMARK H PARENT
REMARK Flexibility Score: inf
ROOT
ATOM      1  C   UNL     1      18.227  10.239 -13.984  1.00  0.00     0.000 C 
ENDROOT
BRANCH   1   2
ATOM      2  C   UNL     1      17.176  10.334 -15.095  1.00  0.00     0.006 C 
BRANCH   2   3
ATOM      3  C   UNL     1      15.769  10.084 -14.544  1.00  0.00     0.053 C 
BRANCH   3   4
ATOM      4  C   UNL     1      15.007  11.368 -14.451  1.00  0.00     0.041 C 
ATOM      5  O   UNL     1      14.207  11.563 -13.499  1.00  0.00    -0.550 OA
ATOM      6  O   UNL     1      15.216  12.370 -15.390  1.00  0.00    -0.550 OA
ENDBRANCH   3   4
ENDBRANCH   2   3
ENDBRANCH   1   2
BRANCH   1   7
ATOM      7  C   UNL     1      18.596  11.630 -13.454  1.00  0.00     0.000 C 
BRANCH   7   8
ATOM      8  C   UNL     1      18.704  12.645 -14.599  1.00  0.00    -0.000 C 
BRANCH   8   9
ATOM      9  C   UNL     1      20.069  13.348 -14.583  1.00  0.00    -0.000 C 
BRANCH   9  10
ATOM     10  C   UNL     1      21.009  12.788 -13.505  1.00  0.00    -0.003 C 
ATOM     11  C   UNL     1      22.195  13.708 -13.217  1.00  0.00     0.004 C 
ENDBRANCH   9  10
ENDBRANCH   8   9
ENDBRANCH   7   8
ENDBRANCH   1   7
TORSDOF 7
ENDMDL
MODEL 4
REMARK VINA RESULT:    -3.816      1.196      1.861
REMARK INTER + INTRA:          -5.877
REMARK INTER:                  -5.421
REMARK INTRA:                  -0.456
REMARK UNBOUND:                -0.499
REMARK SMILES CCCCCCCCC(=O)[O-]
REMARK SMILES IDX 6 1 7 2 8 3 9 4 10 5 11 6 5 7 4 8 3 9 2 10 1 11
REMARK H PARENT
REMARK Flexibility Score: inf
ROOT
ATOM      1  C   UNL     1      16.812  12.034 -15.204  1.00  0.00     0.000 C 
ENDROOT
BRANCH   1   2
ATOM      2  C   UNL     1      15.325  12.293 -14.939  1.00  0.00     0.006 C 
BRANCH   2   3
ATOM      3  C   UNL     1      14.759  11.280 -13.940  1.00  0.00     0.053 C 
BRANCH   3   4
ATOM      4  C   UNL     1      14.673   9.922 -14.563  1.00  0.00     0.041 C 
ATOM      5  O   UNL     1      15.278   8.947 -14.045  1.00  0.00    -0.550 OA
ATOM      6  O   UNL     1      13.883   9.723 -15.688  1.00  0.00    -0.550 OA
ENDBRANCH   3   4
ENDBRANCH   2   3
ENDBRANCH   1   2
BRANCH   1   7
ATOM      7  C   UNL     1      17.611  12.023 -13.895  1.00  0.00     0.000 C 
BRANCH   7   8
ATOM      8  C   UNL     1      18.598  10.849 -13.863  1.00  0.00    -0.000 C 
BRANCH   8   9
ATOM      9  C   UNL     1      20.036  11.334 -14.100  1.00  0.00    -0.000 C 
BRANCH   9  10
ATOM     10  C   UNL     1      20.190  12.848 -13.891  1.00  0.00    -0.003 C 
ATOM     11  C   UNL     1      21.553  13.231 -13.314  1.00  0.00     0.004 C 
ENDBRANCH   9  10
ENDBRANCH   8   9
ENDBRANCH   7   8
ENDBRANCH   1   7
TORSDOF 7
ENDMDL
MODEL 5
REMARK VINA RESULT:    -3.739      3.583      5.886
REMARK INTER + INTRA:          -5.768
REMARK INTER:                  -5.483
REMARK INTRA:                  -0.285
REMARK UNBOUND:                -0.499
REMARK SMILES CCCCCCCCC(=O)[O-]
REMARK SMILES IDX 6 1 7 2 8 3 9 4 10 5 11 6 5 7 4 8 3 9 2 10 1 11
REMARK H PARENT
REMARK Flexibility Score: inf
ROOT
ATOM      1  C   UNL     1      18.020  11.889 -13.907  1.00  0.00     0.000 C 
ENDROOT
BRANCH   1   2
ATOM      2  C   UNL     1      19.135  12.710 -14.565  1.00  0.00     0.006 C 
BRANCH   2   3
ATOM      3  C   UNL     1      20.395  12.724 -13.694  1.00  0.00     0.053 C 
BRANCH   3   4
ATOM      4  C   UNL     1      21.261  13.893 -14.044  1.00  0.00     0.041 C 
ATOM      5  O   UNL     1      22.342  14.087 -13.429  1.00  0.00    -0.550 OA
ATOM      6  O   UNL     1      20.897  14.741 -15.082  1.00  0.00    -0.550 OA
ENDBRANCH   3   4
ENDBRANCH   2   3
ENDBRANCH   1   2
BRANCH   1   7
ATOM      7  C   UNL     1      16.682  12.103 -14.624  1.00  0.00     0.000 C 
BRANCH   7   8
ATOM      8  C   UNL     1      15.549  12.339 -13.617  1.00  0.00    -0.000 C 
BRANCH   8   9
ATOM      9  C   UNL     1      14.443  11.284 -13.778  1.00  0.00    -0.000 C 
BRANCH   9  10
ATOM     10  C   UNL     1      14.753  10.270 -14.888  1.00  0.00    -0.003 C 
ATOM     11  C   UNL     1      15.049   8.871 -14.347  1.00  0.00     0.004 C 
ENDBRANCH   9  10
ENDBRANCH   8   9
ENDBRANCH   7   8
ENDBRANCH   1   7
TORSDOF 7
ENDMDL
MODEL 6
REMARK VINA RESULT:    -3.711      3.152      5.296
REMARK INTER + INTRA:          -5.729
REMARK INTER:                  -5.102
REMARK INTRA:                  -0.627
REMARK UNBOUND:                -0.499
REMARK SMILES CCCCCCCCC(=O)[O-]
REMARK SMILES IDX 6 1 7 2 8 3 9 4 10 5 11 6 5 7 4 8 3 9 2 10 1 11
REMARK H PARENT
REMARK Flexibility Score: inf
ROOT
ATOM      1  C   UNL     1      18.463  10.152 -13.902  1.00  0.00     0.000 C 
ENDROOT
BRANCH   1   2
ATOM      2  C   UNL     1      18.537  11.599 -13.403  1.00  0.00     0.006 C 
BRANCH   2   3
ATOM      3  C   UNL     1      18.867  12.560 -14.549  1.00  0.00     0.053 C 
BRANCH   3   4
ATOM      4  C   UNL     1      20.139  13.296 -14.266  1.00  0.00     0.041 C 
ATOM      5  O   UNL     1      20.877  12.941 -13.309  1.00  0.00    -0.550 OA
ATOM      6  O   UNL     1      20.535  14.342 -15.089  1.00  0.00    -0.550 OA
ENDBRANCH   3   4
ENDBRANCH   2   3
ENDBRANCH   1   2
BRANCH   1   7
ATOM      7  C   UNL     1      17.671  10.061 -15.212  1.00  0.00     0.000 C 
BRANCH   7   8
ATOM      8  C   UNL     1      16.666   8.903 -15.169  1.00  0.00    -0.000 C 
BRANCH   8   9
ATOM      9  C   UNL     1      15.473   9.245 -14.263  1.00  0.00    -0.000 C 
BRANCH   9  10
ATOM     10  C   UNL     1      14.689  10.470 -14.758  1.00  0.00    -0.003 C 
ATOM     11  C   UNL     1      14.504  11.531 -13.674  1.00  0.00     0.004 C 
ENDBRANCH   9  10
ENDBRANCH   8   9
ENDBRANCH   7   8
ENDBRANCH   1   7
TORSDOF 7
ENDMDL
MODEL 7
REMARK VINA RESULT:    -3.635      3.817      6.160
REMARK INTER + INTRA:          -5.622
REMARK INTER:                  -5.263
REMARK INTRA:                  -0.358
REMARK UNBOUND:                -0.499
REMARK SMILES CCCCCCCCC(=O)[O-]
REMARK SMILES IDX 6 1 7 2 8 3 9 4 10 5 11 6 5 7 4 8 3 9 2 10 1 11
REMARK H PARENT
REMARK Flexibility Score: inf
ROOT
ATOM      1  C   UNL     1      18.991  11.880 -13.337  1.00  0.00     0.000 C 
ENDROOT
BRANCH   1   2
ATOM      2  C   UNL     1      20.427  12.117 -13.820  1.00  0.00     0.006 C 
BRANCH   2   3
ATOM      3  C   UNL     1      20.652  13.590 -14.172  1.00  0.00     0.053 C 
BRANCH   3   4
ATOM      4  C   UNL     1      21.957  14.068 -13.617  1.00  0.00     0.041 C 
ATOM      5  O   UNL     1      22.532  15.068 -14.122  1.00  0.00    -0.550 OA
ATOM      6  O   UNL     1      22.513  13.439 -12.511  1.00  0.00    -0.550 OA
ENDBRANCH   3   4
ENDBRANCH   2   3
ENDBRANCH   1   2
BRANCH   1   7
ATOM      7  C   UNL     1      18.434  10.563 -13.890  1.00  0.00     0.000 C 
BRANCH   7   8
ATOM      8  C   UNL     1      17.148  10.802 -14.690  1.00  0.00    -0.000 C 
BRANCH   8   9
ATOM      9  C   UNL     1      16.401  12.040 -14.173  1.00  0.00    -0.000 C 
BRANCH   9  10
ATOM     10  C   UNL     1      14.903  11.778 -13.956  1.00  0.00    -0.003 C 
ATOM     11  C   UNL     1      14.433  10.470 -14.590  1.00  0.00     0.004 C 
ENDBRANCH   9  10
ENDBRANCH   8   9
ENDBRANCH   7   8
ENDBRANCH   1   7
TORSDOF 7
ENDMDL
MODEL 8
REMARK VINA RESULT:    -3.611      2.209      3.341
REMARK INTER + INTRA:          -5.588
REMARK INTER:                  -5.234
REMARK INTRA:                  -0.355
REMARK UNBOUND:                -0.499
REMARK SMILES CCCCCCCCC(=O)[O-]
REMARK SMILES IDX 6 1 7 2 8 3 9 4 10 5 11 6 5 7 4 8 3 9 2 10 1 11
REMARK H PARENT
REMARK Flexibility Score: inf
ROOT
ATOM      1  C   UNL     1      18.553  12.707 -14.994  1.00  0.00     0.000 C 
ENDROOT
BRANCH   1   2
ATOM      2  C   UNL     1      17.580  11.699 -15.617  1.00  0.00     0.006 C 
BRANCH   2   3
ATOM      3  C   UNL     1      16.667  11.086 -14.551  1.00  0.00     0.053 C 
BRANCH   3   4
ATOM      4  C   UNL     1      15.343  11.784 -14.532  1.00  0.00     0.041 C 
ATOM      5  O   UNL     1      15.048  12.608 -15.437  1.00  0.00    -0.550 OA
ATOM      6  O   UNL     1      14.416  11.488 -13.541  1.00  0.00    -0.550 OA
ENDBRANCH   3   4
ENDBRANCH   2   3
ENDBRANCH   1   2
BRANCH   1   7
ATOM      7  C   UNL     1      19.114  12.183 -13.666  1.00  0.00     0.000 C 
BRANCH   7   8
ATOM      8  C   UNL     1      20.636  12.362 -13.603  1.00  0.00    -0.000 C 
BRANCH   8   9
ATOM      9  C   UNL     1      21.050  13.741 -14.138  1.00  0.00    -0.000 C 
BRANCH   9  10
ATOM     10  C   UNL     1      22.364  14.244 -13.521  1.00  0.00    -0.003 C 
ATOM     11  C   UNL     1      22.888  13.327 -12.416  1.00  0.00     0.004 C 
ENDBRANCH   9  10
ENDBRANCH   8   9
ENDBRANCH   7   8
ENDBRANCH   1   7
TORSDOF 7
ENDMDL
MODEL 9
REMARK VINA RESULT:    -3.396      2.411      4.596
REMARK INTER + INTRA:          -5.285
REMARK INTER:                  -4.606
REMARK INTRA:                  -0.679
REMARK UNBOUND:                -0.499
REMARK SMILES CCCCCCCCC(=O)[O-]
REMARK SMILES IDX 6 1 7 2 8 3 9 4 10 5 11 6 5 7 4 8 3 9 2 10 1 11
REMARK H PARENT
REMARK Flexibility Score: inf
ROOT
ATOM      1  C   UNL     1      15.369  12.367 -13.841  1.00  0.00     0.000 C 
ENDROOT
BRANCH   1   2
ATOM      2  C   UNL     1      16.872  12.066 -13.838  1.00  0.00     0.006 C 
BRANCH   2   3
ATOM      3  C   UNL     1      17.530  12.538 -15.137  1.00  0.00     0.053 C 
BRANCH   3   4
ATOM      4  C   UNL     1      19.016  12.610 -14.976  1.00  0.00     0.041 C 
ATOM      5  O   UNL     1      19.595  13.728 -14.925  1.00  0.00    -0.550 OA
ATOM      6  O   UNL     1      19.757  11.444 -14.833  1.00  0.00    -0.550 OA
ENDBRANCH   3   4
ENDBRANCH   2   3
ENDBRANCH   1   2
BRANCH   1   7
ATOM      7  C   UNL     1      14.548  11.073 -13.821  1.00  0.00     0.000 C 
BRANCH   7   8
ATOM      8  C   UNL     1      14.285  10.565 -15.245  1.00  0.00    -0.000 C 
BRANCH   8   9
ATOM      9  C   UNL     1      14.573   9.061 -15.353  1.00  0.00    -0.000 C 
BRANCH   9  10
ATOM     10  C   UNL     1      15.861   8.652 -14.623  1.00  0.00    -0.003 C 
ATOM     11  C   UNL     1      17.108   8.802 -15.494  1.00  0.00     0.004 C 
ENDBRANCH   9  10
ENDBRANCH   8   9
ENDBRANCH   7   8
ENDBRANCH   1   7
TORSDOF 7
ENDMDL
