MODEL 1
REMARK VINA RESULT:    -3.334      0.000      0.000
REMARK INTER + INTRA:          -4.370
REMARK INTER:                  -4.113
REMARK INTRA:                  -0.257
REMARK UNBOUND:                -0.257
REMARK SMILES CCCCCC(=O)[O-]
REMARK SMILES IDX 4 1 5 2 6 3 7 4 8 5 3 6 2 7 1 8
REMARK H PARENT
REMARK Flexibility Score: inf
ROOT
ATOM      1  C   UNL     1       0.076   0.609  -4.065  1.00  0.00     0.006 C 
ENDROOT
BRANCH   1   2
ATOM      2  C   UNL     1      -0.191  -0.864  -4.387  1.00  0.00     0.053 C 
BRANCH   2   3
ATOM      3  C   UNL     1       1.010  -1.485  -5.028  1.00  0.00     0.041 C 
ATOM      4  O   UNL     1       0.963  -1.865  -6.228  1.00  0.00    -0.550 OA
ATOM      5  O   UNL     1       2.167  -1.689  -4.287  1.00  0.00    -0.550 OA
ENDBRANCH   2   3
ENDBRANCH   1   2
BRANCH   1   6
ATOM      6  C   UNL     1       0.053   1.464  -5.338  1.00  0.00     0.000 C 
BRANCH   6   7
ATOM      7  C   UNL     1       1.396   2.170  -5.550  1.00  0.00    -0.003 C 
ATOM      8  C   UNL     1       2.289   2.039  -4.319  1.00  0.00     0.004 C 
ENDBRANCH   6   7
ENDBRANCH   1   6
TORSDOF 4
ENDMDL
MODEL 2
REMARK VINA RESULT:    -3.277      3.958      4.373
REMARK INTER + INTRA:          -4.301
REMARK INTER:                  -4.257
REMARK INTRA:                  -0.043
REMARK UNBOUND:                -0.257
REMARK SMILES CCCCCC(=O)[O-]
REMARK SMILES IDX 4 1 5 2 6 3 7 4 8 5 3 6 2 7 1 8
REMARK H PARENT
REMARK Flexibility Score: inf
ROOT
ATOM      1  C   UNL     1       4.318   1.449  -4.046  1.00  0.00     0.006 C 
ENDROOT
BRANCH   1   2
ATOM      2  C   UNL     1       5.307   0.493  -3.371  1.00  0.00     0.053 C 
BRANCH   2   3
ATOM      3  C   UNL     1       4.924  -0.929  -3.634  1.00  0.00     0.041 C 
ATOM      4  O   UNL     1       4.157  -1.536  -2.841  1.00  0.00    -0.550 OA
ATOM      5  O   UNL     1       5.450  -1.600  -4.731  1.00  0.00    -0.550 OA
ENDBRANCH   2   3
ENDBRANCH   1   2
BRANCH   1   6
ATOM      6  C   UNL     1       4.738   2.909  -3.841  1.00  0.00     0.000 C 
BRANCH   6   7
ATOM      7  C   UNL     1       3.518   3.802  -3.593  1.00  0.00    -0.003 C 
ATOM      8  C   UNL     1       3.901   5.279  -3.619  1.00  0.00     0.004 C 
ENDBRANCH   6   7
ENDBRANCH   1   6
TORSDOF 4
ENDMDL
MODEL 3
REMARK VINA RESULT:    -3.221     15.129     16.145
REMARK INTER + INTRA:          -4.231
REMARK INTER:                  -4.120
REMARK INTRA:                  -0.111
REMARK UNBOUND:                -0.257
REMARK SMILES CCCCCC(=O)[O-]
REMARK SMILES IDX 4 1 5 2 6 3 7 4 8 5 3 6 2 7 1 8
REMARK H PARENT
REMARK Flexibility Score: inf
ROOT
ATOM      1  C   UNL     1       7.997  -8.304   6.216  1.00  0.00     0.006 C 
ENDROOT
BRANCH   1   2
ATOM      2  C   UNL     1       8.812  -8.042   7.487  1.00  0.00     0.053 C 
BRANCH   2   3
ATOM      3  C   UNL     1       8.319  -8.898   8.610  1.00  0.00     0.041 C 
ATOM      4  O   UNL     1       7.843 -10.040   8.374  1.00  0.00    -0.550 OA
ATOM      5  O   UNL     1       8.340  -8.418   9.913  1.00  0.00    -0.550 OA
ENDBRANCH   2   3
ENDBRANCH   1   2
BRANCH   1   6
ATOM      6  C   UNL     1       7.235  -7.045   5.782  1.00  0.00     0.000 C 
BRANCH   6   7
ATOM      7  C   UNL     1       7.245  -6.895   4.258  1.00  0.00    -0.003 C 
ATOM      8  C   UNL     1       8.029  -8.026   3.597  1.00  0.00     0.004 C 
ENDBRANCH   6   7
ENDBRANCH   1   6
TORSDOF 4
ENDMDL
MODEL 4
REMARK VINA RESULT:    -3.182      2.328      3.427
REMARK INTER + INTRA:          -4.183
REMARK INTER:                  -4.085
REMARK INTRA:                  -0.098
REMARK UNBOUND:                -0.257
REMARK SMILES CCCCCC(=O)[O-]
REMARK SMILES IDX 4 1 5 2 6 3 7 4 8 5 3 6 2 7 1 8
REMARK H PARENT
REMARK Flexibility Score: inf
ROOT
ATOM      1  C   UNL     1       2.512   0.016  -4.847  1.00  0.00     0.006 C 
ENDROOT
BRANCH   1   2
ATOM      2  C   UNL     1       3.931   0.241  -4.314  1.00  0.00     0.053 C 
BRANCH   2   3
ATOM      3  C   UNL     1       4.531  -1.052  -3.862  1.00  0.00     0.041 C 
ATOM      4  O   UNL     1       4.164  -1.577  -2.778  1.00  0.00    -0.550 OA
ATOM      5  O   UNL     1       5.531  -1.656  -4.614  1.00  0.00    -0.550 OA
ENDBRANCH   2   3
ENDBRANCH   1   2
BRANCH   1   6
ATOM      6  C   UNL     1       1.605   1.207  -4.516  1.00  0.00     0.000 C 
BRANCH   6   7
ATOM      7  C   UNL     1       0.156   0.753  -4.310  1.00  0.00    -0.003 C 
ATOM      8  C   UNL     1       0.013  -0.751  -4.526  1.00  0.00     0.004 C 
ENDBRANCH   6   7
ENDBRANCH   1   6
TORSDOF 4
ENDMDL
MODEL 5
REMARK VINA RESULT:    -3.169      9.294     10.619
REMARK INTER + INTRA:          -4.168
REMARK INTER:                  -4.181
REMARK INTRA:                   0.013
REMARK UNBOUND:                -0.257
REMARK SMILES CCCCCC(=O)[O-]
REMARK SMILES IDX 4 1 5 2 6 3 7 4 8 5 3 6 2 7 1 8
REMARK H PARENT
REMARK Flexibility Score: inf
ROOT
ATOM      1  C   UNL     1      -7.699  -6.671  -6.120  1.00  0.00     0.006 C 
ENDROOT
BRANCH   1   2
ATOM      2  C   UNL     1      -6.539  -5.690  -5.925  1.00  0.00     0.053 C 
BRANCH   2   3
ATOM      3  C   UNL     1      -6.483  -5.221  -4.507  1.00  0.00     0.041 C 
ATOM      4  O   UNL     1      -6.640  -4.000  -4.236  1.00  0.00    -0.550 OA
ATOM      5  O   UNL     1      -6.211  -6.122  -3.485  1.00  0.00    -0.550 OA
ENDBRANCH   2   3
ENDBRANCH   1   2
BRANCH   1   6
ATOM      6  C   UNL     1      -8.788  -6.065  -7.014  1.00  0.00     0.000 C 
BRANCH   6   7
ATOM      7  C   UNL     1      -8.850  -4.543  -6.850  1.00  0.00    -0.003 C 
ATOM      8  C   UNL     1     -10.256  -4.016  -7.124  1.00  0.00     0.004 C 
ENDBRANCH   6   7
ENDBRANCH   1   6
TORSDOF 4
ENDMDL
MODEL 6
REMARK VINA RESULT:    -3.100     14.254     15.370
REMARK INTER + INTRA:          -4.082
REMARK INTER:                  -3.983
REMARK INTRA:                  -0.099
REMARK UNBOUND:                -0.257
REMARK SMILES CCCCCC(=O)[O-]
REMARK SMILES IDX 4 1 5 2 6 3 7 4 8 5 3 6 2 7 1 8
REMARK H PARENT
REMARK Flexibility Score: inf
ROOT
ATOM      1  C   UNL     1       7.536  -7.624   5.813  1.00  0.00     0.006 C 
ENDROOT
BRANCH   1   2
ATOM      2  C   UNL     1       7.910  -8.711   4.800  1.00  0.00     0.053 C 
BRANCH   2   3
ATOM      3  C   UNL     1       7.858  -8.169   3.407  1.00  0.00     0.041 C 
ATOM      4  O   UNL     1       7.307  -7.060   3.179  1.00  0.00    -0.550 OA
ATOM      5  O   UNL     1       8.376  -8.910   2.352  1.00  0.00    -0.550 OA
ENDBRANCH   2   3
ENDBRANCH   1   2
BRANCH   1   6
ATOM      6  C   UNL     1       8.239  -7.858   7.155  1.00  0.00     0.000 C 
BRANCH   6   7
ATOM      7  C   UNL     1       8.265  -9.348   7.510  1.00  0.00    -0.003 C 
ATOM      8  C   UNL     1       7.935  -9.569   8.984  1.00  0.00     0.004 C 
ENDBRANCH   6   7
ENDBRANCH   1   6
TORSDOF 4
ENDMDL
MODEL 7
REMARK VINA RESULT:    -3.015      0.962      1.373
REMARK INTER + INTRA:          -3.977
REMARK INTER:                  -3.881
REMARK INTRA:                  -0.096
REMARK UNBOUND:                -0.257
REMARK SMILES CCCCCC(=O)[O-]
REMARK SMILES IDX 4 1 5 2 6 3 7 4 8 5 3 6 2 7 1 8
REMARK H PARENT
REMARK Flexibility Score: inf
ROOT
ATOM      1  C   UNL     1       0.812   1.203  -5.048  1.00  0.00     0.006 C 
ENDROOT
BRANCH   1   2
ATOM      2  C   UNL     1       0.289  -0.165  -4.598  1.00  0.00     0.053 C 
BRANCH   2   3
ATOM      3  C   UNL     1       1.208  -1.253  -5.056  1.00  0.00     0.041 C 
ATOM      4  O   UNL     1       1.192  -1.632  -6.257  1.00  0.00    -0.550 OA
ATOM      5  O   UNL     1       2.048  -1.883  -4.147  1.00  0.00    -0.550 OA
ENDBRANCH   2   3
ENDBRANCH   1   2
BRANCH   1   6
ATOM      6  C   UNL     1       1.949   1.684  -4.140  1.00  0.00     0.000 C 
BRANCH   6   7
ATOM      7  C   UNL     1       2.758   2.796  -4.814  1.00  0.00    -0.003 C 
ATOM      8  C   UNL     1       3.505   3.638  -3.782  1.00  0.00     0.004 C 
ENDBRANCH   6   7
ENDBRANCH   1   6
TORSDOF 4
ENDMDL
MODEL 8
REMARK VINA RESULT:    -2.987      2.555      3.336
REMARK INTER + INTRA:          -3.942
REMARK INTER:                  -3.795
REMARK INTRA:                  -0.146
REMARK UNBOUND:                -0.257
REMARK SMILES CCCCCC(=O)[O-]
REMARK SMILES IDX 4 1 5 2 6 3 7 4 8 5 3 6 2 7 1 8
REMARK H PARENT
REMARK Flexibility Score: inf
ROOT
ATOM      1  C   UNL     1       3.381   0.515  -4.500  1.00  0.00     0.006 C 
ENDROOT
BRANCH   1   2
ATOM      2  C   UNL     1       2.437  -0.013  -5.584  1.00  0.00     0.053 C 
BRANCH   2   3
ATOM      3  C   UNL     1       1.423  -0.938  -4.990  1.00  0.00     0.041 C 
ATOM      4  O   UNL     1       1.254  -2.088  -5.473  1.00  0.00    -0.550 OA
ATOM      5  O   UNL     1       0.629  -0.513  -3.931  1.00  0.00    -0.550 OA
ENDBRANCH   2   3
ENDBRANCH   1   2
BRANCH   1   6
ATOM      6  C   UNL     1       4.339  -0.583  -4.022  1.00  0.00     0.000 C 
BRANCH   6   7
ATOM      7  C   UNL     1       5.364  -0.024  -3.030  1.00  0.00    -0.003 C 
ATOM      8  C   UNL     1       5.630   1.456  -3.287  1.00  0.00     0.004 C 
ENDBRANCH   6   7
ENDBRANCH   1   6
TORSDOF 4
ENDMDL
MODEL 9
REMARK VINA RESULT:    -2.963     20.615     21.938
REMARK INTER + INTRA:          -3.913
REMARK INTER:                  -3.773
REMARK INTRA:                  -0.140
REMARK UNBOUND:                -0.257
REMARK SMILES CCCCCC(=O)[O-]
REMARK SMILES IDX 4 1 5 2 6 3 7 4 8 5 3 6 2 7 1 8
REMARK H PARENT
REMARK Flexibility Score: inf
ROOT
ATOM      1  C   UNL     1     -10.612 -11.606  11.069  1.00  0.00     0.006 C 
ENDROOT
BRANCH   1   2
ATOM      2  C   UNL     1     -10.319 -10.221  11.654  1.00  0.00     0.053 C 
BRANCH   2   3
ATOM      3  C   UNL     1      -8.920 -10.161  12.180  1.00  0.00     0.041 C 
ATOM      4  O   UNL     1      -8.423 -11.155  12.771  1.00  0.00    -0.550 OA
ATOM      5  O   UNL     1      -8.181  -8.991  12.061  1.00  0.00    -0.550 OA
ENDBRANCH   2   3
ENDBRANCH   1   2
BRANCH   1   6
ATOM      6  C   UNL     1     -10.208 -11.677   9.592  1.00  0.00     0.000 C 
BRANCH   6   7
ATOM      7  C   UNL     1     -10.909 -10.585   8.777  1.00  0.00    -0.003 C 
ATOM      8  C   UNL     1     -10.437 -10.591   7.325  1.00  0.00     0.004 C 
ENDBRANCH   6   7
ENDBRANCH   1   6
TORSDOF 4
ENDMDL
