MODEL 1
REMARK VINA RESULT:    -3.815      0.000      0.000
REMARK INTER + INTRA:          -5.050
REMARK INTER:                  -4.707
REMARK INTRA:                  -0.343
REMARK UNBOUND:                -0.343
REMARK SMILES COc1cc(-c2oc3cc(O)cc(O)c3c(=O)c2O)ccc1O
REMARK SMILES IDX 6 1 18 2 16 3 17 4 15 5 13 6 12 7 10 8 9 9 8 10 7 11 5 12
REMARK SMILES IDX 3 13 22 14 4 15 21 16 20 17 2 18 1 19 23 20 19 22 14 24
REMARK SMILES IDX 11 26
REMARK H PARENT 23 21 19 23 14 25 11 27
REMARK Flexibility Score: inf
ROOT
ATOM      1  C   UNL     1    -100.087  27.335 -38.790  1.00  0.00     0.180 A 
ATOM      2  C   UNL     1    -100.231  26.081 -39.415  1.00  0.00     0.208 A 
ATOM      3  C   UNL     1     -99.089  25.441 -39.921  1.00  0.00     0.238 A 
ATOM      4  O   UNL     1     -99.203  24.313 -40.473  1.00  0.00    -0.285 OA
ATOM      5  C   UNL     1     -97.831  26.070 -39.813  1.00  0.00     0.111 A 
ATOM      6  C   UNL     1     -96.634  25.494 -40.300  1.00  0.00     0.134 A 
ATOM      7  C   UNL     1     -95.422  26.188 -40.162  1.00  0.00     0.093 A 
ATOM      8  C   UNL     1     -95.387  27.445 -39.547  1.00  0.00     0.123 A 
ATOM      9  C   UNL     1     -96.565  28.016 -39.064  1.00  0.00     0.094 A 
ATOM     10  C   UNL     1     -97.783  27.340 -39.191  1.00  0.00     0.146 A 
ATOM     11  O   UNL     1     -98.888  27.905 -38.719  1.00  0.00    -0.452 OA
ENDROOT
BRANCH   1  12
ATOM     12  C   UNL     1    -101.241  28.063 -38.215  1.00  0.00     0.025 A 
ATOM     13  C   UNL     1    -103.265  29.415 -38.471  1.00  0.00     0.161 A 
ATOM     14  C   UNL     1    -103.450  29.383 -37.077  1.00  0.00     0.157 A 
ATOM     15  C   UNL     1    -102.160  28.744 -39.033  1.00  0.00     0.062 A 
ATOM     16  C   UNL     1    -102.549  28.687 -36.266  1.00  0.00     0.051 A 
ATOM     17  C   UNL     1    -101.458  28.025 -36.829  1.00  0.00     0.016 A 
BRANCH  13  18
ATOM     18  O   UNL     1    -104.192  30.113 -39.261  1.00  0.00    -0.493 OA
ATOM     19  C   UNL     1    -104.922  29.543 -40.343  1.00  0.00     0.278 C 
ENDBRANCH  13  18
BRANCH  14  20
ATOM     20  O   UNL     1    -104.528  30.036 -36.478  1.00  0.00    -0.504 OA
ATOM     21  H   UNL     1    -105.393  30.215 -36.972  1.00  0.00     0.293 HD
ENDBRANCH  14  20
ENDBRANCH   1  12
BRANCH   2  22
ATOM     22  O   UNL     1    -101.495  25.502 -39.554  1.00  0.00    -0.502 OA
ATOM     23  H   UNL     1    -102.239  25.656 -38.883  1.00  0.00     0.293 HD
ENDBRANCH   2  22
BRANCH   6  24
ATOM     24  O   UNL     1     -96.637  24.244 -40.917  1.00  0.00    -0.507 OA
ATOM     25  H   UNL     1     -96.566  23.384 -40.384  1.00  0.00     0.293 HD
ENDBRANCH   6  24
BRANCH   8  26
ATOM     26  O   UNL     1     -94.184  28.135 -39.410  1.00  0.00    -0.508 OA
ATOM     27  H   UNL     1     -93.312  27.650 -39.235  1.00  0.00     0.293 HD
ENDBRANCH   8  26
TORSDOF 6
ENDMDL
MODEL 2
REMARK VINA RESULT:    -3.796      5.168      7.810
REMARK INTER + INTRA:          -5.027
REMARK INTER:                  -4.627
REMARK INTRA:                  -0.400
REMARK UNBOUND:                -0.343
REMARK SMILES COc1cc(-c2oc3cc(O)cc(O)c3c(=O)c2O)ccc1O
REMARK SMILES IDX 6 1 18 2 16 3 17 4 15 5 13 6 12 7 10 8 9 9 8 10 7 11 5 12
REMARK SMILES IDX 3 13 22 14 4 15 21 16 20 17 2 18 1 19 23 20 19 22 14 24
REMARK SMILES IDX 11 26
REMARK H PARENT 23 21 19 23 14 25 11 27
REMARK Flexibility Score: inf
ROOT
ATOM      1  C   UNL     1     -94.931  24.367 -36.737  1.00  0.00     0.180 A 
ATOM      2  C   UNL     1     -94.505  24.485 -35.399  1.00  0.00     0.208 A 
ATOM      3  C   UNL     1     -94.358  23.320 -34.630  1.00  0.00     0.238 A 
ATOM      4  O   UNL     1     -93.968  23.411 -33.435  1.00  0.00    -0.285 OA
ATOM      5  C   UNL     1     -94.656  22.065 -35.201  1.00  0.00     0.111 A 
ATOM      6  C   UNL     1     -94.537  20.845 -34.493  1.00  0.00     0.134 A 
ATOM      7  C   UNL     1     -94.862  19.638 -35.130  1.00  0.00     0.093 A 
ATOM      8  C   UNL     1     -95.302  19.628 -36.458  1.00  0.00     0.123 A 
ATOM      9  C   UNL     1     -95.419  20.828 -37.160  1.00  0.00     0.094 A 
ATOM     10  C   UNL     1     -95.100  22.043 -36.544  1.00  0.00     0.146 A 
ATOM     11  O   UNL     1     -95.217  23.169 -37.237  1.00  0.00    -0.452 OA
ENDROOT
BRANCH   1  12
ATOM     12  C   UNL     1     -95.091  25.548 -37.616  1.00  0.00     0.025 A 
ATOM     13  C   UNL     1     -96.445  27.366 -38.536  1.00  0.00     0.161 A 
ATOM     14  C   UNL     1     -95.327  27.819 -39.259  1.00  0.00     0.157 A 
ATOM     15  C   UNL     1     -96.316  26.232 -37.709  1.00  0.00     0.062 A 
ATOM     16  C   UNL     1     -94.105  27.153 -39.149  1.00  0.00     0.051 A 
ATOM     17  C   UNL     1     -93.983  26.031 -38.328  1.00  0.00     0.016 A 
BRANCH  13  18
ATOM     18  O   UNL     1     -97.658  28.063 -38.658  1.00  0.00    -0.493 OA
ATOM     19  C   UNL     1     -98.849  27.519 -39.218  1.00  0.00     0.278 C 
ENDBRANCH  13  18
BRANCH  14  20
ATOM     20  O   UNL     1     -95.412  28.936 -40.091  1.00  0.00    -0.504 OA
ATOM     21  H   UNL     1     -94.645  29.587 -40.203  1.00  0.00     0.293 HD
ENDBRANCH  14  20
ENDBRANCH   1  12
BRANCH   2  22
ATOM     22  O   UNL     1     -94.265  25.744 -34.843  1.00  0.00    -0.502 OA
ATOM     23  H   UNL     1     -94.813  26.559 -35.089  1.00  0.00     0.293 HD
ENDBRANCH   2  22
BRANCH   6  24
ATOM     24  O   UNL     1     -94.102  20.823 -33.168  1.00  0.00    -0.507 OA
ATOM     25  H   UNL     1     -94.591  20.294 -32.454  1.00  0.00     0.293 HD
ENDBRANCH   6  24
BRANCH   8  26
ATOM     26  O   UNL     1     -95.625  18.429 -37.091  1.00  0.00    -0.508 OA
ATOM     27  H   UNL     1     -94.917  17.737 -37.307  1.00  0.00     0.293 HD
ENDBRANCH   8  26
TORSDOF 6
ENDMDL
MODEL 3
REMARK VINA RESULT:    -3.788      1.914      7.059
REMARK INTER + INTRA:          -5.017
REMARK INTER:                  -4.634
REMARK INTRA:                  -0.383
REMARK UNBOUND:                -0.343
REMARK SMILES COc1cc(-c2oc3cc(O)cc(O)c3c(=O)c2O)ccc1O
REMARK SMILES IDX 6 1 18 2 16 3 17 4 15 5 13 6 12 7 10 8 9 9 8 10 7 11 5 12
REMARK SMILES IDX 3 13 22 14 4 15 21 16 20 17 2 18 1 19 23 20 19 22 14 24
REMARK SMILES IDX 11 26
REMARK H PARENT 23 21 19 23 14 25 11 27
REMARK Flexibility Score: inf
ROOT
ATOM      1  C   UNL     1     -99.558  27.474 -39.310  1.00  0.00     0.180 A 
ATOM      2  C   UNL     1    -100.336  27.323 -38.145  1.00  0.00     0.208 A 
ATOM      3  C   UNL     1    -101.733  27.416 -38.247  1.00  0.00     0.238 A 
ATOM      4  O   UNL     1    -102.441  27.273 -37.214  1.00  0.00    -0.285 OA
ATOM      5  C   UNL     1    -102.325  27.678 -39.500  1.00  0.00     0.111 A 
ATOM      6  C   UNL     1    -103.723  27.791 -39.687  1.00  0.00     0.134 A 
ATOM      7  C   UNL     1    -104.234  28.062 -40.965  1.00  0.00     0.093 A 
ATOM      8  C   UNL     1    -103.375  28.222 -42.057  1.00  0.00     0.123 A 
ATOM      9  C   UNL     1    -101.995  28.110 -41.878  1.00  0.00     0.094 A 
ATOM     10  C   UNL     1    -101.465  27.839 -40.613  1.00  0.00     0.146 A 
ATOM     11  O   UNL     1    -100.149  27.734 -40.471  1.00  0.00    -0.452 OA
ENDROOT
BRANCH   1  12
ATOM     12  C   UNL     1     -98.080  27.368 -39.286  1.00  0.00     0.025 A 
ATOM     13  C   UNL     1     -96.018  26.092 -39.612  1.00  0.00     0.161 A 
ATOM     14  C   UNL     1     -95.270  27.236 -39.279  1.00  0.00     0.157 A 
ATOM     15  C   UNL     1     -97.426  26.169 -39.620  1.00  0.00     0.062 A 
ATOM     16  C   UNL     1     -95.921  28.433 -38.970  1.00  0.00     0.051 A 
ATOM     17  C   UNL     1     -97.315  28.503 -38.980  1.00  0.00     0.016 A 
BRANCH  13  18
ATOM     18  O   UNL     1     -95.337  24.906 -39.930  1.00  0.00    -0.493 OA
ATOM     19  C   UNL     1     -95.665  24.055 -41.024  1.00  0.00     0.278 C 
ENDBRANCH  13  18
BRANCH  14  20
ATOM     20  O   UNL     1     -93.876  27.203 -39.256  1.00  0.00    -0.504 OA
ATOM     21  H   UNL     1     -93.338  26.638 -39.902  1.00  0.00     0.293 HD
ENDBRANCH  14  20
ENDBRANCH   1  12
BRANCH   2  22
ATOM     22  O   UNL     1     -99.722  27.114 -36.908  1.00  0.00    -0.502 OA
ATOM     23  H   UNL     1     -99.308  27.869 -36.374  1.00  0.00     0.293 HD
ENDBRANCH   2  22
BRANCH   6  24
ATOM     24  O   UNL     1    -104.605  27.638 -38.617  1.00  0.00    -0.507 OA
ATOM     25  H   UNL     1    -104.786  26.731 -38.200  1.00  0.00     0.293 HD
ENDBRANCH   6  24
BRANCH   8  26
ATOM     26  O   UNL     1    -103.882  28.491 -43.327  1.00  0.00    -0.508 OA
ATOM     27  H   UNL     1    -104.874  28.439 -43.523  1.00  0.00     0.293 HD
ENDBRANCH   8  26
TORSDOF 6
ENDMDL
MODEL 4
REMARK VINA RESULT:    -3.692      0.805      2.037
REMARK INTER + INTRA:          -4.898
REMARK INTER:                  -4.537
REMARK INTRA:                  -0.362
REMARK UNBOUND:                -0.343
REMARK SMILES COc1cc(-c2oc3cc(O)cc(O)c3c(=O)c2O)ccc1O
REMARK SMILES IDX 6 1 18 2 16 3 17 4 15 5 13 6 12 7 10 8 9 9 8 10 7 11 5 12
REMARK SMILES IDX 3 13 22 14 4 15 21 16 20 17 2 18 1 19 23 20 19 22 14 24
REMARK SMILES IDX 11 26
REMARK H PARENT 23 21 19 23 14 25 11 27
REMARK Flexibility Score: inf
ROOT
ATOM      1  C   UNL     1    -100.297  27.389 -38.761  1.00  0.00     0.180 A 
ATOM      2  C   UNL     1    -100.484  26.147 -39.399  1.00  0.00     0.208 A 
ATOM      3  C   UNL     1     -99.365  25.478 -39.919  1.00  0.00     0.238 A 
ATOM      4  O   UNL     1     -99.517  24.361 -40.483  1.00  0.00    -0.285 OA
ATOM      5  C   UNL     1     -98.088  26.067 -39.813  1.00  0.00     0.111 A 
ATOM      6  C   UNL     1     -96.911  25.461 -40.314  1.00  0.00     0.134 A 
ATOM      7  C   UNL     1     -95.678  26.116 -40.176  1.00  0.00     0.093 A 
ATOM      8  C   UNL     1     -95.601  27.364 -39.548  1.00  0.00     0.123 A 
ATOM      9  C   UNL     1     -96.758  27.965 -39.051  1.00  0.00     0.094 A 
ATOM     10  C   UNL     1     -97.996  27.328 -39.177  1.00  0.00     0.146 A 
ATOM     11  O   UNL     1     -99.081  27.921 -38.692  1.00  0.00    -0.452 OA
ENDROOT
BRANCH   1  12
ATOM     12  C   UNL     1    -101.425  28.145 -38.170  1.00  0.00     0.025 A 
ATOM     13  C   UNL     1    -102.713  28.906 -36.233  1.00  0.00     0.161 A 
ATOM     14  C   UNL     1    -103.549  29.642 -37.092  1.00  0.00     0.157 A 
ATOM     15  C   UNL     1    -101.646  28.164 -36.781  1.00  0.00     0.062 A 
ATOM     16  C   UNL     1    -103.314  29.641 -38.469  1.00  0.00     0.051 A 
ATOM     17  C   UNL     1    -102.257  28.905 -39.005  1.00  0.00     0.016 A 
BRANCH  13  18
ATOM     18  O   UNL     1    -102.966  28.935 -34.852  1.00  0.00    -0.493 OA
ATOM     19  C   UNL     1    -102.285  29.774 -33.925  1.00  0.00     0.278 C 
ENDBRANCH  13  18
BRANCH  14  20
ATOM     20  O   UNL     1    -104.618  30.387 -36.592  1.00  0.00    -0.504 OA
ATOM     21  H   UNL     1    -105.362  29.967 -36.049  1.00  0.00     0.293 HD
ENDBRANCH  14  20
ENDBRANCH   1  12
BRANCH   2  22
ATOM     22  O   UNL     1    -101.765  25.609 -39.536  1.00  0.00    -0.502 OA
ATOM     23  H   UNL     1    -102.081  25.170 -40.392  1.00  0.00     0.293 HD
ENDBRANCH   2  22
BRANCH   6  24
ATOM     24  O   UNL     1     -96.957  24.218 -40.945  1.00  0.00    -0.507 OA
ATOM     25  H   UNL     1     -97.370  24.100 -41.864  1.00  0.00     0.293 HD
ENDBRANCH   6  24
BRANCH   8  26
ATOM     26  O   UNL     1     -94.376  28.016 -39.411  1.00  0.00    -0.508 OA
ATOM     27  H   UNL     1     -93.839  27.959 -38.554  1.00  0.00     0.293 HD
ENDBRANCH   8  26
TORSDOF 6
ENDMDL
MODEL 5
REMARK VINA RESULT:    -3.683     10.273     13.350
REMARK INTER + INTRA:          -4.887
REMARK INTER:                  -4.526
REMARK INTRA:                  -0.361
REMARK UNBOUND:                -0.343
REMARK SMILES COc1cc(-c2oc3cc(O)cc(O)c3c(=O)c2O)ccc1O
REMARK SMILES IDX 6 1 18 2 16 3 17 4 15 5 13 6 12 7 10 8 9 9 8 10 7 11 5 12
REMARK SMILES IDX 3 13 22 14 4 15 21 16 20 17 2 18 1 19 23 20 19 22 14 24
REMARK SMILES IDX 11 26
REMARK H PARENT 23 21 19 23 14 25 11 27
REMARK Flexibility Score: inf
ROOT
ATOM      1  C   UNL     1    -100.398  24.494 -28.335  1.00  0.00     0.180 A 
ATOM      2  C   UNL     1    -101.238  24.531 -29.465  1.00  0.00     0.208 A 
ATOM      3  C   UNL     1    -102.552  25.001 -29.316  1.00  0.00     0.238 A 
ATOM      4  O   UNL     1    -103.311  25.049 -30.322  1.00  0.00    -0.285 OA
ATOM      5  C   UNL     1    -103.009  25.406 -28.045  1.00  0.00     0.111 A 
ATOM      6  C   UNL     1    -104.319  25.889 -27.811  1.00  0.00     0.134 A 
ATOM      7  C   UNL     1    -104.700  26.264 -26.513  1.00  0.00     0.093 A 
ATOM      8  C   UNL     1    -103.797  26.166 -25.449  1.00  0.00     0.123 A 
ATOM      9  C   UNL     1    -102.504  25.692 -25.676  1.00  0.00     0.094 A 
ATOM     10  C   UNL     1    -102.104  25.314 -26.961  1.00  0.00     0.146 A 
ATOM     11  O   UNL     1    -100.867  24.870 -27.149  1.00  0.00    -0.452 OA
ENDROOT
BRANCH   1  12
ATOM     12  C   UNL     1     -98.994  24.029 -28.415  1.00  0.00     0.025 A 
ATOM     13  C   UNL     1     -96.589  24.477 -28.471  1.00  0.00     0.161 A 
ATOM     14  C   UNL     1     -96.343  23.093 -28.514  1.00  0.00     0.157 A 
ATOM     15  C   UNL     1     -97.920  24.938 -28.414  1.00  0.00     0.062 A 
ATOM     16  C   UNL     1     -97.409  22.191 -28.491  1.00  0.00     0.051 A 
ATOM     17  C   UNL     1     -98.725  22.653 -28.435  1.00  0.00     0.016 A 
BRANCH  13  18
ATOM     18  O   UNL     1     -95.497  25.360 -28.483  1.00  0.00    -0.493 OA
ATOM     19  C   UNL     1     -95.026  26.077 -27.346  1.00  0.00     0.278 C 
ENDBRANCH  13  18
BRANCH  14  20
ATOM     20  O   UNL     1     -95.041  22.595 -28.574  1.00  0.00    -0.504 OA
ATOM     21  H   UNL     1     -94.845  21.611 -28.706  1.00  0.00     0.293 HD
ENDBRANCH  14  20
ENDBRANCH   1  12
BRANCH   2  22
ATOM     22  O   UNL     1    -100.777  24.076 -30.702  1.00  0.00    -0.502 OA
ATOM     23  H   UNL     1    -100.266  23.208 -30.805  1.00  0.00     0.293 HD
ENDBRANCH   2  22
BRANCH   6  24
ATOM     24  O   UNL     1    -105.241  25.997 -28.851  1.00  0.00    -0.507 OA
ATOM     25  H   UNL     1    -105.566  25.185 -29.364  1.00  0.00     0.293 HD
ENDBRANCH   6  24
BRANCH   8  26
ATOM     26  O   UNL     1    -104.175  26.539 -24.160  1.00  0.00    -0.508 OA
ATOM     27  H   UNL     1    -105.145  26.525 -23.868  1.00  0.00     0.293 HD
ENDBRANCH   8  26
TORSDOF 6
ENDMDL
MODEL 6
REMARK VINA RESULT:    -3.679      3.756      8.376
REMARK INTER + INTRA:          -4.883
REMARK INTER:                  -4.498
REMARK INTRA:                  -0.385
REMARK UNBOUND:                -0.343
REMARK SMILES COc1cc(-c2oc3cc(O)cc(O)c3c(=O)c2O)ccc1O
REMARK SMILES IDX 6 1 18 2 16 3 17 4 15 5 13 6 12 7 10 8 9 9 8 10 7 11 5 12
REMARK SMILES IDX 3 13 22 14 4 15 21 16 20 17 2 18 1 19 23 20 19 22 14 24
REMARK SMILES IDX 11 26
REMARK H PARENT 23 21 19 23 14 25 11 27
REMARK Flexibility Score: inf
ROOT
ATOM      1  C   UNL     1     -96.451  23.982 -40.966  1.00  0.00     0.180 A 
ATOM      2  C   UNL     1     -97.660  23.879 -40.250  1.00  0.00     0.208 A 
ATOM      3  C   UNL     1     -98.116  24.993 -39.528  1.00  0.00     0.238 A 
ATOM      4  O   UNL     1     -99.202  24.917 -38.891  1.00  0.00    -0.285 OA
ATOM      5  C   UNL     1     -97.351  26.178 -39.517  1.00  0.00     0.111 A 
ATOM      6  C   UNL     1     -97.739  27.342 -38.811  1.00  0.00     0.134 A 
ATOM      7  C   UNL     1     -96.918  28.480 -38.843  1.00  0.00     0.093 A 
ATOM      8  C   UNL     1     -95.719  28.473 -39.564  1.00  0.00     0.123 A 
ATOM      9  C   UNL     1     -95.334  27.328 -40.263  1.00  0.00     0.094 A 
ATOM     10  C   UNL     1     -96.138  26.184 -40.245  1.00  0.00     0.146 A 
ATOM     11  O   UNL     1     -95.750  25.110 -40.921  1.00  0.00    -0.452 OA
ENDROOT
BRANCH   1  12
ATOM     12  C   UNL     1     -95.915  22.857 -41.767  1.00  0.00     0.025 A 
ATOM     13  C   UNL     1     -94.669  20.759 -41.948  1.00  0.00     0.161 A 
ATOM     14  C   UNL     1     -94.967  20.713 -43.322  1.00  0.00     0.157 A 
ATOM     15  C   UNL     1     -95.155  21.833 -41.175  1.00  0.00     0.062 A 
ATOM     16  C   UNL     1     -95.742  21.719 -43.905  1.00  0.00     0.051 A 
ATOM     17  C   UNL     1     -96.220  22.779 -43.134  1.00  0.00     0.016 A 
BRANCH  13  18
ATOM     18  O   UNL     1     -93.898  19.728 -41.388  1.00  0.00    -0.493 OA
ATOM     19  C   UNL     1     -94.343  18.859 -40.351  1.00  0.00     0.278 C 
ENDBRANCH  13  18
BRANCH  14  20
ATOM     20  O   UNL     1     -94.504  19.670 -44.125  1.00  0.00    -0.504 OA
ATOM     21  H   UNL     1     -93.917  19.830 -44.934  1.00  0.00     0.293 HD
ENDBRANCH  14  20
ENDBRANCH   1  12
BRANCH   2  22
ATOM     22  O   UNL     1     -98.373  22.678 -40.236  1.00  0.00    -0.502 OA
ATOM     23  H   UNL     1     -97.985  21.813 -40.595  1.00  0.00     0.293 HD
ENDBRANCH   2  22
BRANCH   6  24
ATOM     24  O   UNL     1     -98.928  27.379 -38.083  1.00  0.00    -0.507 OA
ATOM     25  H   UNL     1     -99.646  26.672 -38.197  1.00  0.00     0.293 HD
ENDBRANCH   6  24
BRANCH   8  26
ATOM     26  O   UNL     1     -94.903  29.603 -39.596  1.00  0.00    -0.508 OA
ATOM     27  H   UNL     1     -95.218  30.472 -40.009  1.00  0.00     0.293 HD
ENDBRANCH   8  26
TORSDOF 6
ENDMDL
MODEL 7
REMARK VINA RESULT:    -3.669     10.420     11.453
REMARK INTER + INTRA:          -4.871
REMARK INTER:                  -4.481
REMARK INTRA:                  -0.390
REMARK UNBOUND:                -0.343
REMARK SMILES COc1cc(-c2oc3cc(O)cc(O)c3c(=O)c2O)ccc1O
REMARK SMILES IDX 6 1 18 2 16 3 17 4 15 5 13 6 12 7 10 8 9 9 8 10 7 11 5 12
REMARK SMILES IDX 3 13 22 14 4 15 21 16 20 17 2 18 1 19 23 20 19 22 14 24
REMARK SMILES IDX 11 26
REMARK H PARENT 23 21 19 23 14 25 11 27
REMARK Flexibility Score: inf
ROOT
ATOM      1  C   UNL     1     -96.914  25.209 -28.485  1.00  0.00     0.180 A 
ATOM      2  C   UNL     1     -96.284  23.979 -28.213  1.00  0.00     0.208 A 
ATOM      3  C   UNL     1     -95.487  23.391 -29.208  1.00  0.00     0.238 A 
ATOM      4  O   UNL     1     -94.910  22.295 -28.974  1.00  0.00    -0.285 OA
ATOM      5  C   UNL     1     -95.351  24.028 -30.459  1.00  0.00     0.111 A 
ATOM      6  C   UNL     1     -94.570  23.500 -31.515  1.00  0.00     0.134 A 
ATOM      7  C   UNL     1     -94.492  24.191 -32.734  1.00  0.00     0.093 A 
ATOM      8  C   UNL     1     -95.178  25.396 -32.916  1.00  0.00     0.123 A 
ATOM      9  C   UNL     1     -95.948  25.922 -31.876  1.00  0.00     0.094 A 
ATOM     10  C   UNL     1     -96.038  25.250 -30.653  1.00  0.00     0.146 A 
ATOM     11  O   UNL     1     -96.774  25.774 -29.681  1.00  0.00    -0.452 OA
ENDROOT
BRANCH   1  12
ATOM     12  C   UNL     1     -97.753  25.901 -27.480  1.00  0.00     0.025 A 
ATOM     13  C   UNL     1     -98.000  27.396 -25.558  1.00  0.00     0.161 A 
ATOM     14  C   UNL     1     -99.396  27.236 -25.627  1.00  0.00     0.157 A 
ATOM     15  C   UNL     1     -97.185  26.729 -26.495  1.00  0.00     0.062 A 
ATOM     16  C   UNL     1     -99.961  26.432 -26.620  1.00  0.00     0.051 A 
ATOM     17  C   UNL     1     -99.149  25.774 -27.544  1.00  0.00     0.016 A 
BRANCH  13  18
ATOM     18  O   UNL     1     -97.461  28.219 -24.557  1.00  0.00    -0.493 OA
ATOM     19  C   UNL     1     -96.167  28.812 -24.609  1.00  0.00     0.278 C 
ENDBRANCH  13  18
BRANCH  14  20
ATOM     20  O   UNL     1    -100.239  27.876 -24.718  1.00  0.00    -0.504 OA
ATOM     21  H   UNL     1    -100.666  28.772 -24.915  1.00  0.00     0.293 HD
ENDBRANCH  14  20
ENDBRANCH   1  12
BRANCH   2  22
ATOM     22  O   UNL     1     -96.476  23.344 -26.984  1.00  0.00    -0.502 OA
ATOM     23  H   UNL     1     -95.797  22.703 -26.592  1.00  0.00     0.293 HD
ENDBRANCH   2  22
BRANCH   6  24
ATOM     24  O   UNL     1     -93.875  22.300 -31.365  1.00  0.00    -0.507 OA
ATOM     25  H   UNL     1     -94.162  21.453 -31.843  1.00  0.00     0.293 HD
ENDBRANCH   6  24
BRANCH   8  26
ATOM     26  O   UNL     1     -95.101  26.083 -34.126  1.00  0.00    -0.508 OA
ATOM     27  H   UNL     1     -95.932  26.321 -34.654  1.00  0.00     0.293 HD
ENDBRANCH   8  26
TORSDOF 6
ENDMDL
MODEL 8
REMARK VINA RESULT:    -3.666      2.082      6.840
REMARK INTER + INTRA:          -4.867
REMARK INTER:                  -4.592
REMARK INTRA:                  -0.274
REMARK UNBOUND:                -0.343
REMARK SMILES COc1cc(-c2oc3cc(O)cc(O)c3c(=O)c2O)ccc1O
REMARK SMILES IDX 6 1 18 2 16 3 17 4 15 5 13 6 12 7 10 8 9 9 8 10 7 11 5 12
REMARK SMILES IDX 3 13 22 14 4 15 21 16 20 17 2 18 1 19 23 20 19 22 14 24
REMARK SMILES IDX 11 26
REMARK H PARENT 23 21 19 23 14 25 11 27
REMARK Flexibility Score: inf
ROOT
ATOM      1  C   UNL     1    -100.950  27.818 -39.400  1.00  0.00     0.180 A 
ATOM      2  C   UNL     1    -101.196  27.197 -40.641  1.00  0.00     0.208 A 
ATOM      3  C   UNL     1    -102.399  27.471 -41.309  1.00  0.00     0.238 A 
ATOM      4  O   UNL     1    -102.626  26.929 -42.425  1.00  0.00    -0.285 OA
ATOM      5  C   UNL     1    -103.341  28.341 -40.722  1.00  0.00     0.111 A 
ATOM      6  C   UNL     1    -104.578  28.666 -41.328  1.00  0.00     0.134 A 
ATOM      7  C   UNL     1    -105.466  29.533 -40.674  1.00  0.00     0.093 A 
ATOM      8  C   UNL     1    -105.141  30.080 -39.428  1.00  0.00     0.123 A 
ATOM      9  C   UNL     1    -103.921  29.764 -38.827  1.00  0.00     0.094 A 
ATOM     10  C   UNL     1    -103.022  28.902 -39.463  1.00  0.00     0.146 A 
ATOM     11  O   UNL     1    -101.867  28.621 -38.870  1.00  0.00    -0.452 OA
ENDROOT
BRANCH   1  12
ATOM     12  C   UNL     1     -99.696  27.595 -38.645  1.00  0.00     0.025 A 
ATOM     13  C   UNL     1     -97.279  27.865 -38.378  1.00  0.00     0.161 A 
ATOM     14  C   UNL     1     -97.350  27.192 -37.145  1.00  0.00     0.157 A 
ATOM     15  C   UNL     1     -98.460  28.068 -39.120  1.00  0.00     0.062 A 
ATOM     16  C   UNL     1     -98.582  26.743 -36.663  1.00  0.00     0.051 A 
ATOM     17  C   UNL     1     -99.748  26.948 -37.401  1.00  0.00     0.016 A 
BRANCH  13  18
ATOM     18  O   UNL     1     -96.029  28.316 -38.832  1.00  0.00    -0.493 OA
ATOM     19  C   UNL     1     -95.134  27.547 -39.629  1.00  0.00     0.278 C 
ENDBRANCH  13  18
BRANCH  14  20
ATOM     20  O   UNL     1     -96.206  26.967 -36.380  1.00  0.00    -0.504 OA
ATOM     21  H   UNL     1     -95.295  27.310 -36.657  1.00  0.00     0.293 HD
ENDBRANCH  14  20
ENDBRANCH   1  12
BRANCH   2  22
ATOM     22  O   UNL     1    -100.268  26.300 -41.177  1.00  0.00    -0.502 OA
ATOM     23  H   UNL     1     -99.343  26.178 -40.784  1.00  0.00     0.293 HD
ENDBRANCH   2  22
BRANCH   6  24
ATOM     24  O   UNL     1    -104.931  28.136 -42.569  1.00  0.00    -0.507 OA
ATOM     25  H   UNL     1    -105.898  27.964 -42.821  1.00  0.00     0.293 HD
ENDBRANCH   6  24
BRANCH   8  26
ATOM     26  O   UNL     1    -106.023  30.942 -38.778  1.00  0.00    -0.508 OA
ATOM     27  H   UNL     1    -106.659  31.537 -39.296  1.00  0.00     0.293 HD
ENDBRANCH   8  26
TORSDOF 6
ENDMDL
