MODEL 1
REMARK VINA RESULT:    -2.235      0.000      0.000
REMARK INTER + INTRA:          -3.078
REMARK INTER:                  -3.411
REMARK INTRA:                   0.333
REMARK UNBOUND:                 0.333
REMARK SMILES CC1=CCC[C@H](C)C(=O)C[C@H](C(C)C)C(=O)C1
REMARK SMILES IDX 8 1 9 2 6 3 7 4 5 5 4 6 3 7 2 8 1 9 10 11 11 12 15 13 16 14
REMARK SMILES IDX 17 15 12 17 13 18 14 19
REMARK H PARENT
REMARK Flexibility Score: 70.00
ROOT
ATOM      1  C   UNL     1      52.565  -0.289  21.115  1.00  0.00     0.136 C 
ATOM      2  O   UNL     1      52.746  -0.028  19.934  1.00  0.00    -0.299 OA
ENDROOT
BRANCH   1   3
ATOM      3  C   UNL     1      51.144  -0.526  21.599  1.00  0.00     0.053 C 
ATOM      4  C   UNL     1      50.562  -1.784  20.942  1.00  0.00     0.016 C 
BRANCH   3   5
ATOM      5  C   UNL     1      51.050  -0.617  23.135  1.00  0.00     0.015 C 
BRANCH   5   6
ATOM      6  C   UNL     1      50.802   0.758  23.781  1.00  0.00     0.028 C 
BRANCH   6   7
ATOM      7  C   UNL     1      51.977   1.250  24.585  1.00  0.00    -0.028 C 
ATOM      8  C   UNL     1      52.989   2.027  24.120  1.00  0.00    -0.070 CG0
ATOM      9  C   UNL     1      54.011   2.504  25.125  1.00  0.00     0.039 C 
ATOM     10  G   UNL     1      53.190   2.391  22.651  1.00  0.00     0.000 G0
ENDBRANCH   6   7
ENDBRANCH   5   6
ENDBRANCH   3   5
ENDBRANCH   1   3
BRANCH   1  11
ATOM     11  C   UNL     1      53.765  -0.432  22.024  1.00  0.00     0.087 C 
BRANCH  11  12
ATOM     12  C   UNL     1      54.890   0.592  21.703  1.00  0.00     0.066 C 
BRANCH  12  13
ATOM     13  C   UNL     1      54.548   2.026  22.098  1.00  0.00     0.140 C 
ATOM     14  O   UNL     1      55.436   2.866  22.069  1.00  0.00    -0.299 OA
BRANCH  13  15
ATOM     15  C   UNL     1      53.205   2.417  22.670  1.00  0.00     0.106 CG0
ATOM     16  G   UNL     1      53.002   2.017  24.129  1.00  0.00     0.000 G0
ENDBRANCH  13  15
ENDBRANCH  12  13
BRANCH  12  17
ATOM     17  C   UNL     1      56.294   0.175  22.254  1.00  0.00    -0.006 C 
ATOM     18  C   UNL     1      56.258  -1.003  23.244  1.00  0.00     0.008 C 
ATOM     19  C   UNL     1      57.276  -0.139  21.113  1.00  0.00     0.008 C 
ENDBRANCH  12  17
ENDBRANCH  11  12
ENDBRANCH   1  11
TORSDOF 1
ENDMDL
MODEL 2
REMARK VINA RESULT:    -2.167      2.003      4.419
REMARK INTER + INTRA:          -2.974
REMARK INTER:                  -3.025
REMARK INTRA:                   0.051
REMARK UNBOUND:                 0.333
REMARK SMILES CC1=CCC[C@H](C)C(=O)C[C@H](C(C)C)C(=O)C1
REMARK SMILES IDX 8 1 9 2 6 3 7 4 5 5 4 6 3 7 2 8 1 9 10 11 11 12 15 13 16 14
REMARK SMILES IDX 17 15 12 17 13 18 14 19
REMARK H PARENT
REMARK Flexibility Score: 70.00
ROOT
ATOM      1  C   UNL     1      51.292   0.780  23.899  1.00  0.00     0.136 C 
ATOM      2  O   UNL     1      51.320  -0.026  24.818  1.00  0.00    -0.299 OA
ENDROOT
BRANCH   1   3
ATOM      3  C   UNL     1      51.943   2.138  24.102  1.00  0.00     0.053 C 
ATOM      4  C   UNL     1      50.936   3.125  24.705  1.00  0.00     0.016 C 
BRANCH   3   5
ATOM      5  C   UNL     1      53.218   2.060  24.965  1.00  0.00     0.015 C 
BRANCH   5   6
ATOM      6  C   UNL     1      54.488   2.347  24.147  1.00  0.00     0.028 C 
BRANCH   6   7
ATOM      7  C   UNL     1      55.285   1.105  23.842  1.00  0.00    -0.028 C 
ATOM      8  C   UNL     1      55.253   0.406  22.678  1.00  0.00    -0.070 CG0
ATOM      9  C   UNL     1      56.218  -0.747  22.539  1.00  0.00     0.039 C 
ATOM     10  G   UNL     1      54.269   0.670  21.541  1.00  0.00     0.000 G0
ENDBRANCH   6   7
ENDBRANCH   5   6
ENDBRANCH   3   5
ENDBRANCH   1   3
BRANCH   1  11
ATOM     11  C   UNL     1      50.674   0.366  22.582  1.00  0.00     0.087 C 
BRANCH  11  12
ATOM     12  C   UNL     1      51.645   0.540  21.379  1.00  0.00     0.066 C 
BRANCH  12  13
ATOM     13  C   UNL     1      53.004  -0.122  21.585  1.00  0.00     0.140 C 
ATOM     14  O   UNL     1      53.034  -1.292  21.941  1.00  0.00    -0.299 OA
BRANCH  13  15
ATOM     15  C   UNL     1      54.304   0.644  21.520  1.00  0.00     0.106 CG0
ATOM     16  G   UNL     1      55.242   0.394  22.699  1.00  0.00     0.000 G0
ENDBRANCH  13  15
ENDBRANCH  12  13
BRANCH  12  17
ATOM     17  C   UNL     1      51.020   0.129  20.005  1.00  0.00    -0.006 C 
ATOM     18  C   UNL     1      50.118  -1.116  20.069  1.00  0.00     0.008 C 
ATOM     19  C   UNL     1      50.246   1.296  19.368  1.00  0.00     0.008 C 
ENDBRANCH  12  17
ENDBRANCH  11  12
ENDBRANCH   1  11
TORSDOF 1
ENDMDL
MODEL 3
REMARK VINA RESULT:    -2.037      1.357      3.817
REMARK INTER + INTRA:          -2.777
REMARK INTER:                  -3.078
REMARK INTRA:                   0.301
REMARK UNBOUND:                 0.333
REMARK SMILES CC1=CCC[C@H](C)C(=O)C[C@H](C(C)C)C(=O)C1
REMARK SMILES IDX 8 1 9 2 6 3 7 4 5 5 4 6 3 7 2 8 1 9 10 11 11 12 15 13 16 14
REMARK SMILES IDX 17 15 12 17 13 18 14 19
REMARK H PARENT
REMARK Flexibility Score: 70.00
ROOT
ATOM      1  C   UNL     1      55.634   0.722  22.179  1.00  0.00     0.136 C 
ATOM      2  O   UNL     1      56.443   1.530  21.746  1.00  0.00    -0.299 OA
ENDROOT
BRANCH   1   3
ATOM      3  C   UNL     1      55.803   0.212  23.601  1.00  0.00     0.053 C 
ATOM      4  C   UNL     1      56.692  -1.037  23.614  1.00  0.00     0.016 C 
BRANCH   3   5
ATOM      5  C   UNL     1      56.358   1.290  24.553  1.00  0.00     0.015 C 
BRANCH   5   6
ATOM      6  C   UNL     1      55.422   2.507  24.656  1.00  0.00     0.028 C 
BRANCH   6   7
ATOM      7  C   UNL     1      54.032   2.144  25.111  1.00  0.00    -0.028 C 
ATOM      8  C   UNL     1      52.888   2.340  24.406  1.00  0.00    -0.070 CG0
ATOM      9  C   UNL     1      51.610   1.797  25.000  1.00  0.00     0.039 C 
ATOM     10  G   UNL     1      52.807   3.123  23.097  1.00  0.00     0.000 G0
ENDBRANCH   6   7
ENDBRANCH   5   6
ENDBRANCH   3   5
ENDBRANCH   1   3
BRANCH   1  11
ATOM     11  C   UNL     1      54.465   0.320  21.308  1.00  0.00     0.087 C 
BRANCH  11  12
ATOM     12  C   UNL     1      53.094   0.758  21.898  1.00  0.00     0.066 C 
BRANCH  12  13
ATOM     13  C   UNL     1      52.858   2.264  21.851  1.00  0.00     0.140 C 
ATOM     14  O   UNL     1      52.818   2.814  20.760  1.00  0.00    -0.299 OA
BRANCH  13  15
ATOM     15  C   UNL     1      52.826   3.124  23.093  1.00  0.00     0.106 CG0
ATOM     16  G   UNL     1      52.879   2.341  24.402  1.00  0.00     0.000 G0
ENDBRANCH  13  15
ENDBRANCH  12  13
BRANCH  12  17
ATOM     17  C   UNL     1      51.877  -0.023  21.300  1.00  0.00    -0.006 C 
ATOM     18  C   UNL     1      51.855  -0.078  19.762  1.00  0.00     0.008 C 
ATOM     19  C   UNL     1      51.789  -1.449  21.869  1.00  0.00     0.008 C 
ENDBRANCH  12  17
ENDBRANCH  11  12
ENDBRANCH   1  11
TORSDOF 1
ENDMDL
MODEL 4
REMARK VINA RESULT:    -2.007      1.365      2.217
REMARK INTER + INTRA:          -2.730
REMARK INTER:                  -2.980
REMARK INTRA:                   0.250
REMARK UNBOUND:                 0.333
REMARK SMILES CC1=CCC[C@H](C)C(=O)C[C@H](C(C)C)C(=O)C1
REMARK SMILES IDX 8 1 9 2 6 3 7 4 5 5 4 6 3 7 2 8 1 9 10 11 11 12 15 13 16 14
REMARK SMILES IDX 17 15 12 17 13 18 14 19
REMARK H PARENT
REMARK Flexibility Score: 70.00
ROOT
ATOM      1  C   UNL     1      52.546  -0.057  20.559  1.00  0.00     0.136 C 
ATOM      2  O   UNL     1      52.848  -0.224  19.386  1.00  0.00    -0.299 OA
ENDROOT
BRANCH   1   3
ATOM      3  C   UNL     1      51.075   0.063  20.922  1.00  0.00     0.053 C 
ATOM      4  C   UNL     1      50.251   0.433  19.684  1.00  0.00     0.016 C 
BRANCH   3   5
ATOM      5  C   UNL     1      50.524  -1.215  21.585  1.00  0.00     0.015 C 
BRANCH   5   6
ATOM      6  C   UNL     1      50.779  -1.235  23.103  1.00  0.00     0.028 C 
BRANCH   6   7
ATOM      7  C   UNL     1      50.172  -0.055  23.816  1.00  0.00    -0.028 C 
ATOM      8  C   UNL     1      50.843   1.043  24.251  1.00  0.00    -0.070 CG0
ATOM      9  C   UNL     1      50.023   2.164  24.842  1.00  0.00     0.039 C 
ATOM     10  G   UNL     1      52.364   1.183  24.237  1.00  0.00     0.000 G0
ENDBRANCH   6   7
ENDBRANCH   5   6
ENDBRANCH   3   5
ENDBRANCH   1   3
BRANCH   1  11
ATOM     11  C   UNL     1      53.642  -0.047  21.602  1.00  0.00     0.087 C 
BRANCH  11  12
ATOM     12  C   UNL     1      53.966   1.383  22.121  1.00  0.00     0.066 C 
BRANCH  12  13
ATOM     13  C   UNL     1      52.907   1.952  23.060  1.00  0.00     0.140 C 
ATOM     14  O   UNL     1      52.575   3.121  22.923  1.00  0.00    -0.299 OA
BRANCH  13  15
ATOM     15  C   UNL     1      52.367   1.183  24.243  1.00  0.00     0.106 CG0
ATOM     16  G   UNL     1      50.846   1.052  24.266  1.00  0.00     0.000 G0
ENDBRANCH  13  15
ENDBRANCH  12  13
BRANCH  12  17
ATOM     17  C   UNL     1      55.398   1.515  22.739  1.00  0.00    -0.006 C 
ATOM     18  C   UNL     1      56.455   0.609  22.082  1.00  0.00     0.008 C 
ATOM     19  C   UNL     1      55.885   2.974  22.722  1.00  0.00     0.008 C 
ENDBRANCH  12  17
ENDBRANCH  11  12
ENDBRANCH   1  11
TORSDOF 1
ENDMDL
MODEL 5
REMARK VINA RESULT:    -1.991      1.681      2.213
REMARK INTER + INTRA:          -2.706
REMARK INTER:                  -3.716
REMARK INTRA:                   1.011
REMARK UNBOUND:                 0.333
REMARK SMILES CC1=CCC[C@H](C)C(=O)C[C@H](C(C)C)C(=O)C1
REMARK SMILES IDX 8 1 9 2 6 3 7 4 5 5 4 6 3 7 2 8 1 9 10 11 11 12 15 13 16 14
REMARK SMILES IDX 17 15 12 17 13 18 14 19
REMARK H PARENT
REMARK Flexibility Score: 70.00
ROOT
ATOM      1  C   UNL     1      52.864  -0.631  21.721  1.00  0.00     0.136 C 
ATOM      2  O   UNL     1      51.990  -1.376  22.143  1.00  0.00    -0.299 OA
ENDROOT
BRANCH   1   3
ATOM      3  C   UNL     1      52.570   0.211  20.491  1.00  0.00     0.053 C 
ATOM      4  C   UNL     1      51.224  -0.195  19.878  1.00  0.00     0.016 C 
BRANCH   3   5
ATOM      5  C   UNL     1      52.602   1.724  20.788  1.00  0.00     0.015 C 
BRANCH   5   6
ATOM      6  C   UNL     1      51.211   2.269  21.157  1.00  0.00     0.028 C 
BRANCH   6   7
ATOM      7  C   UNL     1      50.820   1.968  22.581  1.00  0.00    -0.028 C 
ATOM      8  C   UNL     1      51.558   2.249  23.686  1.00  0.00    -0.070 CG0
ATOM      9  C   UNL     1      50.927   1.965  25.028  1.00  0.00     0.039 C 
ATOM     10  G   UNL     1      52.993   2.768  23.652  1.00  0.00     0.000 G0
ENDBRANCH   6   7
ENDBRANCH   5   6
ENDBRANCH   3   5
ENDBRANCH   1   3
BRANCH   1  11
ATOM     11  C   UNL     1      54.168  -0.531  22.479  1.00  0.00     0.087 C 
BRANCH  11  12
ATOM     12  C   UNL     1      54.663   0.935  22.636  1.00  0.00     0.066 C 
BRANCH  12  13
ATOM     13  C   UNL     1      54.038   1.672  23.817  1.00  0.00     0.140 C 
ATOM     14  O   UNL     1      54.294   1.283  24.948  1.00  0.00    -0.299 OA
BRANCH  13  15
ATOM     15  C   UNL     1      53.001   2.757  23.646  1.00  0.00     0.106 CG0
ATOM     16  G   UNL     1      51.558   2.263  23.711  1.00  0.00     0.000 G0
ENDBRANCH  13  15
ENDBRANCH  12  13
BRANCH  12  17
ATOM     17  C   UNL     1      56.221   1.073  22.647  1.00  0.00    -0.006 C 
ATOM     18  C   UNL     1      56.938   0.211  21.592  1.00  0.00     0.008 C 
ATOM     19  C   UNL     1      56.658   2.540  22.497  1.00  0.00     0.008 C 
ENDBRANCH  12  17
ENDBRANCH  11  12
ENDBRANCH   1  11
TORSDOF 1
ENDMDL
MODEL 6
REMARK VINA RESULT:    -1.753      2.187      4.583
REMARK INTER + INTRA:          -2.342
REMARK INTER:                  -3.427
REMARK INTRA:                   1.085
REMARK UNBOUND:                 0.333
REMARK SMILES CC1=CCC[C@H](C)C(=O)C[C@H](C(C)C)C(=O)C1
REMARK SMILES IDX 8 1 9 2 6 3 7 4 5 5 4 6 3 7 2 8 1 9 10 11 11 12 15 13 16 14
REMARK SMILES IDX 17 15 12 17 13 18 14 19
REMARK H PARENT
REMARK Flexibility Score: 70.00
ROOT
ATOM      1  C   UNL     1      56.826  -0.073  21.634  1.00  0.00     0.136 C 
ATOM      2  O   UNL     1      57.827   0.530  21.273  1.00  0.00    -0.299 OA
ENDROOT
BRANCH   1   3
ATOM      3  C   UNL     1      56.995  -1.345  22.448  1.00  0.00     0.053 C 
ATOM      4  C   UNL     1      58.445  -1.838  22.367  1.00  0.00     0.016 C 
BRANCH   3   5
ATOM      5  C   UNL     1      56.558  -1.169  23.916  1.00  0.00     0.015 C 
BRANCH   5   6
ATOM      6  C   UNL     1      57.727  -0.738  24.819  1.00  0.00     0.028 C 
BRANCH   6   7
ATOM      7  C   UNL     1      57.912   0.757  24.867  1.00  0.00    -0.028 C 
ATOM      8  C   UNL     1      56.920   1.679  24.973  1.00  0.00    -0.070 CG0
ATOM      9  C   UNL     1      57.333   3.124  25.119  1.00  0.00     0.039 C 
ATOM     10  G   UNL     1      55.431   1.353  24.888  1.00  0.00     0.000 G0
ENDBRANCH   6   7
ENDBRANCH   5   6
ENDBRANCH   3   5
ENDBRANCH   1   3
BRANCH   1  11
ATOM     11  C   UNL     1      55.467   0.509  21.313  1.00  0.00     0.087 C 
BRANCH  11  12
ATOM     12  C   UNL     1      54.510   0.516  22.539  1.00  0.00     0.066 C 
BRANCH  12  13
ATOM     13  C   UNL     1      54.803   1.627  23.542  1.00  0.00     0.140 C 
ATOM     14  O   UNL     1      54.644   2.787  23.190  1.00  0.00    -0.299 OA
BRANCH  13  15
ATOM     15  C   UNL     1      55.425   1.363  24.894  1.00  0.00     0.106 CG0
ATOM     16  G   UNL     1      56.916   1.680  24.972  1.00  0.00     0.000 G0
ENDBRANCH  13  15
ENDBRANCH  12  13
BRANCH  12  17
ATOM     17  C   UNL     1      52.994   0.493  22.150  1.00  0.00    -0.006 C 
ATOM     18  C   UNL     1      52.674   1.187  20.814  1.00  0.00     0.008 C 
ATOM     19  C   UNL     1      52.440  -0.942  22.132  1.00  0.00     0.008 C 
ENDBRANCH  12  17
ENDBRANCH  11  12
ENDBRANCH   1  11
TORSDOF 1
ENDMDL
MODEL 7
REMARK VINA RESULT:    -1.750      2.132      3.910
REMARK INTER + INTRA:          -2.338
REMARK INTER:                  -2.418
REMARK INTRA:                   0.081
REMARK UNBOUND:                 0.333
REMARK SMILES CC1=CCC[C@H](C)C(=O)C[C@H](C(C)C)C(=O)C1
REMARK SMILES IDX 8 1 9 2 6 3 7 4 5 5 4 6 3 7 2 8 1 9 10 11 11 12 15 13 16 14
REMARK SMILES IDX 17 15 12 17 13 18 14 19
REMARK H PARENT
REMARK Flexibility Score: 70.00
ROOT
ATOM      1  C   UNL     1      52.280   2.573  23.457  1.00  0.00     0.136 C 
ATOM      2  O   UNL     1      52.501   3.092  24.542  1.00  0.00    -0.299 OA
ENDROOT
BRANCH   1   3
ATOM      3  C   UNL     1      50.837   2.315  23.055  1.00  0.00     0.053 C 
ATOM      4  C   UNL     1      49.898   2.601  24.232  1.00  0.00     0.016 C 
BRANCH   3   5
ATOM      5  C   UNL     1      50.417   3.121  21.810  1.00  0.00     0.015 C 
BRANCH   5   6
ATOM      6  C   UNL     1      50.581   2.310  20.513  1.00  0.00     0.028 C 
BRANCH   6   7
ATOM      7  C   UNL     1      50.297   0.841  20.698  1.00  0.00    -0.028 C 
ATOM      8  C   UNL     1      51.228  -0.138  20.833  1.00  0.00    -0.070 CG0
ATOM      9  C   UNL     1      50.726  -1.532  21.124  1.00  0.00     0.039 C 
ATOM     10  G   UNL     1      52.729   0.070  20.648  1.00  0.00     0.000 G0
ENDBRANCH   6   7
ENDBRANCH   5   6
ENDBRANCH   3   5
ENDBRANCH   1   3
BRANCH   1  11
ATOM     11  C   UNL     1      53.443   2.276  22.538  1.00  0.00     0.087 C 
BRANCH  11  12
ATOM     12  C   UNL     1      54.082   0.884  22.806  1.00  0.00     0.066 C 
BRANCH  12  13
ATOM     13  C   UNL     1      53.541  -0.224  21.908  1.00  0.00     0.140 C 
ATOM     14  O   UNL     1      53.880  -1.377  22.137  1.00  0.00    -0.299 OA
BRANCH  13  15
ATOM     15  C   UNL     1      52.735   0.055  20.661  1.00  0.00     0.106 CG0
ATOM     16  G   UNL     1      51.232  -0.156  20.824  1.00  0.00     0.000 G0
ENDBRANCH  13  15
ENDBRANCH  12  13
BRANCH  12  17
ATOM     17  C   UNL     1      55.647   0.901  22.800  1.00  0.00    -0.006 C 
ATOM     18  C   UNL     1      56.263   2.311  22.850  1.00  0.00     0.008 C 
ATOM     19  C   UNL     1      56.224   0.044  23.939  1.00  0.00     0.008 C 
ENDBRANCH  12  17
ENDBRANCH  11  12
ENDBRANCH   1  11
TORSDOF 1
ENDMDL
MODEL 8
REMARK VINA RESULT:    -1.565      1.620      3.550
REMARK INTER + INTRA:          -2.055
REMARK INTER:                  -2.350
REMARK INTRA:                   0.295
REMARK UNBOUND:                 0.333
REMARK SMILES CC1=CCC[C@H](C)C(=O)C[C@H](C(C)C)C(=O)C1
REMARK SMILES IDX 8 1 9 2 6 3 7 4 5 5 4 6 3 7 2 8 1 9 10 11 11 12 15 13 16 14
REMARK SMILES IDX 17 15 12 17 13 18 14 19
REMARK H PARENT
REMARK Flexibility Score: 70.00
ROOT
ATOM      1  C   UNL     1      54.300   2.395  23.100  1.00  0.00     0.136 C 
ATOM      2  O   UNL     1      54.870   2.562  24.169  1.00  0.00    -0.299 OA
ENDROOT
BRANCH   1   3
ATOM      3  C   UNL     1      52.991   3.125  22.851  1.00  0.00     0.053 C 
ATOM      4  C   UNL     1      52.575   2.983  21.382  1.00  0.00     0.016 C 
BRANCH   3   5
ATOM      5  C   UNL     1      51.863   2.651  23.788  1.00  0.00     0.015 C 
BRANCH   5   6
ATOM      6  C   UNL     1      52.054   1.190  24.230  1.00  0.00     0.028 C 
BRANCH   6   7
ATOM      7  C   UNL     1      51.117   0.237  23.532  1.00  0.00    -0.028 C 
ATOM      8  C   UNL     1      51.392  -0.465  22.403  1.00  0.00    -0.070 CG0
ATOM      9  C   UNL     1      50.350  -1.453  21.934  1.00  0.00     0.039 C 
ATOM     10  G   UNL     1      52.646  -0.273  21.554  1.00  0.00     0.000 G0
ENDBRANCH   6   7
ENDBRANCH   5   6
ENDBRANCH   3   5
ENDBRANCH   1   3
BRANCH   1  11
ATOM     11  C   UNL     1      54.957   1.527  22.050  1.00  0.00     0.087 C 
BRANCH  11  12
ATOM     12  C   UNL     1      55.120   0.049  22.506  1.00  0.00     0.066 C 
BRANCH  12  13
ATOM     13  C   UNL     1      53.912  -0.828  22.196  1.00  0.00     0.140 C 
ATOM     14  O   UNL     1      54.010  -2.036  22.362  1.00  0.00    -0.299 OA
BRANCH  13  15
ATOM     15  C   UNL     1      52.657  -0.290  21.548  1.00  0.00     0.106 CG0
ATOM     16  G   UNL     1      51.396  -0.449  22.394  1.00  0.00     0.000 G0
ENDBRANCH  13  15
ENDBRANCH  12  13
BRANCH  12  17
ATOM     17  C   UNL     1      56.445  -0.618  22.007  1.00  0.00    -0.006 C 
ATOM     18  C   UNL     1      57.403   0.345  21.284  1.00  0.00     0.008 C 
ATOM     19  C   UNL     1      57.189  -1.321  23.155  1.00  0.00     0.008 C 
ENDBRANCH  12  17
ENDBRANCH  11  12
ENDBRANCH   1  11
TORSDOF 1
ENDMDL
MODEL 9
REMARK VINA RESULT:    -1.553      2.216      3.664
REMARK INTER + INTRA:          -2.037
REMARK INTER:                  -2.584
REMARK INTRA:                   0.547
REMARK UNBOUND:                 0.333
REMARK SMILES CC1=CCC[C@H](C)C(=O)C[C@H](C(C)C)C(=O)C1
REMARK SMILES IDX 8 1 9 2 6 3 7 4 5 5 4 6 3 7 2 8 1 9 10 11 11 12 15 13 16 14
REMARK SMILES IDX 17 15 12 17 13 18 14 19
REMARK H PARENT
REMARK Flexibility Score: 70.00
ROOT
ATOM      1  C   UNL     1      52.109   2.338  21.382  1.00  0.00     0.136 C 
ATOM      2  O   UNL     1      52.942   2.852  20.648  1.00  0.00    -0.299 OA
ENDROOT
BRANCH   1   3
ATOM      3  C   UNL     1      50.785   1.894  20.783  1.00  0.00     0.053 C 
ATOM      4  C   UNL     1      49.875   3.106  20.550  1.00  0.00     0.016 C 
BRANCH   3   5
ATOM      5  C   UNL     1      50.966   1.087  19.482  1.00  0.00     0.015 C 
BRANCH   5   6
ATOM      6  C   UNL     1      50.901  -0.430  19.729  1.00  0.00     0.028 C 
BRANCH   6   7
ATOM      7  C   UNL     1      50.379  -0.780  21.099  1.00  0.00    -0.028 C 
ATOM      8  C   UNL     1      51.135  -1.110  22.178  1.00  0.00    -0.070 CG0
ATOM      9  C   UNL     1      50.414  -1.315  23.489  1.00  0.00     0.039 C 
ATOM     10  G   UNL     1      52.643  -1.346  22.132  1.00  0.00     0.000 G0
ENDBRANCH   6   7
ENDBRANCH   5   6
ENDBRANCH   3   5
ENDBRANCH   1   3
BRANCH   1  11
ATOM     11  C   UNL     1      52.461   2.105  22.834  1.00  0.00     0.087 C 
BRANCH  11  12
ATOM     12  C   UNL     1      53.535   0.997  23.024  1.00  0.00     0.066 C 
BRANCH  12  13
ATOM     13  C   UNL     1      53.488  -0.094  21.959  1.00  0.00     0.140 C 
ATOM     14  O   UNL     1      54.048   0.110  20.891  1.00  0.00    -0.299 OA
BRANCH  13  15
ATOM     15  C   UNL     1      52.654  -1.345  22.108  1.00  0.00     0.106 CG0
ATOM     16  G   UNL     1      51.149  -1.095  22.158  1.00  0.00     0.000 G0
ENDBRANCH  13  15
ENDBRANCH  12  13
BRANCH  12  17
ATOM     17  C   UNL     1      54.987   1.554  23.197  1.00  0.00    -0.006 C 
ATOM     18  C   UNL     1      55.056   2.934  23.875  1.00  0.00     0.008 C 
ATOM     19  C   UNL     1      55.885   0.561  23.954  1.00  0.00     0.008 C 
ENDBRANCH  12  17
ENDBRANCH  11  12
ENDBRANCH   1  11
TORSDOF 1
ENDMDL
