MODEL 1
REMARK VINA RESULT:    -3.764      0.000      0.000
REMARK INTER + INTRA:          -8.071
REMARK INTER:                  -7.284
REMARK INTRA:                  -0.786
REMARK UNBOUND:                -0.786
REMARK SMILES CCCCCCCCCCCCCCCCCC(=O)[O-]
REMARK SMILES IDX 10 1 11 2 12 3 13 4 14 5 15 6 16 7 17 8 18 9 19 10 20 11
REMARK SMILES IDX 9 12 8 13 7 14 6 15 5 16 4 17 3 18 2 19 1 20
REMARK H PARENT
REMARK Flexibility Score: inf
ROOT
ATOM      1  C   UNL     1      -2.948 -50.865   0.587  1.00  0.00     0.000 C 
ENDROOT
BRANCH   1   2
ATOM      2  C   UNL     1      -3.851 -52.109   0.673  1.00  0.00     0.000 C 
BRANCH   2   3
ATOM      3  C   UNL     1      -4.959 -52.107  -0.393  1.00  0.00     0.000 C 
BRANCH   3   4
ATOM      4  C   UNL     1      -6.189 -51.290   0.030  1.00  0.00     0.000 C 
BRANCH   4   5
ATOM      5  C   UNL     1      -6.796 -51.847   1.327  1.00  0.00     0.000 C 
BRANCH   5   6
ATOM      6  C   UNL     1      -8.263 -51.429   1.532  1.00  0.00     0.000 C 
BRANCH   6   7
ATOM      7  C   UNL     1      -8.534 -50.589   2.798  1.00  0.00     0.006 C 
BRANCH   7   8
ATOM      8  C   UNL     1      -8.776 -51.415   4.072  1.00  0.00     0.053 C 
BRANCH   8   9
ATOM      9  C   UNL     1      -7.604 -51.365   5.002  1.00  0.00     0.041 C 
ATOM     10  O   UNL     1      -7.782 -51.358   6.248  1.00  0.00    -0.550 OA
ATOM     11  O   UNL     1      -6.312 -51.358   4.492  1.00  0.00    -0.550 OA
ENDBRANCH   8   9
ENDBRANCH   7   8
ENDBRANCH   6   7
ENDBRANCH   5   6
ENDBRANCH   4   5
ENDBRANCH   3   4
ENDBRANCH   2   3
ENDBRANCH   1   2
BRANCH   1  12
ATOM     12  C   UNL     1      -1.665 -51.009   1.422  1.00  0.00     0.000 C 
BRANCH  12  13
ATOM     13  C   UNL     1      -1.861 -51.904   2.657  1.00  0.00    -0.000 C 
BRANCH  13  14
ATOM     14  C   UNL     1      -2.912 -51.353   3.635  1.00  0.00    -0.000 C 
BRANCH  14  15
ATOM     15  C   UNL     1      -2.876 -52.023   5.025  1.00  0.00    -0.000 C 
BRANCH  15  16
ATOM     16  C   UNL     1      -1.523 -51.821   5.731  1.00  0.00    -0.000 C 
BRANCH  16  17
ATOM     17  C   UNL     1      -1.677 -51.272   7.158  1.00  0.00    -0.000 C 
BRANCH  17  18
ATOM     18  C   UNL     1      -3.113 -50.812   7.463  1.00  0.00    -0.000 C 
BRANCH  18  19
ATOM     19  C   UNL     1      -3.733 -51.567   8.649  1.00  0.00    -0.003 C 
ATOM     20  C   UNL     1      -4.923 -50.831   9.261  1.00  0.00     0.004 C 
ENDBRANCH  18  19
ENDBRANCH  17  18
ENDBRANCH  16  17
ENDBRANCH  15  16
ENDBRANCH  14  15
ENDBRANCH  13  14
ENDBRANCH  12  13
ENDBRANCH   1  12
TORSDOF 16
ENDMDL
MODEL 2
REMARK VINA RESULT:    -3.715      1.303      2.602
REMARK INTER + INTRA:          -7.977
REMARK INTER:                  -7.001
REMARK INTRA:                  -0.976
REMARK UNBOUND:                -0.786
REMARK SMILES CCCCCCCCCCCCCCCCCC(=O)[O-]
REMARK SMILES IDX 10 1 11 2 12 3 13 4 14 5 15 6 16 7 17 8 18 9 19 10 20 11
REMARK SMILES IDX 9 12 8 13 7 14 6 15 5 16 4 17 3 18 2 19 1 20
REMARK H PARENT
REMARK Flexibility Score: inf
ROOT
ATOM      1  C   UNL     1      -2.287 -51.056   3.187  1.00  0.00     0.000 C 
ENDROOT
BRANCH   1   2
ATOM      2  C   UNL     1      -2.190 -51.846   1.868  1.00  0.00     0.000 C 
BRANCH   2   3
ATOM      3  C   UNL     1      -2.738 -51.057   0.668  1.00  0.00     0.000 C 
BRANCH   3   4
ATOM      4  C   UNL     1      -3.856 -51.805  -0.074  1.00  0.00     0.000 C 
BRANCH   4   5
ATOM      5  C   UNL     1      -5.196 -51.067   0.066  1.00  0.00     0.000 C 
BRANCH   5   6
ATOM      6  C   UNL     1      -6.273 -51.906   0.777  1.00  0.00     0.000 C 
BRANCH   6   7
ATOM      7  C   UNL     1      -6.482 -51.573   2.270  1.00  0.00     0.006 C 
BRANCH   7   8
ATOM      8  C   UNL     1      -7.953 -51.425   2.690  1.00  0.00     0.053 C 
BRANCH   8   9
ATOM      9  C   UNL     1      -8.089 -50.758   4.024  1.00  0.00     0.041 C 
ATOM     10  O   UNL     1      -8.739 -49.685   4.134  1.00  0.00    -0.550 OA
ATOM     11  O   UNL     1      -7.525 -51.339   5.152  1.00  0.00    -0.550 OA
ENDBRANCH   8   9
ENDBRANCH   7   8
ENDBRANCH   6   7
ENDBRANCH   5   6
ENDBRANCH   4   5
ENDBRANCH   3   4
ENDBRANCH   2   3
ENDBRANCH   1   2
BRANCH   1  12
ATOM     12  C   UNL     1      -1.345 -51.603   4.272  1.00  0.00     0.000 C 
BRANCH  12  13
ATOM     13  C   UNL     1      -2.103 -52.125   5.504  1.00  0.00    -0.000 C 
BRANCH  13  14
ATOM     14  C   UNL     1      -2.593 -50.996   6.426  1.00  0.00    -0.000 C 
BRANCH  14  15
ATOM     15  C   UNL     1      -1.999 -51.058   7.850  1.00  0.00    -0.000 C 
BRANCH  15  16
ATOM     16  C   UNL     1      -2.950 -51.744   8.845  1.00  0.00    -0.000 C 
BRANCH  16  17
ATOM     17  C   UNL     1      -4.424 -51.638   8.424  1.00  0.00    -0.000 C 
BRANCH  17  18
ATOM     18  C   UNL     1      -5.254 -50.775   9.389  1.00  0.00    -0.000 C 
BRANCH  18  19
ATOM     19  C   UNL     1      -6.746 -51.144   9.372  1.00  0.00    -0.003 C 
ATOM     20  C   UNL     1      -7.651 -49.929   9.170  1.00  0.00     0.004 C 
ENDBRANCH  18  19
ENDBRANCH  17  18
ENDBRANCH  16  17
ENDBRANCH  15  16
ENDBRANCH  14  15
ENDBRANCH  13  14
ENDBRANCH  12  13
ENDBRANCH   1  12
TORSDOF 16
ENDMDL
MODEL 3
REMARK VINA RESULT:    -3.664      1.378      6.195
REMARK INTER + INTRA:          -7.877
REMARK INTER:                  -7.200
REMARK INTRA:                  -0.676
REMARK UNBOUND:                -0.786
REMARK SMILES CCCCCCCCCCCCCCCCCC(=O)[O-]
REMARK SMILES IDX 10 1 11 2 12 3 13 4 14 5 15 6 16 7 17 8 18 9 19 10 20 11
REMARK SMILES IDX 9 12 8 13 7 14 6 15 5 16 4 17 3 18 2 19 1 20
REMARK H PARENT
REMARK Flexibility Score: inf
ROOT
ATOM      1  C   UNL     1      -2.593 -51.801   4.021  1.00  0.00     0.000 C 
ENDROOT
BRANCH   1   2
ATOM      2  C   UNL     1      -1.263 -51.382   4.674  1.00  0.00     0.000 C 
BRANCH   2   3
ATOM      3  C   UNL     1      -1.254 -51.612   6.193  1.00  0.00     0.000 C 
BRANCH   3   4
ATOM      4  C   UNL     1      -2.620 -52.063   6.734  1.00  0.00     0.000 C 
BRANCH   4   5
ATOM      5  C   UNL     1      -3.090 -51.141   7.869  1.00  0.00     0.000 C 
BRANCH   5   6
ATOM      6  C   UNL     1      -3.126 -51.844   9.238  1.00  0.00     0.000 C 
BRANCH   6   7
ATOM      7  C   UNL     1      -4.437 -51.664  10.032  1.00  0.00     0.006 C 
BRANCH   7   8
ATOM      8  C   UNL     1      -5.278 -50.449   9.608  1.00  0.00     0.053 C 
BRANCH   8   9
ATOM      9  C   UNL     1      -6.587 -50.856   9.008  1.00  0.00     0.041 C 
ATOM     10  O   UNL     1      -6.618 -51.651   8.031  1.00  0.00    -0.550 OA
ATOM     11  O   UNL     1      -7.776 -50.384   9.547  1.00  0.00    -0.550 OA
ENDBRANCH   8   9
ENDBRANCH   7   8
ENDBRANCH   6   7
ENDBRANCH   5   6
ENDBRANCH   4   5
ENDBRANCH   3   4
ENDBRANCH   2   3
ENDBRANCH   1   2
BRANCH   1  12
ATOM     12  C   UNL     1      -2.454 -52.059   2.512  1.00  0.00     0.000 C 
BRANCH  12  13
ATOM     13  C   UNL     1      -2.797 -50.821   1.667  1.00  0.00    -0.000 C 
BRANCH  13  14
ATOM     14  C   UNL     1      -3.539 -51.173   0.366  1.00  0.00    -0.000 C 
BRANCH  14  15
ATOM     15  C   UNL     1      -5.066 -51.313   0.544  1.00  0.00    -0.000 C 
BRANCH  15  16
ATOM     16  C   UNL     1      -5.431 -52.124   1.800  1.00  0.00    -0.000 C 
BRANCH  16  17
ATOM     17  C   UNL     1      -6.782 -51.706   2.402  1.00  0.00    -0.000 C 
BRANCH  17  18
ATOM     18  C   UNL     1      -7.844 -51.419   1.328  1.00  0.00    -0.000 C 
BRANCH  18  19
ATOM     19  C   UNL     1      -9.020 -50.591   1.871  1.00  0.00    -0.003 C 
ATOM     20  C   UNL     1      -8.830 -50.184   3.331  1.00  0.00     0.004 C 
ENDBRANCH  18  19
ENDBRANCH  17  18
ENDBRANCH  16  17
ENDBRANCH  15  16
ENDBRANCH  14  15
ENDBRANCH  13  14
ENDBRANCH  12  13
ENDBRANCH   1  12
TORSDOF 16
ENDMDL
MODEL 4
REMARK VINA RESULT:    -3.584      1.257      1.872
REMARK INTER + INTRA:          -7.723
REMARK INTER:                  -6.902
REMARK INTRA:                  -0.821
REMARK UNBOUND:                -0.786
REMARK SMILES CCCCCCCCCCCCCCCCCC(=O)[O-]
REMARK SMILES IDX 10 1 11 2 12 3 13 4 14 5 15 6 16 7 17 8 18 9 19 10 20 11
REMARK SMILES IDX 9 12 8 13 7 14 6 15 5 16 4 17 3 18 2 19 1 20
REMARK H PARENT
REMARK Flexibility Score: inf
ROOT
ATOM      1  C   UNL     1      -2.738 -50.959   2.574  1.00  0.00     0.000 C 
ENDROOT
BRANCH   1   2
ATOM      2  C   UNL     1      -3.415 -51.897   1.558  1.00  0.00     0.000 C 
BRANCH   2   3
ATOM      3  C   UNL     1      -4.475 -51.179   0.708  1.00  0.00     0.000 C 
BRANCH   3   4
ATOM      4  C   UNL     1      -5.184 -52.119  -0.278  1.00  0.00     0.000 C 
BRANCH   4   5
ATOM      5  C   UNL     1      -6.701 -52.121  -0.037  1.00  0.00     0.000 C 
BRANCH   5   6
ATOM      6  C   UNL     1      -7.081 -51.755   1.409  1.00  0.00     0.000 C 
BRANCH   6   7
ATOM      7  C   UNL     1      -8.597 -51.694   1.692  1.00  0.00     0.006 C 
BRANCH   7   8
ATOM      8  C   UNL     1      -8.970 -51.740   3.182  1.00  0.00     0.053 C 
BRANCH   8   9
ATOM      9  C   UNL     1      -8.462 -50.543   3.923  1.00  0.00     0.041 C 
ATOM     10  O   UNL     1      -7.458 -50.642   4.677  1.00  0.00    -0.550 OA
ATOM     11  O   UNL     1      -9.077 -49.309   3.756  1.00  0.00    -0.550 OA
ENDBRANCH   8   9
ENDBRANCH   7   8
ENDBRANCH   6   7
ENDBRANCH   5   6
ENDBRANCH   4   5
ENDBRANCH   3   4
ENDBRANCH   2   3
ENDBRANCH   1   2
BRANCH   1  12
ATOM     12  C   UNL     1      -1.275 -51.343   2.847  1.00  0.00     0.000 C 
BRANCH  12  13
ATOM     13  C   UNL     1      -1.104 -52.124   4.161  1.00  0.00    -0.000 C 
BRANCH  13  14
ATOM     14  C   UNL     1      -1.256 -51.237   5.407  1.00  0.00    -0.000 C 
BRANCH  14  15
ATOM     15  C   UNL     1      -1.496 -52.034   6.708  1.00  0.00    -0.000 C 
BRANCH  15  16
ATOM     16  C   UNL     1      -2.544 -51.363   7.613  1.00  0.00    -0.000 C 
BRANCH  16  17
ATOM     17  C   UNL     1      -2.381 -51.749   9.092  1.00  0.00    -0.000 C 
BRANCH  17  18
ATOM     18  C   UNL     1      -3.726 -51.824   9.835  1.00  0.00    -0.000 C 
BRANCH  18  19
ATOM     19  C   UNL     1      -4.766 -50.844   9.269  1.00  0.00    -0.003 C 
ATOM     20  C   UNL     1      -6.001 -51.550   8.713  1.00  0.00     0.004 C 
ENDBRANCH  18  19
ENDBRANCH  17  18
ENDBRANCH  16  17
ENDBRANCH  15  16
ENDBRANCH  14  15
ENDBRANCH  13  14
ENDBRANCH  12  13
ENDBRANCH   1  12
TORSDOF 16
ENDMDL
MODEL 5
REMARK VINA RESULT:    -3.250      1.556      5.886
REMARK INTER + INTRA:          -7.077
REMARK INTER:                  -6.033
REMARK INTRA:                  -1.044
REMARK UNBOUND:                -0.786
REMARK SMILES CCCCCCCCCCCCCCCCCC(=O)[O-]
REMARK SMILES IDX 10 1 11 2 12 3 13 4 14 5 15 6 16 7 17 8 18 9 19 10 20 11
REMARK SMILES IDX 9 12 8 13 7 14 6 15 5 16 4 17 3 18 2 19 1 20
REMARK H PARENT
REMARK Flexibility Score: inf
ROOT
ATOM      1  C   UNL     1      -2.080 -50.529   1.988  1.00  0.00     0.000 C 
ENDROOT
BRANCH   1   2
ATOM      2  C   UNL     1      -1.641 -51.727   2.851  1.00  0.00     0.000 C 
BRANCH   2   3
ATOM      3  C   UNL     1      -0.762 -51.305   4.039  1.00  0.00     0.000 C 
BRANCH   3   4
ATOM      4  C   UNL     1      -1.067 -52.104   5.316  1.00  0.00     0.000 C 
BRANCH   4   5
ATOM      5  C   UNL     1      -2.559 -52.020   5.670  1.00  0.00     0.000 C 
BRANCH   5   6
ATOM      6  C   UNL     1      -2.813 -51.409   7.060  1.00  0.00     0.000 C 
BRANCH   6   7
ATOM      7  C   UNL     1      -3.890 -52.125   7.903  1.00  0.00     0.006 C 
BRANCH   7   8
ATOM      8  C   UNL     1      -4.082 -51.549   9.314  1.00  0.00     0.053 C 
BRANCH   8   9
ATOM      9  C   UNL     1      -5.250 -50.614   9.382  1.00  0.00     0.041 C 
ATOM     10  O   UNL     1      -6.328 -50.901   8.799  1.00  0.00    -0.550 OA
ATOM     11  O   UNL     1      -5.158 -49.440  10.119  1.00  0.00    -0.550 OA
ENDBRANCH   8   9
ENDBRANCH   7   8
ENDBRANCH   6   7
ENDBRANCH   5   6
ENDBRANCH   4   5
ENDBRANCH   3   4
ENDBRANCH   2   3
ENDBRANCH   1   2
BRANCH   1  12
ATOM     12  C   UNL     1      -2.709 -50.962   0.654  1.00  0.00     0.000 C 
BRANCH  12  13
ATOM     13  C   UNL     1      -3.967 -51.826   0.846  1.00  0.00    -0.000 C 
BRANCH  13  14
ATOM     14  C   UNL     1      -5.248 -51.136   0.349  1.00  0.00    -0.000 C 
BRANCH  14  15
ATOM     15  C   UNL     1      -6.521 -51.991   0.527  1.00  0.00    -0.000 C 
BRANCH  15  16
ATOM     16  C   UNL     1      -7.678 -51.187   1.144  1.00  0.00    -0.000 C 
BRANCH  16  17
ATOM     17  C   UNL     1      -8.782 -52.087   1.721  1.00  0.00    -0.000 C 
BRANCH  17  18
ATOM     18  C   UNL     1      -9.003 -51.860   3.226  1.00  0.00    -0.000 C 
BRANCH  18  19
ATOM     19  C   UNL     1      -7.835 -51.109   3.885  1.00  0.00    -0.003 C 
ATOM     20  C   UNL     1      -6.818 -52.049   4.530  1.00  0.00     0.004 C 
ENDBRANCH  18  19
ENDBRANCH  17  18
ENDBRANCH  16  17
ENDBRANCH  15  16
ENDBRANCH  14  15
ENDBRANCH  13  14
ENDBRANCH  12  13
ENDBRANCH   1  12
TORSDOF 16
ENDMDL
MODEL 6
REMARK VINA RESULT:    -2.931      1.814      5.457
REMARK INTER + INTRA:          -6.459
REMARK INTER:                  -4.869
REMARK INTRA:                  -1.590
REMARK UNBOUND:                -0.786
REMARK SMILES CCCCCCCCCCCCCCCCCC(=O)[O-]
REMARK SMILES IDX 10 1 11 2 12 3 13 4 14 5 15 6 16 7 17 8 18 9 19 10 20 11
REMARK SMILES IDX 9 12 8 13 7 14 6 15 5 16 4 17 3 18 2 19 1 20
REMARK H PARENT
REMARK Flexibility Score: inf
ROOT
ATOM      1  C   UNL     1      -3.164 -50.517   0.287  1.00  0.00     0.000 C 
ENDROOT
BRANCH   1   2
ATOM      2  C   UNL     1      -1.835 -50.697   1.044  1.00  0.00     0.000 C 
BRANCH   2   3
ATOM      3  C   UNL     1      -1.670 -52.114   1.615  1.00  0.00     0.000 C 
BRANCH   3   4
ATOM      4  C   UNL     1      -1.531 -52.125   3.146  1.00  0.00     0.000 C 
BRANCH   4   5
ATOM      5  C   UNL     1      -2.266 -50.929   3.770  1.00  0.00     0.000 C 
BRANCH   5   6
ATOM      6  C   UNL     1      -3.582 -51.327   4.462  1.00  0.00     0.000 C 
BRANCH   6   7
ATOM      7  C   UNL     1      -3.420 -51.978   5.852  1.00  0.00     0.006 C 
BRANCH   7   8
ATOM      8  C   UNL     1      -2.949 -51.017   6.956  1.00  0.00     0.053 C 
BRANCH   8   9
ATOM      9  C   UNL     1      -3.404 -51.457   8.312  1.00  0.00     0.041 C 
ATOM     10  O   UNL     1      -4.617 -51.365   8.635  1.00  0.00    -0.550 OA
ATOM     11  O   UNL     1      -2.492 -51.999   9.209  1.00  0.00    -0.550 OA
ENDBRANCH   8   9
ENDBRANCH   7   8
ENDBRANCH   6   7
ENDBRANCH   5   6
ENDBRANCH   4   5
ENDBRANCH   3   4
ENDBRANCH   2   3
ENDBRANCH   1   2
BRANCH   1  12
ATOM     12  C   UNL     1      -4.190 -51.610   0.627  1.00  0.00     0.000 C 
BRANCH  12  13
ATOM     13  C   UNL     1      -5.590 -51.040   0.910  1.00  0.00    -0.000 C 
BRANCH  13  14
ATOM     14  C   UNL     1      -6.679 -52.125   0.953  1.00  0.00    -0.000 C 
BRANCH  14  15
ATOM     15  C   UNL     1      -8.065 -51.629   0.487  1.00  0.00    -0.000 C 
BRANCH  15  16
ATOM     16  C   UNL     1      -9.087 -51.602   1.637  1.00  0.00    -0.000 C 
BRANCH  16  17
ATOM     17  C   UNL     1      -8.476 -52.029   2.981  1.00  0.00    -0.000 C 
BRANCH  17  18
ATOM     18  C   UNL     1      -8.850 -51.077   4.129  1.00  0.00    -0.000 C 
BRANCH  18  19
ATOM     19  C   UNL     1      -7.660 -50.775   5.054  1.00  0.00    -0.003 C 
ATOM     20  C   UNL     1      -7.636 -51.667   6.294  1.00  0.00     0.004 C 
ENDBRANCH  18  19
ENDBRANCH  17  18
ENDBRANCH  16  17
ENDBRANCH  15  16
ENDBRANCH  14  15
ENDBRANCH  13  14
ENDBRANCH  12  13
ENDBRANCH   1  12
TORSDOF 16
ENDMDL
MODEL 7
REMARK VINA RESULT:    -2.662      1.995      6.766
REMARK INTER + INTRA:          -5.938
REMARK INTER:                  -5.403
REMARK INTRA:                  -0.536
REMARK UNBOUND:                -0.786
REMARK SMILES CCCCCCCCCCCCCCCCCC(=O)[O-]
REMARK SMILES IDX 10 1 11 2 12 3 13 4 14 5 15 6 16 7 17 8 18 9 19 10 20 11
REMARK SMILES IDX 9 12 8 13 7 14 6 15 5 16 4 17 3 18 2 19 1 20
REMARK H PARENT
REMARK Flexibility Score: inf
ROOT
ATOM      1  C   UNL     1      -2.733 -52.044   4.188  1.00  0.00     0.000 C 
ENDROOT
BRANCH   1   2
ATOM      2  C   UNL     1      -2.739 -51.239   5.500  1.00  0.00     0.000 C 
BRANCH   2   3
ATOM      3  C   UNL     1      -2.983 -52.124   6.733  1.00  0.00     0.000 C 
BRANCH   3   4
ATOM      4  C   UNL     1      -2.183 -51.667   7.961  1.00  0.00     0.000 C 
BRANCH   4   5
ATOM      5  C   UNL     1      -3.105 -51.020   9.006  1.00  0.00     0.000 C 
BRANCH   5   6
ATOM      6  C   UNL     1      -3.880 -52.053   9.844  1.00  0.00     0.000 C 
BRANCH   6   7
ATOM      7  C   UNL     1      -5.414 -52.011   9.678  1.00  0.00     0.006 C 
BRANCH   7   8
ATOM      8  C   UNL     1      -6.008 -50.597   9.588  1.00  0.00     0.053 C 
BRANCH   8   9
ATOM      9  C   UNL     1      -7.501 -50.623   9.473  1.00  0.00     0.041 C 
ATOM     10  O   UNL     1      -8.130 -51.705   9.617  1.00  0.00    -0.550 OA
ATOM     11  O   UNL     1      -8.201 -49.446   9.241  1.00  0.00    -0.550 OA
ENDBRANCH   8   9
ENDBRANCH   7   8
ENDBRANCH   6   7
ENDBRANCH   5   6
ENDBRANCH   4   5
ENDBRANCH   3   4
ENDBRANCH   2   3
ENDBRANCH   1   2
BRANCH   1  12
ATOM     12  C   UNL     1      -4.124 -52.125   3.539  1.00  0.00     0.000 C 
BRANCH  12  13
ATOM     13  C   UNL     1      -5.263 -51.976   4.562  1.00  0.00    -0.000 C 
BRANCH  13  14
ATOM     14  C   UNL     1      -6.657 -51.993   3.911  1.00  0.00    -0.000 C 
BRANCH  14  15
ATOM     15  C   UNL     1      -7.577 -50.850   4.390  1.00  0.00    -0.000 C 
BRANCH  15  16
ATOM     16  C   UNL     1      -8.828 -50.705   3.506  1.00  0.00    -0.000 C 
BRANCH  16  17
ATOM     17  C   UNL     1      -8.812 -51.654   2.298  1.00  0.00    -0.000 C 
BRANCH  17  18
ATOM     18  C   UNL     1      -8.029 -51.079   1.105  1.00  0.00    -0.000 C 
BRANCH  18  19
ATOM     19  C   UNL     1      -6.832 -51.958   0.709  1.00  0.00    -0.003 C 
ATOM     20  C   UNL     1      -5.656 -51.145   0.172  1.00  0.00     0.004 C 
ENDBRANCH  18  19
ENDBRANCH  17  18
ENDBRANCH  16  17
ENDBRANCH  15  16
ENDBRANCH  14  15
ENDBRANCH  13  14
ENDBRANCH  12  13
ENDBRANCH   1  12
TORSDOF 16
ENDMDL
MODEL 8
REMARK VINA RESULT:    -2.571      2.021      6.441
REMARK INTER + INTRA:          -5.763
REMARK INTER:                  -4.936
REMARK INTRA:                  -0.826
REMARK UNBOUND:                -0.786
REMARK SMILES CCCCCCCCCCCCCCCCCC(=O)[O-]
REMARK SMILES IDX 10 1 11 2 12 3 13 4 14 5 15 6 16 7 17 8 18 9 19 10 20 11
REMARK SMILES IDX 9 12 8 13 7 14 6 15 5 16 4 17 3 18 2 19 1 20
REMARK H PARENT
REMARK Flexibility Score: inf
ROOT
ATOM      1  C   UNL     1      -1.675 -51.081   8.289  1.00  0.00     0.000 C 
ENDROOT
BRANCH   1   2
ATOM      2  C   UNL     1      -1.133 -52.099   7.268  1.00  0.00     0.000 C 
BRANCH   2   3
ATOM      3  C   UNL     1      -1.954 -52.125   5.969  1.00  0.00     0.000 C 
BRANCH   3   4
ATOM      4  C   UNL     1      -1.301 -51.316   4.838  1.00  0.00     0.000 C 
BRANCH   4   5
ATOM      5  C   UNL     1      -1.560 -51.976   3.475  1.00  0.00     0.000 C 
BRANCH   5   6
ATOM      6  C   UNL     1      -1.565 -50.968   2.311  1.00  0.00     0.000 C 
BRANCH   6   7
ATOM      7  C   UNL     1      -1.817 -51.581   0.917  1.00  0.00     0.006 C 
BRANCH   7   8
ATOM      8  C   UNL     1      -2.844 -50.820   0.062  1.00  0.00     0.053 C 
BRANCH   8   9
ATOM      9  C   UNL     1      -4.249 -51.213   0.395  1.00  0.00     0.041 C 
ATOM     10  O   UNL     1      -5.135 -51.219  -0.500  1.00  0.00    -0.550 OA
ATOM     11  O   UNL     1      -4.574 -51.604   1.687  1.00  0.00    -0.550 OA
ENDBRANCH   8   9
ENDBRANCH   7   8
ENDBRANCH   6   7
ENDBRANCH   5   6
ENDBRANCH   4   5
ENDBRANCH   3   4
ENDBRANCH   2   3
ENDBRANCH   1   2
BRANCH   1  12
ATOM     12  C   UNL     1      -2.984 -51.546   8.947  1.00  0.00     0.000 C 
BRANCH  12  13
ATOM     13  C   UNL     1      -4.148 -50.571   8.702  1.00  0.00    -0.000 C 
BRANCH  13  14
ATOM     14  C   UNL     1      -5.243 -50.665   9.778  1.00  0.00    -0.000 C 
BRANCH  14  15
ATOM     15  C   UNL     1      -6.676 -50.551   9.215  1.00  0.00    -0.000 C 
BRANCH  15  16
ATOM     16  C   UNL     1      -7.348 -51.927   9.061  1.00  0.00    -0.000 C 
BRANCH  16  17
ATOM     17  C   UNL     1      -8.006 -52.112   7.684  1.00  0.00    -0.000 C 
BRANCH  17  18
ATOM     18  C   UNL     1      -7.008 -51.948   6.526  1.00  0.00    -0.000 C 
BRANCH  18  19
ATOM     19  C   UNL     1      -7.587 -51.123   5.365  1.00  0.00    -0.003 C 
ATOM     20  C   UNL     1      -8.523 -51.936   4.472  1.00  0.00     0.004 C 
ENDBRANCH  18  19
ENDBRANCH  17  18
ENDBRANCH  16  17
ENDBRANCH  15  16
ENDBRANCH  14  15
ENDBRANCH  13  14
ENDBRANCH  12  13
ENDBRANCH   1  12
TORSDOF 16
ENDMDL
