MODEL 1
REMARK VINA RESULT:    -5.694      0.000      0.000
REMARK INTER + INTRA:         -10.988
REMARK INTER:                  -8.857
REMARK INTRA:                  -2.131
REMARK UNBOUND:                -2.131
REMARK SMILES COc1cc(CNC(=O)CCCCC=CC(C)C)ccc1O
REMARK SMILES IDX 11 1 12 2 13 3 14 4 15 5 16 6 17 7 18 8 10 9 8 10 9 11 7 12
REMARK SMILES IDX 6 14 5 15 4 16 19 17 3 18 20 19 21 20 2 21 1 22 22 23
REMARK H PARENT 7 13 22 24
REMARK Flexibility Score: inf
ROOT
ATOM      1  C   UNL     1     -27.444 -11.321 -27.765  1.00  0.00     0.010 C 
ENDROOT
BRANCH   1   2
ATOM      2  C   UNL     1     -26.684 -12.097 -28.860  1.00  0.00     0.005 C 
BRANCH   2   3
ATOM      3  C   UNL     1     -27.567 -12.581 -30.021  1.00  0.00     0.027 C 
BRANCH   3   4
ATOM      4  C   UNL     1     -26.857 -12.466 -31.343  1.00  0.00    -0.031 C 
ATOM      5  C   UNL     1     -25.684 -11.822 -31.458  1.00  0.00    -0.028 C 
BRANCH   5   6
ATOM      6  C   UNL     1     -24.979 -11.640 -32.783  1.00  0.00     0.005 C 
ATOM      7  C   UNL     1     -23.607 -12.325 -32.782  1.00  0.00     0.012 C 
ATOM      8  C   UNL     1     -24.861 -10.159 -33.156  1.00  0.00     0.012 C 
ENDBRANCH   5   6
ENDBRANCH   3   4
ENDBRANCH   2   3
ENDBRANCH   1   2
BRANCH   1   9
ATOM      9  C   UNL     1     -28.037  -9.983 -28.234  1.00  0.00     0.100 C 
BRANCH   9  10
ATOM     10  C   UNL     1     -27.011  -9.121 -28.909  1.00  0.00     0.220 C 
ATOM     11  O   UNL     1     -27.173  -8.798 -30.117  1.00  0.00    -0.275 OA
ATOM     12  N   UNL     1     -25.874  -8.643 -28.178  1.00  0.00    -0.352 N 
ATOM     13  H   UNL     1     -25.775  -8.891 -27.168  1.00  0.00     0.163 HD
BRANCH  12  14
ATOM     14  C   UNL     1     -24.846  -7.802 -28.788  1.00  0.00     0.151 C 
BRANCH  14  15
ATOM     15  C   UNL     1     -23.781  -8.656 -29.421  1.00  0.00    -0.025 A 
ATOM     16  C   UNL     1     -23.092  -8.192 -30.552  1.00  0.00     0.056 A 
ATOM     17  C   UNL     1     -23.451  -9.904 -28.875  1.00  0.00     0.009 A 
ATOM     18  C   UNL     1     -22.079  -8.973 -31.145  1.00  0.00     0.160 A 
ATOM     19  C   UNL     1     -22.449 -10.682 -29.457  1.00  0.00     0.050 A 
ATOM     20  C   UNL     1     -21.762 -10.225 -30.587  1.00  0.00     0.157 A 
BRANCH  18  21
ATOM     21  O   UNL     1     -21.371  -8.536 -32.276  1.00  0.00    -0.493 OA
ATOM     22  C   UNL     1     -21.950  -7.827 -33.367  1.00  0.00     0.278 C 
ENDBRANCH  18  21
BRANCH  20  23
ATOM     23  O   UNL     1     -20.768 -11.030 -31.142  1.00  0.00    -0.504 OA
ATOM     24  H   UNL     1     -19.786 -10.781 -31.104  1.00  0.00     0.293 HD
ENDBRANCH  20  23
ENDBRANCH  14  15
ENDBRANCH  12  14
ENDBRANCH   9  10
ENDBRANCH   1   9
TORSDOF 10
ENDMDL
MODEL 2
REMARK VINA RESULT:    -5.687      2.946      6.374
REMARK INTER + INTRA:         -10.977
REMARK INTER:                 -10.056
REMARK INTRA:                  -0.921
REMARK UNBOUND:                -2.131
REMARK SMILES COc1cc(CNC(=O)CCCCC=CC(C)C)ccc1O
REMARK SMILES IDX 11 1 12 2 13 3 14 4 15 5 16 6 17 7 18 8 10 9 8 10 9 11 7 12
REMARK SMILES IDX 6 14 5 15 4 16 19 17 3 18 20 19 21 20 2 21 1 22 22 23
REMARK H PARENT 7 13 22 24
REMARK Flexibility Score: inf
ROOT
ATOM      1  C   UNL     1     -23.750  -5.664 -27.228  1.00  0.00     0.010 C 
ENDROOT
BRANCH   1   2
ATOM      2  C   UNL     1     -24.793  -5.578 -26.094  1.00  0.00     0.005 C 
BRANCH   2   3
ATOM      3  C   UNL     1     -25.711  -4.349 -26.171  1.00  0.00     0.027 C 
BRANCH   3   4
ATOM      4  C   UNL     1     -26.339  -4.211 -27.532  1.00  0.00    -0.031 C 
ATOM      5  C   UNL     1     -27.188  -5.134 -28.012  1.00  0.00    -0.028 C 
BRANCH   5   6
ATOM      6  C   UNL     1     -27.787  -5.051 -29.398  1.00  0.00     0.005 C 
ATOM      7  C   UNL     1     -27.564  -6.352 -30.179  1.00  0.00     0.012 C 
ATOM      8  C   UNL     1     -27.250  -3.841 -30.168  1.00  0.00     0.012 C 
ENDBRANCH   5   6
ENDBRANCH   3   4
ENDBRANCH   2   3
ENDBRANCH   1   2
BRANCH   1   9
ATOM      9  C   UNL     1     -22.783  -6.853 -27.109  1.00  0.00     0.100 C 
BRANCH   9  10
ATOM     10  C   UNL     1     -22.745  -7.672 -28.366  1.00  0.00     0.220 C 
ATOM     11  O   UNL     1     -22.602  -7.092 -29.477  1.00  0.00    -0.275 OA
ATOM     12  N   UNL     1     -22.835  -9.101 -28.302  1.00  0.00    -0.352 N 
ATOM     13  H   UNL     1     -22.916  -9.566 -27.370  1.00  0.00     0.163 HD
BRANCH  12  14
ATOM     14  C   UNL     1     -22.803  -9.944 -29.495  1.00  0.00     0.151 C 
BRANCH  14  15
ATOM     15  C   UNL     1     -24.087 -10.718 -29.622  1.00  0.00    -0.025 A 
ATOM     16  C   UNL     1     -25.046 -10.657 -28.598  1.00  0.00     0.056 A 
ATOM     17  C   UNL     1     -24.348 -11.483 -30.767  1.00  0.00     0.009 A 
ATOM     18  C   UNL     1     -26.261 -11.361 -28.711  1.00  0.00     0.160 A 
ATOM     19  C   UNL     1     -25.549 -12.184 -30.885  1.00  0.00     0.050 A 
ATOM     20  C   UNL     1     -26.506 -12.128 -29.866  1.00  0.00     0.157 A 
BRANCH  18  21
ATOM     21  O   UNL     1     -27.240 -11.319 -27.705  1.00  0.00    -0.493 OA
ATOM     22  C   UNL     1     -28.125 -10.226 -27.485  1.00  0.00     0.278 C 
ENDBRANCH  18  21
BRANCH  20  23
ATOM     23  O   UNL     1     -27.694 -12.842 -30.018  1.00  0.00    -0.504 OA
ATOM     24  H   UNL     1     -28.039 -13.131 -30.926  1.00  0.00     0.293 HD
ENDBRANCH  20  23
ENDBRANCH  14  15
ENDBRANCH  12  14
ENDBRANCH   9  10
ENDBRANCH   1   9
TORSDOF 10
ENDMDL
MODEL 3
REMARK VINA RESULT:    -5.620      2.456      5.231
REMARK INTER + INTRA:         -10.872
REMARK INTER:                  -8.831
REMARK INTRA:                  -2.041
REMARK UNBOUND:                -2.131
REMARK SMILES COc1cc(CNC(=O)CCCCC=CC(C)C)ccc1O
REMARK SMILES IDX 11 1 12 2 13 3 14 4 15 5 16 6 17 7 18 8 10 9 8 10 9 11 7 12
REMARK SMILES IDX 6 14 5 15 4 16 19 17 3 18 20 19 21 20 2 21 1 22 22 23
REMARK H PARENT 7 13 22 24
REMARK Flexibility Score: inf
ROOT
ATOM      1  C   UNL     1     -24.786  -5.110 -26.317  1.00  0.00     0.010 C 
ENDROOT
BRANCH   1   2
ATOM      2  C   UNL     1     -23.589  -5.295 -27.274  1.00  0.00     0.005 C 
BRANCH   2   3
ATOM      3  C   UNL     1     -22.959  -6.696 -27.233  1.00  0.00     0.027 C 
BRANCH   3   4
ATOM      4  C   UNL     1     -23.385  -7.530 -28.411  1.00  0.00    -0.031 C 
ATOM      5  C   UNL     1     -23.196  -8.860 -28.436  1.00  0.00    -0.028 C 
BRANCH   5   6
ATOM      6  C   UNL     1     -23.560  -9.714 -29.630  1.00  0.00     0.005 C 
ATOM      7  C   UNL     1     -23.094 -11.163 -29.440  1.00  0.00     0.012 C 
ATOM      8  C   UNL     1     -23.011  -9.119 -30.932  1.00  0.00     0.012 C 
ENDBRANCH   5   6
ENDBRANCH   3   4
ENDBRANCH   2   3
ENDBRANCH   1   2
BRANCH   1   9
ATOM      9  C   UNL     1     -25.981  -4.368 -26.937  1.00  0.00     0.100 C 
BRANCH   9  10
ATOM     10  C   UNL     1     -26.441  -5.013 -28.211  1.00  0.00     0.220 C 
ATOM     11  O   UNL     1     -26.382  -4.361 -29.290  1.00  0.00    -0.275 OA
ATOM     12  N   UNL     1     -26.911  -6.367 -28.209  1.00  0.00    -0.352 N 
ATOM     13  H   UNL     1     -26.918  -6.903 -27.312  1.00  0.00     0.163 HD
BRANCH  12  14
ATOM     14  C   UNL     1     -27.369  -7.041 -29.421  1.00  0.00     0.151 C 
BRANCH  14  15
ATOM     15  C   UNL     1     -27.187  -8.529 -29.292  1.00  0.00    -0.025 A 
ATOM     16  C   UNL     1     -27.135  -9.331 -30.442  1.00  0.00     0.056 A 
ATOM     17  C   UNL     1     -27.044  -9.123 -28.030  1.00  0.00     0.009 A 
ATOM     18  C   UNL     1     -26.946 -10.724 -30.338  1.00  0.00     0.160 A 
ATOM     19  C   UNL     1     -26.858 -10.502 -27.920  1.00  0.00     0.050 A 
ATOM     20  C   UNL     1     -26.808 -11.304 -29.063  1.00  0.00     0.157 A 
BRANCH  18  21
ATOM     21  O   UNL     1     -26.889 -11.553 -31.470  1.00  0.00    -0.493 OA
ATOM     22  C   UNL     1     -25.697 -11.863 -32.184  1.00  0.00     0.278 C 
ENDBRANCH  18  21
BRANCH  20  23
ATOM     23  O   UNL     1     -26.622 -12.678 -28.914  1.00  0.00    -0.504 OA
ATOM     24  H   UNL     1     -25.857 -13.064 -28.373  1.00  0.00     0.293 HD
ENDBRANCH  20  23
ENDBRANCH  14  15
ENDBRANCH  12  14
ENDBRANCH   9  10
ENDBRANCH   1   9
TORSDOF 10
ENDMDL
MODEL 4
REMARK VINA RESULT:    -5.616      2.610      6.455
REMARK INTER + INTRA:         -10.866
REMARK INTER:                  -9.890
REMARK INTRA:                  -0.976
REMARK UNBOUND:                -2.131
REMARK SMILES COc1cc(CNC(=O)CCCCC=CC(C)C)ccc1O
REMARK SMILES IDX 11 1 12 2 13 3 14 4 15 5 16 6 17 7 18 8 10 9 8 10 9 11 7 12
REMARK SMILES IDX 6 14 5 15 4 16 19 17 3 18 20 19 21 20 2 21 1 22 22 23
REMARK H PARENT 7 13 22 24
REMARK Flexibility Score: inf
ROOT
ATOM      1  C   UNL     1     -22.896  -7.103 -27.729  1.00  0.00     0.010 C 
ENDROOT
BRANCH   1   2
ATOM      2  C   UNL     1     -23.315  -5.693 -27.264  1.00  0.00     0.005 C 
BRANCH   2   3
ATOM      3  C   UNL     1     -24.368  -5.683 -26.145  1.00  0.00     0.027 C 
BRANCH   3   4
ATOM      4  C   UNL     1     -25.760  -5.532 -26.695  1.00  0.00    -0.031 C 
ATOM      5  C   UNL     1     -25.985  -4.988 -27.903  1.00  0.00    -0.028 C 
BRANCH   5   6
ATOM      6  C   UNL     1     -27.376  -4.769 -28.454  1.00  0.00     0.005 C 
ATOM      7  C   UNL     1     -28.079  -6.103 -28.734  1.00  0.00     0.012 C 
ATOM      8  C   UNL     1     -27.350  -3.882 -29.703  1.00  0.00     0.012 C 
ENDBRANCH   5   6
ENDBRANCH   3   4
ENDBRANCH   2   3
ENDBRANCH   1   2
BRANCH   1   9
ATOM      9  C   UNL     1     -22.465  -7.181 -29.202  1.00  0.00     0.100 C 
BRANCH   9  10
ATOM     10  C   UNL     1     -22.412  -8.597 -29.696  1.00  0.00     0.220 C 
ATOM     11  O   UNL     1     -21.889  -8.842 -30.817  1.00  0.00    -0.275 OA
ATOM     12  N   UNL     1     -22.920  -9.666 -28.885  1.00  0.00    -0.352 N 
ATOM     13  H   UNL     1     -23.316  -9.448 -27.943  1.00  0.00     0.163 HD
BRANCH  12  14
ATOM     14  C   UNL     1     -22.892 -11.060 -29.319  1.00  0.00     0.151 C 
BRANCH  14  15
ATOM     15  C   UNL     1     -24.193 -11.428 -29.979  1.00  0.00    -0.025 A 
ATOM     16  C   UNL     1     -25.382 -11.425 -29.233  1.00  0.00     0.056 A 
ATOM     17  C   UNL     1     -24.235 -11.750 -31.343  1.00  0.00     0.009 A 
ATOM     18  C   UNL     1     -26.612 -11.748 -29.842  1.00  0.00     0.160 A 
ATOM     19  C   UNL     1     -25.449 -12.072 -31.951  1.00  0.00     0.050 A 
ATOM     20  C   UNL     1     -26.635 -12.073 -31.211  1.00  0.00     0.157 A 
BRANCH  18  21
ATOM     21  O   UNL     1     -27.817 -11.753 -29.122  1.00  0.00    -0.493 OA
ATOM     22  C   UNL     1     -28.089 -10.927 -27.995  1.00  0.00     0.278 C 
ENDBRANCH  18  21
BRANCH  20  23
ATOM     23  O   UNL     1     -27.829 -12.401 -31.852  1.00  0.00    -0.504 OA
ATOM     24  H   UNL     1     -28.220 -13.335 -31.823  1.00  0.00     0.293 HD
ENDBRANCH  20  23
ENDBRANCH  14  15
ENDBRANCH  12  14
ENDBRANCH   9  10
ENDBRANCH   1   9
TORSDOF 10
ENDMDL
MODEL 5
REMARK VINA RESULT:    -5.602      2.215      5.607
REMARK INTER + INTRA:         -10.845
REMARK INTER:                  -8.724
REMARK INTRA:                  -2.121
REMARK UNBOUND:                -2.131
REMARK SMILES COc1cc(CNC(=O)CCCCC=CC(C)C)ccc1O
REMARK SMILES IDX 11 1 12 2 13 3 14 4 15 5 16 6 17 7 18 8 10 9 8 10 9 11 7 12
REMARK SMILES IDX 6 14 5 15 4 16 19 17 3 18 20 19 21 20 2 21 1 22 22 23
REMARK H PARENT 7 13 22 24
REMARK Flexibility Score: inf
ROOT
ATOM      1  C   UNL     1     -22.493  -6.375 -27.853  1.00  0.00     0.010 C 
ENDROOT
BRANCH   1   2
ATOM      2  C   UNL     1     -23.749  -5.618 -27.375  1.00  0.00     0.005 C 
BRANCH   2   3
ATOM      3  C   UNL     1     -24.741  -6.480 -26.579  1.00  0.00     0.027 C 
BRANCH   3   4
ATOM      4  C   UNL     1     -25.723  -7.175 -27.484  1.00  0.00    -0.031 C 
ATOM      5  C   UNL     1     -26.119  -6.627 -28.645  1.00  0.00    -0.028 C 
BRANCH   5   6
ATOM      6  C   UNL     1     -27.148  -7.275 -29.544  1.00  0.00     0.005 C 
ATOM      7  C   UNL     1     -28.100  -8.172 -28.743  1.00  0.00     0.012 C 
ATOM      8  C   UNL     1     -26.484  -8.050 -30.687  1.00  0.00     0.012 C 
ENDBRANCH   5   6
ENDBRANCH   3   4
ENDBRANCH   2   3
ENDBRANCH   1   2
BRANCH   1   9
ATOM      9  C   UNL     1     -22.225  -6.266 -29.363  1.00  0.00     0.100 C 
BRANCH   9  10
ATOM     10  C   UNL     1     -22.525  -7.550 -30.079  1.00  0.00     0.220 C 
ATOM     11  O   UNL     1     -23.028  -7.510 -31.235  1.00  0.00    -0.275 OA
ATOM     12  N   UNL     1     -22.211  -8.809 -29.470  1.00  0.00    -0.352 N 
ATOM     13  H   UNL     1     -21.760  -8.822 -28.527  1.00  0.00     0.163 HD
BRANCH  12  14
ATOM     14  C   UNL     1     -22.482 -10.087 -30.124  1.00  0.00     0.151 C 
BRANCH  14  15
ATOM     15  C   UNL     1     -23.845 -10.593 -29.736  1.00  0.00    -0.025 A 
ATOM     16  C   UNL     1     -24.615 -11.312 -30.663  1.00  0.00     0.056 A 
ATOM     17  C   UNL     1     -24.346 -10.373 -28.445  1.00  0.00     0.009 A 
ATOM     18  C   UNL     1     -25.886 -11.809 -30.308  1.00  0.00     0.160 A 
ATOM     19  C   UNL     1     -25.604 -10.861 -28.088  1.00  0.00     0.050 A 
ATOM     20  C   UNL     1     -26.375 -11.576 -29.009  1.00  0.00     0.157 A 
BRANCH  18  21
ATOM     21  O   UNL     1     -26.679 -12.533 -31.212  1.00  0.00    -0.493 OA
ATOM     22  C   UNL     1     -27.820 -12.010 -31.884  1.00  0.00     0.278 C 
ENDBRANCH  18  21
BRANCH  20  23
ATOM     23  O   UNL     1     -27.627 -12.048 -28.617  1.00  0.00    -0.504 OA
ATOM     24  H   UNL     1     -28.165 -11.606 -27.880  1.00  0.00     0.293 HD
ENDBRANCH  20  23
ENDBRANCH  14  15
ENDBRANCH  12  14
ENDBRANCH   9  10
ENDBRANCH   1   9
TORSDOF 10
ENDMDL
MODEL 6
REMARK VINA RESULT:    -5.594      2.936      5.485
REMARK INTER + INTRA:         -10.832
REMARK INTER:                  -9.382
REMARK INTRA:                  -1.449
REMARK UNBOUND:                -2.131
REMARK SMILES COc1cc(CNC(=O)CCCCC=CC(C)C)ccc1O
REMARK SMILES IDX 11 1 12 2 13 3 14 4 15 5 16 6 17 7 18 8 10 9 8 10 9 11 7 12
REMARK SMILES IDX 6 14 5 15 4 16 19 17 3 18 20 19 21 20 2 21 1 22 22 23
REMARK H PARENT 7 13 22 24
REMARK Flexibility Score: inf
ROOT
ATOM      1  C   UNL     1     -21.586 -10.034 -30.466  1.00  0.00     0.010 C 
ENDROOT
BRANCH   1   2
ATOM      2  C   UNL     1     -22.503 -10.983 -29.665  1.00  0.00     0.005 C 
BRANCH   2   3
ATOM      3  C   UNL     1     -23.237 -10.312 -28.493  1.00  0.00     0.027 C 
BRANCH   3   4
ATOM      4  C   UNL     1     -24.723 -10.537 -28.569  1.00  0.00    -0.031 C 
ATOM      5  C   UNL     1     -25.270 -11.311 -29.522  1.00  0.00    -0.028 C 
BRANCH   5   6
ATOM      6  C   UNL     1     -26.764 -11.506 -29.658  1.00  0.00     0.005 C 
ATOM      7  C   UNL     1     -27.470 -11.351 -28.305  1.00  0.00     0.012 C 
ATOM      8  C   UNL     1     -27.095 -12.854 -30.306  1.00  0.00     0.012 C 
ENDBRANCH   5   6
ENDBRANCH   3   4
ENDBRANCH   2   3
ENDBRANCH   1   2
BRANCH   1   9
ATOM      9  C   UNL     1     -22.261  -9.382 -31.683  1.00  0.00     0.100 C 
BRANCH   9  10
ATOM     10  C   UNL     1     -23.179  -8.265 -31.283  1.00  0.00     0.220 C 
ATOM     11  O   UNL     1     -24.421  -8.391 -31.461  1.00  0.00    -0.275 OA
ATOM     12  N   UNL     1     -22.652  -7.079 -30.673  1.00  0.00    -0.352 N 
ATOM     13  H   UNL     1     -21.624  -7.007 -30.500  1.00  0.00     0.163 HD
BRANCH  12  14
ATOM     14  C   UNL     1     -23.501  -5.963 -30.265  1.00  0.00     0.151 C 
BRANCH  14  15
ATOM     15  C   UNL     1     -23.729  -5.997 -28.778  1.00  0.00    -0.025 A 
ATOM     16  C   UNL     1     -24.866  -5.383 -28.230  1.00  0.00     0.056 A 
ATOM     17  C   UNL     1     -22.828  -6.659 -27.934  1.00  0.00     0.009 A 
ATOM     18  C   UNL     1     -25.103  -5.422 -26.841  1.00  0.00     0.160 A 
ATOM     19  C   UNL     1     -23.056  -6.702 -26.557  1.00  0.00     0.050 A 
ATOM     20  C   UNL     1     -24.186  -6.089 -26.007  1.00  0.00     0.157 A 
BRANCH  18  21
ATOM     21  O   UNL     1     -26.231  -4.819 -26.262  1.00  0.00    -0.493 OA
ATOM     22  C   UNL     1     -27.048  -3.848 -26.908  1.00  0.00     0.278 C 
ENDBRANCH  18  21
BRANCH  20  23
ATOM     23  O   UNL     1     -24.381  -6.151 -24.628  1.00  0.00    -0.504 OA
ATOM     24  H   UNL     1     -23.611  -6.258 -23.977  1.00  0.00     0.293 HD
ENDBRANCH  20  23
ENDBRANCH  14  15
ENDBRANCH  12  14
ENDBRANCH   9  10
ENDBRANCH   1   9
TORSDOF 10
ENDMDL
MODEL 7
REMARK VINA RESULT:    -5.571      2.823      5.769
REMARK INTER + INTRA:         -10.796
REMARK INTER:                  -8.878
REMARK INTRA:                  -1.918
REMARK UNBOUND:                -2.131
REMARK SMILES COc1cc(CNC(=O)CCCCC=CC(C)C)ccc1O
REMARK SMILES IDX 11 1 12 2 13 3 14 4 15 5 16 6 17 7 18 8 10 9 8 10 9 11 7 12
REMARK SMILES IDX 6 14 5 15 4 16 19 17 3 18 20 19 21 20 2 21 1 22 22 23
REMARK H PARENT 7 13 22 24
REMARK Flexibility Score: inf
ROOT
ATOM      1  C   UNL     1     -26.700  -4.250 -26.285  1.00  0.00     0.010 C 
ENDROOT
BRANCH   1   2
ATOM      2  C   UNL     1     -25.200  -4.474 -26.567  1.00  0.00     0.005 C 
BRANCH   2   3
ATOM      3  C   UNL     1     -24.666  -5.837 -26.101  1.00  0.00     0.027 C 
BRANCH   3   4
ATOM      4  C   UNL     1     -24.791  -6.880 -27.179  1.00  0.00    -0.031 C 
ATOM      5  C   UNL     1     -23.720  -7.323 -27.858  1.00  0.00    -0.028 C 
BRANCH   5   6
ATOM      6  C   UNL     1     -23.824  -8.325 -28.985  1.00  0.00     0.005 C 
ATOM      7  C   UNL     1     -23.591  -9.755 -28.482  1.00  0.00     0.012 C 
ATOM      8  C   UNL     1     -22.871  -7.978 -30.134  1.00  0.00     0.012 C 
ENDBRANCH   5   6
ENDBRANCH   3   4
ENDBRANCH   2   3
ENDBRANCH   1   2
BRANCH   1   9
ATOM      9  C   UNL     1     -27.482  -3.648 -27.464  1.00  0.00     0.100 C 
BRANCH   9  10
ATOM     10  C   UNL     1     -27.352  -4.479 -28.706  1.00  0.00     0.220 C 
ATOM     11  O   UNL     1     -26.785  -3.991 -29.721  1.00  0.00    -0.275 OA
ATOM     12  N   UNL     1     -27.837  -5.829 -28.727  1.00  0.00    -0.352 N 
ATOM     13  H   UNL     1     -28.271  -6.229 -27.864  1.00  0.00     0.163 HD
BRANCH  12  14
ATOM     14  C   UNL     1     -27.735  -6.681 -29.909  1.00  0.00     0.151 C 
BRANCH  14  15
ATOM     15  C   UNL     1     -27.558  -8.118 -29.502  1.00  0.00    -0.025 A 
ATOM     16  C   UNL     1     -27.106  -9.061 -30.440  1.00  0.00     0.056 A 
ATOM     17  C   UNL     1     -27.815  -8.524 -28.185  1.00  0.00     0.009 A 
ATOM     18  C   UNL     1     -26.917 -10.407 -30.069  1.00  0.00     0.160 A 
ATOM     19  C   UNL     1     -27.630  -9.856 -27.812  1.00  0.00     0.050 A 
ATOM     20  C   UNL     1     -27.184 -10.798 -28.744  1.00  0.00     0.157 A 
BRANCH  18  21
ATOM     21  O   UNL     1     -26.466 -11.373 -30.983  1.00  0.00    -0.493 OA
ATOM     22  C   UNL     1     -27.310 -12.115 -31.856  1.00  0.00     0.278 C 
ENDBRANCH  18  21
BRANCH  20  23
ATOM     23  O   UNL     1     -27.011 -12.120 -28.334  1.00  0.00    -0.504 OA
ATOM     24  H   UNL     1     -26.704 -12.847 -28.970  1.00  0.00     0.293 HD
ENDBRANCH  20  23
ENDBRANCH  14  15
ENDBRANCH  12  14
ENDBRANCH   9  10
ENDBRANCH   1   9
TORSDOF 10
ENDMDL
MODEL 8
REMARK VINA RESULT:    -5.428      2.511      5.213
REMARK INTER + INTRA:         -10.574
REMARK INTER:                  -8.328
REMARK INTRA:                  -2.246
REMARK UNBOUND:                -2.131
REMARK SMILES COc1cc(CNC(=O)CCCCC=CC(C)C)ccc1O
REMARK SMILES IDX 11 1 12 2 13 3 14 4 15 5 16 6 17 7 18 8 10 9 8 10 9 11 7 12
REMARK SMILES IDX 6 14 5 15 4 16 19 17 3 18 20 19 21 20 2 21 1 22 22 23
REMARK H PARENT 7 13 22 24
REMARK Flexibility Score: inf
ROOT
ATOM      1  C   UNL     1     -22.721 -10.890 -30.972  1.00  0.00     0.010 C 
ENDROOT
BRANCH   1   2
ATOM      2  C   UNL     1     -23.235 -11.435 -29.624  1.00  0.00     0.005 C 
BRANCH   2   3
ATOM      3  C   UNL     1     -23.576 -10.349 -28.592  1.00  0.00     0.027 C 
BRANCH   3   4
ATOM      4  C   UNL     1     -25.048 -10.327 -28.275  1.00  0.00    -0.031 C 
ATOM      5  C   UNL     1     -25.845 -11.368 -28.567  1.00  0.00    -0.028 C 
BRANCH   5   6
ATOM      6  C   UNL     1     -27.336 -11.350 -28.315  1.00  0.00     0.005 C 
ATOM      7  C   UNL     1     -28.123 -11.442 -29.628  1.00  0.00     0.012 C 
ATOM      8  C   UNL     1     -27.752 -10.118 -27.503  1.00  0.00     0.012 C 
ENDBRANCH   5   6
ENDBRANCH   3   4
ENDBRANCH   2   3
ENDBRANCH   1   2
BRANCH   1   9
ATOM      9  C   UNL     1     -23.594 -11.267 -32.180  1.00  0.00     0.100 C 
BRANCH   9  10
ATOM     10  C   UNL     1     -24.977 -10.697 -32.072  1.00  0.00     0.220 C 
ATOM     11  O   UNL     1     -25.972 -11.450 -32.250  1.00  0.00    -0.275 OA
ATOM     12  N   UNL     1     -25.166  -9.315 -31.736  1.00  0.00    -0.352 N 
ATOM     13  H   UNL     1     -24.330  -8.715 -31.555  1.00  0.00     0.163 HD
BRANCH  12  14
ATOM     14  C   UNL     1     -26.490  -8.711 -31.618  1.00  0.00     0.151 C 
BRANCH  14  15
ATOM     15  C   UNL     1     -26.534  -7.777 -30.439  1.00  0.00    -0.025 A 
ATOM     16  C   UNL     1     -25.339  -7.328 -29.856  1.00  0.00     0.056 A 
ATOM     17  C   UNL     1     -27.761  -7.328 -29.930  1.00  0.00     0.009 A 
ATOM     18  C   UNL     1     -25.363  -6.437 -28.764  1.00  0.00     0.160 A 
ATOM     19  C   UNL     1     -27.792  -6.447 -28.847  1.00  0.00     0.050 A 
ATOM     20  C   UNL     1     -26.603  -6.000 -28.262  1.00  0.00     0.157 A 
BRANCH  18  21
ATOM     21  O   UNL     1     -24.185  -5.970 -28.161  1.00  0.00    -0.493 OA
ATOM     22  C   UNL     1     -23.327  -6.759 -27.343  1.00  0.00     0.278 C 
ENDBRANCH  18  21
BRANCH  20  23
ATOM     23  O   UNL     1     -26.674  -5.121 -27.182  1.00  0.00    -0.504 OA
ATOM     24  H   UNL     1     -26.842  -5.441 -26.235  1.00  0.00     0.293 HD
ENDBRANCH  20  23
ENDBRANCH  14  15
ENDBRANCH  12  14
ENDBRANCH   9  10
ENDBRANCH   1   9
TORSDOF 10
ENDMDL
MODEL 9
REMARK VINA RESULT:    -5.401      2.405      5.183
REMARK INTER + INTRA:         -10.533
REMARK INTER:                  -8.355
REMARK INTRA:                  -2.177
REMARK UNBOUND:                -2.131
REMARK SMILES COc1cc(CNC(=O)CCCCC=CC(C)C)ccc1O
REMARK SMILES IDX 11 1 12 2 13 3 14 4 15 5 16 6 17 7 18 8 10 9 8 10 9 11 7 12
REMARK SMILES IDX 6 14 5 15 4 16 19 17 3 18 20 19 21 20 2 21 1 22 22 23
REMARK H PARENT 7 13 22 24
REMARK Flexibility Score: inf
ROOT
ATOM      1  C   UNL     1     -23.439  -6.440 -26.671  1.00  0.00     0.010 C 
ENDROOT
BRANCH   1   2
ATOM      2  C   UNL     1     -22.734  -5.755 -27.860  1.00  0.00     0.005 C 
BRANCH   2   3
ATOM      3  C   UNL     1     -22.528  -6.665 -29.081  1.00  0.00     0.027 C 
BRANCH   3   4
ATOM      4  C   UNL     1     -22.828  -8.104 -28.758  1.00  0.00    -0.031 C 
ATOM      5  C   UNL     1     -22.471  -9.101 -29.585  1.00  0.00    -0.028 C 
BRANCH   5   6
ATOM      6  C   UNL     1     -22.813 -10.549 -29.314  1.00  0.00     0.005 C 
ATOM      7  C   UNL     1     -22.748 -11.385 -30.598  1.00  0.00     0.012 C 
ATOM      8  C   UNL     1     -24.178 -10.683 -28.631  1.00  0.00     0.012 C 
ENDBRANCH   5   6
ENDBRANCH   3   4
ENDBRANCH   2   3
ENDBRANCH   1   2
BRANCH   1   9
ATOM      9  C   UNL     1     -24.726  -5.737 -26.209  1.00  0.00     0.100 C 
BRANCH   9  10
ATOM     10  C   UNL     1     -25.803  -5.801 -27.251  1.00  0.00     0.220 C 
ATOM     11  O   UNL     1     -26.434  -4.751 -27.554  1.00  0.00    -0.275 OA
ATOM     12  N   UNL     1     -26.090  -7.036 -27.921  1.00  0.00    -0.352 N 
ATOM     13  H   UNL     1     -25.533  -7.887 -27.684  1.00  0.00     0.163 HD
BRANCH  12  14
ATOM     14  C   UNL     1     -27.128  -7.151 -28.943  1.00  0.00     0.151 C 
BRANCH  14  15
ATOM     15  C   UNL     1     -26.717  -8.145 -29.995  1.00  0.00    -0.025 A 
ATOM     16  C   UNL     1     -27.353  -9.394 -30.066  1.00  0.00     0.056 A 
ATOM     17  C   UNL     1     -25.717  -7.825 -30.925  1.00  0.00     0.009 A 
ATOM     18  C   UNL     1     -26.991 -10.328 -31.058  1.00  0.00     0.160 A 
ATOM     19  C   UNL     1     -25.354  -8.746 -31.909  1.00  0.00     0.050 A 
ATOM     20  C   UNL     1     -25.983  -9.992 -31.981  1.00  0.00     0.157 A 
BRANCH  18  21
ATOM     21  O   UNL     1     -27.609 -11.584 -31.156  1.00  0.00    -0.493 OA
ATOM     22  C   UNL     1     -27.190 -12.748 -30.450  1.00  0.00     0.278 C 
ENDBRANCH  18  21
BRANCH  20  23
ATOM     23  O   UNL     1     -25.593 -10.887 -32.978  1.00  0.00    -0.504 OA
ATOM     24  H   UNL     1     -26.141 -11.706 -33.213  1.00  0.00     0.293 HD
ENDBRANCH  20  23
ENDBRANCH  14  15
ENDBRANCH  12  14
ENDBRANCH   9  10
ENDBRANCH   1   9
TORSDOF 10
ENDMDL
