MODEL 1
REMARK VINA RESULT:    -3.692      0.000      0.000
REMARK INTER + INTRA:          -4.335
REMARK INTER:                  -4.232
REMARK INTRA:                  -0.103
REMARK UNBOUND:                -0.103
REMARK SMILES COc1cc(C(=O)[O-])ccc1O
REMARK SMILES IDX 5 1 9 2 4 3 10 4 3 5 11 6 6 7 7 8 8 9 2 10 1 11 12 12
REMARK H PARENT 12 13
REMARK Flexibility Score: inf
ROOT
ATOM      1  C   UNL     1      -8.823  -3.477   1.461  1.00  0.00     0.001 A 
ATOM      2  C   UNL     1      -9.277  -4.805   1.435  1.00  0.00     0.014 A 
ATOM      3  C   UNL     1      -8.111  -2.977   0.355  1.00  0.00     0.060 A 
ATOM      4  C   UNL     1      -9.026  -5.617   0.329  1.00  0.00     0.051 A 
ATOM      5  C   UNL     1      -7.854  -3.793  -0.765  1.00  0.00     0.161 A 
ATOM      6  C   UNL     1      -8.318  -5.121  -0.769  1.00  0.00     0.157 A 
ENDROOT
BRANCH   1   7
ATOM      7  C   UNL     1      -9.093  -2.619   2.636  1.00  0.00     0.072 C 
ATOM      8  O   UNL     1      -9.491  -3.122   3.720  1.00  0.00    -0.545 OA
ATOM      9  O   UNL     1      -8.912  -1.242   2.559  1.00  0.00    -0.545 OA
ENDBRANCH   1   7
BRANCH   5  10
ATOM     10  O   UNL     1      -7.146  -3.321  -1.882  1.00  0.00    -0.493 OA
ATOM     11  C   UNL     1      -7.697  -2.490  -2.898  1.00  0.00     0.278 C 
ENDBRANCH   5  10
BRANCH   6  12
ATOM     12  O   UNL     1      -8.086  -5.963  -1.856  1.00  0.00    -0.504 OA
ATOM     13  H   UNL     1      -7.893  -6.951  -1.743  1.00  0.00     0.293 HD
ENDBRANCH   6  12
TORSDOF 3
ENDMDL
MODEL 2
REMARK VINA RESULT:    -3.444      8.536     10.704
REMARK INTER + INTRA:          -4.050
REMARK INTER:                  -3.952
REMARK INTRA:                  -0.098
REMARK UNBOUND:                -0.103
REMARK SMILES COc1cc(C(=O)[O-])ccc1O
REMARK SMILES IDX 5 1 9 2 4 3 10 4 3 5 11 6 6 7 7 8 8 9 2 10 1 11 12 12
REMARK H PARENT 12 13
REMARK Flexibility Score: inf
ROOT
ATOM      1  C   UNL     1      -3.021   1.577  -7.223  1.00  0.00     0.001 A 
ATOM      2  C   UNL     1      -3.299   2.659  -6.373  1.00  0.00     0.014 A 
ATOM      3  C   UNL     1      -3.947   0.522  -7.311  1.00  0.00     0.060 A 
ATOM      4  C   UNL     1      -4.476   2.686  -5.624  1.00  0.00     0.051 A 
ATOM      5  C   UNL     1      -5.138   0.544  -6.558  1.00  0.00     0.161 A 
ATOM      6  C   UNL     1      -5.396   1.637  -5.712  1.00  0.00     0.157 A 
ENDROOT
BRANCH   1   7
ATOM      7  C   UNL     1      -1.771   1.553  -8.014  1.00  0.00     0.072 C 
ATOM      8  O   UNL     1      -1.004   0.554  -7.975  1.00  0.00    -0.545 OA
ATOM      9  O   UNL     1      -1.423   2.637  -8.814  1.00  0.00    -0.545 OA
ENDBRANCH   1   7
BRANCH   5  10
ATOM     10  O   UNL     1      -6.080  -0.496  -6.626  1.00  0.00    -0.493 OA
ATOM     11  C   UNL     1      -7.014  -0.674  -7.685  1.00  0.00     0.278 C 
ENDBRANCH   5  10
BRANCH   6  12
ATOM     12  O   UNL     1      -6.562   1.699  -4.949  1.00  0.00    -0.504 OA
ATOM     13  H   UNL     1      -7.088   0.871  -4.697  1.00  0.00     0.293 HD
ENDBRANCH   6  12
TORSDOF 3
ENDMDL
MODEL 3
REMARK VINA RESULT:    -3.409      1.293      4.369
REMARK INTER + INTRA:          -4.010
REMARK INTER:                  -3.925
REMARK INTRA:                  -0.085
REMARK UNBOUND:                -0.103
REMARK SMILES COc1cc(C(=O)[O-])ccc1O
REMARK SMILES IDX 5 1 9 2 4 3 10 4 3 5 11 6 6 7 7 8 8 9 2 10 1 11 12 12
REMARK H PARENT 12 13
REMARK Flexibility Score: inf
ROOT
ATOM      1  C   UNL     1      -8.535  -4.153   0.062  1.00  0.00     0.001 A 
ATOM      2  C   UNL     1      -8.590  -5.545   0.236  1.00  0.00     0.014 A 
ATOM      3  C   UNL     1      -8.946  -3.317   1.115  1.00  0.00     0.060 A 
ATOM      4  C   UNL     1      -9.048  -6.090   1.436  1.00  0.00     0.051 A 
ATOM      5  C   UNL     1      -9.410  -3.861   2.329  1.00  0.00     0.161 A 
ATOM      6  C   UNL     1      -9.458  -5.258   2.482  1.00  0.00     0.157 A 
ENDROOT
BRANCH   1   7
ATOM      7  C   UNL     1      -8.048  -3.580  -1.213  1.00  0.00     0.072 C 
ATOM      8  O   UNL     1      -7.437  -2.479  -1.230  1.00  0.00    -0.545 OA
ATOM      9  O   UNL     1      -8.260  -4.251  -2.413  1.00  0.00    -0.545 OA
ENDBRANCH   1   7
BRANCH   5  10
ATOM     10  O   UNL     1      -9.828  -3.050   3.397  1.00  0.00    -0.493 OA
ATOM     11  C   UNL     1      -9.115  -1.916   3.879  1.00  0.00     0.278 C 
ENDBRANCH   5  10
BRANCH   6  12
ATOM     12  O   UNL     1      -9.909  -5.840   3.666  1.00  0.00    -0.504 OA
ATOM     13  H   UNL     1      -9.280  -6.096   4.417  1.00  0.00     0.293 HD
ENDBRANCH   6  12
TORSDOF 3
ENDMDL
MODEL 4
REMARK VINA RESULT:    -3.383      2.612      3.893
REMARK INTER + INTRA:          -3.981
REMARK INTER:                  -3.882
REMARK INTRA:                  -0.098
REMARK UNBOUND:                -0.103
REMARK SMILES COc1cc(C(=O)[O-])ccc1O
REMARK SMILES IDX 5 1 9 2 4 3 10 4 3 5 11 6 6 7 7 8 8 9 2 10 1 11 12 12
REMARK H PARENT 12 13
REMARK Flexibility Score: inf
ROOT
ATOM      1  C   UNL     1      -8.907  -5.770  -0.713  1.00  0.00     0.001 A 
ATOM      2  C   UNL     1      -8.301  -4.859   0.166  1.00  0.00     0.014 A 
ATOM      3  C   UNL     1      -8.972  -5.458  -2.083  1.00  0.00     0.060 A 
ATOM      4  C   UNL     1      -7.771  -3.660  -0.313  1.00  0.00     0.051 A 
ATOM      5  C   UNL     1      -8.439  -4.249  -2.573  1.00  0.00     0.161 A 
ATOM      6  C   UNL     1      -7.836  -3.350  -1.675  1.00  0.00     0.157 A 
ENDROOT
BRANCH   1   7
ATOM      7  C   UNL     1      -9.467  -7.040  -0.200  1.00  0.00     0.072 C 
ATOM      8  O   UNL     1      -9.684  -7.195   1.031  1.00  0.00    -0.545 OA
ATOM      9  O   UNL     1      -9.762  -8.083  -1.072  1.00  0.00    -0.545 OA
ENDBRANCH   1   7
BRANCH   5  10
ATOM     10  O   UNL     1      -8.489  -3.911  -3.935  1.00  0.00    -0.493 OA
ATOM     11  C   UNL     1      -7.791  -4.600  -4.967  1.00  0.00     0.278 C 
ENDBRANCH   5  10
BRANCH   6  12
ATOM     12  O   UNL     1      -7.296  -2.142  -2.116  1.00  0.00    -0.504 OA
ATOM     13  H   UNL     1      -7.266  -1.317  -1.529  1.00  0.00     0.293 HD
ENDBRANCH   6  12
TORSDOF 3
ENDMDL
MODEL 5
REMARK VINA RESULT:    -3.346     13.048     13.951
REMARK INTER + INTRA:          -3.938
REMARK INTER:                  -3.842
REMARK INTRA:                  -0.096
REMARK UNBOUND:                -0.103
REMARK SMILES COc1cc(C(=O)[O-])ccc1O
REMARK SMILES IDX 5 1 9 2 4 3 10 4 3 5 11 6 6 7 7 8 8 9 2 10 1 11 12 12
REMARK H PARENT 12 13
REMARK Flexibility Score: inf
ROOT
ATOM      1  C   UNL     1       3.633  -4.866   7.750  1.00  0.00     0.001 A 
ATOM      2  C   UNL     1       3.469  -3.544   7.308  1.00  0.00     0.014 A 
ATOM      3  C   UNL     1       2.505  -5.590   8.174  1.00  0.00     0.060 A 
ATOM      4  C   UNL     1       2.203  -2.956   7.290  1.00  0.00     0.051 A 
ATOM      5  C   UNL     1       1.224  -5.002   8.159  1.00  0.00     0.161 A 
ATOM      6  C   UNL     1       1.081  -3.676   7.712  1.00  0.00     0.157 A 
ENDROOT
BRANCH   1   7
ATOM      7  C   UNL     1       4.978  -5.484   7.767  1.00  0.00     0.072 C 
ATOM      8  O   UNL     1       5.562  -5.722   8.857  1.00  0.00    -0.545 OA
ATOM      9  O   UNL     1       5.618  -5.809   6.575  1.00  0.00    -0.545 OA
ENDBRANCH   1   7
BRANCH   5  10
ATOM     10  O   UNL     1       0.079  -5.701   8.576  1.00  0.00    -0.493 OA
ATOM     11  C   UNL     1      -0.591  -6.692   7.805  1.00  0.00     0.278 C 
ENDBRANCH   5  10
BRANCH   6  12
ATOM     12  O   UNL     1      -0.167  -3.056   7.680  1.00  0.00    -0.504 OA
ATOM     13  H   UNL     1      -0.786  -3.128   6.881  1.00  0.00     0.293 HD
ENDBRANCH   6  12
TORSDOF 3
ENDMDL
MODEL 6
REMARK VINA RESULT:    -3.318      2.002      3.400
REMARK INTER + INTRA:          -3.906
REMARK INTER:                  -3.803
REMARK INTRA:                  -0.103
REMARK UNBOUND:                -0.103
REMARK SMILES COc1cc(C(=O)[O-])ccc1O
REMARK SMILES IDX 5 1 9 2 4 3 10 4 3 5 11 6 6 7 7 8 8 9 2 10 1 11 12 12
REMARK H PARENT 12 13
REMARK Flexibility Score: inf
ROOT
ATOM      1  C   UNL     1      -8.456  -4.568   0.032  1.00  0.00     0.001 A 
ATOM      2  C   UNL     1      -8.886  -5.093   1.260  1.00  0.00     0.014 A 
ATOM      3  C   UNL     1      -8.588  -5.351  -1.129  1.00  0.00     0.060 A 
ATOM      4  C   UNL     1      -9.437  -6.374   1.329  1.00  0.00     0.051 A 
ATOM      5  C   UNL     1      -9.143  -6.645  -1.067  1.00  0.00     0.161 A 
ATOM      6  C   UNL     1      -9.568  -7.152   0.175  1.00  0.00     0.157 A 
ENDROOT
BRANCH   1   7
ATOM      7  C   UNL     1      -7.873  -3.210  -0.035  1.00  0.00     0.072 C 
ATOM      8  O   UNL     1      -7.710  -2.529   1.012  1.00  0.00    -0.545 OA
ATOM      9  O   UNL     1      -7.497  -2.664  -1.258  1.00  0.00    -0.545 OA
ENDBRANCH   1   7
BRANCH   5  10
ATOM     10  O   UNL     1      -9.288  -7.449  -2.210  1.00  0.00    -0.493 OA
ATOM     11  C   UNL     1      -8.266  -8.280  -2.749  1.00  0.00     0.278 C 
ENDBRANCH   5  10
BRANCH   6  12
ATOM     12  O   UNL     1     -10.123  -8.426   0.282  1.00  0.00    -0.504 OA
ATOM     13  H   UNL     1     -11.113  -8.598   0.151  1.00  0.00     0.293 HD
ENDBRANCH   6  12
TORSDOF 3
ENDMDL
MODEL 7
REMARK VINA RESULT:    -3.307      8.249     10.086
REMARK INTER + INTRA:          -3.893
REMARK INTER:                  -3.807
REMARK INTRA:                  -0.085
REMARK UNBOUND:                -0.103
REMARK SMILES COc1cc(C(=O)[O-])ccc1O
REMARK SMILES IDX 5 1 9 2 4 3 10 4 3 5 11 6 6 7 7 8 8 9 2 10 1 11 12 12
REMARK H PARENT 12 13
REMARK Flexibility Score: inf
ROOT
ATOM      1  C   UNL     1      -5.279  -0.148  -7.315  1.00  0.00     0.001 A 
ATOM      2  C   UNL     1      -4.630  -0.224  -8.558  1.00  0.00     0.014 A 
ATOM      3  C   UNL     1      -4.629   0.491  -6.244  1.00  0.00     0.060 A 
ATOM      4  C   UNL     1      -3.359   0.326  -8.728  1.00  0.00     0.051 A 
ATOM      5  C   UNL     1      -3.345   1.049  -6.409  1.00  0.00     0.161 A 
ATOM      6  C   UNL     1      -2.714   0.961  -7.663  1.00  0.00     0.157 A 
ENDROOT
BRANCH   1   7
ATOM      7  C   UNL     1      -6.626  -0.733  -7.141  1.00  0.00     0.072 C 
ATOM      8  O   UNL     1      -7.274  -1.162  -8.133  1.00  0.00    -0.545 OA
ATOM      9  O   UNL     1      -7.200  -0.815  -5.876  1.00  0.00    -0.545 OA
ENDBRANCH   1   7
BRANCH   5  10
ATOM     10  O   UNL     1      -2.672   1.693  -5.357  1.00  0.00    -0.493 OA
ATOM     11  C   UNL     1      -3.292   2.548  -4.404  1.00  0.00     0.278 C 
ENDBRANCH   5  10
BRANCH   6  12
ATOM     12  O   UNL     1      -1.444   1.499  -7.871  1.00  0.00    -0.504 OA
ATOM     13  H   UNL     1      -1.248   2.147  -8.624  1.00  0.00     0.293 HD
ENDBRANCH   6  12
TORSDOF 3
ENDMDL
MODEL 8
REMARK VINA RESULT:    -3.283      2.278      3.162
REMARK INTER + INTRA:          -3.866
REMARK INTER:                  -3.763
REMARK INTRA:                  -0.103
REMARK UNBOUND:                -0.103
REMARK SMILES COc1cc(C(=O)[O-])ccc1O
REMARK SMILES IDX 5 1 9 2 4 3 10 4 3 5 11 6 6 7 7 8 8 9 2 10 1 11 12 12
REMARK H PARENT 12 13
REMARK Flexibility Score: inf
ROOT
ATOM      1  C   UNL     1      -8.060  -3.546  -1.358  1.00  0.00     0.001 A 
ATOM      2  C   UNL     1      -8.624  -4.738  -1.840  1.00  0.00     0.014 A 
ATOM      3  C   UNL     1      -7.567  -2.603  -2.279  1.00  0.00     0.060 A 
ATOM      4  C   UNL     1      -8.693  -4.984  -3.212  1.00  0.00     0.051 A 
ATOM      5  C   UNL     1      -7.634  -2.846  -3.665  1.00  0.00     0.161 A 
ATOM      6  C   UNL     1      -8.202  -4.048  -4.126  1.00  0.00     0.157 A 
ENDROOT
BRANCH   1   7
ATOM      7  C   UNL     1      -7.990  -3.289   0.097  1.00  0.00     0.072 C 
ATOM      8  O   UNL     1      -8.654  -3.992   0.906  1.00  0.00    -0.545 OA
ATOM      9  O   UNL     1      -7.190  -2.266   0.594  1.00  0.00    -0.545 OA
ENDBRANCH   1   7
BRANCH   5  10
ATOM     10  O   UNL     1      -7.149  -1.924  -4.607  1.00  0.00    -0.493 OA
ATOM     11  C   UNL     1      -7.813  -0.720  -4.976  1.00  0.00     0.278 C 
ENDBRANCH   5  10
BRANCH   6  12
ATOM     12  O   UNL     1      -8.288  -4.329  -5.489  1.00  0.00    -0.504 OA
ATOM     13  H   UNL     1      -7.981  -3.673  -6.197  1.00  0.00     0.293 HD
ENDBRANCH   6  12
TORSDOF 3
ENDMDL
