MODEL 1
REMARK VINA RESULT:    -5.066      0.000      0.000
REMARK INTER + INTRA:          -5.066
REMARK INTER:                  -5.066
REMARK INTRA:                   0.000
REMARK UNBOUND:                 0.000
REMARK SMILES CC1=CC[C@]2(C)CCCC(C)(C)[C@]23C[C@H]13
REMARK SMILES IDX 1 1 2 2 3 3 4 4 5 5 7 6 8 7 9 8 10 9 13 10 15 11 14 12 11 13
REMARK SMILES IDX 12 14 6 15
REMARK H PARENT
REMARK Flexibility Score: inf
ROOT
ATOM      1  C   UNL     1     133.934 138.650 139.076  1.00  0.00     0.039 C 
ATOM      2  C   UNL     1     134.141 139.120 137.664  1.00  0.00    -0.074 C 
ATOM      3  C   UNL     1     134.994 140.139 137.428  1.00  0.00    -0.027 C 
ATOM      4  C   UNL     1     135.242 140.667 136.036  1.00  0.00     0.034 C 
ATOM      5  C   UNL     1     135.169 139.524 134.982  1.00  0.00    -0.022 C 
ATOM      6  C   UNL     1     135.249 140.143 133.565  1.00  0.00     0.008 C 
ATOM      7  C   UNL     1     135.037 139.115 132.440  1.00  0.00     0.001 C 
ATOM      8  C   UNL     1     133.705 138.361 132.575  1.00  0.00     0.007 C 
ATOM      9  C   UNL     1     133.486 137.664 133.949  1.00  0.00    -0.029 C 
ATOM     10  C   UNL     1     133.815 138.715 135.094  1.00  0.00    -0.012 C 
ATOM     11  C   UNL     1     133.380 138.432 136.540  1.00  0.00     0.022 C 
ATOM     12  C   UNL     1     132.572 139.423 135.703  1.00  0.00     0.017 C 
ATOM     13  C   UNL     1     134.386 136.409 134.079  1.00  0.00     0.012 C 
ATOM     14  C   UNL     1     132.020 137.140 133.948  1.00  0.00     0.012 C 
ATOM     15  C   UNL     1     136.407 138.609 135.243  1.00  0.00     0.012 C 
ENDROOT
TORSDOF 0
ENDMDL
MODEL 2
REMARK VINA RESULT:    -5.060      3.350      5.070
REMARK INTER + INTRA:          -5.060
REMARK INTER:                  -5.060
REMARK INTRA:                   0.000
REMARK UNBOUND:                 0.000
REMARK SMILES CC1=CC[C@]2(C)CCCC(C)(C)[C@]23C[C@H]13
REMARK SMILES IDX 1 1 2 2 3 3 4 4 5 5 7 6 8 7 9 8 10 9 13 10 15 11 14 12 11 13
REMARK SMILES IDX 12 14 6 15
REMARK H PARENT
REMARK Flexibility Score: inf
ROOT
ATOM      1  C   UNL     1     138.641 138.723 139.091  1.00  0.00     0.039 C 
ATOM      2  C   UNL     1     139.105 138.504 137.679  1.00  0.00    -0.074 C 
ATOM      3  C   UNL     1     140.125 137.650 137.446  1.00  0.00    -0.027 C 
ATOM      4  C   UNL     1     140.647 137.390 136.053  1.00  0.00     0.034 C 
ATOM      5  C   UNL     1     139.498 137.450 135.004  1.00  0.00    -0.022 C 
ATOM      6  C   UNL     1     140.110 137.357 133.586  1.00  0.00     0.008 C 
ATOM      7  C   UNL     1     139.075 137.555 132.463  1.00  0.00     0.001 C 
ATOM      8  C   UNL     1     138.318 138.887 132.590  1.00  0.00     0.007 C 
ATOM      9  C   UNL     1     137.628 139.117 133.965  1.00  0.00    -0.029 C 
ATOM     10  C   UNL     1     138.685 138.803 135.107  1.00  0.00    -0.012 C 
ATOM     11  C   UNL     1     138.409 139.252 136.551  1.00  0.00     0.022 C 
ATOM     12  C   UNL     1     139.393 140.054 135.701  1.00  0.00     0.017 C 
ATOM     13  C   UNL     1     136.375 138.216 134.110  1.00  0.00     0.012 C 
ATOM     14  C   UNL     1     137.100 140.582 133.952  1.00  0.00     0.012 C 
ATOM     15  C   UNL     1     138.587 136.212 135.282  1.00  0.00     0.012 C 
ENDROOT
TORSDOF 0
ENDMDL
MODEL 3
REMARK VINA RESULT:    -4.999      5.328      7.265
REMARK INTER + INTRA:          -4.999
REMARK INTER:                  -4.999
REMARK INTRA:                   0.000
REMARK UNBOUND:                 0.000
REMARK SMILES CC1=CC[C@]2(C)CCCC(C)(C)[C@]23C[C@H]13
REMARK SMILES IDX 1 1 2 2 3 3 4 4 5 5 7 6 8 7 9 8 10 9 13 10 15 11 14 12 11 13
REMARK SMILES IDX 12 14 6 15
REMARK H PARENT
REMARK Flexibility Score: inf
ROOT
ATOM      1  C   UNL     1     138.451 133.768 138.942  1.00  0.00     0.039 C 
ATOM      2  C   UNL     1     138.380 133.384 137.491  1.00  0.00    -0.074 C 
ATOM      3  C   UNL     1     137.567 132.373 137.117  1.00  0.00    -0.027 C 
ATOM      4  C   UNL     1     137.454 131.929 135.679  1.00  0.00     0.034 C 
ATOM      5  C   UNL     1     137.603 133.136 134.707  1.00  0.00    -0.022 C 
ATOM      6  C   UNL     1     137.661 132.605 133.254  1.00  0.00     0.008 C 
ATOM      7  C   UNL     1     137.957 133.703 132.217  1.00  0.00     0.001 C 
ATOM      8  C   UNL     1     139.259 134.460 132.518  1.00  0.00     0.007 C 
ATOM      9  C   UNL     1     139.343 135.073 133.946  1.00  0.00    -0.029 C 
ATOM     10  C   UNL     1     138.929 133.951 134.990  1.00  0.00    -0.012 C 
ATOM     11  C   UNL     1     139.228 134.147 136.485  1.00  0.00     0.022 C 
ATOM     12  C   UNL     1     140.123 133.219 135.666  1.00  0.00     0.017 C 
ATOM     13  C   UNL     1     138.417 136.309 134.069  1.00  0.00     0.012 C 
ATOM     14  C   UNL     1     140.795 135.611 134.110  1.00  0.00     0.012 C 
ATOM     15  C   UNL     1     136.333 134.021 134.909  1.00  0.00     0.012 C 
ENDROOT
TORSDOF 0
ENDMDL
MODEL 4
REMARK VINA RESULT:    -4.978      4.609      6.649
REMARK INTER + INTRA:          -4.978
REMARK INTER:                  -4.978
REMARK INTRA:                   0.000
REMARK UNBOUND:                 0.000
REMARK SMILES CC1=CC[C@]2(C)CCCC(C)(C)[C@]23C[C@H]13
REMARK SMILES IDX 1 1 2 2 3 3 4 4 5 5 7 6 8 7 9 8 10 9 13 10 15 11 14 12 11 13
REMARK SMILES IDX 12 14 6 15
REMARK H PARENT
REMARK Flexibility Score: inf
ROOT
ATOM      1  C   UNL     1     140.135 134.108 135.445  1.00  0.00     0.039 C 
ATOM      2  C   UNL     1     138.799 133.852 136.084  1.00  0.00    -0.074 C 
ATOM      3  C   UNL     1     138.573 134.296 137.339  1.00  0.00    -0.027 C 
ATOM      4  C   UNL     1     137.258 134.065 138.043  1.00  0.00     0.034 C 
ATOM      5  C   UNL     1     136.070 134.101 137.038  1.00  0.00    -0.022 C 
ATOM      6  C   UNL     1     134.776 133.683 137.777  1.00  0.00     0.008 C 
ATOM      7  C   UNL     1     133.561 133.540 136.842  1.00  0.00     0.001 C 
ATOM      8  C   UNL     1     133.817 132.551 135.694  1.00  0.00     0.007 C 
ATOM      9  C   UNL     1     135.083 132.853 134.841  1.00  0.00    -0.029 C 
ATOM     10  C   UNL     1     136.298 133.103 135.832  1.00  0.00    -0.012 C 
ATOM     11  C   UNL     1     137.738 133.098 135.295  1.00  0.00     0.022 C 
ATOM     12  C   UNL     1     137.224 131.873 136.048  1.00  0.00     0.017 C 
ATOM     13  C   UNL     1     134.852 134.086 133.931  1.00  0.00     0.012 C 
ATOM     14  C   UNL     1     135.265 131.642 133.879  1.00  0.00     0.012 C 
ATOM     15  C   UNL     1     135.958 135.578 136.545  1.00  0.00     0.012 C 
ENDROOT
TORSDOF 0
ENDMDL
MODEL 5
REMARK VINA RESULT:    -4.975      4.381      6.490
REMARK INTER + INTRA:          -4.975
REMARK INTER:                  -4.975
REMARK INTRA:                   0.000
REMARK UNBOUND:                 0.000
REMARK SMILES CC1=CC[C@]2(C)CCCC(C)(C)[C@]23C[C@H]13
REMARK SMILES IDX 1 1 2 2 3 3 4 4 5 5 7 6 8 7 9 8 10 9 13 10 15 11 14 12 11 13
REMARK SMILES IDX 12 14 6 15
REMARK H PARENT
REMARK Flexibility Score: inf
ROOT
ATOM      1  C   UNL     1     138.610 140.167 135.298  1.00  0.00     0.039 C 
ATOM      2  C   UNL     1     138.811 138.847 135.987  1.00  0.00    -0.074 C 
ATOM      3  C   UNL     1     138.327 138.676 137.235  1.00  0.00    -0.027 C 
ATOM      4  C   UNL     1     138.501 137.380 137.989  1.00  0.00     0.034 C 
ATOM      5  C   UNL     1     138.459 136.160 137.023  1.00  0.00    -0.022 C 
ATOM      6  C   UNL     1     138.821 134.880 137.815  1.00  0.00     0.008 C 
ATOM      7  C   UNL     1     138.954 133.631 136.925  1.00  0.00     0.001 C 
ATOM      8  C   UNL     1     139.981 133.821 135.797  1.00  0.00     0.007 C 
ATOM      9  C   UNL     1     139.737 135.065 134.895  1.00  0.00    -0.029 C 
ATOM     10  C   UNL     1     139.496 136.320 135.838  1.00  0.00    -0.012 C 
ATOM     11  C   UNL     1     139.555 137.740 135.255  1.00  0.00     0.022 C 
ATOM     12  C   UNL     1     140.745 137.219 136.058  1.00  0.00     0.017 C 
ATOM     13  C   UNL     1     138.523 134.837 133.959  1.00  0.00     0.012 C 
ATOM     14  C   UNL     1     140.979 135.182 133.962  1.00  0.00     0.012 C 
ATOM     15  C   UNL     1     136.993 136.072 136.493  1.00  0.00     0.012 C 
ENDROOT
TORSDOF 0
ENDMDL
MODEL 6
REMARK VINA RESULT:    -4.951      3.529      6.059
REMARK INTER + INTRA:          -4.951
REMARK INTER:                  -4.951
REMARK INTRA:                   0.000
REMARK UNBOUND:                 0.000
REMARK SMILES CC1=CC[C@]2(C)CCCC(C)(C)[C@]23C[C@H]13
REMARK SMILES IDX 1 1 2 2 3 3 4 4 5 5 7 6 8 7 9 8 10 9 13 10 15 11 14 12 11 13
REMARK SMILES IDX 12 14 6 15
REMARK H PARENT
REMARK Flexibility Score: inf
ROOT
ATOM      1  C   UNL     1     137.640 131.884 136.326  1.00  0.00     0.039 C 
ATOM      2  C   UNL     1     136.482 132.663 135.766  1.00  0.00    -0.074 C 
ATOM      3  C   UNL     1     135.733 132.115 134.786  1.00  0.00    -0.027 C 
ATOM      4  C   UNL     1     134.563 132.845 134.172  1.00  0.00     0.034 C 
ATOM      5  C   UNL     1     133.838 133.730 135.229  1.00  0.00    -0.022 C 
ATOM      6  C   UNL     1     132.767 134.588 134.514  1.00  0.00     0.008 C 
ATOM      7  C   UNL     1     132.089 135.611 135.443  1.00  0.00     0.001 C 
ATOM      8  C   UNL     1     133.099 136.548 136.123  1.00  0.00     0.007 C 
ATOM      9  C   UNL     1     134.235 135.826 136.905  1.00  0.00    -0.029 C 
ATOM     10  C   UNL     1     134.847 134.703 135.962  1.00  0.00    -0.012 C 
ATOM     11  C   UNL     1     136.189 134.048 136.323  1.00  0.00     0.022 C 
ATOM     12  C   UNL     1     136.154 135.112 135.228  1.00  0.00     0.017 C 
ATOM     13  C   UNL     1     133.692 135.207 138.218  1.00  0.00     0.012 C 
ATOM     14  C   UNL     1     135.242 136.931 137.338  1.00  0.00     0.012 C 
ATOM     15  C   UNL     1     133.160 132.745 136.233  1.00  0.00     0.012 C 
ENDROOT
TORSDOF 0
ENDMDL
MODEL 7
REMARK VINA RESULT:    -4.950      4.870      6.810
REMARK INTER + INTRA:          -4.950
REMARK INTER:                  -4.950
REMARK INTRA:                   0.000
REMARK UNBOUND:                 0.000
REMARK SMILES CC1=CC[C@]2(C)CCCC(C)(C)[C@]23C[C@H]13
REMARK SMILES IDX 1 1 2 2 3 3 4 4 5 5 7 6 8 7 9 8 10 9 13 10 15 11 14 12 11 13
REMARK SMILES IDX 12 14 6 15
REMARK H PARENT
REMARK Flexibility Score: inf
ROOT
ATOM      1  C   UNL     1     140.843 137.668 136.346  1.00  0.00     0.039 C 
ATOM      2  C   UNL     1     140.066 136.500 135.806  1.00  0.00    -0.074 C 
ATOM      3  C   UNL     1     140.589 135.772 134.797  1.00  0.00    -0.027 C 
ATOM      4  C   UNL     1     139.859 134.593 134.201  1.00  0.00     0.034 C 
ATOM      5  C   UNL     1     139.034 133.839 135.285  1.00  0.00    -0.022 C 
ATOM      6  C   UNL     1     138.169 132.758 134.594  1.00  0.00     0.008 C 
ATOM      7  C   UNL     1     137.199 132.048 135.557  1.00  0.00     0.001 C 
ATOM      8  C   UNL     1     136.271 133.032 136.286  1.00  0.00     0.007 C 
ATOM      9  C   UNL     1     137.000 134.175 137.049  1.00  0.00    -0.029 C 
ATOM     10  C   UNL     1     138.070 134.820 136.068  1.00  0.00    -0.012 C 
ATOM     11  C   UNL     1     138.711 136.172 136.416  1.00  0.00     0.022 C 
ATOM     12  C   UNL     1     137.604 136.126 135.365  1.00  0.00     0.017 C 
ATOM     13  C   UNL     1     137.683 133.632 138.330  1.00  0.00     0.012 C 
ATOM     14  C   UNL     1     135.893 135.154 137.539  1.00  0.00     0.012 C 
ATOM     15  C   UNL     1     140.073 133.172 136.241  1.00  0.00     0.012 C 
ENDROOT
TORSDOF 0
ENDMDL
MODEL 8
REMARK VINA RESULT:    -4.944      1.661      3.969
REMARK INTER + INTRA:          -4.944
REMARK INTER:                  -4.944
REMARK INTRA:                   0.000
REMARK UNBOUND:                 0.000
REMARK SMILES CC1=CC[C@]2(C)CCCC(C)(C)[C@]23C[C@H]13
REMARK SMILES IDX 1 1 2 2 3 3 4 4 5 5 7 6 8 7 9 8 10 9 13 10 15 11 14 12 11 13
REMARK SMILES IDX 12 14 6 15
REMARK H PARENT
REMARK Flexibility Score: inf
ROOT
ATOM      1  C   UNL     1     131.858 134.892 136.376  1.00  0.00     0.039 C 
ATOM      2  C   UNL     1     132.614 136.074 135.837  1.00  0.00    -0.074 C 
ATOM      3  C   UNL     1     132.056 136.825 134.865  1.00  0.00    -0.027 C 
ATOM      4  C   UNL     1     132.763 138.020 134.272  1.00  0.00     0.034 C 
ATOM      5  C   UNL     1     133.628 138.747 135.343  1.00  0.00    -0.022 C 
ATOM      6  C   UNL     1     134.467 139.846 134.648  1.00  0.00     0.008 C 
ATOM      7  C   UNL     1     135.471 140.532 135.592  1.00  0.00     0.001 C 
ATOM      8  C   UNL     1     136.426 139.532 136.262  1.00  0.00     0.007 C 
ATOM      9  C   UNL     1     135.724 138.370 137.023  1.00  0.00    -0.029 C 
ATOM     10  C   UNL     1     134.619 137.749 136.067  1.00  0.00    -0.012 C 
ATOM     11  C   UNL     1     133.991 136.388 136.405  1.00  0.00     0.022 C 
ATOM     12  C   UNL     1     135.059 136.460 135.315  1.00  0.00     0.017 C 
ATOM     13  C   UNL     1     135.088 138.881 138.341  1.00  0.00     0.012 C 
ATOM     14  C   UNL     1     136.848 137.380 137.448  1.00  0.00     0.012 C 
ATOM     15  C   UNL     1     132.624 139.390 136.352  1.00  0.00     0.012 C 
ENDROOT
TORSDOF 0
ENDMDL
MODEL 9
REMARK VINA RESULT:    -4.912      2.843      4.876
REMARK INTER + INTRA:          -4.912
REMARK INTER:                  -4.912
REMARK INTRA:                   0.000
REMARK UNBOUND:                 0.000
REMARK SMILES CC1=CC[C@]2(C)CCCC(C)(C)[C@]23C[C@H]13
REMARK SMILES IDX 1 1 2 2 3 3 4 4 5 5 7 6 8 7 9 8 10 9 13 10 15 11 14 12 11 13
REMARK SMILES IDX 12 14 6 15
REMARK H PARENT
REMARK Flexibility Score: inf
ROOT
ATOM      1  C   UNL     1     134.878 140.863 136.373  1.00  0.00     0.039 C 
ATOM      2  C   UNL     1     136.030 140.056 135.844  1.00  0.00    -0.074 C 
ATOM      3  C   UNL     1     136.715 140.510 134.773  1.00  0.00    -0.027 C 
ATOM      4  C   UNL     1     137.876 139.746 134.184  1.00  0.00     0.034 C 
ATOM      5  C   UNL     1     138.676 139.001 135.293  1.00  0.00    -0.022 C 
ATOM      6  C   UNL     1     139.737 138.095 134.622  1.00  0.00     0.008 C 
ATOM      7  C   UNL     1     140.489 137.197 135.621  1.00  0.00     0.001 C 
ATOM      8  C   UNL     1     139.540 136.317 136.450  1.00  0.00     0.007 C 
ATOM      9  C   UNL     1     138.422 137.093 137.205  1.00  0.00    -0.029 C 
ATOM     10  C   UNL     1     137.733 138.090 136.178  1.00  0.00    -0.012 C 
ATOM     11  C   UNL     1     136.391 138.748 136.533  1.00  0.00     0.022 C 
ATOM     12  C   UNL     1     136.405 137.571 135.559  1.00  0.00     0.017 C 
ATOM     13  C   UNL     1     139.009 137.865 138.413  1.00  0.00     0.012 C 
ATOM     14  C   UNL     1     137.470 136.018 137.806  1.00  0.00     0.012 C 
ATOM     15  C   UNL     1     139.372 140.106 136.148  1.00  0.00     0.012 C 
ENDROOT
TORSDOF 0
ENDMDL
