MODEL 1
REMARK VINA RESULT:    -6.244      0.000      0.000
REMARK INTER + INTRA:          -6.244
REMARK INTER:                  -6.244
REMARK INTRA:                   0.000
REMARK UNBOUND:                 0.000
REMARK SMILES O=c1ccc2ccccc2o1
REMARK SMILES IDX 7 1 8 2 9 3 10 4 5 5 6 6 4 7 3 8 2 9 1 10 11 11
REMARK H PARENT
REMARK Flexibility Score: inf
ROOT
ATOM      1  C   UNL     1     -22.368  19.874  20.960  1.00  0.00     0.001 A 
ATOM      2  C   UNL     1     -22.047  19.964  19.602  1.00  0.00     0.004 A 
ATOM      3  C   UNL     1     -22.692  19.143  18.670  1.00  0.00     0.048 A 
ATOM      4  C   UNL     1     -23.660  18.228  19.095  1.00  0.00     0.138 A 
ATOM      5  C   UNL     1     -23.985  18.137  20.467  1.00  0.00     0.018 A 
ATOM      6  C   UNL     1     -23.335  18.962  21.396  1.00  0.00     0.012 A 
ATOM      7  C   UNL     1     -24.957  17.213  20.862  1.00  0.00     0.019 A 
ATOM      8  C   UNL     1     -25.573  16.414  19.899  1.00  0.00     0.094 A 
ATOM      9  C   UNL     1     -25.202  16.559  18.558  1.00  0.00     0.336 A 
ATOM     10  O   UNL     1     -25.747  15.848  17.675  1.00  0.00    -0.246 OA
ATOM     11  O   UNL     1     -24.273  17.446  18.209  1.00  0.00    -0.423 OA
ENDROOT
TORSDOF 0
ENDMDL
MODEL 2
REMARK VINA RESULT:    -6.013      1.194      2.130
REMARK INTER + INTRA:          -6.013
REMARK INTER:                  -6.013
REMARK INTRA:                   0.000
REMARK UNBOUND:                 0.000
REMARK SMILES O=c1ccc2ccccc2o1
REMARK SMILES IDX 7 1 8 2 9 3 10 4 5 5 6 6 4 7 3 8 2 9 1 10 11 11
REMARK H PARENT
REMARK Flexibility Score: inf
ROOT
ATOM      1  C   UNL     1     -22.153  19.937  19.657  1.00  0.00     0.001 A 
ATOM      2  C   UNL     1     -22.546  19.789  20.991  1.00  0.00     0.004 A 
ATOM      3  C   UNL     1     -23.484  18.813  21.345  1.00  0.00     0.048 A 
ATOM      4  C   UNL     1     -24.034  17.981  20.364  1.00  0.00     0.138 A 
ATOM      5  C   UNL     1     -23.638  18.130  19.015  1.00  0.00     0.018 A 
ATOM      6  C   UNL     1     -22.697  19.110  18.667  1.00  0.00     0.012 A 
ATOM      7  C   UNL     1     -24.204  17.285  18.057  1.00  0.00     0.019 A 
ATOM      8  C   UNL     1     -25.136  16.326  18.455  1.00  0.00     0.094 A 
ATOM      9  C   UNL     1     -25.480  16.236  19.808  1.00  0.00     0.336 A 
ATOM     10  O   UNL     1     -26.319  15.377  20.186  1.00  0.00    -0.246 OA
ATOM     11  O   UNL     1     -24.926  17.053  20.700  1.00  0.00    -0.423 OA
ENDROOT
TORSDOF 0
ENDMDL
MODEL 3
REMARK VINA RESULT:    -5.812      1.894      4.346
REMARK INTER + INTRA:          -5.812
REMARK INTER:                  -5.812
REMARK INTRA:                   0.000
REMARK UNBOUND:                 0.000
REMARK SMILES O=c1ccc2ccccc2o1
REMARK SMILES IDX 7 1 8 2 9 3 10 4 5 5 6 6 4 7 3 8 2 9 1 10 11 11
REMARK H PARENT
REMARK Flexibility Score: inf
ROOT
ATOM      1  C   UNL     1     -25.540  15.871  17.857  1.00  0.00     0.001 A 
ATOM      2  C   UNL     1     -26.248  15.675  19.048  1.00  0.00     0.004 A 
ATOM      3  C   UNL     1     -25.883  16.368  20.207  1.00  0.00     0.048 A 
ATOM      4  C   UNL     1     -24.808  17.262  20.179  1.00  0.00     0.138 A 
ATOM      5  C   UNL     1     -24.092  17.461  18.977  1.00  0.00     0.018 A 
ATOM      6  C   UNL     1     -24.462  16.763  17.819  1.00  0.00     0.012 A 
ATOM      7  C   UNL     1     -23.022  18.360  18.980  1.00  0.00     0.019 A 
ATOM      8  C   UNL     1     -22.693  19.029  20.158  1.00  0.00     0.094 A 
ATOM      9  C   UNL     1     -23.446  18.782  21.312  1.00  0.00     0.336 A 
ATOM     10  O   UNL     1     -23.165  19.377  22.384  1.00  0.00    -0.246 OA
ATOM     11  O   UNL     1     -24.460  17.922  21.282  1.00  0.00    -0.423 OA
ENDROOT
TORSDOF 0
ENDMDL
MODEL 4
REMARK VINA RESULT:    -5.751      1.436      3.784
REMARK INTER + INTRA:          -5.751
REMARK INTER:                  -5.751
REMARK INTRA:                   0.000
REMARK UNBOUND:                 0.000
REMARK SMILES O=c1ccc2ccccc2o1
REMARK SMILES IDX 7 1 8 2 9 3 10 4 5 5 6 6 4 7 3 8 2 9 1 10 11 11
REMARK H PARENT
REMARK Flexibility Score: inf
ROOT
ATOM      1  C   UNL     1     -25.873  15.894  19.717  1.00  0.00     0.001 A 
ATOM      2  C   UNL     1     -25.524  15.953  18.364  1.00  0.00     0.004 A 
ATOM      3  C   UNL     1     -24.570  16.875  17.922  1.00  0.00     0.048 A 
ATOM      4  C   UNL     1     -23.961  17.744  18.833  1.00  0.00     0.138 A 
ATOM      5  C   UNL     1     -24.313  17.686  20.200  1.00  0.00     0.018 A 
ATOM      6  C   UNL     1     -25.269  16.759  20.637  1.00  0.00     0.012 A 
ATOM      7  C   UNL     1     -23.687  18.566  21.087  1.00  0.00     0.019 A 
ATOM      8  C   UNL     1     -22.742  19.470  20.602  1.00  0.00     0.094 A 
ATOM      9  C   UNL     1     -22.444  19.472  19.235  1.00  0.00     0.336 A 
ATOM     10  O   UNL     1     -21.593  20.280  18.779  1.00  0.00    -0.246 OA
ATOM     11  O   UNL     1     -23.054  18.623  18.412  1.00  0.00    -0.423 OA
ENDROOT
TORSDOF 0
ENDMDL
MODEL 5
REMARK VINA RESULT:    -5.507      2.155      4.336
REMARK INTER + INTRA:          -5.507
REMARK INTER:                  -5.507
REMARK INTRA:                   0.000
REMARK UNBOUND:                 0.000
REMARK SMILES O=c1ccc2ccccc2o1
REMARK SMILES IDX 7 1 8 2 9 3 10 4 5 5 6 6 4 7 3 8 2 9 1 10 11 11
REMARK H PARENT
REMARK Flexibility Score: inf
ROOT
ATOM      1  C   UNL     1     -23.610  13.969  17.829  1.00  0.00     0.001 A 
ATOM      2  C   UNL     1     -24.830  14.593  17.542  1.00  0.00     0.004 A 
ATOM      3  C   UNL     1     -25.018  15.945  17.847  1.00  0.00     0.048 A 
ATOM      4  C   UNL     1     -23.986  16.680  18.441  1.00  0.00     0.138 A 
ATOM      5  C   UNL     1     -22.754  16.050  18.731  1.00  0.00     0.018 A 
ATOM      6  C   UNL     1     -22.572  14.695  18.423  1.00  0.00     0.012 A 
ATOM      7  C   UNL     1     -21.742  16.810  19.324  1.00  0.00     0.019 A 
ATOM      8  C   UNL     1     -21.974  18.155  19.611  1.00  0.00     0.094 A 
ATOM      9  C   UNL     1     -23.219  18.711  19.297  1.00  0.00     0.336 A 
ATOM     10  O   UNL     1     -23.446  19.923  19.548  1.00  0.00    -0.246 OA
ATOM     11  O   UNL     1     -24.165  17.966  18.732  1.00  0.00    -0.423 OA
ENDROOT
TORSDOF 0
ENDMDL
MODEL 6
REMARK VINA RESULT:    -5.450      1.320      2.272
REMARK INTER + INTRA:          -5.450
REMARK INTER:                  -5.450
REMARK INTRA:                   0.000
REMARK UNBOUND:                 0.000
REMARK SMILES O=c1ccc2ccccc2o1
REMARK SMILES IDX 7 1 8 2 9 3 10 4 5 5 6 6 4 7 3 8 2 9 1 10 11 11
REMARK H PARENT
REMARK Flexibility Score: inf
ROOT
ATOM      1  C   UNL     1     -22.612  19.128  20.410  1.00  0.00     0.001 A 
ATOM      2  C   UNL     1     -23.463  18.952  21.507  1.00  0.00     0.004 A 
ATOM      3  C   UNL     1     -24.542  18.066  21.426  1.00  0.00     0.048 A 
ATOM      4  C   UNL     1     -24.776  17.352  20.247  1.00  0.00     0.138 A 
ATOM      5  C   UNL     1     -23.918  17.529  19.138  1.00  0.00     0.018 A 
ATOM      6  C   UNL     1     -22.838  18.419  19.225  1.00  0.00     0.012 A 
ATOM      7  C   UNL     1     -24.176  16.802  17.972  1.00  0.00     0.019 A 
ATOM      8  C   UNL     1     -25.265  15.931  17.936  1.00  0.00     0.094 A 
ATOM      9  C   UNL     1     -26.072  15.806  19.073  1.00  0.00     0.336 A 
ATOM     10  O   UNL     1     -27.058  15.024  19.059  1.00  0.00    -0.246 OA
ATOM     11  O   UNL     1     -25.804  16.509  20.170  1.00  0.00    -0.423 OA
ENDROOT
TORSDOF 0
ENDMDL
MODEL 7
REMARK VINA RESULT:    -4.550      1.903      2.431
REMARK INTER + INTRA:          -4.550
REMARK INTER:                  -4.550
REMARK INTRA:                   0.000
REMARK UNBOUND:                 0.000
REMARK SMILES O=c1ccc2ccccc2o1
REMARK SMILES IDX 7 1 8 2 9 3 10 4 5 5 6 6 4 7 3 8 2 9 1 10 11 11
REMARK H PARENT
REMARK Flexibility Score: inf
ROOT
ATOM      1  C   UNL     1     -21.961  17.697  19.647  1.00  0.00     0.001 A 
ATOM      2  C   UNL     1     -21.576  16.524  18.989  1.00  0.00     0.004 A 
ATOM      3  C   UNL     1     -22.513  15.515  18.742  1.00  0.00     0.048 A 
ATOM      4  C   UNL     1     -23.840  15.675  19.153  1.00  0.00     0.138 A 
ATOM      5  C   UNL     1     -24.230  16.860  19.818  1.00  0.00     0.018 A 
ATOM      6  C   UNL     1     -23.286  17.867  20.063  1.00  0.00     0.012 A 
ATOM      7  C   UNL     1     -25.563  16.992  20.217  1.00  0.00     0.019 A 
ATOM      8  C   UNL     1     -26.463  15.961  19.951  1.00  0.00     0.094 A 
ATOM      9  C   UNL     1     -26.006  14.816  19.288  1.00  0.00     0.336 A 
ATOM     10  O   UNL     1     -26.804  13.875  19.038  1.00  0.00    -0.246 OA
ATOM     11  O   UNL     1     -24.732  14.716  18.918  1.00  0.00    -0.423 OA
ENDROOT
TORSDOF 0
ENDMDL
MODEL 8
REMARK VINA RESULT:    -4.533      1.740      2.046
REMARK INTER + INTRA:          -4.533
REMARK INTER:                  -4.533
REMARK INTRA:                   0.000
REMARK UNBOUND:                 0.000
REMARK SMILES O=c1ccc2ccccc2o1
REMARK SMILES IDX 7 1 8 2 9 3 10 4 5 5 6 6 4 7 3 8 2 9 1 10 11 11
REMARK H PARENT
REMARK Flexibility Score: inf
ROOT
ATOM      1  C   UNL     1     -22.008  19.362  20.210  1.00  0.00     0.001 A 
ATOM      2  C   UNL     1     -23.137  19.839  19.535  1.00  0.00     0.004 A 
ATOM      3  C   UNL     1     -23.902  18.975  18.745  1.00  0.00     0.048 A 
ATOM      4  C   UNL     1     -23.541  17.629  18.627  1.00  0.00     0.138 A 
ATOM      5  C   UNL     1     -22.400  17.146  19.309  1.00  0.00     0.018 A 
ATOM      6  C   UNL     1     -21.637  18.017  20.099  1.00  0.00     0.012 A 
ATOM      7  C   UNL     1     -22.064  15.796  19.172  1.00  0.00     0.019 A 
ATOM      8  C   UNL     1     -22.856  14.971  18.374  1.00  0.00     0.094 A 
ATOM      9  C   UNL     1     -23.971  15.517  17.728  1.00  0.00     0.336 A 
ATOM     10  O   UNL     1     -24.697  14.788  17.004  1.00  0.00    -0.246 OA
ATOM     11  O   UNL     1     -24.269  16.806  17.875  1.00  0.00    -0.423 OA
ENDROOT
TORSDOF 0
ENDMDL
MODEL 9
REMARK VINA RESULT:    -4.474      2.150      3.972
REMARK INTER + INTRA:          -4.474
REMARK INTER:                  -4.474
REMARK INTRA:                   0.000
REMARK UNBOUND:                 0.000
REMARK SMILES O=c1ccc2ccccc2o1
REMARK SMILES IDX 7 1 8 2 9 3 10 4 5 5 6 6 4 7 3 8 2 9 1 10 11 11
REMARK H PARENT
REMARK Flexibility Score: inf
ROOT
ATOM      1  C   UNL     1     -24.251  14.501  17.509  1.00  0.00     0.001 A 
ATOM      2  C   UNL     1     -22.910  14.892  17.592  1.00  0.00     0.004 A 
ATOM      3  C   UNL     1     -22.520  15.881  18.501  1.00  0.00     0.048 A 
ATOM      4  C   UNL     1     -23.471  16.483  19.331  1.00  0.00     0.138 A 
ATOM      5  C   UNL     1     -24.826  16.089  19.248  1.00  0.00     0.018 A 
ATOM      6  C   UNL     1     -25.210  15.098  18.334  1.00  0.00     0.012 A 
ATOM      7  C   UNL     1     -25.753  16.709  20.090  1.00  0.00     0.019 A 
ATOM      8  C   UNL     1     -25.319  17.690  20.981  1.00  0.00     0.094 A 
ATOM      9  C   UNL     1     -23.962  18.030  21.009  1.00  0.00     0.336 A 
ATOM     10  O   UNL     1     -23.552  18.913  21.807  1.00  0.00    -0.246 OA
ATOM     11  O   UNL     1     -23.100  17.424  20.197  1.00  0.00    -0.423 OA
ENDROOT
TORSDOF 0
ENDMDL
