MODEL 1
REMARK VINA RESULT:    -3.997      0.000      0.000
REMARK INTER + INTRA:          -8.252
REMARK INTER:                  -7.501
REMARK INTRA:                  -0.751
REMARK UNBOUND:                -0.751
REMARK SMILES O=C([O-])CCCCCCCCCCCCCCC(=O)[O-]
REMARK SMILES IDX 10 1 9 2 8 3 7 4 6 5 5 6 4 7 2 8 1 9 3 10 11 11 12 12 13 13
REMARK SMILES IDX 14 14 15 15 16 16 17 17 18 18 19 19 20 20
REMARK H PARENT
REMARK Flexibility Score: inf
ROOT
ATOM      1  C   UNL     1     -44.005 -27.506  -0.490  1.00  0.00     0.000 C 
ENDROOT
BRANCH   1   2
ATOM      2  C   UNL     1     -44.908 -27.627   0.754  1.00  0.00     0.000 C 
BRANCH   2   3
ATOM      3  C   UNL     1     -45.320 -26.292   1.399  1.00  0.00     0.000 C 
BRANCH   3   4
ATOM      4  C   UNL     1     -46.525 -26.429   2.342  1.00  0.00     0.000 C 
BRANCH   4   5
ATOM      5  C   UNL     1     -46.505 -27.738   3.150  1.00  0.00     0.000 C 
BRANCH   5   6
ATOM      6  C   UNL     1     -46.856 -27.551   4.641  1.00  0.00     0.006 C 
BRANCH   6   7
ATOM      7  C   UNL     1     -45.973 -26.493   5.316  1.00  0.00     0.053 C 
BRANCH   7   8
ATOM      8  C   UNL     1     -45.649 -26.898   6.720  1.00  0.00     0.041 C 
ATOM      9  O   UNL     1     -45.931 -26.136   7.680  1.00  0.00    -0.550 OA
ATOM     10  O   UNL     1     -44.990 -28.096   6.962  1.00  0.00    -0.550 OA
ENDBRANCH   7   8
ENDBRANCH   6   7
ENDBRANCH   5   6
ENDBRANCH   4   5
ENDBRANCH   3   4
ENDBRANCH   2   3
ENDBRANCH   1   2
BRANCH   1  11
ATOM     11  C   UNL     1     -44.717 -27.722  -1.841  1.00  0.00     0.000 C 
BRANCH  11  12
ATOM     12  C   UNL     1     -46.159 -28.251  -1.740  1.00  0.00     0.000 C 
BRANCH  12  13
ATOM     13  C   UNL     1     -46.770 -28.581  -3.110  1.00  0.00     0.000 C 
BRANCH  13  14
ATOM     14  C   UNL     1     -45.686 -28.633  -4.196  1.00  0.00     0.000 C 
BRANCH  14  15
ATOM     15  C   UNL     1     -45.882 -27.569  -5.290  1.00  0.00     0.000 C 
BRANCH  15  16
ATOM     16  C   UNL     1     -45.416 -27.986  -6.701  1.00  0.00     0.006 C 
BRANCH  16  17
ATOM     17  C   UNL     1     -44.145 -27.274  -7.190  1.00  0.00     0.053 C 
BRANCH  17  18
ATOM     18  C   UNL     1     -43.270 -28.182  -7.997  1.00  0.00     0.041 C 
ATOM     19  O   UNL     1     -43.649 -28.590  -9.126  1.00  0.00    -0.550 OA
ATOM     20  O   UNL     1     -42.020 -28.551  -7.516  1.00  0.00    -0.550 OA
ENDBRANCH  17  18
ENDBRANCH  16  17
ENDBRANCH  15  16
ENDBRANCH  14  15
ENDBRANCH  13  14
ENDBRANCH  12  13
ENDBRANCH  11  12
ENDBRANCH   1  11
TORSDOF 15
ENDMDL
MODEL 2
REMARK VINA RESULT:    -3.984      0.785     10.831
REMARK INTER + INTRA:          -8.229
REMARK INTER:                  -7.550
REMARK INTRA:                  -0.679
REMARK UNBOUND:                -0.751
REMARK SMILES O=C([O-])CCCCCCCCCCCCCCC(=O)[O-]
REMARK SMILES IDX 10 1 9 2 8 3 7 4 6 5 5 6 4 7 2 8 1 9 3 10 11 11 12 12 13 13
REMARK SMILES IDX 14 14 15 15 16 16 17 17 18 18 19 19 20 20
REMARK H PARENT
REMARK Flexibility Score: inf
ROOT
ATOM      1  C   UNL     1     -44.150 -27.496  -1.501  1.00  0.00     0.000 C 
ENDROOT
BRANCH   1   2
ATOM      2  C   UNL     1     -45.573 -27.982  -1.842  1.00  0.00     0.000 C 
BRANCH   2   3
ATOM      3  C   UNL     1     -45.679 -28.873  -3.093  1.00  0.00     0.000 C 
BRANCH   3   4
ATOM      4  C   UNL     1     -46.339 -28.158  -4.283  1.00  0.00     0.000 C 
BRANCH   4   5
ATOM      5  C   UNL     1     -45.324 -27.417  -5.170  1.00  0.00     0.000 C 
BRANCH   5   6
ATOM      6  C   UNL     1     -45.405 -27.806  -6.661  1.00  0.00     0.006 C 
BRANCH   6   7
ATOM      7  C   UNL     1     -44.357 -28.859  -7.043  1.00  0.00     0.053 C 
BRANCH   7   8
ATOM      8  C   UNL     1     -43.302 -28.257  -7.916  1.00  0.00     0.041 C 
ATOM      9  O   UNL     1     -43.624 -27.621  -8.953  1.00  0.00    -0.550 OA
ATOM     10  O   UNL     1     -41.959 -28.441  -7.610  1.00  0.00    -0.550 OA
ENDBRANCH   7   8
ENDBRANCH   6   7
ENDBRANCH   5   6
ENDBRANCH   4   5
ENDBRANCH   3   4
ENDBRANCH   2   3
ENDBRANCH   1   2
BRANCH   1  11
ATOM     11  C   UNL     1     -43.832 -27.401   0.005  1.00  0.00     0.000 C 
BRANCH  11  12
ATOM     12  C   UNL     1     -45.062 -27.388   0.930  1.00  0.00     0.000 C 
BRANCH  12  13
ATOM     13  C   UNL     1     -45.377 -25.990   1.483  1.00  0.00     0.000 C 
BRANCH  13  14
ATOM     14  C   UNL     1     -46.755 -25.965   2.159  1.00  0.00     0.000 C 
BRANCH  14  15
ATOM     15  C   UNL     1     -46.899 -27.022   3.269  1.00  0.00     0.000 C 
BRANCH  15  16
ATOM     16  C   UNL     1     -46.951 -26.461   4.706  1.00  0.00     0.006 C 
BRANCH  16  17
ATOM     17  C   UNL     1     -46.930 -27.530   5.809  1.00  0.00     0.053 C 
BRANCH  17  18
ATOM     18  C   UNL     1     -45.629 -27.543   6.550  1.00  0.00     0.041 C 
ATOM     19  O   UNL     1     -45.203 -26.496   7.104  1.00  0.00    -0.550 OA
ATOM     20  O   UNL     1     -44.903 -28.722   6.658  1.00  0.00    -0.550 OA
ENDBRANCH  17  18
ENDBRANCH  16  17
ENDBRANCH  15  16
ENDBRANCH  14  15
ENDBRANCH  13  14
ENDBRANCH  12  13
ENDBRANCH  11  12
ENDBRANCH   1  11
TORSDOF 15
ENDMDL
MODEL 3
REMARK VINA RESULT:    -3.952      1.060      1.488
REMARK INTER + INTRA:          -8.168
REMARK INTER:                  -6.974
REMARK INTRA:                  -1.194
REMARK UNBOUND:                -0.751
REMARK SMILES O=C([O-])CCCCCCCCCCCCCCC(=O)[O-]
REMARK SMILES IDX 10 1 9 2 8 3 7 4 6 5 5 6 4 7 2 8 1 9 3 10 11 11 12 12 13 13
REMARK SMILES IDX 14 14 15 15 16 16 17 17 18 18 19 19 20 20
REMARK H PARENT
REMARK Flexibility Score: inf
ROOT
ATOM      1  C   UNL     1     -44.123 -27.032   0.382  1.00  0.00     0.000 C 
ENDROOT
BRANCH   1   2
ATOM      2  C   UNL     1     -44.924 -26.162   1.372  1.00  0.00     0.000 C 
BRANCH   2   3
ATOM      3  C   UNL     1     -46.454 -26.312   1.290  1.00  0.00     0.000 C 
BRANCH   3   4
ATOM      4  C   UNL     1     -47.092 -26.677   2.640  1.00  0.00     0.000 C 
BRANCH   4   5
ATOM      5  C   UNL     1     -46.661 -28.063   3.148  1.00  0.00     0.000 C 
BRANCH   5   6
ATOM      6  C   UNL     1     -46.067 -28.044   4.572  1.00  0.00     0.006 C 
BRANCH   6   7
ATOM      7  C   UNL     1     -46.092 -26.640   5.191  1.00  0.00     0.053 C 
BRANCH   7   8
ATOM      8  C   UNL     1     -45.725 -26.700   6.641  1.00  0.00     0.041 C 
ATOM      9  O   UNL     1     -46.049 -25.762   7.415  1.00  0.00    -0.550 OA
ATOM     10  O   UNL     1     -44.981 -27.768   7.125  1.00  0.00    -0.550 OA
ENDBRANCH   7   8
ENDBRANCH   6   7
ENDBRANCH   5   6
ENDBRANCH   4   5
ENDBRANCH   3   4
ENDBRANCH   2   3
ENDBRANCH   1   2
BRANCH   1  11
ATOM     11  C   UNL     1     -44.899 -28.219  -0.224  1.00  0.00     0.000 C 
BRANCH  11  12
ATOM     12  C   UNL     1     -45.220 -28.089  -1.724  1.00  0.00     0.000 C 
BRANCH  12  13
ATOM     13  C   UNL     1     -46.695 -28.373  -2.044  1.00  0.00     0.000 C 
BRANCH  13  14
ATOM     14  C   UNL     1     -46.834 -29.619  -2.931  1.00  0.00     0.000 C 
BRANCH  14  15
ATOM     15  C   UNL     1     -45.932 -29.571  -4.177  1.00  0.00     0.000 C 
BRANCH  15  16
ATOM     16  C   UNL     1     -46.342 -28.535  -5.245  1.00  0.00     0.006 C 
BRANCH  16  17
ATOM     17  C   UNL     1     -45.264 -27.488  -5.564  1.00  0.00     0.053 C 
BRANCH  17  18
ATOM     18  C   UNL     1     -44.948 -27.437  -7.027  1.00  0.00     0.041 C 
ATOM     19  O   UNL     1     -45.877 -27.373  -7.875  1.00  0.00    -0.550 OA
ATOM     20  O   UNL     1     -43.626 -27.428  -7.453  1.00  0.00    -0.550 OA
ENDBRANCH  17  18
ENDBRANCH  16  17
ENDBRANCH  15  16
ENDBRANCH  14  15
ENDBRANCH  13  14
ENDBRANCH  12  13
ENDBRANCH  11  12
ENDBRANCH   1  11
TORSDOF 15
ENDMDL
MODEL 4
REMARK VINA RESULT:    -3.715      1.198     10.807
REMARK INTER + INTRA:          -7.724
REMARK INTER:                  -6.830
REMARK INTRA:                  -0.895
REMARK UNBOUND:                -0.751
REMARK SMILES O=C([O-])CCCCCCCCCCCCCCC(=O)[O-]
REMARK SMILES IDX 10 1 9 2 8 3 7 4 6 5 5 6 4 7 2 8 1 9 3 10 11 11 12 12 13 13
REMARK SMILES IDX 14 14 15 15 16 16 17 17 18 18 19 19 20 20
REMARK H PARENT
REMARK Flexibility Score: inf
ROOT
ATOM      1  C   UNL     1     -43.996 -28.669  -0.127  1.00  0.00     0.000 C 
ENDROOT
BRANCH   1   2
ATOM      2  C   UNL     1     -44.842 -29.282  -1.262  1.00  0.00     0.000 C 
BRANCH   2   3
ATOM      3  C   UNL     1     -45.475 -28.266  -2.230  1.00  0.00     0.000 C 
BRANCH   3   4
ATOM      4  C   UNL     1     -46.794 -28.765  -2.841  1.00  0.00     0.000 C 
BRANCH   4   5
ATOM      5  C   UNL     1     -46.817 -28.660  -4.376  1.00  0.00     0.000 C 
BRANCH   5   6
ATOM      6  C   UNL     1     -45.530 -28.056  -4.975  1.00  0.00     0.006 C 
BRANCH   6   7
ATOM      7  C   UNL     1     -45.824 -27.111  -6.148  1.00  0.00     0.053 C 
BRANCH   7   8
ATOM      8  C   UNL     1     -45.030 -27.507  -7.353  1.00  0.00     0.041 C 
ATOM      9  O   UNL     1     -43.816 -27.816  -7.237  1.00  0.00    -0.550 OA
ATOM     10  O   UNL     1     -45.619 -27.487  -8.610  1.00  0.00    -0.550 OA
ENDBRANCH   7   8
ENDBRANCH   6   7
ENDBRANCH   5   6
ENDBRANCH   4   5
ENDBRANCH   3   4
ENDBRANCH   2   3
ENDBRANCH   1   2
BRANCH   1  11
ATOM     11  C   UNL     1     -43.966 -27.128  -0.090  1.00  0.00     0.000 C 
BRANCH  11  12
ATOM     12  C   UNL     1     -44.657 -26.493   1.130  1.00  0.00     0.000 C 
BRANCH  12  13
ATOM     13  C   UNL     1     -46.145 -26.862   1.231  1.00  0.00     0.000 C 
BRANCH  13  14
ATOM     14  C   UNL     1     -46.434 -27.625   2.532  1.00  0.00     0.000 C 
BRANCH  14  15
ATOM     15  C   UNL     1     -46.506 -26.705   3.763  1.00  0.00     0.000 C 
BRANCH  15  16
ATOM     16  C   UNL     1     -46.394 -27.422   5.125  1.00  0.00     0.006 C 
BRANCH  16  17
ATOM     17  C   UNL     1     -45.568 -26.667   6.178  1.00  0.00     0.053 C 
BRANCH  17  18
ATOM     18  C   UNL     1     -46.306 -26.524   7.472  1.00  0.00     0.041 C 
ATOM     19  O   UNL     1     -46.726 -27.545   8.078  1.00  0.00    -0.550 OA
ATOM     20  O   UNL     1     -46.500 -25.266   8.027  1.00  0.00    -0.550 OA
ENDBRANCH  17  18
ENDBRANCH  16  17
ENDBRANCH  15  16
ENDBRANCH  14  15
ENDBRANCH  13  14
ENDBRANCH  12  13
ENDBRANCH  11  12
ENDBRANCH   1  11
TORSDOF 15
ENDMDL
MODEL 5
REMARK VINA RESULT:    -3.526      2.156      9.882
REMARK INTER + INTRA:          -7.370
REMARK INTER:                  -6.287
REMARK INTRA:                  -1.084
REMARK UNBOUND:                -0.751
REMARK SMILES O=C([O-])CCCCCCCCCCCCCCC(=O)[O-]
REMARK SMILES IDX 10 1 9 2 8 3 7 4 6 5 5 6 4 7 2 8 1 9 3 10 11 11 12 12 13 13
REMARK SMILES IDX 14 14 15 15 16 16 17 17 18 18 19 19 20 20
REMARK H PARENT
REMARK Flexibility Score: inf
ROOT
ATOM      1  C   UNL     1     -44.089 -27.266  -2.036  1.00  0.00     0.000 C 
ENDROOT
BRANCH   1   2
ATOM      2  C   UNL     1     -45.374 -27.918  -2.586  1.00  0.00     0.000 C 
BRANCH   2   3
ATOM      3  C   UNL     1     -45.556 -27.825  -4.111  1.00  0.00     0.000 C 
BRANCH   3   4
ATOM      4  C   UNL     1     -45.680 -29.201  -4.784  1.00  0.00     0.000 C 
BRANCH   4   5
ATOM      5  C   UNL     1     -45.308 -29.171  -6.276  1.00  0.00     0.000 C 
BRANCH   5   6
ATOM      6  C   UNL     1     -44.520 -27.911  -6.693  1.00  0.00     0.006 C 
BRANCH   6   7
ATOM      7  C   UNL     1     -44.215 -27.890  -8.197  1.00  0.00     0.053 C 
BRANCH   7   8
ATOM      8  C   UNL     1     -42.915 -28.576  -8.478  1.00  0.00     0.041 C 
ATOM      9  O   UNL     1     -42.761 -29.230  -9.542  1.00  0.00    -0.550 OA
ATOM     10  O   UNL     1     -41.891 -28.533  -7.541  1.00  0.00    -0.550 OA
ENDBRANCH   7   8
ENDBRANCH   6   7
ENDBRANCH   5   6
ENDBRANCH   4   5
ENDBRANCH   3   4
ENDBRANCH   2   3
ENDBRANCH   1   2
BRANCH   1  11
ATOM     11  C   UNL     1     -43.763 -27.594  -0.565  1.00  0.00     0.000 C 
BRANCH  11  12
ATOM     12  C   UNL     1     -42.800 -28.778  -0.361  1.00  0.00     0.000 C 
BRANCH  12  13
ATOM     13  C   UNL     1     -43.513 -30.049   0.123  1.00  0.00     0.000 C 
BRANCH  13  14
ATOM     14  C   UNL     1     -45.015 -29.796   0.315  1.00  0.00     0.000 C 
BRANCH  14  15
ATOM     15  C   UNL     1     -45.448 -29.847   1.791  1.00  0.00     0.000 C 
BRANCH  15  16
ATOM     16  C   UNL     1     -46.637 -28.933   2.158  1.00  0.00     0.006 C 
BRANCH  16  17
ATOM     17  C   UNL     1     -46.733 -27.647   1.323  1.00  0.00     0.053 C 
BRANCH  17  18
ATOM     18  C   UNL     1     -46.168 -26.465   2.048  1.00  0.00     0.041 C 
ATOM     19  O   UNL     1     -45.805 -25.443   1.409  1.00  0.00    -0.550 OA
ATOM     20  O   UNL     1     -46.071 -26.481   3.434  1.00  0.00    -0.550 OA
ENDBRANCH  17  18
ENDBRANCH  16  17
ENDBRANCH  15  16
ENDBRANCH  14  15
ENDBRANCH  13  14
ENDBRANCH  12  13
ENDBRANCH  11  12
ENDBRANCH   1  11
TORSDOF 15
ENDMDL
MODEL 6
REMARK VINA RESULT:    -3.520      1.253     10.913
REMARK INTER + INTRA:          -7.358
REMARK INTER:                  -6.569
REMARK INTRA:                  -0.789
REMARK UNBOUND:                -0.751
REMARK SMILES O=C([O-])CCCCCCCCCCCCCCC(=O)[O-]
REMARK SMILES IDX 10 1 9 2 8 3 7 4 6 5 5 6 4 7 2 8 1 9 3 10 11 11 12 12 13 13
REMARK SMILES IDX 14 14 15 15 16 16 17 17 18 18 19 19 20 20
REMARK H PARENT
REMARK Flexibility Score: inf
ROOT
ATOM      1  C   UNL     1     -44.014 -27.356  -1.667  1.00  0.00     0.000 C 
ENDROOT
BRANCH   1   2
ATOM      2  C   UNL     1     -45.257 -28.043  -2.269  1.00  0.00     0.000 C 
BRANCH   2   3
ATOM      3  C   UNL     1     -45.515 -27.745  -3.757  1.00  0.00     0.000 C 
BRANCH   3   4
ATOM      4  C   UNL     1     -46.157 -28.927  -4.501  1.00  0.00     0.000 C 
BRANCH   4   5
ATOM      5  C   UNL     1     -45.493 -29.209  -5.859  1.00  0.00     0.000 C 
BRANCH   5   6
ATOM      6  C   UNL     1     -44.938 -27.946  -6.552  1.00  0.00     0.006 C 
BRANCH   6   7
ATOM      7  C   UNL     1     -45.876 -27.429  -7.650  1.00  0.00     0.053 C 
BRANCH   7   8
ATOM      8  C   UNL     1     -45.389 -27.854  -9.000  1.00  0.00     0.041 C 
ATOM      9  O   UNL     1     -44.235 -27.533  -9.386  1.00  0.00    -0.550 OA
ATOM     10  O   UNL     1     -46.228 -28.563  -9.849  1.00  0.00    -0.550 OA
ENDBRANCH   7   8
ENDBRANCH   6   7
ENDBRANCH   5   6
ENDBRANCH   4   5
ENDBRANCH   3   4
ENDBRANCH   2   3
ENDBRANCH   1   2
BRANCH   1  11
ATOM     11  C   UNL     1     -43.811 -27.575  -0.154  1.00  0.00     0.000 C 
BRANCH  11  12
ATOM     12  C   UNL     1     -44.556 -28.787   0.434  1.00  0.00     0.000 C 
BRANCH  12  13
ATOM     13  C   UNL     1     -45.718 -28.384   1.354  1.00  0.00     0.000 C 
BRANCH  13  14
ATOM     14  C   UNL     1     -45.815 -26.857   1.477  1.00  0.00     0.000 C 
BRANCH  14  15
ATOM     15  C   UNL     1     -46.758 -26.405   2.607  1.00  0.00     0.000 C 
BRANCH  15  16
ATOM     16  C   UNL     1     -46.718 -27.274   3.881  1.00  0.00     0.006 C 
BRANCH  16  17
ATOM     17  C   UNL     1     -46.632 -26.479   5.193  1.00  0.00     0.053 C 
BRANCH  17  18
ATOM     18  C   UNL     1     -45.658 -27.087   6.154  1.00  0.00     0.041 C 
ATOM     19  O   UNL     1     -45.226 -26.417   7.128  1.00  0.00    -0.550 OA
ATOM     20  O   UNL     1     -45.253 -28.405   5.992  1.00  0.00    -0.550 OA
ENDBRANCH  17  18
ENDBRANCH  16  17
ENDBRANCH  15  16
ENDBRANCH  14  15
ENDBRANCH  13  14
ENDBRANCH  12  13
ENDBRANCH  11  12
ENDBRANCH   1  11
TORSDOF 15
ENDMDL
MODEL 7
REMARK VINA RESULT:    -3.431      2.447      3.012
REMARK INTER + INTRA:          -7.192
REMARK INTER:                  -6.697
REMARK INTRA:                  -0.495
REMARK UNBOUND:                -0.751
REMARK SMILES O=C([O-])CCCCCCCCCCCCCCC(=O)[O-]
REMARK SMILES IDX 10 1 9 2 8 3 7 4 6 5 5 6 4 7 2 8 1 9 3 10 11 11 12 12 13 13
REMARK SMILES IDX 14 14 15 15 16 16 17 17 18 18 19 19 20 20
REMARK H PARENT
REMARK Flexibility Score: inf
ROOT
ATOM      1  C   UNL     1     -44.502 -27.519  -1.372  1.00  0.00     0.000 C 
ENDROOT
BRANCH   1   2
ATOM      2  C   UNL     1     -43.729 -28.451  -0.417  1.00  0.00     0.000 C 
BRANCH   2   3
ATOM      3  C   UNL     1     -44.484 -29.722   0.014  1.00  0.00     0.000 C 
BRANCH   3   4
ATOM      4  C   UNL     1     -45.910 -29.431   0.507  1.00  0.00     0.000 C 
BRANCH   4   5
ATOM      5  C   UNL     1     -45.982 -29.209   2.027  1.00  0.00     0.000 C 
BRANCH   5   6
ATOM      6  C   UNL     1     -47.022 -28.150   2.451  1.00  0.00     0.006 C 
BRANCH   6   7
ATOM      7  C   UNL     1     -46.368 -26.813   2.825  1.00  0.00     0.053 C 
BRANCH   7   8
ATOM      8  C   UNL     1     -46.190 -25.958   1.610  1.00  0.00     0.041 C 
ATOM      9  O   UNL     1     -47.125 -25.841   0.776  1.00  0.00    -0.550 OA
ATOM     10  O   UNL     1     -44.974 -25.329   1.376  1.00  0.00    -0.550 OA
ENDBRANCH   7   8
ENDBRANCH   6   7
ENDBRANCH   5   6
ENDBRANCH   4   5
ENDBRANCH   3   4
ENDBRANCH   2   3
ENDBRANCH   1   2
BRANCH   1  11
ATOM     11  C   UNL     1     -45.773 -28.128  -1.998  1.00  0.00     0.000 C 
BRANCH  11  12
ATOM     12  C   UNL     1     -45.598 -28.672  -3.427  1.00  0.00     0.000 C 
BRANCH  12  13
ATOM     13  C   UNL     1     -45.435 -27.559  -4.473  1.00  0.00     0.000 C 
BRANCH  13  14
ATOM     14  C   UNL     1     -46.698 -27.429  -5.337  1.00  0.00     0.000 C 
BRANCH  14  15
ATOM     15  C   UNL     1     -46.454 -27.784  -6.814  1.00  0.00     0.000 C 
BRANCH  15  16
ATOM     16  C   UNL     1     -45.146 -28.553  -7.096  1.00  0.00     0.006 C 
BRANCH  16  17
ATOM     17  C   UNL     1     -44.172 -27.831  -8.040  1.00  0.00     0.053 C 
BRANCH  17  18
ATOM     18  C   UNL     1     -43.000 -28.690  -8.400  1.00  0.00     0.041 C 
ATOM     19  O   UNL     1     -43.099 -29.544  -9.320  1.00  0.00    -0.550 OA
ATOM     20  O   UNL     1     -41.789 -28.526  -7.740  1.00  0.00    -0.550 OA
ENDBRANCH  17  18
ENDBRANCH  16  17
ENDBRANCH  15  16
ENDBRANCH  14  15
ENDBRANCH  13  14
ENDBRANCH  12  13
ENDBRANCH  11  12
ENDBRANCH   1  11
TORSDOF 15
ENDMDL
MODEL 8
REMARK VINA RESULT:    -3.139      1.544      2.009
REMARK INTER + INTRA:          -6.642
REMARK INTER:                  -5.888
REMARK INTRA:                  -0.754
REMARK UNBOUND:                -0.751
REMARK SMILES O=C([O-])CCCCCCCCCCCCCCC(=O)[O-]
REMARK SMILES IDX 10 1 9 2 8 3 7 4 6 5 5 6 4 7 2 8 1 9 3 10 11 11 12 12 13 13
REMARK SMILES IDX 14 14 15 15 16 16 17 17 18 18 19 19 20 20
REMARK H PARENT
REMARK Flexibility Score: inf
ROOT
ATOM      1  C   UNL     1     -43.873 -28.230   0.005  1.00  0.00     0.000 C 
ENDROOT
BRANCH   1   2
ATOM      2  C   UNL     1     -44.087 -29.740   0.234  1.00  0.00     0.000 C 
BRANCH   2   3
ATOM      3  C   UNL     1     -45.403 -30.116   0.939  1.00  0.00     0.000 C 
BRANCH   3   4
ATOM      4  C   UNL     1     -45.901 -29.024   1.898  1.00  0.00     0.000 C 
BRANCH   4   5
ATOM      5  C   UNL     1     -45.915 -29.481   3.366  1.00  0.00     0.000 C 
BRANCH   5   6
ATOM      6  C   UNL     1     -46.566 -28.463   4.326  1.00  0.00     0.006 C 
BRANCH   6   7
ATOM      7  C   UNL     1     -45.672 -28.152   5.534  1.00  0.00     0.053 C 
BRANCH   7   8
ATOM      8  C   UNL     1     -45.952 -26.777   6.053  1.00  0.00     0.041 C 
ATOM      9  O   UNL     1     -45.272 -26.308   7.002  1.00  0.00    -0.550 OA
ATOM     10  O   UNL     1     -46.995 -26.032   5.519  1.00  0.00    -0.550 OA
ENDBRANCH   7   8
ENDBRANCH   6   7
ENDBRANCH   5   6
ENDBRANCH   4   5
ENDBRANCH   3   4
ENDBRANCH   2   3
ENDBRANCH   1   2
BRANCH   1  11
ATOM     11  C   UNL     1     -44.361 -27.697  -1.357  1.00  0.00     0.000 C 
BRANCH  11  12
ATOM     12  C   UNL     1     -45.826 -28.027  -1.697  1.00  0.00     0.000 C 
BRANCH  12  13
ATOM     13  C   UNL     1     -46.045 -28.291  -3.194  1.00  0.00     0.000 C 
BRANCH  13  14
ATOM     14  C   UNL     1     -45.685 -29.741  -3.554  1.00  0.00     0.000 C 
BRANCH  14  15
ATOM     15  C   UNL     1     -45.706 -30.006  -5.070  1.00  0.00     0.000 C 
BRANCH  15  16
ATOM     16  C   UNL     1     -45.094 -28.887  -5.939  1.00  0.00     0.006 C 
BRANCH  16  17
ATOM     17  C   UNL     1     -44.561 -29.357  -7.301  1.00  0.00     0.053 C 
BRANCH  17  18
ATOM     18  C   UNL     1     -44.466 -28.231  -8.284  1.00  0.00     0.041 C 
ATOM     19  O   UNL     1     -43.375 -27.624  -8.449  1.00  0.00    -0.550 OA
ATOM     20  O   UNL     1     -45.573 -27.874  -9.042  1.00  0.00    -0.550 OA
ENDBRANCH  17  18
ENDBRANCH  16  17
ENDBRANCH  15  16
ENDBRANCH  14  15
ENDBRANCH  13  14
ENDBRANCH  12  13
ENDBRANCH  11  12
ENDBRANCH   1  11
TORSDOF 15
ENDMDL
MODEL 9
REMARK VINA RESULT:    -3.069      1.464     11.048
REMARK INTER + INTRA:          -6.512
REMARK INTER:                  -5.839
REMARK INTRA:                  -0.673
REMARK UNBOUND:                -0.751
REMARK SMILES O=C([O-])CCCCCCCCCCCCCCC(=O)[O-]
REMARK SMILES IDX 10 1 9 2 8 3 7 4 6 5 5 6 4 7 2 8 1 9 3 10 11 11 12 12 13 13
REMARK SMILES IDX 14 14 15 15 16 16 17 17 18 18 19 19 20 20
REMARK H PARENT
REMARK Flexibility Score: inf
ROOT
ATOM      1  C   UNL     1     -45.557 -28.352  -2.624  1.00  0.00     0.000 C 
ENDROOT
BRANCH   1   2
ATOM      2  C   UNL     1     -46.148 -29.694  -3.103  1.00  0.00     0.000 C 
BRANCH   2   3
ATOM      3  C   UNL     1     -46.414 -29.791  -4.616  1.00  0.00     0.000 C 
BRANCH   3   4
ATOM      4  C   UNL     1     -45.605 -28.770  -5.432  1.00  0.00     0.000 C 
BRANCH   4   5
ATOM      5  C   UNL     1     -45.533 -29.125  -6.927  1.00  0.00     0.000 C 
BRANCH   5   6
ATOM      6  C   UNL     1     -44.302 -29.978  -7.303  1.00  0.00     0.006 C 
BRANCH   6   7
ATOM      7  C   UNL     1     -43.635 -29.494  -8.597  1.00  0.00     0.053 C 
BRANCH   7   8
ATOM      8  C   UNL     1     -42.191 -29.183  -8.359  1.00  0.00     0.041 C 
ATOM      9  O   UNL     1     -41.860 -28.349  -7.477  1.00  0.00    -0.550 OA
ATOM     10  O   UNL     1     -41.214 -29.779  -9.146  1.00  0.00    -0.550 OA
ENDBRANCH   7   8
ENDBRANCH   6   7
ENDBRANCH   5   6
ENDBRANCH   4   5
ENDBRANCH   3   4
ENDBRANCH   2   3
ENDBRANCH   1   2
BRANCH   1  11
ATOM     11  C   UNL     1     -46.029 -27.886  -1.233  1.00  0.00     0.000 C 
BRANCH  11  12
ATOM     12  C   UNL     1     -44.902 -27.505  -0.257  1.00  0.00     0.000 C 
BRANCH  12  13
ATOM     13  C   UNL     1     -45.234 -27.850   1.203  1.00  0.00     0.000 C 
BRANCH  13  14
ATOM     14  C   UNL     1     -45.555 -29.345   1.353  1.00  0.00     0.000 C 
BRANCH  14  15
ATOM     15  C   UNL     1     -45.969 -29.728   2.785  1.00  0.00     0.000 C 
BRANCH  15  16
ATOM     16  C   UNL     1     -46.244 -28.539   3.729  1.00  0.00     0.006 C 
BRANCH  16  17
ATOM     17  C   UNL     1     -45.800 -28.763   5.183  1.00  0.00     0.053 C 
BRANCH  17  18
ATOM     18  C   UNL     1     -45.819 -27.493   5.976  1.00  0.00     0.041 C 
ATOM     19  O   UNL     1     -45.895 -26.381   5.391  1.00  0.00    -0.550 OA
ATOM     20  O   UNL     1     -45.786 -27.540   7.364  1.00  0.00    -0.550 OA
ENDBRANCH  17  18
ENDBRANCH  16  17
ENDBRANCH  15  16
ENDBRANCH  14  15
ENDBRANCH  13  14
ENDBRANCH  12  13
ENDBRANCH  11  12
ENDBRANCH   1  11
TORSDOF 15
ENDMDL
