MODEL 1
REMARK VINA RESULT:    -3.342      0.000      0.000
REMARK INTER + INTRA:          -3.986
REMARK INTER:                  -3.928
REMARK INTRA:                  -0.057
REMARK UNBOUND:                -0.057
REMARK SMILES CCCCC(=O)[O-]
REMARK SMILES IDX 4 1 5 2 6 3 7 4 3 5 2 6 1 7
REMARK H PARENT
REMARK Flexibility Score: inf
ROOT
ATOM      1  C   UNL     1      -9.281  27.531  23.591  1.00  0.00     0.053 C 
ENDROOT
BRANCH   1   2
ATOM      2  C   UNL     1      -9.280  28.988  23.240  1.00  0.00     0.041 C 
ATOM      3  O   UNL     1      -9.737  29.373  22.132  1.00  0.00    -0.550 OA
ATOM      4  O   UNL     1      -8.803  29.923  24.151  1.00  0.00    -0.550 OA
ENDBRANCH   1   2
BRANCH   1   5
ATOM      5  C   UNL     1      -8.346  27.228  24.769  1.00  0.00     0.006 C 
BRANCH   5   6
ATOM      6  C   UNL     1      -7.323  26.133  24.431  1.00  0.00    -0.003 C 
ATOM      7  C   UNL     1      -7.333  25.812  22.940  1.00  0.00     0.004 C 
ENDBRANCH   5   6
ENDBRANCH   1   5
TORSDOF 3
ENDMDL
MODEL 2
REMARK VINA RESULT:    -3.325      1.919      2.772
REMARK INTER + INTRA:          -3.965
REMARK INTER:                  -3.869
REMARK INTRA:                  -0.096
REMARK UNBOUND:                -0.057
REMARK SMILES CCCCC(=O)[O-]
REMARK SMILES IDX 4 1 5 2 6 3 7 4 3 5 2 6 1 7
REMARK H PARENT
REMARK Flexibility Score: inf
ROOT
ATOM      1  C   UNL     1      -8.394  25.790  22.087  1.00  0.00     0.053 C 
ENDROOT
BRANCH   1   2
ATOM      2  C   UNL     1      -8.714  27.064  21.366  1.00  0.00     0.041 C 
ATOM      3  O   UNL     1      -8.877  28.133  22.009  1.00  0.00    -0.550 OA
ATOM      4  O   UNL     1      -8.798  27.075  19.978  1.00  0.00    -0.550 OA
ENDBRANCH   1   2
BRANCH   1   5
ATOM      5  C   UNL     1      -7.073  25.889  22.860  1.00  0.00     0.006 C 
BRANCH   5   6
ATOM      6  C   UNL     1      -7.295  26.086  24.368  1.00  0.00    -0.003 C 
ATOM      7  C   UNL     1      -8.653  25.542  24.800  1.00  0.00     0.004 C 
ENDBRANCH   5   6
ENDBRANCH   1   5
TORSDOF 3
ENDMDL
MODEL 3
REMARK VINA RESULT:    -3.318      0.090      1.228
REMARK INTER + INTRA:          -3.958
REMARK INTER:                  -3.903
REMARK INTRA:                  -0.055
REMARK UNBOUND:                -0.057
REMARK SMILES CCCCC(=O)[O-]
REMARK SMILES IDX 4 1 5 2 6 3 7 4 3 5 2 6 1 7
REMARK H PARENT
REMARK Flexibility Score: inf
ROOT
ATOM      1  C   UNL     1      -9.281  27.505  23.666  1.00  0.00     0.053 C 
ENDROOT
BRANCH   1   2
ATOM      2  C   UNL     1      -9.271  28.950  23.269  1.00  0.00     0.041 C 
ATOM      3  O   UNL     1      -8.809  29.820  24.053  1.00  0.00    -0.550 OA
ATOM      4  O   UNL     1      -9.743  29.331  22.018  1.00  0.00    -0.550 OA
ENDBRANCH   1   2
BRANCH   1   5
ATOM      5  C   UNL     1      -8.285  27.219  24.797  1.00  0.00     0.006 C 
BRANCH   5   6
ATOM      6  C   UNL     1      -7.289  26.108  24.427  1.00  0.00    -0.003 C 
ATOM      7  C   UNL     1      -7.272  25.865  22.920  1.00  0.00     0.004 C 
ENDBRANCH   5   6
ENDBRANCH   1   5
TORSDOF 3
ENDMDL
MODEL 4
REMARK VINA RESULT:    -3.281      1.901      2.528
REMARK INTER + INTRA:          -3.913
REMARK INTER:                  -3.809
REMARK INTRA:                  -0.104
REMARK UNBOUND:                -0.057
REMARK SMILES CCCCC(=O)[O-]
REMARK SMILES IDX 4 1 5 2 6 3 7 4 3 5 2 6 1 7
REMARK H PARENT
REMARK Flexibility Score: inf
ROOT
ATOM      1  C   UNL     1      -8.713  25.812  21.931  1.00  0.00     0.053 C 
ENDROOT
BRANCH   1   2
ATOM      2  C   UNL     1      -8.921  27.122  21.233  1.00  0.00     0.041 C 
ATOM      3  O   UNL     1      -8.902  27.179  19.976  1.00  0.00    -0.550 OA
ATOM      4  O   UNL     1      -9.168  28.273  21.972  1.00  0.00    -0.550 OA
ENDBRANCH   1   2
BRANCH   1   5
ATOM      5  C   UNL     1      -7.306  25.703  22.531  1.00  0.00     0.006 C 
BRANCH   5   6
ATOM      6  C   UNL     1      -7.284  26.054  24.027  1.00  0.00    -0.003 C 
ATOM      7  C   UNL     1      -8.569  25.608  24.716  1.00  0.00     0.004 C 
ENDBRANCH   5   6
ENDBRANCH   1   5
TORSDOF 3
ENDMDL
MODEL 5
REMARK VINA RESULT:    -3.212      2.124      3.133
REMARK INTER + INTRA:          -3.833
REMARK INTER:                  -3.723
REMARK INTRA:                  -0.110
REMARK UNBOUND:                -0.057
REMARK SMILES CCCCC(=O)[O-]
REMARK SMILES IDX 4 1 5 2 6 3 7 4 3 5 2 6 1 7
REMARK H PARENT
REMARK Flexibility Score: inf
ROOT
ATOM      1  C   UNL     1      -7.350  25.645  22.491  1.00  0.00     0.053 C 
ENDROOT
BRANCH   1   2
ATOM      2  C   UNL     1      -8.133  26.198  21.340  1.00  0.00     0.041 C 
ATOM      3  O   UNL     1      -8.525  25.437  20.417  1.00  0.00    -0.550 OA
ATOM      4  O   UNL     1      -8.459  27.548  21.304  1.00  0.00    -0.550 OA
ENDBRANCH   1   2
BRANCH   1   5
ATOM      5  C   UNL     1      -8.189  25.585  23.774  1.00  0.00     0.006 C 
BRANCH   5   6
ATOM      6  C   UNL     1      -7.716  26.602  24.825  1.00  0.00    -0.003 C 
ATOM      7  C   UNL     1      -8.651  27.806  24.885  1.00  0.00     0.004 C 
ENDBRANCH   5   6
ENDBRANCH   1   5
TORSDOF 3
ENDMDL
MODEL 6
REMARK VINA RESULT:    -3.199      1.947      2.761
REMARK INTER + INTRA:          -3.817
REMARK INTER:                  -3.713
REMARK INTRA:                  -0.104
REMARK UNBOUND:                -0.057
REMARK SMILES CCCCC(=O)[O-]
REMARK SMILES IDX 4 1 5 2 6 3 7 4 3 5 2 6 1 7
REMARK H PARENT
REMARK Flexibility Score: inf
ROOT
ATOM      1  C   UNL     1      -8.467  25.874  24.765  1.00  0.00     0.053 C 
ENDROOT
BRANCH   1   2
ATOM      2  C   UNL     1      -8.789  27.139  25.499  1.00  0.00     0.041 C 
ATOM      3  O   UNL     1      -9.190  27.096  26.692  1.00  0.00    -0.550 OA
ATOM      4  O   UNL     1      -8.614  28.369  24.876  1.00  0.00    -0.550 OA
ENDBRANCH   1   2
BRANCH   1   5
ATOM      5  C   UNL     1      -7.167  25.997  23.960  1.00  0.00     0.006 C 
BRANCH   5   6
ATOM      6  C   UNL     1      -7.368  25.653  22.476  1.00  0.00    -0.003 C 
ATOM      7  C   UNL     1      -8.142  26.753  21.756  1.00  0.00     0.004 C 
ENDBRANCH   5   6
ENDBRANCH   1   5
TORSDOF 3
ENDMDL
MODEL 7
REMARK VINA RESULT:    -3.194      1.941      2.630
REMARK INTER + INTRA:          -3.811
REMARK INTER:                  -3.706
REMARK INTRA:                  -0.105
REMARK UNBOUND:                -0.057
REMARK SMILES CCCCC(=O)[O-]
REMARK SMILES IDX 4 1 5 2 6 3 7 4 3 5 2 6 1 7
REMARK H PARENT
REMARK Flexibility Score: inf
ROOT
ATOM      1  C   UNL     1      -8.503  25.943  24.605  1.00  0.00     0.053 C 
ENDROOT
BRANCH   1   2
ATOM      2  C   UNL     1      -8.713  27.204  25.387  1.00  0.00     0.041 C 
ATOM      3  O   UNL     1      -8.483  28.323  24.857  1.00  0.00    -0.550 OA
ATOM      4  O   UNL     1      -9.194  27.143  26.689  1.00  0.00    -0.550 OA
ENDBRANCH   1   2
BRANCH   1   5
ATOM      5  C   UNL     1      -7.186  25.971  23.820  1.00  0.00     0.006 C 
BRANCH   5   6
ATOM      6  C   UNL     1      -7.384  25.614  22.339  1.00  0.00    -0.003 C 
ATOM      7  C   UNL     1      -8.368  26.569  21.670  1.00  0.00     0.004 C 
ENDBRANCH   5   6
ENDBRANCH   1   5
TORSDOF 3
ENDMDL
MODEL 8
REMARK VINA RESULT:    -3.176      3.308      4.113
REMARK INTER + INTRA:          -3.790
REMARK INTER:                  -3.767
REMARK INTRA:                  -0.023
REMARK UNBOUND:                -0.057
REMARK SMILES CCCCC(=O)[O-]
REMARK SMILES IDX 4 1 5 2 6 3 7 4 3 5 2 6 1 7
REMARK H PARENT
REMARK Flexibility Score: inf
ROOT
ATOM      1  C   UNL     1      -7.278  25.628  22.391  1.00  0.00     0.053 C 
ENDROOT
BRANCH   1   2
ATOM      2  C   UNL     1      -8.020  24.667  21.513  1.00  0.00     0.041 C 
ATOM      3  O   UNL     1      -8.237  24.949  20.305  1.00  0.00    -0.550 OA
ATOM      4  O   UNL     1      -8.442  23.444  22.021  1.00  0.00    -0.550 OA
ENDBRANCH   1   2
BRANCH   1   5
ATOM      5  C   UNL     1      -8.230  26.443  23.275  1.00  0.00     0.006 C 
BRANCH   5   6
ATOM      6  C   UNL     1      -7.742  26.527  24.730  1.00  0.00    -0.003 C 
ATOM      7  C   UNL     1      -8.889  26.867  25.677  1.00  0.00     0.004 C 
ENDBRANCH   5   6
ENDBRANCH   1   5
TORSDOF 3
ENDMDL
MODEL 9
REMARK VINA RESULT:    -3.108      2.626      3.176
REMARK INTER + INTRA:          -3.710
REMARK INTER:                  -3.660
REMARK INTRA:                  -0.050
REMARK UNBOUND:                -0.057
REMARK SMILES CCCCC(=O)[O-]
REMARK SMILES IDX 4 1 5 2 6 3 7 4 3 5 2 6 1 7
REMARK H PARENT
REMARK Flexibility Score: inf
ROOT
ATOM      1  C   UNL     1      -8.170  27.122  24.786  1.00  0.00     0.053 C 
ENDROOT
BRANCH   1   2
ATOM      2  C   UNL     1      -9.278  26.697  25.700  1.00  0.00     0.041 C 
ATOM      3  O   UNL     1      -9.343  27.152  26.872  1.00  0.00    -0.550 OA
ATOM      4  O   UNL     1     -10.258  25.822  25.246  1.00  0.00    -0.550 OA
ENDBRANCH   1   2
BRANCH   1   5
ATOM      5  C   UNL     1      -7.487  25.921  24.121  1.00  0.00     0.006 C 
BRANCH   5   6
ATOM      6  C   UNL     1      -7.475  26.034  22.588  1.00  0.00    -0.003 C 
ATOM      7  C   UNL     1      -7.875  24.715  21.935  1.00  0.00     0.004 C 
ENDBRANCH   5   6
ENDBRANCH   1   5
TORSDOF 3
ENDMDL
