MODEL 1
REMARK VINA RESULT:    -6.977      0.000      0.000
REMARK INTER + INTRA:          -8.690
REMARK INTER:                  -8.608
REMARK INTRA:                  -0.082
REMARK UNBOUND:                -0.082
REMARK SMILES O=c1c(O)c(-c2cc(O)c(O)c(O)c2)oc2cc(O)cc(O)c12
REMARK SMILES IDX 5 1 3 2 2 3 1 4 23 5 21 6 20 7 18 8 17 9 16 10 15 11 6 12
REMARK SMILES IDX 7 13 8 14 14 15 10 16 12 17 9 18 11 20 13 22 4 24 22 26
REMARK SMILES IDX 19 28
REMARK H PARENT 9 19 11 21 13 23 4 25 22 27 19 29
REMARK Flexibility Score: inf
ROOT
ATOM      1  C   UNL     1      49.943  76.583  42.375  1.00  0.00     0.180 A 
ATOM      2  C   UNL     1      48.877  76.191  41.546  1.00  0.00     0.208 A 
ATOM      3  C   UNL     1      48.512  74.835  41.502  1.00  0.00     0.238 A 
ATOM      4  O   UNL     1      47.594  74.481  40.717  1.00  0.00    -0.285 OA
ATOM      5  C   UNL     1      49.207  73.892  42.298  1.00  0.00     0.111 A 
ATOM      6  C   UNL     1      48.897  72.500  42.363  1.00  0.00     0.134 A 
ATOM      7  C   UNL     1      49.732  71.640  43.085  1.00  0.00     0.093 A 
ATOM      8  C   UNL     1      50.829  72.130  43.797  1.00  0.00     0.123 A 
ATOM      9  C   UNL     1      51.105  73.495  43.788  1.00  0.00     0.094 A 
ATOM     10  C   UNL     1      50.311  74.374  43.048  1.00  0.00     0.146 A 
ATOM     11  O   UNL     1      50.616  75.666  43.060  1.00  0.00    -0.452 OA
ENDROOT
BRANCH   1  12
ATOM     12  C   UNL     1      50.368  77.997  42.493  1.00  0.00     0.029 A 
ATOM     13  C   UNL     1      50.723  78.751  41.363  1.00  0.00     0.062 A 
ATOM     14  C   UNL     1      51.100  80.094  41.491  1.00  0.00     0.162 A 
ATOM     15  C   UNL     1      50.362  78.615  43.752  1.00  0.00     0.062 A 
ATOM     16  C   UNL     1      51.113  80.700  42.760  1.00  0.00     0.200 A 
ATOM     17  C   UNL     1      50.739  79.955  43.891  1.00  0.00     0.162 A 
BRANCH  14  18
ATOM     18  O   UNL     1      51.455  80.832  40.363  1.00  0.00    -0.504 OA
ATOM     19  H   UNL     1      51.545  80.398  39.451  1.00  0.00     0.293 HD
ENDBRANCH  14  18
BRANCH  16  20
ATOM     20  O   UNL     1      51.490  82.036  42.907  1.00  0.00    -0.502 OA
ATOM     21  H   UNL     1      50.916  82.707  43.403  1.00  0.00     0.293 HD
ENDBRANCH  16  20
BRANCH  17  22
ATOM     22  O   UNL     1      50.735  80.529  45.162  1.00  0.00    -0.504 OA
ATOM     23  H   UNL     1      49.964  81.096  45.495  1.00  0.00     0.293 HD
ENDBRANCH  17  22
ENDBRANCH   1  12
BRANCH   2  24
ATOM     24  O   UNL     1      48.220  77.134  40.751  1.00  0.00    -0.502 OA
ATOM     25  H   UNL     1      47.913  76.931  39.808  1.00  0.00     0.293 HD
ENDBRANCH   2  24
BRANCH   6  26
ATOM     26  O   UNL     1      47.772  71.923  41.764  1.00  0.00    -0.507 OA
ATOM     27  H   UNL     1      46.852  71.895  42.177  1.00  0.00     0.293 HD
ENDBRANCH   6  26
BRANCH   8  28
ATOM     28  O   UNL     1      51.646  71.268  44.525  1.00  0.00    -0.508 OA
ATOM     29  H   UNL     1      52.610  71.501  44.734  1.00  0.00     0.293 HD
ENDBRANCH   8  28
TORSDOF 7
ENDMDL
MODEL 2
REMARK VINA RESULT:    -6.496      1.714      7.408
REMARK INTER + INTRA:          -8.097
REMARK INTER:                  -8.406
REMARK INTRA:                   0.309
REMARK UNBOUND:                -0.082
REMARK SMILES O=c1c(O)c(-c2cc(O)c(O)c(O)c2)oc2cc(O)cc(O)c12
REMARK SMILES IDX 5 1 3 2 2 3 1 4 23 5 21 6 20 7 18 8 17 9 16 10 15 11 6 12
REMARK SMILES IDX 7 13 8 14 14 15 10 16 12 17 9 18 11 20 13 22 4 24 22 26
REMARK SMILES IDX 19 28
REMARK H PARENT 9 19 11 21 13 23 4 25 22 27 19 29
REMARK Flexibility Score: inf
ROOT
ATOM      1  C   UNL     1      50.410  76.575  42.881  1.00  0.00     0.180 A 
ATOM      2  C   UNL     1      51.127  76.749  44.078  1.00  0.00     0.208 A 
ATOM      3  C   UNL     1      51.768  77.976  44.314  1.00  0.00     0.238 A 
ATOM      4  O   UNL     1      52.455  78.107  45.362  1.00  0.00    -0.285 OA
ATOM      5  C   UNL     1      51.671  79.018  43.360  1.00  0.00     0.111 A 
ATOM      6  C   UNL     1      52.247  80.315  43.514  1.00  0.00     0.134 A 
ATOM      7  C   UNL     1      52.197  81.223  42.451  1.00  0.00     0.093 A 
ATOM      8  C   UNL     1      51.536  80.906  41.262  1.00  0.00     0.123 A 
ATOM      9  C   UNL     1      50.920  79.664  41.124  1.00  0.00     0.094 A 
ATOM     10  C   UNL     1      50.984  78.723  42.154  1.00  0.00     0.146 A 
ATOM     11  O   UNL     1      50.391  77.548  41.978  1.00  0.00    -0.452 OA
ENDROOT
BRANCH   1  12
ATOM     12  C   UNL     1      49.687  75.320  42.572  1.00  0.00     0.029 A 
ATOM     13  C   UNL     1      49.299  74.431  43.588  1.00  0.00     0.062 A 
ATOM     14  C   UNL     1      48.595  73.259  43.279  1.00  0.00     0.162 A 
ATOM     15  C   UNL     1      49.329  75.039  41.245  1.00  0.00     0.062 A 
ATOM     16  C   UNL     1      48.260  72.974  41.944  1.00  0.00     0.200 A 
ATOM     17  C   UNL     1      48.628  73.871  40.927  1.00  0.00     0.162 A 
BRANCH  14  18
ATOM     18  O   UNL     1      48.221  72.380  44.295  1.00  0.00    -0.504 OA
ATOM     19  H   UNL     1      48.837  71.640  44.611  1.00  0.00     0.293 HD
ENDBRANCH  14  18
BRANCH  16  20
ATOM     20  O   UNL     1      47.564  71.809  41.618  1.00  0.00    -0.502 OA
ATOM     21  H   UNL     1      47.004  71.733  40.777  1.00  0.00     0.293 HD
ENDBRANCH  16  20
BRANCH  17  22
ATOM     22  O   UNL     1      48.304  73.620  39.594  1.00  0.00    -0.504 OA
ATOM     23  H   UNL     1      47.777  72.802  39.312  1.00  0.00     0.293 HD
ENDBRANCH  17  22
ENDBRANCH   1  12
BRANCH   2  24
ATOM     24  O   UNL     1      51.229  75.700  44.995  1.00  0.00    -0.502 OA
ATOM     25  H   UNL     1      51.920  75.691  45.736  1.00  0.00     0.293 HD
ENDBRANCH   2  24
BRANCH   6  26
ATOM     26  O   UNL     1      52.849  80.766  44.693  1.00  0.00    -0.507 OA
ATOM     27  H   UNL     1      53.045  80.188  45.496  1.00  0.00     0.293 HD
ENDBRANCH   6  26
BRANCH   8  28
ATOM     28  O   UNL     1      51.479  81.821  40.214  1.00  0.00    -0.508 OA
ATOM     29  H   UNL     1      51.780  81.575  39.277  1.00  0.00     0.293 HD
ENDBRANCH   8  28
TORSDOF 7
ENDMDL
MODEL 3
REMARK VINA RESULT:    -6.484      1.163      2.865
REMARK INTER + INTRA:          -8.082
REMARK INTER:                  -7.963
REMARK INTRA:                  -0.119
REMARK UNBOUND:                -0.082
REMARK SMILES O=c1c(O)c(-c2cc(O)c(O)c(O)c2)oc2cc(O)cc(O)c12
REMARK SMILES IDX 5 1 3 2 2 3 1 4 23 5 21 6 20 7 18 8 17 9 16 10 15 11 6 12
REMARK SMILES IDX 7 13 8 14 14 15 10 16 12 17 9 18 11 20 13 22 4 24 22 26
REMARK SMILES IDX 19 28
REMARK H PARENT 9 19 11 21 13 23 4 25 22 27 19 29
REMARK Flexibility Score: inf
ROOT
ATOM      1  C   UNL     1      50.117  76.592  42.538  1.00  0.00     0.180 A 
ATOM      2  C   UNL     1      50.837  75.613  43.246  1.00  0.00     0.208 A 
ATOM      3  C   UNL     1      50.447  74.268  43.135  1.00  0.00     0.238 A 
ATOM      4  O   UNL     1      51.060  73.403  43.814  1.00  0.00    -0.285 OA
ATOM      5  C   UNL     1      49.353  73.918  42.307  1.00  0.00     0.111 A 
ATOM      6  C   UNL     1      48.896  72.583  42.088  1.00  0.00     0.134 A 
ATOM      7  C   UNL     1      47.726  72.366  41.352  1.00  0.00     0.093 A 
ATOM      8  C   UNL     1      47.032  73.429  40.771  1.00  0.00     0.123 A 
ATOM      9  C   UNL     1      47.503  74.730  40.929  1.00  0.00     0.094 A 
ATOM     10  C   UNL     1      48.648  74.983  41.689  1.00  0.00     0.146 A 
ATOM     11  O   UNL     1      49.057  76.239  41.821  1.00  0.00    -0.452 OA
ENDROOT
BRANCH   1  12
ATOM     12  C   UNL     1      50.484  78.026  42.585  1.00  0.00     0.029 A 
ATOM     13  C   UNL     1      50.793  78.741  41.417  1.00  0.00     0.062 A 
ATOM     14  C   UNL     1      51.115  80.103  41.478  1.00  0.00     0.162 A 
ATOM     15  C   UNL     1      50.467  78.702  43.815  1.00  0.00     0.062 A 
ATOM     16  C   UNL     1      51.118  80.768  42.717  1.00  0.00     0.200 A 
ATOM     17  C   UNL     1      50.790  80.061  43.887  1.00  0.00     0.162 A 
BRANCH  14  18
ATOM     18  O   UNL     1      51.426  80.802  40.312  1.00  0.00    -0.504 OA
ATOM     19  H   UNL     1      52.383  80.901  39.992  1.00  0.00     0.293 HD
ENDBRANCH  14  18
BRANCH  16  20
ATOM     20  O   UNL     1      51.441  82.123  42.798  1.00  0.00    -0.502 OA
ATOM     21  H   UNL     1      51.710  82.663  41.984  1.00  0.00     0.293 HD
ENDBRANCH  16  20
BRANCH  17  22
ATOM     22  O   UNL     1      50.776  80.693  45.130  1.00  0.00    -0.504 OA
ATOM     23  H   UNL     1      51.536  80.596  45.793  1.00  0.00     0.293 HD
ENDBRANCH  17  22
ENDBRANCH   1  12
BRANCH   2  24
ATOM     24  O   UNL     1      51.898  75.984  44.076  1.00  0.00    -0.502 OA
ATOM     25  H   UNL     1      51.866  76.807  44.665  1.00  0.00     0.293 HD
ENDBRANCH   2  24
BRANCH   6  26
ATOM     26  O   UNL     1      49.567  71.445  42.546  1.00  0.00    -0.507 OA
ATOM     27  H   UNL     1      50.427  71.088  42.156  1.00  0.00     0.293 HD
ENDBRANCH   6  26
BRANCH   8  28
ATOM     28  O   UNL     1      45.876  73.203  40.027  1.00  0.00    -0.508 OA
ATOM     29  H   UNL     1      45.431  73.945  39.500  1.00  0.00     0.293 HD
ENDBRANCH   8  28
TORSDOF 7
ENDMDL
MODEL 4
REMARK VINA RESULT:    -6.357      2.152      7.166
REMARK INTER + INTRA:          -7.925
REMARK INTER:                  -7.569
REMARK INTRA:                  -0.356
REMARK UNBOUND:                -0.082
REMARK SMILES O=c1c(O)c(-c2cc(O)c(O)c(O)c2)oc2cc(O)cc(O)c12
REMARK SMILES IDX 5 1 3 2 2 3 1 4 23 5 21 6 20 7 18 8 17 9 16 10 15 11 6 12
REMARK SMILES IDX 7 13 8 14 14 15 10 16 12 17 9 18 11 20 13 22 4 24 22 26
REMARK SMILES IDX 19 28
REMARK H PARENT 9 19 11 21 13 23 4 25 22 27 19 29
REMARK Flexibility Score: inf
ROOT
ATOM      1  C   UNL     1      51.010  77.429  43.355  1.00  0.00     0.180 A 
ATOM      2  C   UNL     1      50.392  77.926  42.194  1.00  0.00     0.208 A 
ATOM      3  C   UNL     1      50.740  79.207  41.734  1.00  0.00     0.238 A 
ATOM      4  O   UNL     1      50.144  79.670  40.726  1.00  0.00    -0.285 OA
ATOM      5  C   UNL     1      51.712  79.966  42.430  1.00  0.00     0.111 A 
ATOM      6  C   UNL     1      52.170  81.257  42.030  1.00  0.00     0.134 A 
ATOM      7  C   UNL     1      53.039  81.970  42.865  1.00  0.00     0.093 A 
ATOM      8  C   UNL     1      53.517  81.412  44.053  1.00  0.00     0.123 A 
ATOM      9  C   UNL     1      53.121  80.129  44.421  1.00  0.00     0.094 A 
ATOM     10  C   UNL     1      52.227  79.406  43.628  1.00  0.00     0.146 A 
ATOM     11  O   UNL     1      51.869  78.190  44.021  1.00  0.00    -0.452 OA
ENDROOT
BRANCH   1  12
ATOM     12  C   UNL     1      50.713  76.078  43.887  1.00  0.00     0.029 A 
ATOM     13  C   UNL     1      49.651  75.861  44.780  1.00  0.00     0.062 A 
ATOM     14  C   UNL     1      49.371  74.572  45.254  1.00  0.00     0.162 A 
ATOM     15  C   UNL     1      51.471  74.983  43.446  1.00  0.00     0.062 A 
ATOM     16  C   UNL     1      50.149  73.483  44.825  1.00  0.00     0.200 A 
ATOM     17  C   UNL     1      51.199  73.693  43.916  1.00  0.00     0.162 A 
BRANCH  14  18
ATOM     18  O   UNL     1      48.318  74.369  46.145  1.00  0.00    -0.504 OA
ATOM     19  H   UNL     1      47.430  74.846  46.036  1.00  0.00     0.293 HD
ENDBRANCH  14  18
BRANCH  16  20
ATOM     20  O   UNL     1      49.887  72.194  45.290  1.00  0.00    -0.502 OA
ATOM     21  H   UNL     1      49.146  71.620  44.904  1.00  0.00     0.293 HD
ENDBRANCH  16  20
BRANCH  17  22
ATOM     22  O   UNL     1      51.985  72.632  43.465  1.00  0.00    -0.504 OA
ATOM     23  H   UNL     1      51.711  72.053  42.680  1.00  0.00     0.293 HD
ENDBRANCH  17  22
ENDBRANCH   1  12
BRANCH   2  24
ATOM     24  O   UNL     1      49.419  77.170  41.536  1.00  0.00    -0.502 OA
ATOM     25  H   UNL     1      48.525  77.557  41.257  1.00  0.00     0.293 HD
ENDBRANCH   2  24
BRANCH   6  26
ATOM     26  O   UNL     1      51.827  81.867  40.820  1.00  0.00    -0.507 OA
ATOM     27  H   UNL     1      50.992  81.666  40.291  1.00  0.00     0.293 HD
ENDBRANCH   6  26
BRANCH   8  28
ATOM     28  O   UNL     1      54.393  82.123  44.870  1.00  0.00    -0.508 OA
ATOM     29  H   UNL     1      54.527  81.876  45.845  1.00  0.00     0.293 HD
ENDBRANCH   8  28
TORSDOF 7
ENDMDL
MODEL 5
REMARK VINA RESULT:    -6.198      1.321      6.831
REMARK INTER + INTRA:          -7.729
REMARK INTER:                  -8.101
REMARK INTRA:                   0.371
REMARK UNBOUND:                -0.082
REMARK SMILES O=c1c(O)c(-c2cc(O)c(O)c(O)c2)oc2cc(O)cc(O)c12
REMARK SMILES IDX 5 1 3 2 2 3 1 4 23 5 21 6 20 7 18 8 17 9 16 10 15 11 6 12
REMARK SMILES IDX 7 13 8 14 14 15 10 16 12 17 9 18 11 20 13 22 4 24 22 26
REMARK SMILES IDX 19 28
REMARK H PARENT 9 19 11 21 13 23 4 25 22 27 19 29
REMARK Flexibility Score: inf
ROOT
ATOM      1  C   UNL     1      50.249  75.843  42.706  1.00  0.00     0.180 A 
ATOM      2  C   UNL     1      49.718  76.659  41.691  1.00  0.00     0.208 A 
ATOM      3  C   UNL     1      50.063  78.020  41.661  1.00  0.00     0.238 A 
ATOM      4  O   UNL     1      49.541  78.757  40.784  1.00  0.00    -0.285 OA
ATOM      5  C   UNL     1      50.946  78.545  42.636  1.00  0.00     0.111 A 
ATOM      6  C   UNL     1      51.396  79.899  42.678  1.00  0.00     0.134 A 
ATOM      7  C   UNL     1      52.166  80.337  43.760  1.00  0.00     0.093 A 
ATOM      8  C   UNL     1      52.558  79.455  44.770  1.00  0.00     0.123 A 
ATOM      9  C   UNL     1      52.174  78.118  44.707  1.00  0.00     0.094 A 
ATOM     10  C   UNL     1      51.375  77.658  43.658  1.00  0.00     0.146 A 
ATOM     11  O   UNL     1      51.024  76.378  43.642  1.00  0.00    -0.452 OA
ENDROOT
BRANCH   1  12
ATOM     12  C   UNL     1      49.952  74.395  42.787  1.00  0.00     0.029 A 
ATOM     13  C   UNL     1      48.854  73.834  42.114  1.00  0.00     0.062 A 
ATOM     14  C   UNL     1      48.602  72.458  42.183  1.00  0.00     0.162 A 
ATOM     15  C   UNL     1      50.815  73.553  43.504  1.00  0.00     0.062 A 
ATOM     16  C   UNL     1      49.460  71.624  42.922  1.00  0.00     0.200 A 
ATOM     17  C   UNL     1      50.571  72.178  43.581  1.00  0.00     0.162 A 
BRANCH  14  18
ATOM     18  O   UNL     1      47.506  71.913  41.515  1.00  0.00    -0.504 OA
ATOM     19  H   UNL     1      47.319  70.917  41.526  1.00  0.00     0.293 HD
ENDBRANCH  14  18
BRANCH  16  20
ATOM     20  O   UNL     1      49.221  70.252  43.006  1.00  0.00    -0.502 OA
ATOM     21  H   UNL     1      48.441  69.810  42.534  1.00  0.00     0.293 HD
ENDBRANCH  16  20
BRANCH  17  22
ATOM     22  O   UNL     1      51.445  71.377  44.316  1.00  0.00    -0.504 OA
ATOM     23  H   UNL     1      52.077  70.721  43.873  1.00  0.00     0.293 HD
ENDBRANCH  17  22
ENDBRANCH   1  12
BRANCH   2  24
ATOM     24  O   UNL     1      48.829  76.126  40.753  1.00  0.00    -0.502 OA
ATOM     25  H   UNL     1      49.006  75.252  40.273  1.00  0.00     0.293 HD
ENDBRANCH   2  24
BRANCH   6  26
ATOM     26  O   UNL     1      51.138  80.837  41.673  1.00  0.00    -0.507 OA
ATOM     27  H   UNL     1      50.863  80.609  40.730  1.00  0.00     0.293 HD
ENDBRANCH   6  26
BRANCH   8  28
ATOM     28  O   UNL     1      53.338  79.897  45.837  1.00  0.00    -0.508 OA
ATOM     29  H   UNL     1      52.961  80.512  46.550  1.00  0.00     0.293 HD
ENDBRANCH   8  28
TORSDOF 7
ENDMDL
MODEL 6
REMARK VINA RESULT:    -6.118      1.886      6.948
REMARK INTER + INTRA:          -7.631
REMARK INTER:                  -7.324
REMARK INTRA:                  -0.307
REMARK UNBOUND:                -0.082
REMARK SMILES O=c1c(O)c(-c2cc(O)c(O)c(O)c2)oc2cc(O)cc(O)c12
REMARK SMILES IDX 5 1 3 2 2 3 1 4 23 5 21 6 20 7 18 8 17 9 16 10 15 11 6 12
REMARK SMILES IDX 7 13 8 14 14 15 10 16 12 17 9 18 11 20 13 22 4 24 22 26
REMARK SMILES IDX 19 28
REMARK H PARENT 9 19 11 21 13 23 4 25 22 27 19 29
REMARK Flexibility Score: inf
ROOT
ATOM      1  C   UNL     1      49.957  76.942  43.153  1.00  0.00     0.180 A 
ATOM      2  C   UNL     1      49.093  78.044  43.030  1.00  0.00     0.208 A 
ATOM      3  C   UNL     1      49.573  79.324  43.351  1.00  0.00     0.238 A 
ATOM      4  O   UNL     1      48.779  80.300  43.293  1.00  0.00    -0.285 OA
ATOM      5  C   UNL     1      50.914  79.489  43.775  1.00  0.00     0.111 A 
ATOM      6  C   UNL     1      51.518  80.744  44.086  1.00  0.00     0.134 A 
ATOM      7  C   UNL     1      52.812  80.774  44.619  1.00  0.00     0.093 A 
ATOM      8  C   UNL     1      53.548  79.600  44.790  1.00  0.00     0.123 A 
ATOM      9  C   UNL     1      52.989  78.375  44.433  1.00  0.00     0.094 A 
ATOM     10  C   UNL     1      51.687  78.309  43.933  1.00  0.00     0.146 A 
ATOM     11  O   UNL     1      51.189  77.120  43.614  1.00  0.00    -0.452 OA
ENDROOT
BRANCH   1  12
ATOM     12  C   UNL     1      49.531  75.566  42.809  1.00  0.00     0.029 A 
ATOM     13  C   UNL     1      49.182  74.638  43.804  1.00  0.00     0.062 A 
ATOM     14  C   UNL     1      48.758  73.347  43.458  1.00  0.00     0.162 A 
ATOM     15  C   UNL     1      49.417  75.196  41.460  1.00  0.00     0.062 A 
ATOM     16  C   UNL     1      48.668  72.978  42.105  1.00  0.00     0.200 A 
ATOM     17  C   UNL     1      48.996  73.910  41.106  1.00  0.00     0.162 A 
BRANCH  14  18
ATOM     18  O   UNL     1      48.420  72.432  44.455  1.00  0.00    -0.504 OA
ATOM     19  H   UNL     1      49.070  71.718  44.763  1.00  0.00     0.293 HD
ENDBRANCH  14  18
BRANCH  16  20
ATOM     20  O   UNL     1      48.252  71.696  41.743  1.00  0.00    -0.502 OA
ATOM     21  H   UNL     1      48.673  70.862  42.133  1.00  0.00     0.293 HD
ENDBRANCH  16  20
BRANCH  17  22
ATOM     22  O   UNL     1      48.910  73.577  39.754  1.00  0.00    -0.504 OA
ATOM     23  H   UNL     1      48.067  73.189  39.347  1.00  0.00     0.293 HD
ENDBRANCH  17  22
ENDBRANCH   1  12
BRANCH   2  24
ATOM     24  O   UNL     1      47.766  77.856  42.633  1.00  0.00    -0.502 OA
ATOM     25  H   UNL     1      47.117  78.626  42.522  1.00  0.00     0.293 HD
ENDBRANCH   2  24
BRANCH   6  26
ATOM     26  O   UNL     1      50.904  81.981  43.866  1.00  0.00    -0.507 OA
ATOM     27  H   UNL     1      51.373  82.801  43.515  1.00  0.00     0.293 HD
ENDBRANCH   6  26
BRANCH   8  28
ATOM     28  O   UNL     1      54.841  79.640  45.306  1.00  0.00    -0.508 OA
ATOM     29  H   UNL     1      55.093  79.130  46.146  1.00  0.00     0.293 HD
ENDBRANCH   8  28
TORSDOF 7
ENDMDL
MODEL 7
REMARK VINA RESULT:    -6.093      2.144      3.395
REMARK INTER + INTRA:          -7.599
REMARK INTER:                  -7.282
REMARK INTRA:                  -0.317
REMARK UNBOUND:                -0.082
REMARK SMILES O=c1c(O)c(-c2cc(O)c(O)c(O)c2)oc2cc(O)cc(O)c12
REMARK SMILES IDX 5 1 3 2 2 3 1 4 23 5 21 6 20 7 18 8 17 9 16 10 15 11 6 12
REMARK SMILES IDX 7 13 8 14 14 15 10 16 12 17 9 18 11 20 13 22 4 24 22 26
REMARK SMILES IDX 19 28
REMARK H PARENT 9 19 11 21 13 23 4 25 22 27 19 29
REMARK Flexibility Score: inf
ROOT
ATOM      1  C   UNL     1      50.746  76.906  43.824  1.00  0.00     0.180 A 
ATOM      2  C   UNL     1      50.182  76.199  44.902  1.00  0.00     0.208 A 
ATOM      3  C   UNL     1      49.472  75.016  44.642  1.00  0.00     0.238 A 
ATOM      4  O   UNL     1      48.923  74.417  45.603  1.00  0.00    -0.285 OA
ATOM      5  C   UNL     1      49.349  74.545  43.312  1.00  0.00     0.111 A 
ATOM      6  C   UNL     1      48.687  73.337  42.937  1.00  0.00     0.134 A 
ATOM      7  C   UNL     1      48.514  73.037  41.582  1.00  0.00     0.093 A 
ATOM      8  C   UNL     1      49.036  73.867  40.587  1.00  0.00     0.123 A 
ATOM      9  C   UNL     1      49.735  75.017  40.944  1.00  0.00     0.094 A 
ATOM     10  C   UNL     1      49.893  75.363  42.288  1.00  0.00     0.146 A 
ATOM     11  O   UNL     1      50.558  76.473  42.583  1.00  0.00    -0.452 OA
ENDROOT
BRANCH   1  12
ATOM     12  C   UNL     1      51.529  78.147  44.022  1.00  0.00     0.029 A 
ATOM     13  C   UNL     1      52.843  78.112  44.516  1.00  0.00     0.062 A 
ATOM     14  C   UNL     1      53.577  79.296  44.674  1.00  0.00     0.162 A 
ATOM     15  C   UNL     1      50.970  79.380  43.654  1.00  0.00     0.062 A 
ATOM     16  C   UNL     1      53.002  80.530  44.324  1.00  0.00     0.200 A 
ATOM     17  C   UNL     1      51.695  80.567  43.810  1.00  0.00     0.162 A 
BRANCH  14  18
ATOM     18  O   UNL     1      54.879  79.250  45.172  1.00  0.00    -0.504 OA
ATOM     19  H   UNL     1      55.337  78.370  45.382  1.00  0.00     0.293 HD
ENDBRANCH  14  18
BRANCH  16  20
ATOM     20  O   UNL     1      53.716  81.718  44.479  1.00  0.00    -0.502 OA
ATOM     21  H   UNL     1      53.419  82.587  44.051  1.00  0.00     0.293 HD
ENDBRANCH  16  20
BRANCH  17  22
ATOM     22  O   UNL     1      51.098  81.775  43.446  1.00  0.00    -0.504 OA
ATOM     23  H   UNL     1      50.105  81.940  43.557  1.00  0.00     0.293 HD
ENDBRANCH  17  22
ENDBRANCH   1  12
BRANCH   2  24
ATOM     24  O   UNL     1      50.296  76.694  46.204  1.00  0.00    -0.502 OA
ATOM     25  H   UNL     1      50.774  77.562  46.416  1.00  0.00     0.293 HD
ENDBRANCH   2  24
BRANCH   6  26
ATOM     26  O   UNL     1      48.210  72.393  43.852  1.00  0.00    -0.507 OA
ATOM     27  H   UNL     1      48.705  72.091  44.678  1.00  0.00     0.293 HD
ENDBRANCH   6  26
BRANCH   8  28
ATOM     28  O   UNL     1      48.872  73.553  39.240  1.00  0.00    -0.508 OA
ATOM     29  H   UNL     1      47.981  73.674  38.772  1.00  0.00     0.293 HD
ENDBRANCH   8  28
TORSDOF 7
ENDMDL
MODEL 8
REMARK VINA RESULT:    -6.053      2.322      7.258
REMARK INTER + INTRA:          -7.550
REMARK INTER:                  -7.240
REMARK INTRA:                  -0.310
REMARK UNBOUND:                -0.082
REMARK SMILES O=c1c(O)c(-c2cc(O)c(O)c(O)c2)oc2cc(O)cc(O)c12
REMARK SMILES IDX 5 1 3 2 2 3 1 4 23 5 21 6 20 7 18 8 17 9 16 10 15 11 6 12
REMARK SMILES IDX 7 13 8 14 14 15 10 16 12 17 9 18 11 20 13 22 4 24 22 26
REMARK SMILES IDX 19 28
REMARK H PARENT 9 19 11 21 13 23 4 25 22 27 19 29
REMARK Flexibility Score: inf
ROOT
ATOM      1  C   UNL     1      49.846  76.628  43.668  1.00  0.00     0.180 A 
ATOM      2  C   UNL     1      51.209  76.783  43.977  1.00  0.00     0.208 A 
ATOM      3  C   UNL     1      51.652  78.006  44.507  1.00  0.00     0.238 A 
ATOM      4  O   UNL     1      52.881  78.158  44.730  1.00  0.00    -0.285 OA
ATOM      5  C   UNL     1      50.725  79.052  44.736  1.00  0.00     0.111 A 
ATOM      6  C   UNL     1      51.055  80.318  45.306  1.00  0.00     0.134 A 
ATOM      7  C   UNL     1      50.083  81.323  45.367  1.00  0.00     0.093 A 
ATOM      8  C   UNL     1      48.775  81.087  44.938  1.00  0.00     0.123 A 
ATOM      9  C   UNL     1      48.428  79.835  44.435  1.00  0.00     0.094 A 
ATOM     10  C   UNL     1      49.385  78.823  44.328  1.00  0.00     0.146 A 
ATOM     11  O   UNL     1      49.013  77.649  43.834  1.00  0.00    -0.452 OA
ENDROOT
BRANCH   1  12
ATOM     12  C   UNL     1      49.300  75.360  43.130  1.00  0.00     0.029 A 
ATOM     13  C   UNL     1      49.012  75.209  41.764  1.00  0.00     0.062 A 
ATOM     14  C   UNL     1      48.519  73.994  41.270  1.00  0.00     0.162 A 
ATOM     15  C   UNL     1      49.122  74.267  43.991  1.00  0.00     0.062 A 
ATOM     16  C   UNL     1      48.321  72.910  42.143  1.00  0.00     0.200 A 
ATOM     17  C   UNL     1      48.628  73.051  43.507  1.00  0.00     0.162 A 
BRANCH  14  18
ATOM     18  O   UNL     1      48.230  73.857  39.912  1.00  0.00    -0.504 OA
ATOM     19  H   UNL     1      48.345  74.628  39.265  1.00  0.00     0.293 HD
ENDBRANCH  14  18
BRANCH  16  20
ATOM     20  O   UNL     1      47.826  71.695  41.669  1.00  0.00    -0.502 OA
ATOM     21  H   UNL     1      47.230  71.636  40.853  1.00  0.00     0.293 HD
ENDBRANCH  16  20
BRANCH  17  22
ATOM     22  O   UNL     1      48.450  71.992  44.398  1.00  0.00    -0.504 OA
ATOM     23  H   UNL     1      47.728  71.293  44.268  1.00  0.00     0.293 HD
ENDBRANCH  17  22
ENDBRANCH   1  12
BRANCH   2  24
ATOM     24  O   UNL     1      52.110  75.746  43.721  1.00  0.00    -0.502 OA
ATOM     25  H   UNL     1      51.820  74.856  43.335  1.00  0.00     0.293 HD
ENDBRANCH   2  24
BRANCH   6  26
ATOM     26  O   UNL     1      52.307  80.626  45.848  1.00  0.00    -0.507 OA
ATOM     27  H   UNL     1      52.491  81.402  46.466  1.00  0.00     0.293 HD
ENDBRANCH   6  26
BRANCH   8  28
ATOM     28  O   UNL     1      47.810  82.088  45.016  1.00  0.00    -0.508 OA
ATOM     29  H   UNL     1      48.014  83.044  44.747  1.00  0.00     0.293 HD
ENDBRANCH   8  28
TORSDOF 7
ENDMDL
MODEL 9
REMARK VINA RESULT:    -6.018      3.726      9.453
REMARK INTER + INTRA:          -7.508
REMARK INTER:                  -7.218
REMARK INTRA:                  -0.290
REMARK UNBOUND:                -0.082
REMARK SMILES O=c1c(O)c(-c2cc(O)c(O)c(O)c2)oc2cc(O)cc(O)c12
REMARK SMILES IDX 5 1 3 2 2 3 1 4 23 5 21 6 20 7 18 8 17 9 16 10 15 11 6 12
REMARK SMILES IDX 7 13 8 14 14 15 10 16 12 17 9 18 11 20 13 22 4 24 22 26
REMARK SMILES IDX 19 28
REMARK H PARENT 9 19 11 21 13 23 4 25 22 27 19 29
REMARK Flexibility Score: inf
ROOT
ATOM      1  C   UNL     1      49.784  70.021  43.806  1.00  0.00     0.180 A 
ATOM      2  C   UNL     1      49.637  70.497  45.121  1.00  0.00     0.208 A 
ATOM      3  C   UNL     1      49.438  71.872  45.329  1.00  0.00     0.238 A 
ATOM      4  O   UNL     1      49.362  72.300  46.510  1.00  0.00    -0.285 OA
ATOM      5  C   UNL     1      49.374  72.750  44.220  1.00  0.00     0.111 A 
ATOM      6  C   UNL     1      49.137  74.155  44.311  1.00  0.00     0.134 A 
ATOM      7  C   UNL     1      49.223  74.946  43.160  1.00  0.00     0.093 A 
ATOM      8  C   UNL     1      49.473  74.374  41.910  1.00  0.00     0.123 A 
ATOM      9  C   UNL     1      49.647  72.997  41.802  1.00  0.00     0.094 A 
ATOM     10  C   UNL     1      49.603  72.185  42.938  1.00  0.00     0.146 A 
ATOM     11  O   UNL     1      49.783  70.878  42.792  1.00  0.00    -0.452 OA
ENDROOT
BRANCH   1  12
ATOM     12  C   UNL     1      49.971  68.583  43.506  1.00  0.00     0.029 A 
ATOM     13  C   UNL     1      48.936  67.810  42.954  1.00  0.00     0.062 A 
ATOM     14  C   UNL     1      49.139  66.456  42.655  1.00  0.00     0.162 A 
ATOM     15  C   UNL     1      51.224  67.991  43.723  1.00  0.00     0.062 A 
ATOM     16  C   UNL     1      50.391  65.865  42.897  1.00  0.00     0.200 A 
ATOM     17  C   UNL     1      51.435  66.639  43.430  1.00  0.00     0.162 A 
BRANCH  14  18
ATOM     18  O   UNL     1      48.102  65.697  42.112  1.00  0.00    -0.504 OA
ATOM     19  H   UNL     1      47.197  66.104  41.908  1.00  0.00     0.293 HD
ENDBRANCH  14  18
BRANCH  16  20
ATOM     20  O   UNL     1      50.609  64.517  42.609  1.00  0.00    -0.502 OA
ATOM     21  H   UNL     1      51.358  64.209  42.000  1.00  0.00     0.293 HD
ENDBRANCH  16  20
BRANCH  17  22
ATOM     22  O   UNL     1      52.691  66.084  43.675  1.00  0.00    -0.504 OA
ATOM     23  H   UNL     1      53.214  66.284  44.519  1.00  0.00     0.293 HD
ENDBRANCH  17  22
ENDBRANCH   1  12
BRANCH   2  24
ATOM     24  O   UNL     1      49.726  69.616  46.202  1.00  0.00    -0.502 OA
ATOM     25  H   UNL     1      49.718  68.610  46.085  1.00  0.00     0.293 HD
ENDBRANCH   2  24
BRANCH   6  26
ATOM     26  O   UNL     1      48.788  74.812  45.495  1.00  0.00    -0.507 OA
ATOM     27  H   UNL     1      49.447  75.209  46.148  1.00  0.00     0.293 HD
ENDBRANCH   6  26
BRANCH   8  28
ATOM     28  O   UNL     1      49.542  75.167  40.766  1.00  0.00    -0.508 OA
ATOM     29  H   UNL     1      49.851  76.131  40.808  1.00  0.00     0.293 HD
ENDBRANCH   8  28
TORSDOF 7
ENDMDL
