MODEL 1
REMARK VINA RESULT:    -3.566      0.000      0.000
REMARK INTER + INTRA:          -8.512
REMARK INTER:                  -6.276
REMARK INTRA:                  -2.236
REMARK UNBOUND:                -2.236
REMARK SMILES CCCCCCC=CCCCCCCCC(=O)[O-]
REMARK SMILES IDX 10 1 11 2 12 3 13 4 14 5 15 6 16 7 17 8 18 9 9 10 8 11 7 12
REMARK SMILES IDX 6 13 5 14 4 15 3 16 2 17 1 18
REMARK H PARENT
REMARK Flexibility Score: inf
ROOT
ATOM      1  C   UNL     1       2.325 -61.149 -27.209  1.00  0.00     0.004 C 
ENDROOT
BRANCH   1   2
ATOM      2  C   UNL     1       3.518 -61.930 -27.772  1.00  0.00     0.000 C 
BRANCH   2   3
ATOM      3  C   UNL     1       4.781 -61.055 -27.811  1.00  0.00     0.000 C 
BRANCH   3   4
ATOM      4  C   UNL     1       4.552 -59.673 -27.162  1.00  0.00     0.000 C 
BRANCH   4   5
ATOM      5  C   UNL     1       4.960 -58.495 -28.062  1.00  0.00     0.006 C 
BRANCH   5   6
ATOM      6  C   UNL     1       4.664 -58.747 -29.545  1.00  0.00     0.053 C 
BRANCH   6   7
ATOM      7  C   UNL     1       4.299 -57.468 -30.231  1.00  0.00     0.041 C 
ATOM      8  O   UNL     1       3.492 -57.475 -31.198  1.00  0.00    -0.550 OA
ATOM      9  O   UNL     1       4.813 -56.263 -29.771  1.00  0.00    -0.550 OA
ENDBRANCH   6   7
ENDBRANCH   5   6
ENDBRANCH   4   5
ENDBRANCH   3   4
ENDBRANCH   2   3
ENDBRANCH   1   2
BRANCH   1  10
ATOM     10  C   UNL     1       1.144 -61.169 -28.187  1.00  0.00     0.027 C 
BRANCH  10  11
ATOM     11  C   UNL     1       0.939 -59.820 -28.818  1.00  0.00    -0.031 C 
ATOM     12  C   UNL     1       1.111 -58.685 -28.122  1.00  0.00    -0.031 C 
BRANCH  12  13
ATOM     13  C   UNL     1       0.924 -57.336 -28.760  1.00  0.00     0.027 C 
BRANCH  13  14
ATOM     14  C   UNL     1      -0.122 -56.507 -28.000  1.00  0.00     0.004 C 
BRANCH  14  15
ATOM     15  C   UNL     1      -0.467 -57.099 -26.622  1.00  0.00     0.000 C 
BRANCH  15  16
ATOM     16  C   UNL     1      -1.955 -57.447 -26.417  1.00  0.00    -0.000 C 
BRANCH  16  17
ATOM     17  C   UNL     1      -2.280 -58.951 -26.427  1.00  0.00    -0.003 C 
ATOM     18  C   UNL     1      -1.250 -59.786 -25.668  1.00  0.00     0.004 C 
ENDBRANCH  16  17
ENDBRANCH  15  16
ENDBRANCH  14  15
ENDBRANCH  13  14
ENDBRANCH  12  13
ENDBRANCH  10  11
ENDBRANCH   1  10
TORSDOF 13
ENDMDL
MODEL 2
REMARK VINA RESULT:    -3.515      2.547      5.014
REMARK INTER + INTRA:          -8.423
REMARK INTER:                  -6.336
REMARK INTRA:                  -2.087
REMARK UNBOUND:                -2.236
REMARK SMILES CCCCCCC=CCCCCCCCC(=O)[O-]
REMARK SMILES IDX 10 1 11 2 12 3 13 4 14 5 15 6 16 7 17 8 18 9 9 10 8 11 7 12
REMARK SMILES IDX 6 13 5 14 4 15 3 16 2 17 1 18
REMARK H PARENT
REMARK Flexibility Score: inf
ROOT
ATOM      1  C   UNL     1       3.861 -61.189 -27.418  1.00  0.00     0.004 C 
ENDROOT
BRANCH   1   2
ATOM      2  C   UNL     1       2.783 -60.784 -26.405  1.00  0.00     0.000 C 
BRANCH   2   3
ATOM      3  C   UNL     1       1.716 -59.895 -27.061  1.00  0.00     0.000 C 
BRANCH   3   4
ATOM      4  C   UNL     1       0.333 -60.580 -27.104  1.00  0.00     0.000 C 
BRANCH   4   5
ATOM      5  C   UNL     1      -0.760 -59.811 -26.341  1.00  0.00     0.006 C 
BRANCH   5   6
ATOM      6  C   UNL     1      -0.286 -58.440 -25.844  1.00  0.00     0.053 C 
BRANCH   6   7
ATOM      7  C   UNL     1      -0.957 -57.345 -26.612  1.00  0.00     0.041 C 
ATOM      8  O   UNL     1      -0.270 -56.502 -27.247  1.00  0.00    -0.550 OA
ATOM      9  O   UNL     1      -2.344 -57.283 -26.666  1.00  0.00    -0.550 OA
ENDBRANCH   6   7
ENDBRANCH   5   6
ENDBRANCH   4   5
ENDBRANCH   3   4
ENDBRANCH   2   3
ENDBRANCH   1   2
BRANCH   1  10
ATOM     10  C   UNL     1       5.069 -60.247 -27.342  1.00  0.00     0.027 C 
BRANCH  10  11
ATOM     11  C   UNL     1       5.136 -59.353 -28.549  1.00  0.00    -0.031 C 
ATOM     12  C   UNL     1       4.765 -58.065 -28.491  1.00  0.00    -0.031 C 
BRANCH  12  13
ATOM     13  C   UNL     1       4.852 -57.166 -29.694  1.00  0.00     0.027 C 
BRANCH  13  14
ATOM     14  C   UNL     1       3.632 -57.351 -30.608  1.00  0.00     0.004 C 
BRANCH  14  15
ATOM     15  C   UNL     1       2.299 -57.306 -29.841  1.00  0.00     0.000 C 
BRANCH  15  16
ATOM     16  C   UNL     1       1.296 -58.418 -30.211  1.00  0.00    -0.000 C 
BRANCH  16  17
ATOM     17  C   UNL     1       1.813 -59.446 -31.233  1.00  0.00    -0.003 C 
ATOM     18  C   UNL     1       2.119 -60.806 -30.606  1.00  0.00     0.004 C 
ENDBRANCH  16  17
ENDBRANCH  15  16
ENDBRANCH  14  15
ENDBRANCH  13  14
ENDBRANCH  12  13
ENDBRANCH  10  11
ENDBRANCH   1  10
TORSDOF 13
ENDMDL
MODEL 3
REMARK VINA RESULT:    -3.469      2.745      5.399
REMARK INTER + INTRA:          -8.342
REMARK INTER:                  -6.587
REMARK INTRA:                  -1.755
REMARK UNBOUND:                -2.236
REMARK SMILES CCCCCCC=CCCCCCCCC(=O)[O-]
REMARK SMILES IDX 10 1 11 2 12 3 13 4 14 5 15 6 16 7 17 8 18 9 9 10 8 11 7 12
REMARK SMILES IDX 6 13 5 14 4 15 3 16 2 17 1 18
REMARK H PARENT
REMARK Flexibility Score: inf
ROOT
ATOM      1  C   UNL     1       4.964 -58.400 -28.697  1.00  0.00     0.004 C 
ENDROOT
BRANCH   1   2
ATOM      2  C   UNL     1       4.799 -57.868 -30.126  1.00  0.00     0.000 C 
BRANCH   2   3
ATOM      3  C   UNL     1       3.458 -57.136 -30.290  1.00  0.00     0.000 C 
BRANCH   3   4
ATOM      4  C   UNL     1       2.361 -58.053 -30.871  1.00  0.00     0.000 C 
BRANCH   4   5
ATOM      5  C   UNL     1       1.043 -58.015 -30.078  1.00  0.00     0.006 C 
BRANCH   5   6
ATOM      6  C   UNL     1       1.246 -57.656 -28.602  1.00  0.00     0.053 C 
BRANCH   6   7
ATOM      7  C   UNL     1       0.144 -56.763 -28.125  1.00  0.00     0.041 C 
ATOM      8  O   UNL     1      -0.380 -55.929 -28.909  1.00  0.00    -0.550 OA
ATOM      9  O   UNL     1      -0.336 -56.883 -26.827  1.00  0.00    -0.550 OA
ENDBRANCH   6   7
ENDBRANCH   5   6
ENDBRANCH   4   5
ENDBRANCH   3   4
ENDBRANCH   2   3
ENDBRANCH   1   2
BRANCH   1  10
ATOM     10  C   UNL     1       5.146 -59.923 -28.695  1.00  0.00     0.027 C 
BRANCH  10  11
ATOM     11  C   UNL     1       4.581 -60.536 -27.444  1.00  0.00    -0.031 C 
ATOM     12  C   UNL     1       3.323 -60.291 -27.048  1.00  0.00    -0.031 C 
BRANCH  12  13
ATOM     13  C   UNL     1       2.752 -60.920 -25.807  1.00  0.00     0.027 C 
BRANCH  13  14
ATOM     14  C   UNL     1       3.742 -61.919 -25.191  1.00  0.00     0.004 C 
BRANCH  14  15
ATOM     15  C   UNL     1       4.296 -61.452 -23.834  1.00  0.00     0.000 C 
BRANCH  15  16
ATOM     16  C   UNL     1       3.652 -60.167 -23.275  1.00  0.00    -0.000 C 
BRANCH  16  17
ATOM     17  C   UNL     1       4.572 -58.934 -23.255  1.00  0.00    -0.003 C 
ATOM     18  C   UNL     1       5.759 -59.063 -24.209  1.00  0.00     0.004 C 
ENDBRANCH  16  17
ENDBRANCH  15  16
ENDBRANCH  14  15
ENDBRANCH  13  14
ENDBRANCH  12  13
ENDBRANCH  10  11
ENDBRANCH   1  10
TORSDOF 13
ENDMDL
MODEL 4
REMARK VINA RESULT:    -3.461      2.950      5.162
REMARK INTER + INTRA:          -8.327
REMARK INTER:                  -5.940
REMARK INTRA:                  -2.387
REMARK UNBOUND:                -2.236
REMARK SMILES CCCCCCC=CCCCCCCCC(=O)[O-]
REMARK SMILES IDX 10 1 11 2 12 3 13 4 14 5 15 6 16 7 17 8 18 9 9 10 8 11 7 12
REMARK SMILES IDX 6 13 5 14 4 15 3 16 2 17 1 18
REMARK H PARENT
REMARK Flexibility Score: inf
ROOT
ATOM      1  C   UNL     1       4.398 -61.843 -28.676  1.00  0.00     0.004 C 
ENDROOT
BRANCH   1   2
ATOM      2  C   UNL     1       5.158 -60.698 -27.996  1.00  0.00     0.000 C 
BRANCH   2   3
ATOM      3  C   UNL     1       4.233 -59.898 -27.066  1.00  0.00     0.000 C 
BRANCH   3   4
ATOM      4  C   UNL     1       2.771 -60.389 -27.135  1.00  0.00     0.000 C 
BRANCH   4   5
ATOM      5  C   UNL     1       1.802 -59.356 -27.734  1.00  0.00     0.006 C 
BRANCH   5   6
ATOM      6  C   UNL     1       0.351 -59.568 -27.283  1.00  0.00     0.053 C 
BRANCH   6   7
ATOM      7  C   UNL     1      -0.101 -58.430 -26.424  1.00  0.00     0.041 C 
ATOM      8  O   UNL     1      -0.425 -57.331 -26.947  1.00  0.00    -0.550 OA
ATOM      9  O   UNL     1      -0.210 -58.597 -25.050  1.00  0.00    -0.550 OA
ENDBRANCH   6   7
ENDBRANCH   5   6
ENDBRANCH   4   5
ENDBRANCH   3   4
ENDBRANCH   2   3
ENDBRANCH   1   2
BRANCH   1  10
ATOM     10  C   UNL     1       4.810 -61.979 -30.147  1.00  0.00     0.027 C 
BRANCH  10  11
ATOM     11  C   UNL     1       3.674 -61.622 -31.064  1.00  0.00    -0.031 C 
ATOM     12  C   UNL     1       2.449 -61.346 -30.591  1.00  0.00    -0.031 C 
BRANCH  12  13
ATOM     13  C   UNL     1       1.318 -60.970 -31.509  1.00  0.00     0.027 C 
BRANCH  13  14
ATOM     14  C   UNL     1       1.071 -59.454 -31.485  1.00  0.00     0.004 C 
BRANCH  14  15
ATOM     15  C   UNL     1       1.750 -58.721 -32.655  1.00  0.00     0.000 C 
BRANCH  15  16
ATOM     16  C   UNL     1       3.052 -57.979 -32.291  1.00  0.00    -0.000 C 
BRANCH  16  17
ATOM     17  C   UNL     1       3.224 -57.663 -30.795  1.00  0.00    -0.003 C 
ATOM     18  C   UNL     1       4.642 -57.928 -30.290  1.00  0.00     0.004 C 
ENDBRANCH  16  17
ENDBRANCH  15  16
ENDBRANCH  14  15
ENDBRANCH  13  14
ENDBRANCH  12  13
ENDBRANCH  10  11
ENDBRANCH   1  10
TORSDOF 13
ENDMDL
MODEL 5
REMARK VINA RESULT:    -3.379      1.818      3.544
REMARK INTER + INTRA:          -8.183
REMARK INTER:                  -5.890
REMARK INTRA:                  -2.293
REMARK UNBOUND:                -2.236
REMARK SMILES CCCCCCC=CCCCCCCCC(=O)[O-]
REMARK SMILES IDX 10 1 11 2 12 3 13 4 14 5 15 6 16 7 17 8 18 9 9 10 8 11 7 12
REMARK SMILES IDX 6 13 5 14 4 15 3 16 2 17 1 18
REMARK H PARENT
REMARK Flexibility Score: inf
ROOT
ATOM      1  C   UNL     1       5.470 -59.105 -26.569  1.00  0.00     0.004 C 
ENDROOT
BRANCH   1   2
ATOM      2  C   UNL     1       5.596 -60.236 -27.596  1.00  0.00     0.000 C 
BRANCH   2   3
ATOM      3  C   UNL     1       4.861 -59.883 -28.899  1.00  0.00     0.000 C 
BRANCH   3   4
ATOM      4  C   UNL     1       3.612 -60.762 -29.120  1.00  0.00     0.000 C 
BRANCH   4   5
ATOM      5  C   UNL     1       2.344 -59.958 -29.457  1.00  0.00     0.006 C 
BRANCH   5   6
ATOM      6  C   UNL     1       2.132 -58.762 -28.522  1.00  0.00     0.053 C 
BRANCH   6   7
ATOM      7  C   UNL     1       1.593 -57.592 -29.284  1.00  0.00     0.041 C 
ATOM      8  O   UNL     1       0.622 -56.932 -28.829  1.00  0.00    -0.550 OA
ATOM      9  O   UNL     1       2.193 -57.202 -30.474  1.00  0.00    -0.550 OA
ENDBRANCH   6   7
ENDBRANCH   5   6
ENDBRANCH   4   5
ENDBRANCH   3   4
ENDBRANCH   2   3
ENDBRANCH   1   2
BRANCH   1  10
ATOM     10  C   UNL     1       4.968 -59.638 -25.222  1.00  0.00     0.027 C 
BRANCH  10  11
ATOM     11  C   UNL     1       4.011 -60.782 -25.413  1.00  0.00    -0.031 C 
ATOM     12  C   UNL     1       2.683 -60.603 -25.356  1.00  0.00    -0.031 C 
BRANCH  12  13
ATOM     13  C   UNL     1       1.726 -61.745 -25.567  1.00  0.00     0.027 C 
BRANCH  13  14
ATOM     14  C   UNL     1       0.502 -61.295 -26.378  1.00  0.00     0.004 C 
BRANCH  14  15
ATOM     15  C   UNL     1      -0.455 -60.403 -25.570  1.00  0.00     0.000 C 
BRANCH  15  16
ATOM     16  C   UNL     1      -0.789 -59.046 -26.223  1.00  0.00    -0.000 C 
BRANCH  16  17
ATOM     17  C   UNL     1      -0.397 -57.811 -25.394  1.00  0.00    -0.003 C 
ATOM     18  C   UNL     1       0.094 -58.167 -23.992  1.00  0.00     0.004 C 
ENDBRANCH  16  17
ENDBRANCH  15  16
ENDBRANCH  14  15
ENDBRANCH  13  14
ENDBRANCH  12  13
ENDBRANCH  10  11
ENDBRANCH   1  10
TORSDOF 13
ENDMDL
MODEL 6
REMARK VINA RESULT:    -3.371      2.860      5.456
REMARK INTER + INTRA:          -8.170
REMARK INTER:                  -6.114
REMARK INTRA:                  -2.056
REMARK UNBOUND:                -2.236
REMARK SMILES CCCCCCC=CCCCCCCCC(=O)[O-]
REMARK SMILES IDX 10 1 11 2 12 3 13 4 14 5 15 6 16 7 17 8 18 9 9 10 8 11 7 12
REMARK SMILES IDX 6 13 5 14 4 15 3 16 2 17 1 18
REMARK H PARENT
REMARK Flexibility Score: inf
ROOT
ATOM      1  C   UNL     1       2.918 -57.971 -31.375  1.00  0.00     0.004 C 
ENDROOT
BRANCH   1   2
ATOM      2  C   UNL     1       1.649 -58.228 -30.554  1.00  0.00     0.000 C 
BRANCH   2   3
ATOM      3  C   UNL     1       1.357 -59.733 -30.446  1.00  0.00     0.000 C 
BRANCH   3   4
ATOM      4  C   UNL     1       1.205 -60.193 -28.981  1.00  0.00     0.000 C 
BRANCH   4   5
ATOM      5  C   UNL     1       1.113 -59.031 -27.977  1.00  0.00     0.006 C 
BRANCH   5   6
ATOM      6  C   UNL     1       0.431 -59.431 -26.663  1.00  0.00     0.053 C 
BRANCH   6   7
ATOM      7  C   UNL     1      -0.210 -58.240 -26.023  1.00  0.00     0.041 C 
ATOM      8  O   UNL     1      -0.532 -57.242 -26.721  1.00  0.00    -0.550 OA
ATOM      9  O   UNL     1      -0.494 -58.250 -24.664  1.00  0.00    -0.550 OA
ENDBRANCH   6   7
ENDBRANCH   5   6
ENDBRANCH   4   5
ENDBRANCH   3   4
ENDBRANCH   2   3
ENDBRANCH   1   2
BRANCH   1  10
ATOM     10  C   UNL     1       4.023 -57.363 -30.503  1.00  0.00     0.027 C 
BRANCH  10  11
ATOM     11  C   UNL     1       4.742 -58.424 -29.718  1.00  0.00    -0.031 C 
ATOM     12  C   UNL     1       4.704 -58.453 -28.377  1.00  0.00    -0.031 C 
BRANCH  12  13
ATOM     13  C   UNL     1       5.407 -59.528 -27.593  1.00  0.00     0.027 C 
BRANCH  13  14
ATOM     14  C   UNL     1       4.616 -60.843 -27.630  1.00  0.00     0.004 C 
BRANCH  14  15
ATOM     15  C   UNL     1       3.865 -61.125 -26.317  1.00  0.00     0.000 C 
BRANCH  15  16
ATOM     16  C   UNL     1       4.283 -60.241 -25.124  1.00  0.00    -0.000 C 
BRANCH  16  17
ATOM     17  C   UNL     1       3.728 -60.685 -23.760  1.00  0.00    -0.003 C 
ATOM     18  C   UNL     1       2.288 -60.229 -23.526  1.00  0.00     0.004 C 
ENDBRANCH  16  17
ENDBRANCH  15  16
ENDBRANCH  14  15
ENDBRANCH  13  14
ENDBRANCH  12  13
ENDBRANCH  10  11
ENDBRANCH   1  10
TORSDOF 13
ENDMDL
MODEL 7
REMARK VINA RESULT:    -3.348      1.486      2.469
REMARK INTER + INTRA:          -8.129
REMARK INTER:                  -6.338
REMARK INTRA:                  -1.791
REMARK UNBOUND:                -2.236
REMARK SMILES CCCCCCC=CCCCCCCCC(=O)[O-]
REMARK SMILES IDX 10 1 11 2 12 3 13 4 14 5 15 6 16 7 17 8 18 9 9 10 8 11 7 12
REMARK SMILES IDX 6 13 5 14 4 15 3 16 2 17 1 18
REMARK H PARENT
REMARK Flexibility Score: inf
ROOT
ATOM      1  C   UNL     1       1.698 -60.958 -30.107  1.00  0.00     0.004 C 
ENDROOT
BRANCH   1   2
ATOM      2  C   UNL     1       3.058 -60.902 -30.814  1.00  0.00     0.000 C 
BRANCH   2   3
ATOM      3  C   UNL     1       4.122 -61.679 -30.024  1.00  0.00     0.000 C 
BRANCH   3   4
ATOM      4  C   UNL     1       4.957 -60.758 -29.109  1.00  0.00     0.000 C 
BRANCH   4   5
ATOM      5  C   UNL     1       5.152 -59.341 -29.674  1.00  0.00     0.006 C 
BRANCH   5   6
ATOM      6  C   UNL     1       4.771 -58.243 -28.674  1.00  0.00     0.053 C 
BRANCH   6   7
ATOM      7  C   UNL     1       4.542 -56.946 -29.384  1.00  0.00     0.041 C 
ATOM      8  O   UNL     1       3.656 -56.859 -30.275  1.00  0.00    -0.550 OA
ATOM      9  O   UNL     1       5.273 -55.820 -29.028  1.00  0.00    -0.550 OA
ENDBRANCH   6   7
ENDBRANCH   5   6
ENDBRANCH   4   5
ENDBRANCH   3   4
ENDBRANCH   2   3
ENDBRANCH   1   2
BRANCH   1  10
ATOM     10  C   UNL     1       1.381 -59.624 -29.420  1.00  0.00     0.027 C 
BRANCH  10  11
ATOM     11  C   UNL     1       1.042 -59.827 -27.970  1.00  0.00    -0.031 C 
ATOM     12  C   UNL     1       1.987 -60.116 -27.061  1.00  0.00    -0.031 C 
BRANCH  12  13
ATOM     13  C   UNL     1       1.649 -60.301 -25.607  1.00  0.00     0.027 C 
BRANCH  13  14
ATOM     14  C   UNL     1       0.146 -60.102 -25.362  1.00  0.00     0.004 C 
BRANCH  14  15
ATOM     15  C   UNL     1      -0.154 -58.940 -24.400  1.00  0.00     0.000 C 
BRANCH  15  16
ATOM     16  C   UNL     1      -0.467 -57.593 -25.083  1.00  0.00    -0.000 C 
BRANCH  16  17
ATOM     17  C   UNL     1      -1.108 -57.705 -26.478  1.00  0.00    -0.003 C 
ATOM     18  C   UNL     1      -2.578 -57.288 -26.492  1.00  0.00     0.004 C 
ENDBRANCH  16  17
ENDBRANCH  15  16
ENDBRANCH  14  15
ENDBRANCH  13  14
ENDBRANCH  12  13
ENDBRANCH  10  11
ENDBRANCH   1  10
TORSDOF 13
ENDMDL
MODEL 8
REMARK VINA RESULT:    -3.336      2.770      5.458
REMARK INTER + INTRA:          -8.108
REMARK INTER:                  -6.020
REMARK INTRA:                  -2.088
REMARK UNBOUND:                -2.236
REMARK SMILES CCCCCCC=CCCCCCCCC(=O)[O-]
REMARK SMILES IDX 10 1 11 2 12 3 13 4 14 5 15 6 16 7 17 8 18 9 9 10 8 11 7 12
REMARK SMILES IDX 6 13 5 14 4 15 3 16 2 17 1 18
REMARK H PARENT
REMARK Flexibility Score: inf
ROOT
ATOM      1  C   UNL     1       4.296 -61.185 -24.713  1.00  0.00     0.004 C 
ENDROOT
BRANCH   1   2
ATOM      2  C   UNL     1       2.994 -61.698 -25.341  1.00  0.00     0.000 C 
BRANCH   2   3
ATOM      3  C   UNL     1       1.928 -60.593 -25.379  1.00  0.00     0.000 C 
BRANCH   3   4
ATOM      4  C   UNL     1       0.497 -61.167 -25.460  1.00  0.00     0.000 C 
BRANCH   4   5
ATOM      5  C   UNL     1      -0.587 -60.191 -24.969  1.00  0.00     0.006 C 
BRANCH   5   6
ATOM      6  C   UNL     1      -0.970 -59.146 -26.025  1.00  0.00     0.053 C 
BRANCH   6   7
ATOM      7  C   UNL     1      -0.559 -57.778 -25.579  1.00  0.00     0.041 C 
ATOM      8  O   UNL     1      -0.234 -57.573 -24.380  1.00  0.00    -0.550 OA
ATOM      9  O   UNL     1      -0.490 -56.740 -26.498  1.00  0.00    -0.550 OA
ENDBRANCH   6   7
ENDBRANCH   5   6
ENDBRANCH   4   5
ENDBRANCH   3   4
ENDBRANCH   2   3
ENDBRANCH   1   2
BRANCH   1  10
ATOM     10  C   UNL     1       4.833 -59.969 -25.479  1.00  0.00     0.027 C 
BRANCH  10  11
ATOM     11  C   UNL     1       4.923 -60.252 -26.953  1.00  0.00    -0.031 C 
ATOM     12  C   UNL     1       5.082 -59.265 -27.849  1.00  0.00    -0.031 C 
BRANCH  12  13
ATOM     13  C   UNL     1       5.191 -59.551 -29.322  1.00  0.00     0.027 C 
BRANCH  13  14
ATOM     14  C   UNL     1       4.770 -60.995 -29.635  1.00  0.00     0.004 C 
BRANCH  14  15
ATOM     15  C   UNL     1       3.341 -61.092 -30.197  1.00  0.00     0.000 C 
BRANCH  15  16
ATOM     16  C   UNL     1       2.262 -61.487 -29.169  1.00  0.00    -0.000 C 
BRANCH  16  17
ATOM     17  C   UNL     1       1.074 -60.513 -29.065  1.00  0.00    -0.003 C 
ATOM     18  C   UNL     1       1.509 -59.072 -28.803  1.00  0.00     0.004 C 
ENDBRANCH  16  17
ENDBRANCH  15  16
ENDBRANCH  14  15
ENDBRANCH  13  14
ENDBRANCH  12  13
ENDBRANCH  10  11
ENDBRANCH   1  10
TORSDOF 13
ENDMDL
MODEL 9
REMARK VINA RESULT:    -3.321      2.891      5.811
REMARK INTER + INTRA:          -8.080
REMARK INTER:                  -6.081
REMARK INTRA:                  -2.000
REMARK UNBOUND:                -2.236
REMARK SMILES CCCCCCC=CCCCCCCCC(=O)[O-]
REMARK SMILES IDX 10 1 11 2 12 3 13 4 14 5 15 6 16 7 17 8 18 9 9 10 8 11 7 12
REMARK SMILES IDX 6 13 5 14 4 15 3 16 2 17 1 18
REMARK H PARENT
REMARK Flexibility Score: inf
ROOT
ATOM      1  C   UNL     1       4.132 -57.646 -29.364  1.00  0.00     0.004 C 
ENDROOT
BRANCH   1   2
ATOM      2  C   UNL     1       3.177 -57.309 -30.515  1.00  0.00     0.000 C 
BRANCH   2   3
ATOM      3  C   UNL     1       1.767 -57.850 -30.238  1.00  0.00     0.000 C 
BRANCH   3   4
ATOM      4  C   UNL     1       1.442 -57.885 -28.729  1.00  0.00     0.000 C 
BRANCH   4   5
ATOM      5  C   UNL     1       0.843 -59.222 -28.258  1.00  0.00     0.006 C 
BRANCH   5   6
ATOM      6  C   UNL     1       0.739 -59.323 -26.732  1.00  0.00     0.053 C 
BRANCH   6   7
ATOM      7  C   UNL     1      -0.525 -58.680 -26.251  1.00  0.00     0.041 C 
ATOM      8  O   UNL     1      -1.623 -59.287 -26.355  1.00  0.00    -0.550 OA
ATOM      9  O   UNL     1      -0.482 -57.432 -25.645  1.00  0.00    -0.550 OA
ENDBRANCH   6   7
ENDBRANCH   5   6
ENDBRANCH   4   5
ENDBRANCH   3   4
ENDBRANCH   2   3
ENDBRANCH   1   2
BRANCH   1  10
ATOM     10  C   UNL     1       5.042 -58.824 -29.731  1.00  0.00     0.027 C 
BRANCH  10  11
ATOM     11  C   UNL     1       4.478 -60.124 -29.229  1.00  0.00    -0.031 C 
ATOM     12  C   UNL     1       4.392 -60.392 -27.917  1.00  0.00    -0.031 C 
BRANCH  12  13
ATOM     13  C   UNL     1       3.809 -61.685 -27.415  1.00  0.00     0.027 C 
BRANCH  13  14
ATOM     14  C   UNL     1       3.641 -61.657 -25.889  1.00  0.00     0.004 C 
BRANCH  14  15
ATOM     15  C   UNL     1       3.861 -60.258 -25.289  1.00  0.00     0.000 C 
BRANCH  15  16
ATOM     16  C   UNL     1       4.724 -60.225 -24.011  1.00  0.00    -0.000 C 
BRANCH  16  17
ATOM     17  C   UNL     1       5.818 -59.143 -23.991  1.00  0.00    -0.003 C 
ATOM     18  C   UNL     1       5.891 -58.348 -25.294  1.00  0.00     0.004 C 
ENDBRANCH  16  17
ENDBRANCH  15  16
ENDBRANCH  14  15
ENDBRANCH  13  14
ENDBRANCH  12  13
ENDBRANCH  10  11
ENDBRANCH   1  10
TORSDOF 13
ENDMDL
