MODEL 1
REMARK VINA RESULT:    -7.618      0.000      0.000
REMARK INTER + INTRA:          -9.235
REMARK INTER:                  -9.177
REMARK INTRA:                  -0.058
REMARK UNBOUND:                -0.058
REMARK SMILES Oc1cc(O)c2cc(O)c(-c3ccc(O)c(O)c3)[o+]c2c1.[Cl-]
REMARK SMILES IDX 10 1 19 2 20 3 21 4 2 5 3 6 4 7 6 8 7 9 8 10 11 11 12 12
REMARK SMILES IDX 13 13 14 14 18 15 16 16 15 17 17 19 9 21 1 23 5 25
REMARK H PARENT 15 18 17 20 9 22 1 24 5 26
REMARK Flexibility Score: inf
ROOT
ATOM      1  C   UNL     1      49.695 -39.639  -3.372  1.00  0.00     0.402 A 
ATOM      2  O   UNL     1      48.736 -39.982  -2.516  1.00  0.00    -0.202 OA
ATOM      3  C   UNL     1      47.441 -39.857  -2.784  1.00  0.00     0.368 A 
ATOM      4  C   UNL     1      46.507 -40.248  -1.821  1.00  0.00     0.162 A 
ATOM      5  C   UNL     1      45.140 -40.131  -2.076  1.00  0.00     0.128 A 
ATOM      6  C   UNL     1      44.701 -39.620  -3.303  1.00  0.00     0.093 A 
ATOM      7  C   UNL     1      45.617 -39.221  -4.284  1.00  0.00     0.136 A 
ATOM      8  C   UNL     1      47.008 -39.337  -4.027  1.00  0.00     0.125 A 
ATOM      9  C   UNL     1      47.998 -38.950  -4.947  1.00  0.00     0.078 A 
ATOM     10  C   UNL     1      49.350 -39.089  -4.620  1.00  0.00     0.223 A 
ENDROOT
BRANCH   1  11
ATOM     11  C   UNL     1      51.105 -39.836  -2.960  1.00  0.00     0.087 A 
ATOM     12  C   UNL     1      52.038 -38.787  -3.023  1.00  0.00     0.022 A 
ATOM     13  C   UNL     1      53.368 -39.002  -2.651  1.00  0.00     0.051 A 
ATOM     14  C   UNL     1      53.787 -40.269  -2.224  1.00  0.00     0.157 A 
ATOM     15  C   UNL     1      51.534 -41.109  -2.551  1.00  0.00     0.068 A 
ATOM     16  C   UNL     1      52.864 -41.328  -2.177  1.00  0.00     0.158 A 
BRANCH  14  17
ATOM     17  O   UNL     1      55.114 -40.480  -1.851  1.00  0.00    -0.504 OA
ATOM     18  H   UNL     1      55.376 -40.630  -0.884  1.00  0.00     0.293 HD
ENDBRANCH  14  17
BRANCH  16  19
ATOM     19  O   UNL     1      53.251 -42.602  -1.764  1.00  0.00    -0.504 OA
ATOM     20  H   UNL     1      53.630 -42.777  -0.842  1.00  0.00     0.293 HD
ENDBRANCH  16  19
ENDBRANCH   1  11
BRANCH  10  21
ATOM     21  O   UNL     1      50.332 -38.658  -5.512  1.00  0.00    -0.500 OA
ATOM     22  H   UNL     1      51.319 -38.726  -5.292  1.00  0.00     0.294 HD
ENDBRANCH  10  21
BRANCH   5  23
ATOM     23  O   UNL     1      44.224 -40.526  -1.104  1.00  0.00    -0.507 OA
ATOM     24  H   UNL     1      44.060 -41.503  -0.895  1.00  0.00     0.293 HD
ENDBRANCH   5  23
BRANCH   7  25
ATOM     25  O   UNL     1      45.099 -38.725  -5.484  1.00  0.00    -0.507 OA
ATOM     26  H   UNL     1      45.325 -37.820  -5.871  1.00  0.00     0.293 HD
ENDBRANCH   7  25
TORSDOF 6
ENDMDL
MODEL 2
REMARK VINA RESULT:    -7.039      2.054      2.925
REMARK INTER + INTRA:          -8.536
REMARK INTER:                  -8.574
REMARK INTRA:                   0.038
REMARK UNBOUND:                -0.058
REMARK SMILES Oc1cc(O)c2cc(O)c(-c3ccc(O)c(O)c3)[o+]c2c1.[Cl-]
REMARK SMILES IDX 10 1 19 2 20 3 21 4 2 5 3 6 4 7 6 8 7 9 8 10 11 11 12 12
REMARK SMILES IDX 13 13 14 14 18 15 16 16 15 17 17 19 9 21 1 23 5 25
REMARK H PARENT 15 18 17 20 9 22 1 24 5 26
REMARK Flexibility Score: inf
ROOT
ATOM      1  C   UNL     1      50.406 -39.637  -3.394  1.00  0.00     0.402 A 
ATOM      2  O   UNL     1      50.041 -38.394  -3.090  1.00  0.00    -0.202 OA
ATOM      3  C   UNL     1      48.882 -37.862  -3.465  1.00  0.00     0.368 A 
ATOM      4  C   UNL     1      48.586 -36.548  -3.094  1.00  0.00     0.162 A 
ATOM      5  C   UNL     1      47.375 -35.965  -3.471  1.00  0.00     0.128 A 
ATOM      6  C   UNL     1      46.453 -36.699  -4.224  1.00  0.00     0.093 A 
ATOM      7  C   UNL     1      46.726 -38.018  -4.608  1.00  0.00     0.136 A 
ATOM      8  C   UNL     1      47.957 -38.614  -4.228  1.00  0.00     0.125 A 
ATOM      9  C   UNL     1      48.320 -39.925  -4.579  1.00  0.00     0.078 A 
ATOM     10  C   UNL     1      49.554 -40.442  -4.172  1.00  0.00     0.223 A 
ENDROOT
BRANCH   1  11
ATOM     11  C   UNL     1      51.720 -40.119  -2.909  1.00  0.00     0.087 A 
ATOM     12  C   UNL     1      51.878 -41.416  -2.391  1.00  0.00     0.022 A 
ATOM     13  C   UNL     1      53.122 -41.840  -1.917  1.00  0.00     0.051 A 
ATOM     14  C   UNL     1      54.222 -40.972  -1.941  1.00  0.00     0.157 A 
ATOM     15  C   UNL     1      52.820 -39.245  -2.912  1.00  0.00     0.068 A 
ATOM     16  C   UNL     1      54.068 -39.667  -2.439  1.00  0.00     0.158 A 
BRANCH  14  17
ATOM     17  O   UNL     1      55.463 -41.400  -1.471  1.00  0.00    -0.504 OA
ATOM     18  H   UNL     1      55.733 -42.376  -1.496  1.00  0.00     0.293 HD
ENDBRANCH  14  17
BRANCH  16  19
ATOM     19  O   UNL     1      55.140 -38.777  -2.470  1.00  0.00    -0.504 OA
ATOM     20  H   UNL     1      55.956 -38.896  -1.882  1.00  0.00     0.293 HD
ENDBRANCH  16  19
ENDBRANCH   1  11
BRANCH  10  21
ATOM     21  O   UNL     1      49.937 -41.725  -4.563  1.00  0.00    -0.500 OA
ATOM     22  H   UNL     1      50.301 -42.398  -3.898  1.00  0.00     0.294 HD
ENDBRANCH  10  21
BRANCH   5  23
ATOM     23  O   UNL     1      47.099 -34.653  -3.093  1.00  0.00    -0.507 OA
ATOM     24  H   UNL     1      47.789 -33.917  -3.185  1.00  0.00     0.293 HD
ENDBRANCH   5  23
BRANCH   7  25
ATOM     25  O   UNL     1      45.751 -38.685  -5.356  1.00  0.00    -0.507 OA
ATOM     26  H   UNL     1      45.235 -38.271  -6.119  1.00  0.00     0.293 HD
ENDBRANCH   7  25
TORSDOF 6
ENDMDL
MODEL 3
REMARK VINA RESULT:    -6.996      2.822      6.489
REMARK INTER + INTRA:          -8.486
REMARK INTER:                  -8.183
REMARK INTRA:                  -0.303
REMARK UNBOUND:                -0.058
REMARK SMILES Oc1cc(O)c2cc(O)c(-c3ccc(O)c(O)c3)[o+]c2c1.[Cl-]
REMARK SMILES IDX 10 1 19 2 20 3 21 4 2 5 3 6 4 7 6 8 7 9 8 10 11 11 12 12
REMARK SMILES IDX 13 13 14 14 18 15 16 16 15 17 17 19 9 21 1 23 5 25
REMARK H PARENT 15 18 17 20 9 22 1 24 5 26
REMARK Flexibility Score: inf
ROOT
ATOM      1  C   UNL     1      48.567 -39.340  -4.138  1.00  0.00     0.402 A 
ATOM      2  O   UNL     1      48.694 -38.060  -4.479  1.00  0.00    -0.202 OA
ATOM      3  C   UNL     1      49.678 -37.606  -5.248  1.00  0.00     0.368 A 
ATOM      4  C   UNL     1      49.726 -36.243  -5.556  1.00  0.00     0.162 A 
ATOM      5  C   UNL     1      50.747 -35.738  -6.363  1.00  0.00     0.128 A 
ATOM      6  C   UNL     1      51.726 -36.600  -6.868  1.00  0.00     0.093 A 
ATOM      7  C   UNL     1      51.701 -37.969  -6.574  1.00  0.00     0.136 A 
ATOM      8  C   UNL     1      50.666 -38.486  -5.752  1.00  0.00     0.125 A 
ATOM      9  C   UNL     1      50.567 -39.841  -5.395  1.00  0.00     0.078 A 
ATOM     10  C   UNL     1      49.522 -40.276  -4.576  1.00  0.00     0.223 A 
ENDROOT
BRANCH   1  11
ATOM     11  C   UNL     1      47.420 -39.725  -3.283  1.00  0.00     0.087 A 
ATOM     12  C   UNL     1      46.121 -39.836  -3.808  1.00  0.00     0.022 A 
ATOM     13  C   UNL     1      45.050 -40.177  -2.978  1.00  0.00     0.051 A 
ATOM     14  C   UNL     1      45.258 -40.400  -1.610  1.00  0.00     0.157 A 
ATOM     15  C   UNL     1      47.620 -39.929  -1.908  1.00  0.00     0.068 A 
ATOM     16  C   UNL     1      46.550 -40.272  -1.073  1.00  0.00     0.158 A 
BRANCH  14  17
ATOM     17  O   UNL     1      44.188 -40.743  -0.785  1.00  0.00    -0.504 OA
ATOM     18  H   UNL     1      43.703 -41.627  -0.884  1.00  0.00     0.293 HD
ENDBRANCH  14  17
BRANCH  16  19
ATOM     19  O   UNL     1      46.790 -40.479   0.284  1.00  0.00    -0.504 OA
ATOM     20  H   UNL     1      47.715 -40.678   0.644  1.00  0.00     0.293 HD
ENDBRANCH  16  19
ENDBRANCH   1  11
BRANCH  10  21
ATOM     21  O   UNL     1      49.452 -41.612  -4.180  1.00  0.00    -0.500 OA
ATOM     22  H   UNL     1      49.086 -41.881  -3.275  1.00  0.00     0.294 HD
ENDBRANCH  10  21
BRANCH   5  23
ATOM     23  O   UNL     1      50.778 -34.377  -6.658  1.00  0.00    -0.507 OA
ATOM     24  H   UNL     1      50.045 -33.935  -7.200  1.00  0.00     0.293 HD
ENDBRANCH   5  23
BRANCH   7  25
ATOM     25  O   UNL     1      52.713 -38.763  -7.121  1.00  0.00    -0.507 OA
ATOM     26  H   UNL     1      53.353 -38.456  -7.839  1.00  0.00     0.293 HD
ENDBRANCH   7  25
TORSDOF 6
ENDMDL
MODEL 4
REMARK VINA RESULT:    -6.893      3.392      3.863
REMARK INTER + INTRA:          -8.361
REMARK INTER:                  -8.015
REMARK INTRA:                  -0.346
REMARK UNBOUND:                -0.058
REMARK SMILES Oc1cc(O)c2cc(O)c(-c3ccc(O)c(O)c3)[o+]c2c1.[Cl-]
REMARK SMILES IDX 10 1 19 2 20 3 21 4 2 5 3 6 4 7 6 8 7 9 8 10 11 11 12 12
REMARK SMILES IDX 13 13 14 14 18 15 16 16 15 17 17 19 9 21 1 23 5 25
REMARK H PARENT 15 18 17 20 9 22 1 24 5 26
REMARK Flexibility Score: inf
ROOT
ATOM      1  C   UNL     1      50.821 -38.173  -3.596  1.00  0.00     0.402 A 
ATOM      2  O   UNL     1      50.326 -37.305  -2.717  1.00  0.00    -0.202 OA
ATOM      3  C   UNL     1      49.505 -36.315  -3.053  1.00  0.00     0.368 A 
ATOM      4  C   UNL     1      49.035 -35.454  -2.058  1.00  0.00     0.162 A 
ATOM      5  C   UNL     1      48.170 -34.408  -2.382  1.00  0.00     0.128 A 
ATOM      6  C   UNL     1      47.770 -34.220  -3.710  1.00  0.00     0.093 A 
ATOM      7  C   UNL     1      48.228 -35.068  -4.726  1.00  0.00     0.136 A 
ATOM      8  C   UNL     1      49.110 -36.132  -4.401  1.00  0.00     0.125 A 
ATOM      9  C   UNL     1      49.628 -37.023  -5.354  1.00  0.00     0.078 A 
ATOM     10  C   UNL     1      50.497 -38.045  -4.959  1.00  0.00     0.223 A 
ENDROOT
BRANCH   1  11
ATOM     11  C   UNL     1      51.718 -39.240  -3.095  1.00  0.00     0.087 A 
ATOM     12  C   UNL     1      51.240 -40.535  -2.832  1.00  0.00     0.022 A 
ATOM     13  C   UNL     1      52.100 -41.519  -2.338  1.00  0.00     0.051 A 
ATOM     14  C   UNL     1      53.447 -41.220  -2.086  1.00  0.00     0.157 A 
ATOM     15  C   UNL     1      53.063 -38.939  -2.822  1.00  0.00     0.068 A 
ATOM     16  C   UNL     1      53.928 -39.922  -2.328  1.00  0.00     0.158 A 
BRANCH  14  17
ATOM     17  O   UNL     1      54.303 -42.205  -1.596  1.00  0.00    -0.504 OA
ATOM     18  H   UNL     1      55.309 -42.121  -1.675  1.00  0.00     0.293 HD
ENDBRANCH  14  17
BRANCH  16  19
ATOM     19  O   UNL     1      55.259 -39.591  -2.081  1.00  0.00    -0.504 OA
ATOM     20  H   UNL     1      55.938 -39.497  -2.826  1.00  0.00     0.293 HD
ENDBRANCH  16  19
ENDBRANCH   1  11
BRANCH  10  21
ATOM     21  O   UNL     1      51.052 -38.899  -5.912  1.00  0.00    -0.500 OA
ATOM     22  H   UNL     1      51.523 -38.544  -6.736  1.00  0.00     0.294 HD
ENDBRANCH  10  21
BRANCH   5  23
ATOM     23  O   UNL     1      47.712 -33.560  -1.376  1.00  0.00    -0.507 OA
ATOM     24  H   UNL     1      48.347 -33.132  -0.714  1.00  0.00     0.293 HD
ENDBRANCH   5  23
BRANCH   7  25
ATOM     25  O   UNL     1      47.780 -34.816  -6.026  1.00  0.00    -0.507 OA
ATOM     26  H   UNL     1      46.807 -34.752  -6.291  1.00  0.00     0.293 HD
ENDBRANCH   7  25
TORSDOF 6
ENDMDL
MODEL 5
REMARK VINA RESULT:    -6.701      1.850      7.218
REMARK INTER + INTRA:          -8.130
REMARK INTER:                  -8.539
REMARK INTRA:                   0.409
REMARK UNBOUND:                -0.058
REMARK SMILES Oc1cc(O)c2cc(O)c(-c3ccc(O)c(O)c3)[o+]c2c1.[Cl-]
REMARK SMILES IDX 10 1 19 2 20 3 21 4 2 5 3 6 4 7 6 8 7 9 8 10 11 11 12 12
REMARK SMILES IDX 13 13 14 14 18 15 16 16 15 17 17 19 9 21 1 23 5 25
REMARK H PARENT 15 18 17 20 9 22 1 24 5 26
REMARK Flexibility Score: inf
ROOT
ATOM      1  C   UNL     1      49.739 -39.402  -3.617  1.00  0.00     0.402 A 
ATOM      2  O   UNL     1      50.914 -38.780  -3.556  1.00  0.00    -0.202 OA
ATOM      3  C   UNL     1      52.007 -39.335  -3.043  1.00  0.00     0.368 A 
ATOM      4  C   UNL     1      53.197 -38.602  -3.025  1.00  0.00     0.162 A 
ATOM      5  C   UNL     1      54.361 -39.161  -2.495  1.00  0.00     0.128 A 
ATOM      6  C   UNL     1      54.337 -40.461  -1.979  1.00  0.00     0.093 A 
ATOM      7  C   UNL     1      53.158 -41.215  -1.984  1.00  0.00     0.136 A 
ATOM      8  C   UNL     1      51.971 -40.650  -2.520  1.00  0.00     0.125 A 
ATOM      9  C   UNL     1      50.741 -41.328  -2.556  1.00  0.00     0.078 A 
ATOM     10  C   UNL     1      49.613 -40.703  -3.096  1.00  0.00     0.223 A 
ENDROOT
BRANCH   1  11
ATOM     11  C   UNL     1      48.596 -38.681  -4.222  1.00  0.00     0.087 A 
ATOM     12  C   UNL     1      47.332 -39.283  -4.343  1.00  0.00     0.022 A 
ATOM     13  C   UNL     1      46.274 -38.592  -4.939  1.00  0.00     0.051 A 
ATOM     14  C   UNL     1      46.466 -37.295  -5.434  1.00  0.00     0.157 A 
ATOM     15  C   UNL     1      48.789 -37.389  -4.738  1.00  0.00     0.068 A 
ATOM     16  C   UNL     1      47.732 -36.692  -5.335  1.00  0.00     0.158 A 
BRANCH  14  17
ATOM     17  O   UNL     1      45.408 -36.606  -6.025  1.00  0.00    -0.504 OA
ATOM     18  H   UNL     1      45.494 -35.635  -6.301  1.00  0.00     0.293 HD
ENDBRANCH  14  17
BRANCH  16  19
ATOM     19  O   UNL     1      47.958 -35.407  -5.824  1.00  0.00    -0.504 OA
ATOM     20  H   UNL     1      48.878 -34.985  -5.824  1.00  0.00     0.293 HD
ENDBRANCH  16  19
ENDBRANCH   1  11
BRANCH  10  21
ATOM     21  O   UNL     1      48.380 -41.356  -3.085  1.00  0.00    -0.500 OA
ATOM     22  H   UNL     1      48.036 -41.858  -3.895  1.00  0.00     0.294 HD
ENDBRANCH  10  21
BRANCH   5  23
ATOM     23  O   UNL     1      55.538 -38.414  -2.486  1.00  0.00    -0.507 OA
ATOM     24  H   UNL     1      56.423 -38.817  -2.769  1.00  0.00     0.293 HD
ENDBRANCH   5  23
BRANCH   7  25
ATOM     25  O   UNL     1      53.218 -42.507  -1.453  1.00  0.00    -0.507 OA
ATOM     26  H   UNL     1      52.577 -43.251  -1.689  1.00  0.00     0.293 HD
ENDBRANCH   7  25
TORSDOF 6
ENDMDL
MODEL 6
REMARK VINA RESULT:    -6.545      3.459      6.823
REMARK INTER + INTRA:          -7.942
REMARK INTER:                  -7.696
REMARK INTRA:                  -0.246
REMARK UNBOUND:                -0.058
REMARK SMILES Oc1cc(O)c2cc(O)c(-c3ccc(O)c(O)c3)[o+]c2c1.[Cl-]
REMARK SMILES IDX 10 1 19 2 20 3 21 4 2 5 3 6 4 7 6 8 7 9 8 10 11 11 12 12
REMARK SMILES IDX 13 13 14 14 18 15 16 16 15 17 17 19 9 21 1 23 5 25
REMARK H PARENT 15 18 17 20 9 22 1 24 5 26
REMARK Flexibility Score: inf
ROOT
ATOM      1  C   UNL     1      49.520 -37.243  -4.709  1.00  0.00     0.402 A 
ATOM      2  O   UNL     1      50.730 -37.533  -4.237  1.00  0.00    -0.202 OA
ATOM      3  C   UNL     1      51.044 -38.712  -3.711  1.00  0.00     0.368 A 
ATOM      4  C   UNL     1      52.345 -38.923  -3.244  1.00  0.00     0.162 A 
ATOM      5  C   UNL     1      52.703 -40.153  -2.690  1.00  0.00     0.128 A 
ATOM      6  C   UNL     1      51.757 -41.180  -2.601  1.00  0.00     0.093 A 
ATOM      7  C   UNL     1      50.448 -40.993  -3.061  1.00  0.00     0.136 A 
ATOM      8  C   UNL     1      50.079 -39.744  -3.624  1.00  0.00     0.125 A 
ATOM      9  C   UNL     1      48.787 -39.463  -4.099  1.00  0.00     0.078 A 
ATOM     10  C   UNL     1      48.496 -38.205  -4.636  1.00  0.00     0.223 A 
ENDROOT
BRANCH   1  11
ATOM     11  C   UNL     1      49.297 -35.895  -5.281  1.00  0.00     0.087 A 
ATOM     12  C   UNL     1      49.886 -35.510  -6.497  1.00  0.00     0.022 A 
ATOM     13  C   UNL     1      49.680 -34.224  -7.005  1.00  0.00     0.051 A 
ATOM     14  C   UNL     1      48.895 -33.302  -6.301  1.00  0.00     0.157 A 
ATOM     15  C   UNL     1      48.528 -34.961  -4.568  1.00  0.00     0.068 A 
ATOM     16  C   UNL     1      48.318 -33.673  -5.074  1.00  0.00     0.158 A 
BRANCH  14  17
ATOM     17  O   UNL     1      48.689 -32.022  -6.812  1.00  0.00    -0.504 OA
ATOM     18  H   UNL     1      47.759 -31.633  -6.912  1.00  0.00     0.293 HD
ENDBRANCH  14  17
BRANCH  16  19
ATOM     19  O   UNL     1      47.539 -32.777  -4.345  1.00  0.00    -0.504 OA
ATOM     20  H   UNL     1      47.843 -32.397  -3.457  1.00  0.00     0.293 HD
ENDBRANCH  16  19
ENDBRANCH   1  11
BRANCH  10  21
ATOM     21  O   UNL     1      47.201 -37.909  -5.061  1.00  0.00    -0.500 OA
ATOM     22  H   UNL     1      46.910 -36.960  -5.262  1.00  0.00     0.294 HD
ENDBRANCH  10  21
BRANCH   5  23
ATOM     23  O   UNL     1      54.004 -40.344  -2.229  1.00  0.00    -0.507 OA
ATOM     24  H   UNL     1      54.806 -40.032  -2.762  1.00  0.00     0.293 HD
ENDBRANCH   5  23
BRANCH   7  25
ATOM     25  O   UNL     1      49.564 -42.070  -2.940  1.00  0.00    -0.507 OA
ATOM     26  H   UNL     1      48.789 -42.243  -3.563  1.00  0.00     0.293 HD
ENDBRANCH   7  25
TORSDOF 6
ENDMDL
MODEL 7
REMARK VINA RESULT:    -6.308      2.292      3.680
REMARK INTER + INTRA:          -7.656
REMARK INTER:                  -7.466
REMARK INTRA:                  -0.190
REMARK UNBOUND:                -0.058
REMARK SMILES Oc1cc(O)c2cc(O)c(-c3ccc(O)c(O)c3)[o+]c2c1.[Cl-]
REMARK SMILES IDX 10 1 19 2 20 3 21 4 2 5 3 6 4 7 6 8 7 9 8 10 11 11 12 12
REMARK SMILES IDX 13 13 14 14 18 15 16 16 15 17 17 19 9 21 1 23 5 25
REMARK H PARENT 15 18 17 20 9 22 1 24 5 26
REMARK Flexibility Score: inf
ROOT
ATOM      1  C   UNL     1      48.343 -39.110  -2.752  1.00  0.00     0.402 A 
ATOM      2  O   UNL     1      48.171 -38.392  -1.645  1.00  0.00    -0.202 OA
ATOM      3  C   UNL     1      47.156 -38.576  -0.807  1.00  0.00     0.368 A 
ATOM      4  C   UNL     1      47.062 -37.774   0.333  1.00  0.00     0.162 A 
ATOM      5  C   UNL     1      46.008 -37.948   1.232  1.00  0.00     0.128 A 
ATOM      6  C   UNL     1      45.042 -38.930   0.992  1.00  0.00     0.093 A 
ATOM      7  C   UNL     1      45.114 -39.747  -0.144  1.00  0.00     0.136 A 
ATOM      8  C   UNL     1      46.182 -39.572  -1.061  1.00  0.00     0.125 A 
ATOM      9  C   UNL     1      46.328 -40.336  -2.231  1.00  0.00     0.078 A 
ATOM     10  C   UNL     1      47.405 -40.102  -3.091  1.00  0.00     0.223 A 
ENDROOT
BRANCH   1  11
ATOM     11  C   UNL     1      49.521 -38.815  -3.601  1.00  0.00     0.087 A 
ATOM     12  C   UNL     1      49.375 -38.321  -4.908  1.00  0.00     0.022 A 
ATOM     13  C   UNL     1      50.500 -38.072  -5.699  1.00  0.00     0.051 A 
ATOM     14  C   UNL     1      51.785 -38.325  -5.201  1.00  0.00     0.157 A 
ATOM     15  C   UNL     1      50.810 -39.086  -3.113  1.00  0.00     0.068 A 
ATOM     16  C   UNL     1      51.939 -38.837  -3.902  1.00  0.00     0.158 A 
BRANCH  14  17
ATOM     17  O   UNL     1      52.905 -38.073  -5.991  1.00  0.00    -0.504 OA
ATOM     18  H   UNL     1      53.843 -38.107  -5.610  1.00  0.00     0.293 HD
ENDBRANCH  14  17
BRANCH  16  19
ATOM     19  O   UNL     1      53.203 -39.107  -3.379  1.00  0.00    -0.504 OA
ATOM     20  H   UNL     1      53.868 -39.701  -3.859  1.00  0.00     0.293 HD
ENDBRANCH  16  19
ENDBRANCH   1  11
BRANCH  10  21
ATOM     21  O   UNL     1      47.522 -40.826  -4.278  1.00  0.00    -0.500 OA
ATOM     22  H   UNL     1      48.416 -40.952  -4.739  1.00  0.00     0.294 HD
ENDBRANCH  10  21
BRANCH   5  23
ATOM     23  O   UNL     1      45.931 -37.137   2.363  1.00  0.00    -0.507 OA
ATOM     24  H   UNL     1      46.759 -36.868   2.879  1.00  0.00     0.293 HD
ENDBRANCH   5  23
BRANCH   7  25
ATOM     25  O   UNL     1      44.112 -40.708  -0.310  1.00  0.00    -0.507 OA
ATOM     26  H   UNL     1      44.014 -41.294  -1.126  1.00  0.00     0.293 HD
ENDBRANCH   7  25
TORSDOF 6
ENDMDL
MODEL 8
REMARK VINA RESULT:    -6.269      3.469      4.135
REMARK INTER + INTRA:          -7.609
REMARK INTER:                  -7.270
REMARK INTRA:                  -0.339
REMARK UNBOUND:                -0.058
REMARK SMILES Oc1cc(O)c2cc(O)c(-c3ccc(O)c(O)c3)[o+]c2c1.[Cl-]
REMARK SMILES IDX 10 1 19 2 20 3 21 4 2 5 3 6 4 7 6 8 7 9 8 10 11 11 12 12
REMARK SMILES IDX 13 13 14 14 18 15 16 16 15 17 17 19 9 21 1 23 5 25
REMARK H PARENT 15 18 17 20 9 22 1 24 5 26
REMARK Flexibility Score: inf
ROOT
ATOM      1  C   UNL     1      50.400 -37.641  -4.025  1.00  0.00     0.402 A 
ATOM      2  O   UNL     1      49.716 -36.913  -3.146  1.00  0.00    -0.202 OA
ATOM      3  C   UNL     1      49.050 -35.810  -3.473  1.00  0.00     0.368 A 
ATOM      4  C   UNL     1      48.358 -35.113  -2.479  1.00  0.00     0.162 A 
ATOM      5  C   UNL     1      47.648 -33.954  -2.795  1.00  0.00     0.128 A 
ATOM      6  C   UNL     1      47.627 -33.488  -4.114  1.00  0.00     0.093 A 
ATOM      7  C   UNL     1      48.312 -34.168  -5.128  1.00  0.00     0.136 A 
ATOM      8  C   UNL     1      49.038 -35.345  -4.811  1.00  0.00     0.125 A 
ATOM      9  C   UNL     1      49.764 -36.084  -5.759  1.00  0.00     0.078 A 
ATOM     10  C   UNL     1      50.460 -37.233  -5.370  1.00  0.00     0.223 A 
ENDROOT
BRANCH   1  11
ATOM     11  C   UNL     1      51.094 -38.856  -3.538  1.00  0.00     0.087 A 
ATOM     12  C   UNL     1      52.381 -38.787  -2.977  1.00  0.00     0.022 A 
ATOM     13  C   UNL     1      53.026 -39.950  -2.546  1.00  0.00     0.051 A 
ATOM     14  C   UNL     1      52.401 -41.197  -2.680  1.00  0.00     0.157 A 
ATOM     15  C   UNL     1      50.480 -40.110  -3.689  1.00  0.00     0.068 A 
ATOM     16  C   UNL     1      51.123 -41.276  -3.258  1.00  0.00     0.158 A 
BRANCH  14  17
ATOM     17  O   UNL     1      53.046 -42.354  -2.246  1.00  0.00    -0.504 OA
ATOM     18  H   UNL     1      54.019 -42.346  -1.963  1.00  0.00     0.293 HD
ENDBRANCH  14  17
BRANCH  16  19
ATOM     19  O   UNL     1      50.477 -42.502  -3.413  1.00  0.00    -0.504 OA
ATOM     20  H   UNL     1      50.721 -43.313  -2.857  1.00  0.00     0.293 HD
ENDBRANCH  16  19
ENDBRANCH   1  11
BRANCH  10  21
ATOM     21  O   UNL     1      51.222 -37.938  -6.302  1.00  0.00    -0.500 OA
ATOM     22  H   UNL     1      52.159 -37.647  -6.553  1.00  0.00     0.294 HD
ENDBRANCH  10  21
BRANCH   5  23
ATOM     23  O   UNL     1      46.965 -33.273  -1.790  1.00  0.00    -0.507 OA
ATOM     24  H   UNL     1      47.446 -32.660  -1.143  1.00  0.00     0.293 HD
ENDBRANCH   5  23
BRANCH   7  25
ATOM     25  O   UNL     1      48.239 -33.639  -6.421  1.00  0.00    -0.507 OA
ATOM     26  H   UNL     1      47.377 -33.422  -6.899  1.00  0.00     0.293 HD
ENDBRANCH   7  25
TORSDOF 6
ENDMDL
MODEL 9
REMARK VINA RESULT:    -6.146      3.098      6.638
REMARK INTER + INTRA:          -7.462
REMARK INTER:                  -7.298
REMARK INTRA:                  -0.163
REMARK UNBOUND:                -0.058
REMARK SMILES Oc1cc(O)c2cc(O)c(-c3ccc(O)c(O)c3)[o+]c2c1.[Cl-]
REMARK SMILES IDX 10 1 19 2 20 3 21 4 2 5 3 6 4 7 6 8 7 9 8 10 11 11 12 12
REMARK SMILES IDX 13 13 14 14 18 15 16 16 15 17 17 19 9 21 1 23 5 25
REMARK H PARENT 15 18 17 20 9 22 1 24 5 26
REMARK Flexibility Score: inf
ROOT
ATOM      1  C   UNL     1      47.705 -37.837  -3.976  1.00  0.00     0.402 A 
ATOM      2  O   UNL     1      48.854 -38.379  -4.372  1.00  0.00    -0.202 OA
ATOM      3  C   UNL     1      49.746 -37.735  -5.117  1.00  0.00     0.368 A 
ATOM      4  C   UNL     1      50.927 -38.388  -5.481  1.00  0.00     0.162 A 
ATOM      5  C   UNL     1      51.883 -37.735  -6.260  1.00  0.00     0.128 A 
ATOM      6  C   UNL     1      51.658 -36.419  -6.680  1.00  0.00     0.093 A 
ATOM      7  C   UNL     1      50.483 -35.743  -6.329  1.00  0.00     0.136 A 
ATOM      8  C   UNL     1      49.508 -36.405  -5.538  1.00  0.00     0.125 A 
ATOM      9  C   UNL     1      48.296 -35.810  -5.150  1.00  0.00     0.078 A 
ATOM     10  C   UNL     1      47.381 -36.527  -4.374  1.00  0.00     0.223 A 
ENDROOT
BRANCH   1  11
ATOM     11  C   UNL     1      46.797 -38.655  -3.139  1.00  0.00     0.087 A 
ATOM     12  C   UNL     1      45.508 -39.000  -3.580  1.00  0.00     0.022 A 
ATOM     13  C   UNL     1      44.660 -39.752  -2.763  1.00  0.00     0.051 A 
ATOM     14  C   UNL     1      45.082 -40.159  -1.490  1.00  0.00     0.157 A 
ATOM     15  C   UNL     1      47.208 -39.047  -1.855  1.00  0.00     0.068 A 
ATOM     16  C   UNL     1      46.362 -39.802  -1.034  1.00  0.00     0.158 A 
BRANCH  14  17
ATOM     17  O   UNL     1      44.234 -40.913  -0.679  1.00  0.00    -0.504 OA
ATOM     18  H   UNL     1      43.611 -41.611  -1.066  1.00  0.00     0.293 HD
ENDBRANCH  14  17
BRANCH  16  19
ATOM     19  O   UNL     1      46.808 -40.185   0.230  1.00  0.00    -0.504 OA
ATOM     20  H   UNL     1      46.464 -39.750   1.077  1.00  0.00     0.293 HD
ENDBRANCH  16  19
ENDBRANCH   1  11
BRANCH  10  21
ATOM     21  O   UNL     1      46.155 -35.955  -4.031  1.00  0.00    -0.500 OA
ATOM     22  H   UNL     1      45.715 -35.251  -4.612  1.00  0.00     0.294 HD
ENDBRANCH  10  21
BRANCH   5  23
ATOM     23  O   UNL     1      53.053 -38.403  -6.613  1.00  0.00    -0.507 OA
ATOM     24  H   UNL     1      53.884 -37.901  -6.901  1.00  0.00     0.293 HD
ENDBRANCH   5  23
BRANCH   7  25
ATOM     25  O   UNL     1      50.337 -34.429  -6.785  1.00  0.00    -0.507 OA
ATOM     26  H   UNL     1      49.557 -34.101  -7.336  1.00  0.00     0.293 HD
ENDBRANCH   7  25
TORSDOF 6
ENDMDL
