MODEL 1
REMARK VINA RESULT:    -4.063      0.000      0.000
REMARK INTER + INTRA:          -5.319
REMARK INTER:                  -5.013
REMARK INTRA:                  -0.306
REMARK UNBOUND:                -0.306
REMARK SMILES Oc1cc(O)c2cc(O)c(-c3cc(O)c(O)c(O)c3)[o+]c2c1.[Cl-]
REMARK SMILES IDX 10 1 20 2 21 3 22 4 2 5 3 6 4 7 6 8 7 9 8 10 11 11 12 12
REMARK SMILES IDX 13 13 19 14 15 15 17 16 14 17 16 19 18 21 9 23 1 25 5 27
REMARK H PARENT 14 18 16 20 18 22 9 24 1 26 5 28
REMARK Flexibility Score: inf
ROOT
ATOM      1  C   UNL     1     -20.679  14.605 -19.437  1.00  0.00     0.402 A 
ATOM      2  O   UNL     1     -21.566  13.846 -18.796  1.00  0.00    -0.202 OA
ATOM      3  C   UNL     1     -21.626  13.758 -17.471  1.00  0.00     0.368 A 
ATOM      4  C   UNL     1     -22.585  12.934 -16.875  1.00  0.00     0.162 A 
ATOM      5  C   UNL     1     -22.657  12.829 -15.483  1.00  0.00     0.128 A 
ATOM      6  C   UNL     1     -21.765  13.552 -14.680  1.00  0.00     0.093 A 
ATOM      7  C   UNL     1     -20.797  14.383 -15.264  1.00  0.00     0.136 A 
ATOM      8  C   UNL     1     -20.726  14.489 -16.666  1.00  0.00     0.125 A 
ATOM      9  C   UNL     1     -19.787  15.308 -17.302  1.00  0.00     0.078 A 
ATOM     10  C   UNL     1     -19.762  15.383 -18.699  1.00  0.00     0.223 A 
ENDROOT
BRANCH   1  11
ATOM     11  C   UNL     1     -20.705  14.615 -20.917  1.00  0.00     0.091 A 
ATOM     12  C   UNL     1     -19.675  14.025 -21.672  1.00  0.00     0.068 A 
ATOM     13  C   UNL     1     -19.728  14.024 -23.073  1.00  0.00     0.162 A 
ATOM     14  C   UNL     1     -21.805  15.173 -21.585  1.00  0.00     0.068 A 
ATOM     15  C   UNL     1     -20.824  14.606 -23.731  1.00  0.00     0.200 A 
ATOM     16  C   UNL     1     -21.864  15.178 -22.985  1.00  0.00     0.162 A 
BRANCH  13  17
ATOM     17  O   UNL     1     -18.699  13.443 -23.812  1.00  0.00    -0.504 OA
ATOM     18  H   UNL     1     -17.787  13.879 -23.885  1.00  0.00     0.293 HD
ENDBRANCH  13  17
BRANCH  15  19
ATOM     19  O   UNL     1     -20.898  14.623 -25.125  1.00  0.00    -0.502 OA
ATOM     20  H   UNL     1     -21.393  13.909 -25.646  1.00  0.00     0.293 HD
ENDBRANCH  15  19
BRANCH  16  21
ATOM     21  O   UNL     1     -22.952  15.746 -23.642  1.00  0.00    -0.504 OA
ATOM     22  H   UNL     1     -23.747  15.189 -23.934  1.00  0.00     0.293 HD
ENDBRANCH  16  21
ENDBRANCH   1  11
BRANCH  10  23
ATOM     23  O   UNL     1     -18.863  16.235 -19.338  1.00  0.00    -0.500 OA
ATOM     24  H   UNL     1     -18.930  17.242 -19.249  1.00  0.00     0.294 HD
ENDBRANCH  10  23
BRANCH   5  25
ATOM     25  O   UNL     1     -23.619  12.003 -14.906  1.00  0.00    -0.507 OA
ATOM     26  H   UNL     1     -24.302  12.363 -14.249  1.00  0.00     0.293 HD
ENDBRANCH   5  25
BRANCH   7  27
ATOM     27  O   UNL     1     -19.914  15.100 -14.455  1.00  0.00    -0.507 OA
ATOM     28  H   UNL     1     -20.060  16.081 -14.250  1.00  0.00     0.293 HD
ENDBRANCH   7  27
TORSDOF 7
ENDMDL
MODEL 2
REMARK VINA RESULT:    -4.045      1.572      6.961
REMARK INTER + INTRA:          -5.297
REMARK INTER:                  -4.912
REMARK INTRA:                  -0.385
REMARK UNBOUND:                -0.306
REMARK SMILES Oc1cc(O)c2cc(O)c(-c3cc(O)c(O)c(O)c3)[o+]c2c1.[Cl-]
REMARK SMILES IDX 10 1 20 2 21 3 22 4 2 5 3 6 4 7 6 8 7 9 8 10 11 11 12 12
REMARK SMILES IDX 13 13 19 14 15 15 17 16 14 17 16 19 18 21 9 23 1 25 5 27
REMARK H PARENT 14 18 16 20 18 22 9 24 1 26 5 28
REMARK Flexibility Score: inf
ROOT
ATOM      1  C   UNL     1     -20.703  14.283 -19.221  1.00  0.00     0.402 A 
ATOM      2  O   UNL     1     -21.376  14.290 -20.371  1.00  0.00    -0.202 OA
ATOM      3  C   UNL     1     -20.784  14.245 -21.560  1.00  0.00     0.368 A 
ATOM      4  C   UNL     1     -21.562  14.262 -22.721  1.00  0.00     0.162 A 
ATOM      5  C   UNL     1     -20.953  14.219 -23.979  1.00  0.00     0.128 A 
ATOM      6  C   UNL     1     -19.556  14.159 -24.078  1.00  0.00     0.093 A 
ATOM      7  C   UNL     1     -18.762  14.141 -22.921  1.00  0.00     0.136 A 
ATOM      8  C   UNL     1     -19.376  14.184 -21.655  1.00  0.00     0.125 A 
ATOM      9  C   UNL     1     -18.636  14.161 -20.469  1.00  0.00     0.078 A 
ATOM     10  C   UNL     1     -19.295  14.199 -19.236  1.00  0.00     0.223 A 
ENDROOT
BRANCH   1  11
ATOM     11  C   UNL     1     -21.473  14.345 -17.958  1.00  0.00     0.091 A 
ATOM     12  C   UNL     1     -21.759  15.573 -17.334  1.00  0.00     0.068 A 
ATOM     13  C   UNL     1     -22.509  15.613 -16.150  1.00  0.00     0.162 A 
ATOM     14  C   UNL     1     -21.980  13.162 -17.400  1.00  0.00     0.068 A 
ATOM     15  C   UNL     1     -22.992  14.420 -15.588  1.00  0.00     0.200 A 
ATOM     16  C   UNL     1     -22.730  13.196 -16.216  1.00  0.00     0.162 A 
BRANCH  13  17
ATOM     17  O   UNL     1     -22.780  16.834 -15.535  1.00  0.00    -0.504 OA
ATOM     18  H   UNL     1     -22.388  17.702 -15.883  1.00  0.00     0.293 HD
ENDBRANCH  13  17
BRANCH  15  19
ATOM     19  O   UNL     1     -23.738  14.434 -14.408  1.00  0.00    -0.502 OA
ATOM     20  H   UNL     1     -23.307  14.324 -13.498  1.00  0.00     0.293 HD
ENDBRANCH  15  19
BRANCH  16  21
ATOM     21  O   UNL     1     -23.218  12.016 -15.659  1.00  0.00    -0.504 OA
ATOM     22  H   UNL     1     -23.599  11.990 -14.720  1.00  0.00     0.293 HD
ENDBRANCH  16  21
ENDBRANCH   1  11
BRANCH  10  23
ATOM     23  O   UNL     1     -18.566  14.125 -18.050  1.00  0.00    -0.500 OA
ATOM     24  H   UNL     1     -17.873  13.403 -17.895  1.00  0.00     0.294 HD
ENDBRANCH  10  23
BRANCH   5  25
ATOM     25  O   UNL     1     -21.744  14.236 -25.125  1.00  0.00    -0.507 OA
ATOM     26  H   UNL     1     -21.845  13.416 -25.712  1.00  0.00     0.293 HD
ENDBRANCH   5  25
BRANCH   7  27
ATOM     27  O   UNL     1     -17.372  14.080 -23.030  1.00  0.00    -0.507 OA
ATOM     28  H   UNL     1     -16.876  14.576 -23.760  1.00  0.00     0.293 HD
ENDBRANCH   7  27
TORSDOF 7
ENDMDL
MODEL 3
REMARK VINA RESULT:    -4.039     13.900     14.841
REMARK INTER + INTRA:          -5.289
REMARK INTER:                  -4.950
REMARK INTRA:                  -0.339
REMARK UNBOUND:                -0.306
REMARK SMILES Oc1cc(O)c2cc(O)c(-c3cc(O)c(O)c(O)c3)[o+]c2c1.[Cl-]
REMARK SMILES IDX 10 1 20 2 21 3 22 4 2 5 3 6 4 7 6 8 7 9 8 10 11 11 12 12
REMARK SMILES IDX 13 13 19 14 15 15 17 16 14 17 16 19 18 21 9 23 1 25 5 27
REMARK H PARENT 14 18 16 20 18 22 9 24 1 26 5 28
REMARK Flexibility Score: inf
ROOT
ATOM      1  C   UNL     1     -19.155  28.588 -20.807  1.00  0.00     0.402 A 
ATOM      2  O   UNL     1     -20.358  28.485 -21.372  1.00  0.00    -0.202 OA
ATOM      3  C   UNL     1     -21.493  28.552 -20.684  1.00  0.00     0.368 A 
ATOM      4  C   UNL     1     -22.715  28.430 -21.352  1.00  0.00     0.162 A 
ATOM      5  C   UNL     1     -23.916  28.496 -20.640  1.00  0.00     0.128 A 
ATOM      6  C   UNL     1     -23.898  28.685 -19.252  1.00  0.00     0.093 A 
ATOM      7  C   UNL     1     -22.679  28.810 -18.568  1.00  0.00     0.136 A 
ATOM      8  C   UNL     1     -21.469  28.744 -19.285  1.00  0.00     0.125 A 
ATOM      9  C   UNL     1     -20.226  28.870 -18.658  1.00  0.00     0.078 A 
ATOM     10  C   UNL     1     -19.053  28.804 -19.417  1.00  0.00     0.223 A 
ENDROOT
BRANCH   1  11
ATOM     11  C   UNL     1     -17.962  28.487 -21.677  1.00  0.00     0.091 A 
ATOM     12  C   UNL     1     -17.510  27.247 -22.161  1.00  0.00     0.068 A 
ATOM     13  C   UNL     1     -16.391  27.174 -23.003  1.00  0.00     0.162 A 
ATOM     14  C   UNL     1     -17.298  29.658 -22.076  1.00  0.00     0.068 A 
ATOM     15  C   UNL     1     -15.720  28.351 -23.377  1.00  0.00     0.200 A 
ATOM     16  C   UNL     1     -16.178  29.592 -22.915  1.00  0.00     0.162 A 
BRANCH  13  17
ATOM     17  O   UNL     1     -15.947  25.939 -23.471  1.00  0.00    -0.504 OA
ATOM     18  H   UNL     1     -15.479  25.278 -22.862  1.00  0.00     0.293 HD
ENDBRANCH  13  17
BRANCH  15  19
ATOM     19  O   UNL     1     -14.601  28.304 -24.210  1.00  0.00    -0.502 OA
ATOM     20  H   UNL     1     -13.744  27.841 -23.934  1.00  0.00     0.293 HD
ENDBRANCH  15  19
BRANCH  16  21
ATOM     21  O   UNL     1     -15.514  30.756 -23.296  1.00  0.00    -0.504 OA
ATOM     22  H   UNL     1     -15.138  31.401 -22.611  1.00  0.00     0.293 HD
ENDBRANCH  16  21
ENDBRANCH   1  11
BRANCH  10  23
ATOM     23  O   UNL     1     -17.813  28.980 -18.805  1.00  0.00    -0.500 OA
ATOM     24  H   UNL     1     -17.448  29.901 -18.597  1.00  0.00     0.294 HD
ENDBRANCH  10  23
BRANCH   5  25
ATOM     25  O   UNL     1     -25.125  28.371 -21.322  1.00  0.00    -0.507 OA
ATOM     26  H   UNL     1     -25.282  28.832 -22.211  1.00  0.00     0.293 HD
ENDBRANCH   5  25
BRANCH   7  27
ATOM     27  O   UNL     1     -22.671  29.000 -17.185  1.00  0.00    -0.507 OA
ATOM     28  H   UNL     1     -22.240  29.814 -16.764  1.00  0.00     0.293 HD
ENDBRANCH   7  27
TORSDOF 7
ENDMDL
MODEL 4
REMARK VINA RESULT:    -4.035      1.735      6.827
REMARK INTER + INTRA:          -5.284
REMARK INTER:                  -4.958
REMARK INTRA:                  -0.326
REMARK UNBOUND:                -0.306
REMARK SMILES Oc1cc(O)c2cc(O)c(-c3cc(O)c(O)c(O)c3)[o+]c2c1.[Cl-]
REMARK SMILES IDX 10 1 20 2 21 3 22 4 2 5 3 6 4 7 6 8 7 9 8 10 11 11 12 12
REMARK SMILES IDX 13 13 19 14 15 15 17 16 14 17 16 19 18 21 9 23 1 25 5 27
REMARK H PARENT 14 18 16 20 18 22 9 24 1 26 5 28
REMARK Flexibility Score: inf
ROOT
ATOM      1  C   UNL     1     -20.832  14.272 -19.148  1.00  0.00     0.402 A 
ATOM      2  O   UNL     1     -21.360  14.381 -20.366  1.00  0.00    -0.202 OA
ATOM      3  C   UNL     1     -20.632  14.377 -21.478  1.00  0.00     0.368 A 
ATOM      4  C   UNL     1     -21.264  14.501 -22.720  1.00  0.00     0.162 A 
ATOM      5  C   UNL     1     -20.511  14.503 -23.897  1.00  0.00     0.128 A 
ATOM      6  C   UNL     1     -19.116  14.380 -23.835  1.00  0.00     0.093 A 
ATOM      7  C   UNL     1     -18.468  14.254 -22.597  1.00  0.00     0.136 A 
ATOM      8  C   UNL     1     -19.227  14.252 -21.412  1.00  0.00     0.125 A 
ATOM      9  C   UNL     1     -18.636  14.122 -20.151  1.00  0.00     0.078 A 
ATOM     10  C   UNL     1     -19.437  14.119 -19.004  1.00  0.00     0.223 A 
ENDROOT
BRANCH   1  11
ATOM     11  C   UNL     1     -21.745  14.297 -17.983  1.00  0.00     0.091 A 
ATOM     12  C   UNL     1     -22.079  13.121 -17.288  1.00  0.00     0.068 A 
ATOM     13  C   UNL     1     -22.927  13.168 -16.174  1.00  0.00     0.162 A 
ATOM     14  C   UNL     1     -22.244  15.526 -17.525  1.00  0.00     0.068 A 
ATOM     15  C   UNL     1     -23.440  14.401 -15.737  1.00  0.00     0.200 A 
ATOM     16  C   UNL     1     -23.094  15.579 -16.412  1.00  0.00     0.162 A 
BRANCH  13  17
ATOM     17  O   UNL     1     -23.258  11.996 -15.496  1.00  0.00    -0.504 OA
ATOM     18  H   UNL     1     -24.162  11.553 -15.613  1.00  0.00     0.293 HD
ENDBRANCH  13  17
BRANCH  15  19
ATOM     19  O   UNL     1     -24.290  14.474 -14.632  1.00  0.00    -0.502 OA
ATOM     20  H   UNL     1     -23.989  14.210 -13.703  1.00  0.00     0.293 HD
ENDBRANCH  15  19
BRANCH  16  21
ATOM     21  O   UNL     1     -23.599  16.800 -15.970  1.00  0.00    -0.504 OA
ATOM     22  H   UNL     1     -23.164  17.679 -16.227  1.00  0.00     0.293 HD
ENDBRANCH  16  21
ENDBRANCH   1  11
BRANCH  10  23
ATOM     23  O   UNL     1     -18.859  13.940 -17.748  1.00  0.00    -0.500 OA
ATOM     24  H   UNL     1     -19.369  14.134 -16.895  1.00  0.00     0.294 HD
ENDBRANCH  10  23
BRANCH   5  25
ATOM     25  O   UNL     1     -21.157  14.628 -25.124  1.00  0.00    -0.507 OA
ATOM     26  H   UNL     1     -22.056  14.192 -25.297  1.00  0.00     0.293 HD
ENDBRANCH   5  25
BRANCH   7  27
ATOM     27  O   UNL     1     -17.079  14.130 -22.546  1.00  0.00    -0.507 OA
ATOM     28  H   UNL     1     -16.513  14.743 -21.971  1.00  0.00     0.293 HD
ENDBRANCH   7  27
TORSDOF 7
ENDMDL
MODEL 5
REMARK VINA RESULT:    -3.982      1.792      2.020
REMARK INTER + INTRA:          -5.220
REMARK INTER:                  -4.838
REMARK INTRA:                  -0.382
REMARK UNBOUND:                -0.306
REMARK SMILES Oc1cc(O)c2cc(O)c(-c3cc(O)c(O)c(O)c3)[o+]c2c1.[Cl-]
REMARK SMILES IDX 10 1 20 2 21 3 22 4 2 5 3 6 4 7 6 8 7 9 8 10 11 11 12 12
REMARK SMILES IDX 13 13 19 14 15 15 17 16 14 17 16 19 18 21 9 23 1 25 5 27
REMARK H PARENT 14 18 16 20 18 22 9 24 1 26 5 28
REMARK Flexibility Score: inf
ROOT
ATOM      1  C   UNL     1     -20.997  14.443 -19.589  1.00  0.00     0.402 A 
ATOM      2  O   UNL     1     -20.515  13.422 -18.881  1.00  0.00    -0.202 OA
ATOM      3  C   UNL     1     -20.762  13.256 -17.585  1.00  0.00     0.368 A 
ATOM      4  C   UNL     1     -20.213  12.160 -16.912  1.00  0.00     0.162 A 
ATOM      5  C   UNL     1     -20.461  11.974 -15.549  1.00  0.00     0.128 A 
ATOM      6  C   UNL     1     -21.261  12.890 -14.853  1.00  0.00     0.093 A 
ATOM      7  C   UNL     1     -21.819  13.994 -15.515  1.00  0.00     0.136 A 
ATOM      8  C   UNL     1     -21.569  14.180 -16.888  1.00  0.00     0.125 A 
ATOM      9  C   UNL     1     -22.104  15.258 -17.601  1.00  0.00     0.078 A 
ATOM     10  C   UNL     1     -21.831  15.393 -18.966  1.00  0.00     0.223 A 
ENDROOT
BRANCH   1  11
ATOM     11  C   UNL     1     -20.646  14.526 -21.025  1.00  0.00     0.091 A 
ATOM     12  C   UNL     1     -19.562  15.304 -21.471  1.00  0.00     0.068 A 
ATOM     13  C   UNL     1     -19.232  15.352 -22.832  1.00  0.00     0.162 A 
ATOM     14  C   UNL     1     -21.372  13.770 -21.958  1.00  0.00     0.068 A 
ATOM     15  C   UNL     1     -19.980  14.609 -23.760  1.00  0.00     0.200 A 
ATOM     16  C   UNL     1     -21.047  13.815 -23.320  1.00  0.00     0.162 A 
BRANCH  13  17
ATOM     17  O   UNL     1     -18.161  16.132 -23.264  1.00  0.00    -0.504 OA
ATOM     18  H   UNL     1     -17.584  15.853 -24.050  1.00  0.00     0.293 HD
ENDBRANCH  13  17
BRANCH  15  19
ATOM     19  O   UNL     1     -19.673  14.644 -25.122  1.00  0.00    -0.502 OA
ATOM     20  H   UNL     1     -19.537  15.515 -25.620  1.00  0.00     0.293 HD
ENDBRANCH  15  19
BRANCH  16  21
ATOM     21  O   UNL     1     -21.781  13.073 -24.244  1.00  0.00    -0.504 OA
ATOM     22  H   UNL     1     -21.654  13.194 -25.242  1.00  0.00     0.293 HD
ENDBRANCH  16  21
ENDBRANCH   1  11
BRANCH  10  23
ATOM     23  O   UNL     1     -22.403  16.437 -19.693  1.00  0.00    -0.500 OA
ATOM     24  H   UNL     1     -23.359  16.731 -19.539  1.00  0.00     0.294 HD
ENDBRANCH  10  23
BRANCH   5  25
ATOM     25  O   UNL     1     -19.907  10.877 -14.895  1.00  0.00    -0.507 OA
ATOM     26  H   UNL     1     -19.843  10.839 -13.884  1.00  0.00     0.293 HD
ENDBRANCH   5  25
BRANCH   7  27
ATOM     27  O   UNL     1     -22.616  14.899 -14.812  1.00  0.00    -0.507 OA
ATOM     28  H   UNL     1     -23.502  14.622 -14.408  1.00  0.00     0.293 HD
ENDBRANCH   7  27
TORSDOF 7
ENDMDL
MODEL 6
REMARK VINA RESULT:    -3.955     13.400     15.464
REMARK INTER + INTRA:          -5.186
REMARK INTER:                  -4.925
REMARK INTRA:                  -0.261
REMARK UNBOUND:                -0.306
REMARK SMILES Oc1cc(O)c2cc(O)c(-c3cc(O)c(O)c(O)c3)[o+]c2c1.[Cl-]
REMARK SMILES IDX 10 1 20 2 21 3 22 4 2 5 3 6 4 7 6 8 7 9 8 10 11 11 12 12
REMARK SMILES IDX 13 13 19 14 15 15 17 16 14 17 16 19 18 21 9 23 1 25 5 27
REMARK H PARENT 14 18 16 20 18 22 9 24 1 26 5 28
REMARK Flexibility Score: inf
ROOT
ATOM      1  C   UNL     1     -19.473  28.187 -20.576  1.00  0.00     0.402 A 
ATOM      2  O   UNL     1     -18.867  29.016 -21.425  1.00  0.00    -0.202 OA
ATOM      3  C   UNL     1     -17.553  29.025 -21.619  1.00  0.00     0.368 A 
ATOM      4  C   UNL     1     -16.993  29.932 -22.525  1.00  0.00     0.162 A 
ATOM      5  C   UNL     1     -15.612  29.955 -22.737  1.00  0.00     0.128 A 
ATOM      6  C   UNL     1     -14.782  29.067 -22.039  1.00  0.00     0.093 A 
ATOM      7  C   UNL     1     -15.329  28.152 -21.127  1.00  0.00     0.136 A 
ATOM      8  C   UNL     1     -16.720  28.129 -20.915  1.00  0.00     0.125 A 
ATOM      9  C   UNL     1     -17.321  27.233 -20.024  1.00  0.00     0.078 A 
ATOM     10  C   UNL     1     -18.709  27.246 -19.854  1.00  0.00     0.223 A 
ENDROOT
BRANCH   1  11
ATOM     11  C   UNL     1     -20.944  28.277 -20.439  1.00  0.00     0.091 A 
ATOM     12  C   UNL     1     -21.803  27.888 -21.483  1.00  0.00     0.068 A 
ATOM     13  C   UNL     1     -23.194  27.959 -21.325  1.00  0.00     0.162 A 
ATOM     14  C   UNL     1     -21.499  28.704 -19.223  1.00  0.00     0.068 A 
ATOM     15  C   UNL     1     -23.738  28.410 -20.111  1.00  0.00     0.200 A 
ATOM     16  C   UNL     1     -22.889  28.779 -19.060  1.00  0.00     0.162 A 
BRANCH  13  17
ATOM     17  O   UNL     1     -24.036  27.578 -22.368  1.00  0.00    -0.504 OA
ATOM     18  H   UNL     1     -23.671  27.323 -23.278  1.00  0.00     0.293 HD
ENDBRANCH  13  17
BRANCH  15  19
ATOM     19  O   UNL     1     -25.120  28.494 -19.932  1.00  0.00    -0.502 OA
ATOM     20  H   UNL     1     -25.532  28.770 -19.049  1.00  0.00     0.293 HD
ENDBRANCH  15  19
BRANCH  16  21
ATOM     21  O   UNL     1     -23.433  29.218 -17.855  1.00  0.00    -0.504 OA
ATOM     22  H   UNL     1     -23.606  28.580 -17.087  1.00  0.00     0.293 HD
ENDBRANCH  16  21
ENDBRANCH   1  11
BRANCH  10  23
ATOM     23  O   UNL     1     -19.319  26.322 -19.007  1.00  0.00    -0.500 OA
ATOM     24  H   UNL     1     -19.674  25.438 -19.351  1.00  0.00     0.294 HD
ENDBRANCH  10  23
BRANCH   5  25
ATOM     25  O   UNL     1     -15.072  30.866 -23.643  1.00  0.00    -0.507 OA
ATOM     26  H   UNL     1     -14.071  31.001 -23.725  1.00  0.00     0.293 HD
ENDBRANCH   5  25
BRANCH   7  27
ATOM     27  O   UNL     1     -14.494  27.271 -20.438  1.00  0.00    -0.507 OA
ATOM     28  H   UNL     1     -13.774  26.741 -20.915  1.00  0.00     0.293 HD
ENDBRANCH   7  27
TORSDOF 7
ENDMDL
MODEL 7
REMARK VINA RESULT:    -3.914      0.875      1.965
REMARK INTER + INTRA:          -5.135
REMARK INTER:                  -4.780
REMARK INTRA:                  -0.355
REMARK UNBOUND:                -0.306
REMARK SMILES Oc1cc(O)c2cc(O)c(-c3cc(O)c(O)c(O)c3)[o+]c2c1.[Cl-]
REMARK SMILES IDX 10 1 20 2 21 3 22 4 2 5 3 6 4 7 6 8 7 9 8 10 11 11 12 12
REMARK SMILES IDX 13 13 19 14 15 15 17 16 14 17 16 19 18 21 9 23 1 25 5 27
REMARK H PARENT 14 18 16 20 18 22 9 24 1 26 5 28
REMARK Flexibility Score: inf
ROOT
ATOM      1  C   UNL     1     -20.735  14.777 -19.609  1.00  0.00     0.402 A 
ATOM      2  O   UNL     1     -21.458  13.859 -18.969  1.00  0.00    -0.202 OA
ATOM      3  C   UNL     1     -21.760  13.942 -17.677  1.00  0.00     0.368 A 
ATOM      4  C   UNL     1     -22.520  12.933 -17.078  1.00  0.00     0.162 A 
ATOM      5  C   UNL     1     -22.841  13.005 -15.720  1.00  0.00     0.128 A 
ATOM      6  C   UNL     1     -22.400  14.092 -14.953  1.00  0.00     0.093 A 
ATOM      7  C   UNL     1     -21.637  15.113 -15.541  1.00  0.00     0.136 A 
ATOM      8  C   UNL     1     -21.315  15.040 -16.909  1.00  0.00     0.125 A 
ATOM      9  C   UNL     1     -20.564  16.031 -17.549  1.00  0.00     0.078 A 
ATOM     10  C   UNL     1     -20.276  15.914 -18.913  1.00  0.00     0.223 A 
ENDROOT
BRANCH   1  11
ATOM     11  C   UNL     1     -20.457  14.571 -21.048  1.00  0.00     0.091 A 
ATOM     12  C   UNL     1     -21.406  14.901 -22.033  1.00  0.00     0.068 A 
ATOM     13  C   UNL     1     -21.115  14.720 -23.392  1.00  0.00     0.162 A 
ATOM     14  C   UNL     1     -19.201  14.090 -21.446  1.00  0.00     0.068 A 
ATOM     15  C   UNL     1     -19.862  14.216 -23.778  1.00  0.00     0.200 A 
ATOM     16  C   UNL     1     -18.905  13.904 -22.804  1.00  0.00     0.162 A 
BRANCH  13  17
ATOM     17  O   UNL     1     -22.065  15.043 -24.360  1.00  0.00    -0.504 OA
ATOM     18  H   UNL     1     -21.833  15.061 -25.346  1.00  0.00     0.293 HD
ENDBRANCH  13  17
BRANCH  15  19
ATOM     19  O   UNL     1     -19.551  14.022 -25.125  1.00  0.00    -0.502 OA
ATOM     20  H   UNL     1     -19.062  14.721 -25.670  1.00  0.00     0.293 HD
ENDBRANCH  15  19
BRANCH  16  21
ATOM     21  O   UNL     1     -17.661  13.412 -23.192  1.00  0.00    -0.504 OA
ATOM     22  H   UNL     1     -17.382  12.458 -22.995  1.00  0.00     0.293 HD
ENDBRANCH  16  21
ENDBRANCH   1  11
BRANCH  10  23
ATOM     23  O   UNL     1     -19.572  16.924 -19.568  1.00  0.00    -0.500 OA
ATOM     24  H   UNL     1     -19.710  17.901 -19.342  1.00  0.00     0.294 HD
ENDBRANCH  10  23
BRANCH   5  25
ATOM     25  O   UNL     1     -23.599  11.990 -15.139  1.00  0.00    -0.507 OA
ATOM     26  H   UNL     1     -23.348  11.588 -14.243  1.00  0.00     0.293 HD
ENDBRANCH   5  25
BRANCH   7  27
ATOM     27  O   UNL     1     -21.205  16.192 -14.769  1.00  0.00    -0.507 OA
ATOM     28  H   UNL     1     -21.831  16.947 -14.515  1.00  0.00     0.293 HD
ENDBRANCH   7  27
TORSDOF 7
ENDMDL
MODEL 8
REMARK VINA RESULT:    -3.829      1.937      2.330
REMARK INTER + INTRA:          -5.031
REMARK INTER:                  -4.648
REMARK INTRA:                  -0.383
REMARK UNBOUND:                -0.306
REMARK SMILES Oc1cc(O)c2cc(O)c(-c3cc(O)c(O)c(O)c3)[o+]c2c1.[Cl-]
REMARK SMILES IDX 10 1 20 2 21 3 22 4 2 5 3 6 4 7 6 8 7 9 8 10 11 11 12 12
REMARK SMILES IDX 13 13 19 14 15 15 17 16 14 17 16 19 18 21 9 23 1 25 5 27
REMARK H PARENT 14 18 16 20 18 22 9 24 1 26 5 28
REMARK Flexibility Score: inf
ROOT
ATOM      1  C   UNL     1     -20.799  14.681 -20.374  1.00  0.00     0.402 A 
ATOM      2  O   UNL     1     -21.104  13.749 -19.473  1.00  0.00    -0.202 OA
ATOM      3  C   UNL     1     -21.781  14.008 -18.359  1.00  0.00     0.368 A 
ATOM      4  C   UNL     1     -22.058  12.973 -17.460  1.00  0.00     0.162 A 
ATOM      5  C   UNL     1     -22.766  13.231 -16.283  1.00  0.00     0.128 A 
ATOM      6  C   UNL     1     -23.201  14.533 -16.001  1.00  0.00     0.093 A 
ATOM      7  C   UNL     1     -22.932  15.582 -16.893  1.00  0.00     0.136 A 
ATOM      8  C   UNL     1     -22.219  15.321 -18.078  1.00  0.00     0.125 A 
ATOM      9  C   UNL     1     -21.929  16.325 -19.008  1.00  0.00     0.078 A 
ATOM     10  C   UNL     1     -21.223  16.011 -20.174  1.00  0.00     0.223 A 
ENDROOT
BRANCH   1  11
ATOM     11  C   UNL     1     -20.032  14.272 -21.572  1.00  0.00     0.091 A 
ATOM     12  C   UNL     1     -18.626  14.267 -21.576  1.00  0.00     0.068 A 
ATOM     13  C   UNL     1     -17.917  13.855 -22.713  1.00  0.00     0.162 A 
ATOM     14  C   UNL     1     -20.719  13.825 -22.712  1.00  0.00     0.068 A 
ATOM     15  C   UNL     1     -18.615  13.431 -23.857  1.00  0.00     0.200 A 
ATOM     16  C   UNL     1     -20.016  13.414 -23.852  1.00  0.00     0.162 A 
BRANCH  13  17
ATOM     17  O   UNL     1     -16.524  13.861 -22.710  1.00  0.00    -0.504 OA
ATOM     18  H   UNL     1     -15.992  14.122 -23.532  1.00  0.00     0.293 HD
ENDBRANCH  13  17
BRANCH  15  19
ATOM     19  O   UNL     1     -17.933  13.021 -25.003  1.00  0.00    -0.502 OA
ATOM     20  H   UNL     1     -17.091  12.460 -24.956  1.00  0.00     0.293 HD
ENDBRANCH  15  19
BRANCH  16  21
ATOM     21  O   UNL     1     -20.704  12.985 -24.986  1.00  0.00    -0.504 OA
ATOM     22  H   UNL     1     -20.975  13.631 -25.718  1.00  0.00     0.293 HD
ENDBRANCH  16  21
ENDBRANCH   1  11
BRANCH  10  23
ATOM     23  O   UNL     1     -20.975  16.997 -21.128  1.00  0.00    -0.500 OA
ATOM     24  H   UNL     1     -20.227  17.671 -21.014  1.00  0.00     0.294 HD
ENDBRANCH  10  23
BRANCH   5  25
ATOM     25  O   UNL     1     -23.032  12.188 -15.399  1.00  0.00    -0.507 OA
ATOM     26  H   UNL     1     -23.762  11.510 -15.584  1.00  0.00     0.293 HD
ENDBRANCH   5  25
BRANCH   7  27
ATOM     27  O   UNL     1     -23.371  16.875 -16.603  1.00  0.00    -0.507 OA
ATOM     28  H   UNL     1     -24.255  17.042 -16.136  1.00  0.00     0.293 HD
ENDBRANCH   7  27
TORSDOF 7
ENDMDL
