MODEL 1
REMARK VINA RESULT:    -6.821      0.000      0.000
REMARK INTER + INTRA:          -7.435
REMARK INTER:                  -7.220
REMARK INTRA:                  -0.216
REMARK UNBOUND:                -0.216
REMARK SMILES C=C(C)[C@H]1CC[C@@]2(C)CCCC(=C)[C@H]2C1
REMARK SMILES IDX 4 1 5 2 6 3 7 4 9 5 10 6 11 7 12 8 13 9 14 10 15 11 8 12
REMARK SMILES IDX 2 13 3 14 1 15
REMARK H PARENT
REMARK Flexibility Score: inf
ROOT
ATOM      1  C   UNL     1      -2.244 -16.664  11.418  1.00  0.00     0.015 C 
ATOM      2  C   UNL     1      -3.263 -17.835  11.368  1.00  0.00     0.008 C 
ATOM      3  C   UNL     1      -4.351 -17.642  10.300  1.00  0.00     0.008 C 
ATOM      4  C   UNL     1      -3.772 -17.414   8.867  1.00  0.00    -0.026 C 
ATOM      5  C   UNL     1      -4.930 -16.895   7.952  1.00  0.00     0.008 C 
ATOM      6  C   UNL     1      -5.044 -15.371   7.963  1.00  0.00     0.005 C 
ATOM      7  C   UNL     1      -3.809 -14.750   7.310  1.00  0.00     0.031 C 
ATOM      8  C   UNL     1      -2.528 -15.409   7.766  1.00  0.00    -0.074 C 
ATOM      9  C   UNL     1      -1.369 -15.020   7.210  1.00  0.00     0.008 C 
ATOM     10  C   UNL     1      -2.528 -16.429   8.899  1.00  0.00     0.021 C 
ATOM     11  C   UNL     1      -2.391 -15.679  10.240  1.00  0.00     0.016 C 
ATOM     12  C   UNL     1      -3.316 -18.780   8.297  1.00  0.00     0.012 C 
ENDROOT
BRANCH   1  13
ATOM     13  C   UNL     1      -2.295 -15.921  12.748  1.00  0.00    -0.077 C 
ATOM     14  C   UNL     1      -1.912 -16.622  14.026  1.00  0.00     0.039 C 
ATOM     15  C   UNL     1      -2.681 -14.635  12.807  1.00  0.00     0.008 C 
ENDBRANCH   1  13
TORSDOF 1
ENDMDL
MODEL 2
REMARK VINA RESULT:    -6.805      1.418      5.020
REMARK INTER + INTRA:          -7.418
REMARK INTER:                  -7.210
REMARK INTRA:                  -0.208
REMARK UNBOUND:                -0.216
REMARK SMILES C=C(C)[C@H]1CC[C@@]2(C)CCCC(=C)[C@H]2C1
REMARK SMILES IDX 4 1 5 2 6 3 7 4 9 5 10 6 11 7 12 8 13 9 14 10 15 11 8 12
REMARK SMILES IDX 2 13 3 14 1 15
REMARK H PARENT
REMARK Flexibility Score: inf
ROOT
ATOM      1  C   UNL     1      -3.553 -16.187   8.130  1.00  0.00     0.015 C 
ATOM      2  C   UNL     1      -2.730 -15.039   7.484  1.00  0.00     0.008 C 
ATOM      3  C   UNL     1      -2.272 -13.981   8.499  1.00  0.00     0.008 C 
ATOM      4  C   UNL     1      -1.455 -14.582   9.687  1.00  0.00    -0.026 C 
ATOM      5  C   UNL     1      -1.348 -13.492  10.803  1.00  0.00     0.008 C 
ATOM      6  C   UNL     1      -2.509 -13.554  11.794  1.00  0.00     0.005 C 
ATOM      7  C   UNL     1      -2.440 -14.853  12.599  1.00  0.00     0.031 C 
ATOM      8  C   UNL     1      -2.131 -16.049  11.728  1.00  0.00    -0.074 C 
ATOM      9  C   UNL     1      -1.958 -17.246  12.314  1.00  0.00     0.008 C 
ATOM     10  C   UNL     1      -2.106 -15.931  10.209  1.00  0.00     0.021 C 
ATOM     11  C   UNL     1      -3.535 -16.155   9.672  1.00  0.00     0.016 C 
ATOM     12  C   UNL     1      -0.015 -14.877   9.195  1.00  0.00     0.012 C 
ENDROOT
BRANCH   1  13
ATOM     13  C   UNL     1      -4.986 -16.223   7.611  1.00  0.00    -0.077 C 
ATOM     14  C   UNL     1      -5.298 -15.778   6.205  1.00  0.00     0.039 C 
ATOM     15  C   UNL     1      -5.994 -16.649   8.391  1.00  0.00     0.008 C 
ENDBRANCH   1  13
TORSDOF 1
ENDMDL
MODEL 3
REMARK VINA RESULT:    -6.652      1.550      4.968
REMARK INTER + INTRA:          -7.257
REMARK INTER:                  -7.053
REMARK INTRA:                  -0.204
REMARK UNBOUND:                -0.216
REMARK SMILES C=C(C)[C@H]1CC[C@@]2(C)CCCC(=C)[C@H]2C1
REMARK SMILES IDX 4 1 5 2 6 3 7 4 9 5 10 6 11 7 12 8 13 9 14 10 15 11 8 12
REMARK SMILES IDX 2 13 3 14 1 15
REMARK H PARENT
REMARK Flexibility Score: inf
ROOT
ATOM      1  C   UNL     1      -3.722 -14.786   6.971  1.00  0.00     0.015 C 
ATOM      2  C   UNL     1      -3.129 -13.788   8.002  1.00  0.00     0.008 C 
ATOM      3  C   UNL     1      -3.120 -14.337   9.437  1.00  0.00     0.008 C 
ATOM      4  C   UNL     1      -2.370 -15.702   9.567  1.00  0.00    -0.026 C 
ATOM      5  C   UNL     1      -2.719 -16.317  10.962  1.00  0.00     0.008 C 
ATOM      6  C   UNL     1      -3.965 -17.200  10.915  1.00  0.00     0.005 C 
ATOM      7  C   UNL     1      -3.692 -18.445  10.070  1.00  0.00     0.031 C 
ATOM      8  C   UNL     1      -2.957 -18.117   8.791  1.00  0.00    -0.074 C 
ATOM      9  C   UNL     1      -2.577 -19.125   7.989  1.00  0.00     0.008 C 
ATOM     10  C   UNL     1      -2.728 -16.672   8.363  1.00  0.00     0.021 C 
ATOM     11  C   UNL     1      -3.951 -16.196   7.552  1.00  0.00     0.016 C 
ATOM     12  C   UNL     1      -0.845 -15.429   9.555  1.00  0.00     0.012 C 
ENDROOT
BRANCH   1  13
ATOM     13  C   UNL     1      -4.999 -14.255   6.331  1.00  0.00    -0.077 C 
ATOM     14  C   UNL     1      -5.649 -15.001   5.195  1.00  0.00     0.039 C 
ATOM     15  C   UNL     1      -5.568 -13.117   6.765  1.00  0.00     0.008 C 
ENDBRANCH   1  13
TORSDOF 1
ENDMDL
MODEL 4
REMARK VINA RESULT:    -6.357      1.311      3.131
REMARK INTER + INTRA:          -6.944
REMARK INTER:                  -6.730
REMARK INTRA:                  -0.214
REMARK UNBOUND:                -0.216
REMARK SMILES C=C(C)[C@H]1CC[C@@]2(C)CCCC(=C)[C@H]2C1
REMARK SMILES IDX 4 1 5 2 6 3 7 4 9 5 10 6 11 7 12 8 13 9 14 10 15 11 8 12
REMARK SMILES IDX 2 13 3 14 1 15
REMARK H PARENT
REMARK Flexibility Score: inf
ROOT
ATOM      1  C   UNL     1      -2.920 -14.550  11.743  1.00  0.00     0.015 C 
ATOM      2  C   UNL     1      -1.695 -14.058  10.926  1.00  0.00     0.008 C 
ATOM      3  C   UNL     1      -1.263 -15.046   9.831  1.00  0.00     0.008 C 
ATOM      4  C   UNL     1      -2.416 -15.410   8.842  1.00  0.00    -0.026 C 
ATOM      5  C   UNL     1      -1.966 -16.655   8.009  1.00  0.00     0.008 C 
ATOM      6  C   UNL     1      -2.351 -17.974   8.676  1.00  0.00     0.005 C 
ATOM      7  C   UNL     1      -3.873 -18.126   8.693  1.00  0.00     0.031 C 
ATOM      8  C   UNL     1      -4.571 -16.848   9.099  1.00  0.00    -0.074 C 
ATOM      9  C   UNL     1      -5.913 -16.811   9.077  1.00  0.00     0.008 C 
ATOM     10  C   UNL     1      -3.781 -15.650   9.614  1.00  0.00     0.021 C 
ATOM     11  C   UNL     1      -3.591 -15.801  11.137  1.00  0.00     0.016 C 
ATOM     12  C   UNL     1      -2.601 -14.236   7.848  1.00  0.00     0.012 C 
ENDROOT
BRANCH   1  13
ATOM     13  C   UNL     1      -2.572 -14.785  13.208  1.00  0.00    -0.077 C 
ATOM     14  C   UNL     1      -2.057 -16.126  13.663  1.00  0.00     0.039 C 
ATOM     15  C   UNL     1      -2.716 -13.806  14.118  1.00  0.00     0.008 C 
ENDBRANCH   1  13
TORSDOF 1
ENDMDL
MODEL 5
REMARK VINA RESULT:    -6.347      1.914      3.848
REMARK INTER + INTRA:          -6.934
REMARK INTER:                  -6.723
REMARK INTRA:                  -0.211
REMARK UNBOUND:                -0.216
REMARK SMILES C=C(C)[C@H]1CC[C@@]2(C)CCCC(=C)[C@H]2C1
REMARK SMILES IDX 4 1 5 2 6 3 7 4 9 5 10 6 11 7 12 8 13 9 14 10 15 11 8 12
REMARK SMILES IDX 2 13 3 14 1 15
REMARK H PARENT
REMARK Flexibility Score: inf
ROOT
ATOM      1  C   UNL     1      -2.647 -14.068   9.280  1.00  0.00     0.015 C 
ATOM      2  C   UNL     1      -2.638 -14.282   7.742  1.00  0.00     0.008 C 
ATOM      3  C   UNL     1      -2.832 -15.751   7.337  1.00  0.00     0.008 C 
ATOM      4  C   UNL     1      -4.133 -16.385   7.927  1.00  0.00    -0.026 C 
ATOM      5  C   UNL     1      -4.045 -17.935   7.741  1.00  0.00     0.008 C 
ATOM      6  C   UNL     1      -3.374 -18.628   8.926  1.00  0.00     0.005 C 
ATOM      7  C   UNL     1      -4.250 -18.498  10.173  1.00  0.00     0.031 C 
ATOM      8  C   UNL     1      -4.808 -17.103  10.336  1.00  0.00    -0.074 C 
ATOM      9  C   UNL     1      -5.663 -16.864  11.344  1.00  0.00     0.008 C 
ATOM     10  C   UNL     1      -4.344 -15.960   9.441  1.00  0.00     0.021 C 
ATOM     11  C   UNL     1      -3.086 -15.321  10.066  1.00  0.00     0.016 C 
ATOM     12  C   UNL     1      -5.343 -15.892   7.094  1.00  0.00     0.012 C 
ENDROOT
BRANCH   1  13
ATOM     13  C   UNL     1      -1.306 -13.555   9.793  1.00  0.00    -0.077 C 
ATOM     14  C   UNL     1      -0.033 -14.290   9.460  1.00  0.00     0.039 C 
ATOM     15  C   UNL     1      -1.233 -12.446  10.547  1.00  0.00     0.008 C 
ENDBRANCH   1  13
TORSDOF 1
ENDMDL
MODEL 6
REMARK VINA RESULT:    -5.904      1.601      5.072
REMARK INTER + INTRA:          -6.465
REMARK INTER:                  -6.250
REMARK INTRA:                  -0.214
REMARK UNBOUND:                -0.216
REMARK SMILES C=C(C)[C@H]1CC[C@@]2(C)CCCC(=C)[C@H]2C1
REMARK SMILES IDX 4 1 5 2 6 3 7 4 9 5 10 6 11 7 12 8 13 9 14 10 15 11 8 12
REMARK SMILES IDX 2 13 3 14 1 15
REMARK H PARENT
REMARK Flexibility Score: inf
ROOT
ATOM      1  C   UNL     1      -5.046 -16.065   6.988  1.00  0.00     0.015 C 
ATOM      2  C   UNL     1      -3.711 -16.741   6.572  1.00  0.00     0.008 C 
ATOM      3  C   UNL     1      -2.641 -16.690   7.673  1.00  0.00     0.008 C 
ATOM      4  C   UNL     1      -3.120 -17.309   9.026  1.00  0.00    -0.026 C 
ATOM      5  C   UNL     1      -2.100 -16.895  10.137  1.00  0.00     0.008 C 
ATOM      6  C   UNL     1      -2.471 -15.572  10.806  1.00  0.00     0.005 C 
ATOM      7  C   UNL     1      -3.769 -15.733  11.598  1.00  0.00     0.031 C 
ATOM      8  C   UNL     1      -4.817 -16.504  10.829  1.00  0.00    -0.074 C 
ATOM      9  C   UNL     1      -5.980 -16.793  11.435  1.00  0.00     0.008 C 
ATOM     10  C   UNL     1      -4.607 -16.869   9.364  1.00  0.00     0.021 C 
ATOM     11  C   UNL     1      -5.101 -15.701   8.487  1.00  0.00     0.016 C 
ATOM     12  C   UNL     1      -3.067 -18.853   8.908  1.00  0.00     0.012 C 
ENDROOT
BRANCH   1  13
ATOM     13  C   UNL     1      -5.360 -14.846   6.128  1.00  0.00    -0.077 C 
ATOM     14  C   UNL     1      -5.245 -13.458   6.703  1.00  0.00     0.039 C 
ATOM     15  C   UNL     1      -5.745 -14.984   4.848  1.00  0.00     0.008 C 
ENDBRANCH   1  13
TORSDOF 1
ENDMDL
MODEL 7
REMARK VINA RESULT:    -5.591      1.897      4.159
REMARK INTER + INTRA:          -6.133
REMARK INTER:                  -5.925
REMARK INTRA:                  -0.208
REMARK UNBOUND:                -0.216
REMARK SMILES C=C(C)[C@H]1CC[C@@]2(C)CCCC(=C)[C@H]2C1
REMARK SMILES IDX 4 1 5 2 6 3 7 4 9 5 10 6 11 7 12 8 13 9 14 10 15 11 8 12
REMARK SMILES IDX 2 13 3 14 1 15
REMARK H PARENT
REMARK Flexibility Score: inf
ROOT
ATOM      1  C   UNL     1      -1.255 -17.749  13.994  1.00  0.00     0.015 C 
ATOM      2  C   UNL     1      -1.794 -16.522  14.778  1.00  0.00     0.008 C 
ATOM      3  C   UNL     1      -2.002 -15.284  13.893  1.00  0.00     0.008 C 
ATOM      4  C   UNL     1      -2.938 -15.553  12.671  1.00  0.00    -0.026 C 
ATOM      5  C   UNL     1      -2.797 -14.353  11.678  1.00  0.00     0.008 C 
ATOM      6  C   UNL     1      -1.682 -14.568  10.655  1.00  0.00     0.005 C 
ATOM      7  C   UNL     1      -2.047 -15.723   9.721  1.00  0.00     0.031 C 
ATOM      8  C   UNL     1      -2.618 -16.906  10.470  1.00  0.00    -0.074 C 
ATOM      9  C   UNL     1      -3.060 -17.962   9.767  1.00  0.00     0.008 C 
ATOM     10  C   UNL     1      -2.611 -16.950  11.993  1.00  0.00     0.021 C 
ATOM     11  C   UNL     1      -1.269 -17.547  12.465  1.00  0.00     0.016 C 
ATOM     12  C   UNL     1      -4.405 -15.566  13.167  1.00  0.00     0.012 C 
ENDROOT
BRANCH   1  13
ATOM     13  C   UNL     1       0.134 -18.163  14.468  1.00  0.00    -0.077 C 
ATOM     14  C   UNL     1       0.547 -17.942  15.900  1.00  0.00     0.039 C 
ATOM     15  C   UNL     1       1.011 -18.730  13.623  1.00  0.00     0.008 C 
ENDBRANCH   1  13
TORSDOF 1
ENDMDL
MODEL 8
REMARK VINA RESULT:    -5.523      1.554      2.313
REMARK INTER + INTRA:          -6.062
REMARK INTER:                  -5.855
REMARK INTRA:                  -0.207
REMARK UNBOUND:                -0.216
REMARK SMILES C=C(C)[C@H]1CC[C@@]2(C)CCCC(=C)[C@H]2C1
REMARK SMILES IDX 4 1 5 2 6 3 7 4 9 5 10 6 11 7 12 8 13 9 14 10 15 11 8 12
REMARK SMILES IDX 2 13 3 14 1 15
REMARK H PARENT
REMARK Flexibility Score: inf
ROOT
ATOM      1  C   UNL     1      -1.739 -14.693   9.864  1.00  0.00     0.015 C 
ATOM      2  C   UNL     1      -1.563 -16.058  10.583  1.00  0.00     0.008 C 
ATOM      3  C   UNL     1      -2.790 -16.972  10.450  1.00  0.00     0.008 C 
ATOM      4  C   UNL     1      -3.206 -17.232   8.966  1.00  0.00    -0.026 C 
ATOM      5  C   UNL     1      -4.634 -17.870   8.966  1.00  0.00     0.008 C 
ATOM      6  C   UNL     1      -5.742 -16.819   8.913  1.00  0.00     0.005 C 
ATOM      7  C   UNL     1      -5.709 -16.092   7.569  1.00  0.00     0.031 C 
ATOM      8  C   UNL     1      -4.304 -15.722   7.153  1.00  0.00    -0.074 C 
ATOM      9  C   UNL     1      -4.116 -15.152   5.951  1.00  0.00     0.008 C 
ATOM     10  C   UNL     1      -3.128 -15.901   8.106  1.00  0.00     0.021 C 
ATOM     11  C   UNL     1      -2.997 -14.633   8.974  1.00  0.00     0.016 C 
ATOM     12  C   UNL     1      -2.237 -18.279   8.360  1.00  0.00     0.012 C 
ENDROOT
BRANCH   1  13
ATOM     13  C   UNL     1      -1.720 -13.526  10.845  1.00  0.00    -0.077 C 
ATOM     14  C   UNL     1      -2.210 -13.710  12.258  1.00  0.00     0.039 C 
ATOM     15  C   UNL     1      -1.268 -12.316  10.471  1.00  0.00     0.008 C 
ENDBRANCH   1  13
TORSDOF 1
ENDMDL
MODEL 9
REMARK VINA RESULT:    -5.415      1.865      4.797
REMARK INTER + INTRA:          -5.947
REMARK INTER:                  -5.741
REMARK INTRA:                  -0.206
REMARK UNBOUND:                -0.216
REMARK SMILES C=C(C)[C@H]1CC[C@@]2(C)CCCC(=C)[C@H]2C1
REMARK SMILES IDX 4 1 5 2 6 3 7 4 9 5 10 6 11 7 12 8 13 9 14 10 15 11 8 12
REMARK SMILES IDX 2 13 3 14 1 15
REMARK H PARENT
REMARK Flexibility Score: inf
ROOT
ATOM      1  C   UNL     1      -4.964 -14.913   7.652  1.00  0.00     0.015 C 
ATOM      2  C   UNL     1      -4.917 -16.464   7.594  1.00  0.00     0.008 C 
ATOM      3  C   UNL     1      -3.499 -17.031   7.757  1.00  0.00     0.008 C 
ATOM      4  C   UNL     1      -2.792 -16.553   9.067  1.00  0.00    -0.026 C 
ATOM      5  C   UNL     1      -1.272 -16.902   8.954  1.00  0.00     0.008 C 
ATOM      6  C   UNL     1      -0.462 -15.778   8.309  1.00  0.00     0.005 C 
ATOM      7  C   UNL     1      -0.448 -14.553   9.224  1.00  0.00     0.031 C 
ATOM      8  C   UNL     1      -1.812 -14.257   9.804  1.00  0.00    -0.074 C 
ATOM      9  C   UNL     1      -1.932 -13.256  10.692  1.00  0.00     0.008 C 
ATOM     10  C   UNL     1      -3.050 -15.009   9.328  1.00  0.00     0.021 C 
ATOM     11  C   UNL     1      -3.629 -14.281   8.098  1.00  0.00     0.016 C 
ATOM     12  C   UNL     1      -3.361 -17.365  10.258  1.00  0.00     0.012 C 
ENDROOT
BRANCH   1  13
ATOM     13  C   UNL     1      -5.431 -14.307   6.334  1.00  0.00    -0.077 C 
ATOM     14  C   UNL     1      -5.577 -15.172   5.108  1.00  0.00     0.039 C 
ATOM     15  C   UNL     1      -5.719 -12.998   6.238  1.00  0.00     0.008 C 
ENDBRANCH   1  13
TORSDOF 1
ENDMDL
