MODEL 1
REMARK VINA RESULT:    -0.004      0.000      0.000
REMARK INTER + INTRA:          -0.067
REMARK INTER:                  -0.004
REMARK INTRA:                  -0.063
REMARK UNBOUND:                -0.063
REMARK SMILES COc1cc2ccc(=O)oc2cc1O
REMARK SMILES IDX 3 1 13 2 12 3 11 4 5 5 4 6 6 7 7 8 8 9 9 10 10 11 2 12 1 13
REMARK SMILES IDX 14 14
REMARK H PARENT 14 15
REMARK Flexibility Score: inf
ROOT
ATOM      1  C   UNL     1      15.976  12.197  60.809  1.00  0.00     0.161 A 
ATOM      2  C   UNL     1      16.780  13.339  60.632  1.00  0.00     0.161 A 
ATOM      3  C   UNL     1      18.156  13.277  60.874  1.00  0.00     0.098 A 
ATOM      4  C   UNL     1      18.748  12.083  61.295  1.00  0.00     0.142 A 
ATOM      5  C   UNL     1      17.951  10.934  61.475  1.00  0.00     0.022 A 
ATOM      6  C   UNL     1      16.572  10.992  61.234  1.00  0.00     0.062 A 
ATOM      7  C   UNL     1      18.571   9.753  61.898  1.00  0.00     0.019 A 
ATOM      8  C   UNL     1      19.948   9.746  62.125  1.00  0.00     0.094 A 
ATOM      9  C   UNL     1      20.673  10.925  61.925  1.00  0.00     0.336 A 
ATOM     10  O   UNL     1      21.916  10.939  62.124  1.00  0.00    -0.246 OA
ATOM     11  O   UNL     1      20.058  12.035  61.523  1.00  0.00    -0.423 OA
ENDROOT
BRANCH   1  12
ATOM     12  O   UNL     1      14.597  12.294  60.556  1.00  0.00    -0.493 OA
ATOM     13  C   UNL     1      13.933  11.691  59.451  1.00  0.00     0.278 C 
ENDBRANCH   1  12
BRANCH   2  14
ATOM     14  O   UNL     1      16.227  14.550  60.213  1.00  0.00    -0.504 OA
ATOM     15  H   UNL     1      16.478  14.984  59.333  1.00  0.00     0.293 HD
ENDBRANCH   2  14
TORSDOF 2
ENDMDL
MODEL 2
REMARK VINA RESULT:    -0.002      6.738      8.444
REMARK INTER + INTRA:          -0.065
REMARK INTER:                   0.000
REMARK INTRA:                  -0.065
REMARK UNBOUND:                -0.063
REMARK SMILES COc1cc2ccc(=O)oc2cc1O
REMARK SMILES IDX 3 1 13 2 12 3 11 4 5 5 4 6 6 7 7 8 8 9 9 10 10 11 2 12 1 13
REMARK SMILES IDX 14 14
REMARK H PARENT 14 15
REMARK Flexibility Score: inf
ROOT
ATOM      1  C   UNL     1      15.623  16.236  52.724  1.00  0.00     0.161 A 
ATOM      2  C   UNL     1      15.636  16.967  53.927  1.00  0.00     0.161 A 
ATOM      3  C   UNL     1      15.640  16.300  55.157  1.00  0.00     0.098 A 
ATOM      4  C   UNL     1      15.630  14.904  55.206  1.00  0.00     0.142 A 
ATOM      5  C   UNL     1      15.618  14.163  54.006  1.00  0.00     0.022 A 
ATOM      6  C   UNL     1      15.614  14.827  52.772  1.00  0.00     0.062 A 
ATOM      7  C   UNL     1      15.609  12.766  54.086  1.00  0.00     0.019 A 
ATOM      8  C   UNL     1      15.613  12.152  55.339  1.00  0.00     0.094 A 
ATOM      9  C   UNL     1      15.626  12.953  56.485  1.00  0.00     0.336 A 
ATOM     10  O   UNL     1      15.630  12.418  57.625  1.00  0.00    -0.246 OA
ATOM     11  O   UNL     1      15.635  14.280  56.381  1.00  0.00    -0.423 OA
ENDROOT
BRANCH   1  12
ATOM     12  O   UNL     1      15.620  16.936  51.506  1.00  0.00    -0.493 OA
ATOM     13  C   UNL     1      16.774  17.176  50.708  1.00  0.00     0.278 C 
ENDBRANCH   1  12
BRANCH   2  14
ATOM     14  O   UNL     1      15.645  18.362  53.920  1.00  0.00    -0.504 OA
ATOM     15  H   UNL     1      16.429  18.896  53.565  1.00  0.00     0.293 HD
ENDBRANCH   2  14
TORSDOF 2
ENDMDL
MODEL 3
REMARK VINA RESULT:    -0.002     17.876     20.544
REMARK INTER + INTRA:          -0.065
REMARK INTER:                   0.000
REMARK INTRA:                  -0.065
REMARK UNBOUND:                -0.063
REMARK SMILES COc1cc2ccc(=O)oc2cc1O
REMARK SMILES IDX 3 1 13 2 12 3 11 4 5 5 4 6 6 7 7 8 8 9 9 10 10 11 2 12 1 13
REMARK SMILES IDX 14 14
REMARK H PARENT 14 15
REMARK Flexibility Score: inf
ROOT
ATOM      1  C   UNL     1      10.590  22.720  47.871  1.00  0.00     0.161 A 
ATOM      2  C   UNL     1      11.001  23.422  49.021  1.00  0.00     0.161 A 
ATOM      3  C   UNL     1      11.132  24.814  48.988  1.00  0.00     0.098 A 
ATOM      4  C   UNL     1      10.859  25.523  47.815  1.00  0.00     0.142 A 
ATOM      5  C   UNL     1      10.447  24.829  46.659  1.00  0.00     0.022 A 
ATOM      6  C   UNL     1      10.314  23.435  46.688  1.00  0.00     0.062 A 
ATOM      7  C   UNL     1      10.180  25.566  45.500  1.00  0.00     0.019 A 
ATOM      8  C   UNL     1      10.327  26.953  45.521  1.00  0.00     0.094 A 
ATOM      9  C   UNL     1      10.739  27.572  46.706  1.00  0.00     0.336 A 
ATOM     10  O   UNL     1      10.878  28.823  46.746  1.00  0.00    -0.246 OA
ATOM     11  O   UNL     1      10.986  26.847  47.794  1.00  0.00    -0.423 OA
ENDROOT
BRANCH   1  12
ATOM     12  O   UNL     1      10.468  21.322  47.939  1.00  0.00    -0.493 OA
ATOM     13  C   UNL     1       9.241  20.626  48.133  1.00  0.00     0.278 C 
ENDBRANCH   1  12
BRANCH   2  14
ATOM     14  O   UNL     1      11.284  22.749  50.210  1.00  0.00    -0.504 OA
ATOM     15  H   UNL     1      12.175  22.297  50.378  1.00  0.00     0.293 HD
ENDBRANCH   2  14
TORSDOF 2
ENDMDL
MODEL 4
REMARK VINA RESULT:    -0.002      9.166     11.494
REMARK INTER + INTRA:          -0.065
REMARK INTER:                   0.000
REMARK INTRA:                  -0.065
REMARK UNBOUND:                -0.063
REMARK SMILES COc1cc2ccc(=O)oc2cc1O
REMARK SMILES IDX 3 1 13 2 12 3 11 4 5 5 4 6 6 7 7 8 8 9 9 10 10 11 2 12 1 13
REMARK SMILES IDX 14 14
REMARK H PARENT 14 15
REMARK Flexibility Score: inf
ROOT
ATOM      1  C   UNL     1      12.121  18.975  52.520  1.00  0.00     0.161 A 
ATOM      2  C   UNL     1      11.493  17.882  53.147  1.00  0.00     0.161 A 
ATOM      3  C   UNL     1      11.780  17.575  54.481  1.00  0.00     0.098 A 
ATOM      4  C   UNL     1      12.691  18.348  55.205  1.00  0.00     0.142 A 
ATOM      5  C   UNL     1      13.324  19.445  54.586  1.00  0.00     0.022 A 
ATOM      6  C   UNL     1      13.040  19.756  53.250  1.00  0.00     0.062 A 
ATOM      7  C   UNL     1      14.232  20.200  55.336  1.00  0.00     0.019 A 
ATOM      8  C   UNL     1      14.481  19.851  56.664  1.00  0.00     0.094 A 
ATOM      9  C   UNL     1      13.815  18.749  57.210  1.00  0.00     0.336 A 
ATOM     10  O   UNL     1      14.026  18.417  58.406  1.00  0.00    -0.246 OA
ATOM     11  O   UNL     1      12.957  18.047  56.474  1.00  0.00    -0.423 OA
ENDROOT
BRANCH   1  12
ATOM     12  O   UNL     1      11.810  19.256  51.178  1.00  0.00    -0.493 OA
ATOM     13  C   UNL     1      10.882  20.249  50.754  1.00  0.00     0.278 C 
ENDBRANCH   1  12
BRANCH   2  14
ATOM     14  O   UNL     1      10.578  17.086  52.457  1.00  0.00    -0.504 OA
ATOM     15  H   UNL     1      10.258  17.314  51.523  1.00  0.00     0.293 HD
ENDBRANCH   2  14
TORSDOF 2
ENDMDL
MODEL 5
REMARK VINA RESULT:    -0.002     11.800     12.925
REMARK INTER + INTRA:          -0.065
REMARK INTER:                   0.000
REMARK INTRA:                  -0.065
REMARK UNBOUND:                -0.063
REMARK SMILES COc1cc2ccc(=O)oc2cc1O
REMARK SMILES IDX 3 1 13 2 12 3 11 4 5 5 4 6 6 7 7 8 8 9 9 10 10 11 2 12 1 13
REMARK SMILES IDX 14 14
REMARK H PARENT 14 15
REMARK Flexibility Score: inf
ROOT
ATOM      1  C   UNL     1      13.825  16.461  49.389  1.00  0.00     0.161 A 
ATOM      2  C   UNL     1      13.384  16.465  50.726  1.00  0.00     0.161 A 
ATOM      3  C   UNL     1      12.953  15.279  51.330  1.00  0.00     0.098 A 
ATOM      4  C   UNL     1      12.955  14.079  50.614  1.00  0.00     0.142 A 
ATOM      5  C   UNL     1      13.395  14.065  49.275  1.00  0.00     0.022 A 
ATOM      6  C   UNL     1      13.827  15.250  48.666  1.00  0.00     0.062 A 
ATOM      7  C   UNL     1      13.386  12.849  48.583  1.00  0.00     0.019 A 
ATOM      8  C   UNL     1      12.946  11.695  49.233  1.00  0.00     0.094 A 
ATOM      9  C   UNL     1      12.524  11.787  50.563  1.00  0.00     0.336 A 
ATOM     10  O   UNL     1      12.123  10.757  51.167  1.00  0.00    -0.246 OA
ATOM     11  O   UNL     1      12.543  12.956  51.198  1.00  0.00    -0.423 OA
ENDROOT
BRANCH   1  12
ATOM     12  O   UNL     1      14.252  17.670  48.813  1.00  0.00    -0.493 OA
ATOM     13  C   UNL     1      15.613  18.069  48.686  1.00  0.00     0.278 C 
ENDBRANCH   1  12
BRANCH   2  14
ATOM     14  O   UNL     1      13.367  17.643  51.474  1.00  0.00    -0.504 OA
ATOM     15  H   UNL     1      12.686  18.376  51.313  1.00  0.00     0.293 HD
ENDBRANCH   2  14
TORSDOF 2
ENDMDL
MODEL 6
REMARK VINA RESULT:    -0.002     12.368     15.772
REMARK INTER + INTRA:          -0.065
REMARK INTER:                   0.000
REMARK INTRA:                  -0.065
REMARK UNBOUND:                -0.063
REMARK SMILES COc1cc2ccc(=O)oc2cc1O
REMARK SMILES IDX 3 1 13 2 12 3 11 4 5 5 4 6 6 7 7 8 8 9 9 10 10 11 2 12 1 13
REMARK SMILES IDX 14 14
REMARK H PARENT 14 15
REMARK Flexibility Score: inf
ROOT
ATOM      1  C   UNL     1       9.284  10.685  50.872  1.00  0.00     0.161 A 
ATOM      2  C   UNL     1      10.471  10.963  50.167  1.00  0.00     0.161 A 
ATOM      3  C   UNL     1      10.480  10.947  48.768  1.00  0.00     0.098 A 
ATOM      4  C   UNL     1       9.314  10.656  48.056  1.00  0.00     0.142 A 
ATOM      5  C   UNL     1       8.121  10.376  48.752  1.00  0.00     0.022 A 
ATOM      6  C   UNL     1       8.107  10.391  50.153  1.00  0.00     0.062 A 
ATOM      7  C   UNL     1       6.970  10.087  48.012  1.00  0.00     0.019 A 
ATOM      8  C   UNL     1       7.034  10.085  46.618  1.00  0.00     0.094 A 
ATOM      9  C   UNL     1       8.254  10.372  45.997  1.00  0.00     0.336 A 
ATOM     10  O   UNL     1       8.333  10.375  44.740  1.00  0.00    -0.246 OA
ATOM     11  O   UNL     1       9.334  10.643  46.725  1.00  0.00    -0.423 OA
ENDROOT
BRANCH   1  12
ATOM     12  O   UNL     1       9.309  10.710  52.276  1.00  0.00    -0.493 OA
ATOM     13  C   UNL     1       8.877  11.808  53.074  1.00  0.00     0.278 C 
ENDBRANCH   1  12
BRANCH   2  14
ATOM     14  O   UNL     1      11.655  11.259  50.842  1.00  0.00    -0.504 OA
ATOM     15  H   UNL     1      12.459  11.661  50.375  1.00  0.00     0.293 HD
ENDBRANCH   2  14
TORSDOF 2
ENDMDL
MODEL 7
REMARK VINA RESULT:    -0.002     17.370     18.614
REMARK INTER + INTRA:          -0.065
REMARK INTER:                   0.000
REMARK INTRA:                  -0.065
REMARK UNBOUND:                -0.063
REMARK SMILES COc1cc2ccc(=O)oc2cc1O
REMARK SMILES IDX 3 1 13 2 12 3 11 4 5 5 4 6 6 7 7 8 8 9 9 10 10 11 2 12 1 13
REMARK SMILES IDX 14 14
REMARK H PARENT 14 15
REMARK Flexibility Score: inf
ROOT
ATOM      1  C   UNL     1      14.827  24.157  48.395  1.00  0.00     0.161 A 
ATOM      2  C   UNL     1      13.912  25.129  47.947  1.00  0.00     0.161 A 
ATOM      3  C   UNL     1      13.581  26.214  48.765  1.00  0.00     0.098 A 
ATOM      4  C   UNL     1      14.152  26.346  50.032  1.00  0.00     0.142 A 
ATOM      5  C   UNL     1      15.070  25.379  50.489  1.00  0.00     0.022 A 
ATOM      6  C   UNL     1      15.405  24.289  49.674  1.00  0.00     0.062 A 
ATOM      7  C   UNL     1      15.626  25.537  51.764  1.00  0.00     0.019 A 
ATOM      8  C   UNL     1      15.261  26.639  52.538  1.00  0.00     0.094 A 
ATOM      9  C   UNL     1      14.344  27.558  52.017  1.00  0.00     0.336 A 
ATOM     10  O   UNL     1      14.002  28.559  52.700  1.00  0.00    -0.246 OA
ATOM     11  O   UNL     1      13.830  27.383  50.802  1.00  0.00    -0.423 OA
ENDROOT
BRANCH   1  12
ATOM     12  O   UNL     1      15.139  23.079  47.549  1.00  0.00    -0.493 OA
ATOM     13  C   UNL     1      16.301  23.004  46.729  1.00  0.00     0.278 C 
ENDBRANCH   1  12
BRANCH   2  14
ATOM     14  O   UNL     1      13.320  25.032  46.688  1.00  0.00    -0.504 OA
ATOM     15  H   UNL     1      12.387  24.658  46.555  1.00  0.00     0.293 HD
ENDBRANCH   2  14
TORSDOF 2
ENDMDL
MODEL 8
REMARK VINA RESULT:    -0.002     10.333     13.019
REMARK INTER + INTRA:          -0.065
REMARK INTER:                   0.000
REMARK INTRA:                  -0.065
REMARK UNBOUND:                -0.063
REMARK SMILES COc1cc2ccc(=O)oc2cc1O
REMARK SMILES IDX 3 1 13 2 12 3 11 4 5 5 4 6 6 7 7 8 8 9 9 10 10 11 2 12 1 13
REMARK SMILES IDX 14 14
REMARK H PARENT 14 15
REMARK Flexibility Score: inf
ROOT
ATOM      1  C   UNL     1      11.332  16.309  49.906  1.00  0.00     0.161 A 
ATOM      2  C   UNL     1       9.936  16.124  49.930  1.00  0.00     0.161 A 
ATOM      3  C   UNL     1       9.301  15.705  51.104  1.00  0.00     0.098 A 
ATOM      4  C   UNL     1      10.043  15.466  52.263  1.00  0.00     0.142 A 
ATOM      5  C   UNL     1      11.440  15.649  52.249  1.00  0.00     0.022 A 
ATOM      6  C   UNL     1      12.081  16.068  51.076  1.00  0.00     0.062 A 
ATOM      7  C   UNL     1      12.157  15.402  53.426  1.00  0.00     0.019 A 
ATOM      8  C   UNL     1      11.473  14.986  54.569  1.00  0.00     0.094 A 
ATOM      9  C   UNL     1      10.086  14.826  54.507  1.00  0.00     0.336 A 
ATOM     10  O   UNL     1       9.450  14.452  55.528  1.00  0.00    -0.246 OA
ATOM     11  O   UNL     1       9.429  15.068  53.375  1.00  0.00    -0.423 OA
ENDROOT
BRANCH   1  12
ATOM     12  O   UNL     1      11.938  16.731  48.711  1.00  0.00    -0.493 OA
ATOM     13  C   UNL     1      12.306  18.076  48.421  1.00  0.00     0.278 C 
ENDBRANCH   1  12
BRANCH   2  14
ATOM     14  O   UNL     1       9.161  16.352  48.793  1.00  0.00    -0.504 OA
ATOM     15  H   UNL     1       8.152  16.269  48.800  1.00  0.00     0.293 HD
ENDBRANCH   2  14
TORSDOF 2
ENDMDL
MODEL 9
REMARK VINA RESULT:    -0.002      8.690     11.165
REMARK INTER + INTRA:          -0.065
REMARK INTER:                   0.000
REMARK INTRA:                  -0.065
REMARK UNBOUND:                -0.063
REMARK SMILES COc1cc2ccc(=O)oc2cc1O
REMARK SMILES IDX 3 1 13 2 12 3 11 4 5 5 4 6 6 7 7 8 8 9 9 10 10 11 2 12 1 13
REMARK SMILES IDX 14 14
REMARK H PARENT 14 15
REMARK Flexibility Score: inf
ROOT
ATOM      1  C   UNL     1      13.038  18.385  55.981  1.00  0.00     0.161 A 
ATOM      2  C   UNL     1      13.792  18.184  57.152  1.00  0.00     0.161 A 
ATOM      3  C   UNL     1      13.744  19.120  58.191  1.00  0.00     0.098 A 
ATOM      4  C   UNL     1      12.948  20.263  58.078  1.00  0.00     0.142 A 
ATOM      5  C   UNL     1      12.188  20.472  56.909  1.00  0.00     0.022 A 
ATOM      6  C   UNL     1      12.234  19.538  55.866  1.00  0.00     0.062 A 
ATOM      7  C   UNL     1      11.400  21.625  56.824  1.00  0.00     0.019 A 
ATOM      8  C   UNL     1      11.388  22.526  57.889  1.00  0.00     0.094 A 
ATOM      9  C   UNL     1      12.168  22.251  59.017  1.00  0.00     0.336 A 
ATOM     10  O   UNL     1      12.171  23.052  59.989  1.00  0.00    -0.246 OA
ATOM     11  O   UNL     1      12.908  21.147  59.072  1.00  0.00    -0.423 OA
ENDROOT
BRANCH   1  12
ATOM     12  O   UNL     1      13.109  17.425  54.957  1.00  0.00    -0.493 OA
ATOM     13  C   UNL     1      12.147  16.397  54.744  1.00  0.00     0.278 C 
ENDBRANCH   1  12
BRANCH   2  14
ATOM     14  O   UNL     1      14.600  17.056  57.303  1.00  0.00    -0.504 OA
ATOM     15  H   UNL     1      14.826  16.445  56.527  1.00  0.00     0.293 HD
ENDBRANCH   2  14
TORSDOF 2
ENDMDL
