MODEL 1
REMARK VINA RESULT:    -4.226      0.000      0.000
REMARK INTER + INTRA:          -6.296
REMARK INTER:                  -5.955
REMARK INTRA:                  -0.341
REMARK UNBOUND:                -0.341
REMARK SMILES CCCCCCCCC(=O)[O-]
REMARK SMILES IDX 6 1 7 2 8 3 9 4 10 5 11 6 5 7 4 8 3 9 2 10 1 11
REMARK H PARENT
REMARK Flexibility Score: inf
ROOT
ATOM      1  C   UNL     1      -6.797  -6.050  -5.451  1.00  0.00     0.000 C 
ENDROOT
BRANCH   1   2
ATOM      2  C   UNL     1      -7.939  -5.624  -6.391  1.00  0.00     0.006 C 
BRANCH   2   3
ATOM      3  C   UNL     1      -8.805  -4.514  -5.781  1.00  0.00     0.053 C 
BRANCH   3   4
ATOM      4  C   UNL     1      -9.457  -4.956  -4.506  1.00  0.00     0.041 C 
ATOM      5  O   UNL     1      -9.231  -4.338  -3.432  1.00  0.00    -0.550 OA
ATOM      6  O   UNL     1     -10.286  -6.070  -4.498  1.00  0.00    -0.550 OA
ENDBRANCH   3   4
ENDBRANCH   2   3
ENDBRANCH   1   2
BRANCH   1   7
ATOM      7  C   UNL     1      -5.654  -6.759  -6.196  1.00  0.00     0.000 C 
BRANCH   7   8
ATOM      8  C   UNL     1      -4.306  -6.038  -6.032  1.00  0.00    -0.000 C 
BRANCH   8   9
ATOM      9  C   UNL     1      -4.449  -4.507  -6.054  1.00  0.00    -0.000 C 
BRANCH   9  10
ATOM     10  C   UNL     1      -3.158  -3.788  -5.638  1.00  0.00    -0.003 C 
ATOM     11  C   UNL     1      -3.279  -2.280  -5.840  1.00  0.00     0.004 C 
ENDBRANCH   9  10
ENDBRANCH   8   9
ENDBRANCH   7   8
ENDBRANCH   1   7
TORSDOF 7
ENDMDL
MODEL 2
REMARK VINA RESULT:    -4.128      2.224      3.629
REMARK INTER + INTRA:          -6.159
REMARK INTER:                  -5.900
REMARK INTRA:                  -0.259
REMARK UNBOUND:                -0.341
REMARK SMILES CCCCCCCCC(=O)[O-]
REMARK SMILES IDX 6 1 7 2 8 3 9 4 10 5 11 6 5 7 4 8 3 9 2 10 1 11
REMARK H PARENT
REMARK Flexibility Score: inf
ROOT
ATOM      1  C   UNL     1      -9.228  -4.106  -4.849  1.00  0.00     0.000 C 
ENDROOT
BRANCH   1   2
ATOM      2  C   UNL     1     -10.229  -4.519  -3.756  1.00  0.00     0.006 C 
BRANCH   2   3
ATOM      3  C   UNL     1     -10.290  -3.498  -2.612  1.00  0.00     0.053 C 
BRANCH   3   4
ATOM      4  C   UNL     1      -8.955  -3.320  -1.955  1.00  0.00     0.041 C 
ATOM      5  O   UNL     1      -8.367  -4.306  -1.437  1.00  0.00    -0.550 OA
ATOM      6  O   UNL     1      -8.376  -2.059  -1.886  1.00  0.00    -0.550 OA
ENDBRANCH   3   4
ENDBRANCH   2   3
ENDBRANCH   1   2
BRANCH   1   7
ATOM      7  C   UNL     1      -8.827  -5.281  -5.755  1.00  0.00     0.000 C 
BRANCH   7   8
ATOM      8  C   UNL     1      -7.309  -5.353  -5.992  1.00  0.00    -0.000 C 
BRANCH   8   9
ATOM      9  C   UNL     1      -6.644  -6.501  -5.214  1.00  0.00    -0.000 C 
BRANCH   9  10
ATOM     10  C   UNL     1      -5.553  -7.211  -6.027  1.00  0.00    -0.003 C 
ATOM     11  C   UNL     1      -4.226  -6.463  -5.936  1.00  0.00     0.004 C 
ENDBRANCH   9  10
ENDBRANCH   8   9
ENDBRANCH   7   8
ENDBRANCH   1   7
TORSDOF 7
ENDMDL
MODEL 3
REMARK VINA RESULT:    -4.084      2.943      5.259
REMARK INTER + INTRA:          -6.097
REMARK INTER:                  -5.753
REMARK INTRA:                  -0.344
REMARK UNBOUND:                -0.341
REMARK SMILES CCCCCCCCC(=O)[O-]
REMARK SMILES IDX 6 1 7 2 8 3 9 4 10 5 11 6 5 7 4 8 3 9 2 10 1 11
REMARK H PARENT
REMARK Flexibility Score: inf
ROOT
ATOM      1  C   UNL     1      -7.945  -5.255  -5.449  1.00  0.00     0.000 C 
ENDROOT
BRANCH   1   2
ATOM      2  C   UNL     1      -7.112  -5.707  -6.662  1.00  0.00     0.006 C 
BRANCH   2   3
ATOM      3  C   UNL     1      -5.607  -5.507  -6.438  1.00  0.00     0.053 C 
BRANCH   3   4
ATOM      4  C   UNL     1      -4.929  -6.784  -6.047  1.00  0.00     0.041 C 
ATOM      5  O   UNL     1      -3.702  -6.789  -5.763  1.00  0.00    -0.550 OA
ATOM      6  O   UNL     1      -5.645  -7.975  -6.029  1.00  0.00    -0.550 OA
ENDBRANCH   3   4
ENDBRANCH   2   3
ENDBRANCH   1   2
BRANCH   1   7
ATOM      7  C   UNL     1      -9.413  -5.701  -5.543  1.00  0.00     0.000 C 
BRANCH   7   8
ATOM      8  C   UNL     1     -10.316  -4.974  -4.533  1.00  0.00    -0.000 C 
BRANCH   8   9
ATOM      9  C   UNL     1      -9.632  -3.750  -3.903  1.00  0.00    -0.000 C 
BRANCH   9  10
ATOM     10  C   UNL     1      -9.980  -3.577  -2.418  1.00  0.00    -0.003 C 
ATOM     11  C   UNL     1      -8.728  -3.631  -1.549  1.00  0.00     0.004 C 
ENDBRANCH   9  10
ENDBRANCH   8   9
ENDBRANCH   7   8
ENDBRANCH   1   7
TORSDOF 7
ENDMDL
MODEL 4
REMARK VINA RESULT:    -4.010      2.057      3.015
REMARK INTER + INTRA:          -5.993
REMARK INTER:                  -5.666
REMARK INTRA:                  -0.326
REMARK UNBOUND:                -0.341
REMARK SMILES CCCCCCCCC(=O)[O-]
REMARK SMILES IDX 6 1 7 2 8 3 9 4 10 5 11 6 5 7 4 8 3 9 2 10 1 11
REMARK H PARENT
REMARK Flexibility Score: inf
ROOT
ATOM      1  C   UNL     1      -9.407  -5.586  -5.550  1.00  0.00     0.000 C 
ENDROOT
BRANCH   1   2
ATOM      2  C   UNL     1      -9.992  -4.801  -4.363  1.00  0.00     0.006 C 
BRANCH   2   3
ATOM      3  C   UNL     1      -9.012  -3.750  -3.826  1.00  0.00     0.053 C 
BRANCH   3   4
ATOM      4  C   UNL     1      -9.205  -3.507  -2.360  1.00  0.00     0.041 C 
ATOM      5  O   UNL     1      -8.503  -4.126  -1.517  1.00  0.00    -0.550 OA
ATOM      6  O   UNL     1     -10.185  -2.624  -1.924  1.00  0.00    -0.550 OA
ENDBRANCH   3   4
ENDBRANCH   2   3
ENDBRANCH   1   2
BRANCH   1   7
ATOM      7  C   UNL     1      -7.908  -5.312  -5.757  1.00  0.00     0.000 C 
BRANCH   7   8
ATOM      8  C   UNL     1      -7.529  -5.202  -7.243  1.00  0.00    -0.000 C 
BRANCH   8   9
ATOM      9  C   UNL     1      -6.073  -5.617  -7.513  1.00  0.00    -0.000 C 
BRANCH   9  10
ATOM     10  C   UNL     1      -5.126  -5.221  -6.371  1.00  0.00    -0.003 C 
ATOM     11  C   UNL     1      -4.192  -6.372  -6.008  1.00  0.00     0.004 C 
ENDBRANCH   9  10
ENDBRANCH   8   9
ENDBRANCH   7   8
ENDBRANCH   1   7
TORSDOF 7
ENDMDL
MODEL 5
REMARK VINA RESULT:    -3.964     17.214     18.813
REMARK INTER + INTRA:          -5.928
REMARK INTER:                  -5.763
REMARK INTRA:                  -0.165
REMARK UNBOUND:                -0.341
REMARK SMILES CCCCCCCCC(=O)[O-]
REMARK SMILES IDX 6 1 7 2 8 3 9 4 10 5 11 6 5 7 4 8 3 9 2 10 1 11
REMARK H PARENT
REMARK Flexibility Score: inf
ROOT
ATOM      1  C   UNL     1      -3.101   6.000  10.001  1.00  0.00     0.000 C 
ENDROOT
BRANCH   1   2
ATOM      2  C   UNL     1      -3.326   7.517  10.125  1.00  0.00     0.006 C 
BRANCH   2   3
ATOM      3  C   UNL     1      -2.762   8.285   8.923  1.00  0.00     0.053 C 
BRANCH   3   4
ATOM      4  C   UNL     1      -3.846   8.949   8.130  1.00  0.00     0.041 C 
ATOM      5  O   UNL     1      -4.825   9.481   8.717  1.00  0.00    -0.550 OA
ATOM      6  O   UNL     1      -3.793   8.949   6.742  1.00  0.00    -0.550 OA
ENDBRANCH   3   4
ENDBRANCH   2   3
ENDBRANCH   1   2
BRANCH   1   7
ATOM      7  C   UNL     1      -4.420   5.211   9.945  1.00  0.00     0.000 C 
BRANCH   7   8
ATOM      8  C   UNL     1      -4.196   3.691   9.885  1.00  0.00    -0.000 C 
BRANCH   8   9
ATOM      9  C   UNL     1      -5.336   2.955   9.163  1.00  0.00    -0.000 C 
BRANCH   9  10
ATOM     10  C   UNL     1      -4.916   1.568   8.656  1.00  0.00    -0.003 C 
ATOM     11  C   UNL     1      -5.878   1.058   7.588  1.00  0.00     0.004 C 
ENDBRANCH   9  10
ENDBRANCH   8   9
ENDBRANCH   7   8
ENDBRANCH   1   7
TORSDOF 7
ENDMDL
MODEL 6
REMARK VINA RESULT:    -3.935      3.190      5.290
REMARK INTER + INTRA:          -5.886
REMARK INTER:                  -5.362
REMARK INTRA:                  -0.524
REMARK UNBOUND:                -0.341
REMARK SMILES CCCCCCCCC(=O)[O-]
REMARK SMILES IDX 6 1 7 2 8 3 9 4 10 5 11 6 5 7 4 8 3 9 2 10 1 11
REMARK H PARENT
REMARK Flexibility Score: inf
ROOT
ATOM      1  C   UNL     1     -11.125  -4.978  -3.920  1.00  0.00     0.000 C 
ENDROOT
BRANCH   1   2
ATOM      2  C   UNL     1     -10.129  -5.677  -4.862  1.00  0.00     0.006 C 
BRANCH   2   3
ATOM      3  C   UNL     1      -8.831  -4.876  -5.030  1.00  0.00     0.053 C 
BRANCH   3   4
ATOM      4  C   UNL     1      -7.732  -5.716  -5.604  1.00  0.00     0.041 C 
ATOM      5  O   UNL     1      -7.358  -5.543  -6.795  1.00  0.00    -0.550 OA
ATOM      6  O   UNL     1      -7.143  -6.713  -4.836  1.00  0.00    -0.550 OA
ENDBRANCH   3   4
ENDBRANCH   2   3
ENDBRANCH   1   2
BRANCH   1   7
ATOM      7  C   UNL     1     -10.841  -3.474  -3.773  1.00  0.00     0.000 C 
BRANCH   7   8
ATOM      8  C   UNL     1     -10.935  -2.995  -2.315  1.00  0.00    -0.000 C 
BRANCH   8   9
ATOM      9  C   UNL     1      -9.890  -3.661  -1.406  1.00  0.00    -0.000 C 
BRANCH   9  10
ATOM     10  C   UNL     1      -8.450  -3.377  -1.856  1.00  0.00    -0.003 C 
ATOM     11  C   UNL     1      -8.054  -1.934  -1.556  1.00  0.00     0.004 C 
ENDBRANCH   9  10
ENDBRANCH   8   9
ENDBRANCH   7   8
ENDBRANCH   1   7
TORSDOF 7
ENDMDL
MODEL 7
REMARK VINA RESULT:    -3.912     16.704     18.064
REMARK INTER + INTRA:          -5.855
REMARK INTER:                  -5.591
REMARK INTRA:                  -0.264
REMARK UNBOUND:                -0.341
REMARK SMILES CCCCCCCCC(=O)[O-]
REMARK SMILES IDX 6 1 7 2 8 3 9 4 10 5 11 6 5 7 4 8 3 9 2 10 1 11
REMARK H PARENT
REMARK Flexibility Score: inf
ROOT
ATOM      1  C   UNL     1      -4.696   4.946  10.024  1.00  0.00     0.000 C 
ENDROOT
BRANCH   1   2
ATOM      2  C   UNL     1      -4.368   3.475   9.712  1.00  0.00     0.006 C 
BRANCH   2   3
ATOM      3  C   UNL     1      -5.551   2.744   9.062  1.00  0.00     0.053 C 
BRANCH   3   4
ATOM      4  C   UNL     1      -5.123   1.464   8.412  1.00  0.00     0.041 C 
ATOM      5  O   UNL     1      -3.960   1.351   7.940  1.00  0.00    -0.550 OA
ATOM      6  O   UNL     1      -6.018   0.408   8.296  1.00  0.00    -0.550 OA
ENDBRANCH   3   4
ENDBRANCH   2   3
ENDBRANCH   1   2
BRANCH   1   7
ATOM      7  C   UNL     1      -3.438   5.828  10.094  1.00  0.00     0.000 C 
BRANCH   7   8
ATOM      8  C   UNL     1      -3.768   7.329  10.060  1.00  0.00    -0.000 C 
BRANCH   8   9
ATOM      9  C   UNL     1      -3.007   8.076   8.953  1.00  0.00    -0.000 C 
BRANCH   9  10
ATOM     10  C   UNL     1      -3.924   8.968   8.104  1.00  0.00    -0.003 C 
ATOM     11  C   UNL     1      -5.344   8.985   8.661  1.00  0.00     0.004 C 
ENDBRANCH   9  10
ENDBRANCH   8   9
ENDBRANCH   7   8
ENDBRANCH   1   7
TORSDOF 7
ENDMDL
MODEL 8
REMARK VINA RESULT:    -3.691      3.395      5.485
REMARK INTER + INTRA:          -5.543
REMARK INTER:                  -5.215
REMARK INTRA:                  -0.328
REMARK UNBOUND:                -0.341
REMARK SMILES CCCCCCCCC(=O)[O-]
REMARK SMILES IDX 6 1 7 2 8 3 9 4 10 5 11 6 5 7 4 8 3 9 2 10 1 11
REMARK H PARENT
REMARK Flexibility Score: inf
ROOT
ATOM      1  C   UNL     1      -8.504  -4.474  -4.947  1.00  0.00     0.000 C 
ENDROOT
BRANCH   1   2
ATOM      2  C   UNL     1      -8.108  -5.515  -6.009  1.00  0.00     0.006 C 
BRANCH   2   3
ATOM      3  C   UNL     1      -7.975  -4.895  -7.406  1.00  0.00     0.053 C 
BRANCH   3   4
ATOM      4  C   UNL     1      -6.560  -4.934  -7.898  1.00  0.00     0.041 C 
ATOM      5  O   UNL     1      -6.308  -5.305  -9.074  1.00  0.00    -0.550 OA
ATOM      6  O   UNL     1      -5.518  -4.592  -7.046  1.00  0.00    -0.550 OA
ENDBRANCH   3   4
ENDBRANCH   2   3
ENDBRANCH   1   2
BRANCH   1   7
ATOM      7  C   UNL     1      -9.855  -4.792  -4.285  1.00  0.00     0.000 C 
BRANCH   7   8
ATOM      8  C   UNL     1     -10.545  -3.539  -3.721  1.00  0.00    -0.000 C 
BRANCH   8   9
ATOM      9  C   UNL     1     -10.627  -3.551  -2.186  1.00  0.00    -0.000 C 
BRANCH   9  10
ATOM     10  C   UNL     1      -9.250  -3.692  -1.522  1.00  0.00    -0.003 C 
ATOM     11  C   UNL     1      -8.477  -2.377  -1.575  1.00  0.00     0.004 C 
ENDBRANCH   9  10
ENDBRANCH   8   9
ENDBRANCH   7   8
ENDBRANCH   1   7
TORSDOF 7
ENDMDL
MODEL 9
REMARK VINA RESULT:    -3.630      3.183      5.198
REMARK INTER + INTRA:          -5.456
REMARK INTER:                  -4.756
REMARK INTRA:                  -0.700
REMARK UNBOUND:                -0.341
REMARK SMILES CCCCCCCCC(=O)[O-]
REMARK SMILES IDX 6 1 7 2 8 3 9 4 10 5 11 6 5 7 4 8 3 9 2 10 1 11
REMARK H PARENT
REMARK Flexibility Score: inf
ROOT
ATOM      1  C   UNL     1      -8.271  -5.688  -7.302  1.00  0.00     0.000 C 
ENDROOT
BRANCH   1   2
ATOM      2  C   UNL     1      -6.844  -5.276  -6.902  1.00  0.00     0.006 C 
BRANCH   2   3
ATOM      3  C   UNL     1      -6.379  -5.975  -5.617  1.00  0.00     0.053 C 
BRANCH   3   4
ATOM      4  C   UNL     1      -5.453  -7.116  -5.911  1.00  0.00     0.041 C 
ATOM      5  O   UNL     1      -5.908  -8.283  -6.041  1.00  0.00    -0.550 OA
ATOM      6  O   UNL     1      -4.085  -6.896  -6.006  1.00  0.00    -0.550 OA
ENDBRANCH   3   4
ENDBRANCH   2   3
ENDBRANCH   1   2
BRANCH   1   7
ATOM      7  C   UNL     1      -9.155  -4.481  -7.660  1.00  0.00     0.000 C 
BRANCH   7   8
ATOM      8  C   UNL     1     -10.288  -4.258  -6.644  1.00  0.00    -0.000 C 
BRANCH   8   9
ATOM      9  C   UNL     1     -10.253  -5.271  -5.489  1.00  0.00    -0.000 C 
BRANCH   9  10
ATOM     10  C   UNL     1     -10.217  -4.594  -4.111  1.00  0.00    -0.003 C 
ATOM     11  C   UNL     1      -8.972  -3.726  -3.956  1.00  0.00     0.004 C 
ENDBRANCH   9  10
ENDBRANCH   8   9
ENDBRANCH   7   8
ENDBRANCH   1   7
TORSDOF 7
ENDMDL
