MODEL 1
REMARK VINA RESULT:    -3.753      0.000      0.000
REMARK INTER + INTRA:          -4.698
REMARK INTER:                  -4.631
REMARK INTRA:                  -0.068
REMARK UNBOUND:                -0.068
REMARK SMILES CCCCCC(=O)[O-]
REMARK SMILES IDX 4 1 5 2 6 3 7 4 8 5 3 6 2 7 1 8
REMARK H PARENT
REMARK Flexibility Score: inf
ROOT
ATOM      1  C   UNL     1       5.421  -8.004 -12.394  1.00  0.00     0.006 C 
ENDROOT
BRANCH   1   2
ATOM      2  C   UNL     1       5.461  -9.340 -11.647  1.00  0.00     0.053 C 
BRANCH   2   3
ATOM      3  C   UNL     1       6.149  -9.184 -10.329  1.00  0.00     0.041 C 
ATOM      4  O   UNL     1       5.835  -8.238  -9.558  1.00  0.00    -0.550 OA
ATOM      5  O   UNL     1       7.105 -10.109  -9.929  1.00  0.00    -0.550 OA
ENDBRANCH   2   3
ENDBRANCH   1   2
BRANCH   1   6
ATOM      6  C   UNL     1       5.284  -8.224 -13.908  1.00  0.00     0.000 C 
BRANCH   6   7
ATOM      7  C   UNL     1       5.566  -6.950 -14.718  1.00  0.00    -0.003 C 
ATOM      8  C   UNL     1       4.879  -5.715 -14.135  1.00  0.00     0.004 C 
ENDBRANCH   6   7
ENDBRANCH   1   6
TORSDOF 4
ENDMDL
MODEL 2
REMARK VINA RESULT:    -3.632      1.167      1.561
REMARK INTER + INTRA:          -4.549
REMARK INTER:                  -4.476
REMARK INTRA:                  -0.074
REMARK UNBOUND:                -0.068
REMARK SMILES CCCCCC(=O)[O-]
REMARK SMILES IDX 4 1 5 2 6 3 7 4 8 5 3 6 2 7 1 8
REMARK H PARENT
REMARK Flexibility Score: inf
ROOT
ATOM      1  C   UNL     1       5.529  -8.231 -12.421  1.00  0.00     0.006 C 
ENDROOT
BRANCH   1   2
ATOM      2  C   UNL     1       5.632  -8.412 -10.905  1.00  0.00     0.053 C 
BRANCH   2   3
ATOM      3  C   UNL     1       5.982  -9.827 -10.569  1.00  0.00     0.041 C 
ATOM      4  O   UNL     1       5.183 -10.761 -10.846  1.00  0.00    -0.550 OA
ATOM      5  O   UNL     1       7.211 -10.121  -9.993  1.00  0.00    -0.550 OA
ENDBRANCH   2   3
ENDBRANCH   1   2
BRANCH   1   6
ATOM      6  C   UNL     1       4.875  -6.885 -12.772  1.00  0.00     0.000 C 
BRANCH   6   7
ATOM      7  C   UNL     1       5.077  -6.495 -14.243  1.00  0.00    -0.003 C 
ATOM      8  C   UNL     1       5.103  -7.706 -15.177  1.00  0.00     0.004 C 
ENDBRANCH   6   7
ENDBRANCH   1   6
TORSDOF 4
ENDMDL
MODEL 3
REMARK VINA RESULT:    -3.503      3.007      4.569
REMARK INTER + INTRA:          -4.389
REMARK INTER:                  -4.277
REMARK INTRA:                  -0.113
REMARK UNBOUND:                -0.068
REMARK SMILES CCCCCC(=O)[O-]
REMARK SMILES IDX 4 1 5 2 6 3 7 4 8 5 3 6 2 7 1 8
REMARK H PARENT
REMARK Flexibility Score: inf
ROOT
ATOM      1  C   UNL     1       5.082  -7.499 -11.928  1.00  0.00     0.006 C 
ENDROOT
BRANCH   1   2
ATOM      2  C   UNL     1       5.534  -8.194 -13.215  1.00  0.00     0.053 C 
BRANCH   2   3
ATOM      3  C   UNL     1       5.226  -7.343 -14.406  1.00  0.00     0.041 C 
ATOM      4  O   UNL     1       5.257  -6.087 -14.312  1.00  0.00    -0.550 OA
ATOM      5  O   UNL     1       4.952  -7.935 -15.632  1.00  0.00    -0.550 OA
ENDBRANCH   2   3
ENDBRANCH   1   2
BRANCH   1   6
ATOM      6  C   UNL     1       5.267  -8.419 -10.711  1.00  0.00     0.000 C 
BRANCH   6   7
ATOM      7  C   UNL     1       6.080  -9.680 -11.042  1.00  0.00    -0.003 C 
ATOM      8  C   UNL     1       7.113 -10.017  -9.967  1.00  0.00     0.004 C 
ENDBRANCH   6   7
ENDBRANCH   1   6
TORSDOF 4
ENDMDL
MODEL 4
REMARK VINA RESULT:    -3.230     12.991     14.162
REMARK INTER + INTRA:          -4.053
REMARK INTER:                  -3.993
REMARK INTRA:                  -0.060
REMARK UNBOUND:                -0.068
REMARK SMILES CCCCCC(=O)[O-]
REMARK SMILES IDX 4 1 5 2 6 3 7 4 8 5 3 6 2 7 1 8
REMARK H PARENT
REMARK Flexibility Score: inf
ROOT
ATOM      1  C   UNL     1       5.216 -22.253 -10.652  1.00  0.00     0.006 C 
ENDROOT
BRANCH   1   2
ATOM      2  C   UNL     1       5.870 -23.359  -9.821  1.00  0.00     0.053 C 
BRANCH   2   3
ATOM      3  C   UNL     1       6.225 -22.850  -8.459  1.00  0.00     0.041 C 
ATOM      4  O   UNL     1       6.677 -21.683  -8.317  1.00  0.00    -0.550 OA
ATOM      5  O   UNL     1       6.013 -23.647  -7.342  1.00  0.00    -0.550 OA
ENDBRANCH   2   3
ENDBRANCH   1   2
BRANCH   1   6
ATOM      6  C   UNL     1       5.652 -22.339 -12.123  1.00  0.00     0.000 C 
BRANCH   6   7
ATOM      7  C   UNL     1       5.303 -21.072 -12.918  1.00  0.00    -0.003 C 
ATOM      8  C   UNL     1       6.317 -20.768 -14.021  1.00  0.00     0.004 C 
ENDBRANCH   6   7
ENDBRANCH   1   6
TORSDOF 4
ENDMDL
MODEL 5
REMARK VINA RESULT:    -3.205      2.079      3.173
REMARK INTER + INTRA:          -4.022
REMARK INTER:                  -3.891
REMARK INTRA:                  -0.131
REMARK UNBOUND:                -0.068
REMARK SMILES CCCCCC(=O)[O-]
REMARK SMILES IDX 4 1 5 2 6 3 7 4 8 5 3 6 2 7 1 8
REMARK H PARENT
REMARK Flexibility Score: inf
ROOT
ATOM      1  C   UNL     1       6.361  -9.012  -9.869  1.00  0.00     0.006 C 
ENDROOT
BRANCH   1   2
ATOM      2  C   UNL     1       5.075  -8.271  -9.493  1.00  0.00     0.053 C 
BRANCH   2   3
ATOM      3  C   UNL     1       5.396  -6.966  -8.835  1.00  0.00     0.041 C 
ATOM      4  O   UNL     1       6.048  -6.943  -7.757  1.00  0.00    -0.550 OA
ATOM      5  O   UNL     1       5.017  -5.773  -9.435  1.00  0.00    -0.550 OA
ENDBRANCH   2   3
ENDBRANCH   1   2
BRANCH   1   6
ATOM      6  C   UNL     1       6.208  -9.725 -11.222  1.00  0.00     0.000 C 
BRANCH   6   7
ATOM      7  C   UNL     1       5.062  -9.150 -12.067  1.00  0.00    -0.003 C 
ATOM      8  C   UNL     1       5.556  -8.258 -13.205  1.00  0.00     0.004 C 
ENDBRANCH   6   7
ENDBRANCH   1   6
TORSDOF 4
ENDMDL
MODEL 6
REMARK VINA RESULT:    -3.178     12.394     13.328
REMARK INTER + INTRA:          -3.988
REMARK INTER:                  -3.909
REMARK INTRA:                  -0.080
REMARK UNBOUND:                -0.068
REMARK SMILES CCCCCC(=O)[O-]
REMARK SMILES IDX 4 1 5 2 6 3 7 4 8 5 3 6 2 7 1 8
REMARK H PARENT
REMARK Flexibility Score: inf
ROOT
ATOM      1  C   UNL     1       5.882 -21.192 -13.409  1.00  0.00     0.006 C 
ENDROOT
BRANCH   1   2
ATOM      2  C   UNL     1       5.081 -21.348 -12.114  1.00  0.00     0.053 C 
BRANCH   2   3
ATOM      3  C   UNL     1       5.557 -22.539 -11.344  1.00  0.00     0.041 C 
ATOM      4  O   UNL     1       5.539 -22.529 -10.085  1.00  0.00    -0.550 OA
ATOM      5  O   UNL     1       5.977 -23.679 -12.017  1.00  0.00    -0.550 OA
ENDBRANCH   2   3
ENDBRANCH   1   2
BRANCH   1   6
ATOM      6  C   UNL     1       5.689 -19.790 -14.009  1.00  0.00     0.000 C 
BRANCH   6   7
ATOM      7  C   UNL     1       6.636 -19.516 -15.186  1.00  0.00    -0.003 C 
ATOM      8  C   UNL     1       7.522 -20.716 -15.524  1.00  0.00     0.004 C 
ENDBRANCH   6   7
ENDBRANCH   1   6
TORSDOF 4
ENDMDL
MODEL 7
REMARK VINA RESULT:    -3.165     15.562     16.192
REMARK INTER + INTRA:          -3.973
REMARK INTER:                  -3.890
REMARK INTRA:                  -0.082
REMARK UNBOUND:                -0.068
REMARK SMILES CCCCCC(=O)[O-]
REMARK SMILES IDX 4 1 5 2 6 3 7 4 8 5 3 6 2 7 1 8
REMARK H PARENT
REMARK Flexibility Score: inf
ROOT
ATOM      1  C   UNL     1      19.507 -15.782 -16.080  1.00  0.00     0.006 C 
ENDROOT
BRANCH   1   2
ATOM      2  C   UNL     1      18.156 -16.110 -15.440  1.00  0.00     0.053 C 
BRANCH   2   3
ATOM      3  C   UNL     1      17.139 -15.074 -15.803  1.00  0.00     0.041 C 
ATOM      4  O   UNL     1      17.006 -14.041 -15.095  1.00  0.00    -0.550 OA
ATOM      5  O   UNL     1      16.372 -15.225 -16.951  1.00  0.00    -0.550 OA
ENDBRANCH   2   3
ENDBRANCH   1   2
BRANCH   1   6
ATOM      6  C   UNL     1      20.236 -17.064 -16.513  1.00  0.00     0.000 C 
BRANCH   6   7
ATOM      7  C   UNL     1      21.650 -16.789 -17.045  1.00  0.00    -0.003 C 
ATOM      8  C   UNL     1      22.147 -15.383 -16.705  1.00  0.00     0.004 C 
ENDBRANCH   6   7
ENDBRANCH   1   6
TORSDOF 4
ENDMDL
MODEL 8
REMARK VINA RESULT:    -3.037     11.724     13.300
REMARK INTER + INTRA:          -3.815
REMARK INTER:                  -3.736
REMARK INTRA:                  -0.079
REMARK UNBOUND:                -0.068
REMARK SMILES CCCCCC(=O)[O-]
REMARK SMILES IDX 4 1 5 2 6 3 7 4 8 5 3 6 2 7 1 8
REMARK H PARENT
REMARK Flexibility Score: inf
ROOT
ATOM      1  C   UNL     1       5.603 -21.047 -13.255  1.00  0.00     0.006 C 
ENDROOT
BRANCH   1   2
ATOM      2  C   UNL     1       5.302 -19.759 -14.026  1.00  0.00     0.053 C 
BRANCH   2   3
ATOM      3  C   UNL     1       6.442 -19.411 -14.929  1.00  0.00     0.041 C 
ATOM      4  O   UNL     1       6.663 -18.209 -15.237  1.00  0.00    -0.550 OA
ATOM      5  O   UNL     1       7.291 -20.407 -15.394  1.00  0.00    -0.550 OA
ENDBRANCH   2   3
ENDBRANCH   1   2
BRANCH   1   6
ATOM      6  C   UNL     1       4.934 -21.029 -11.872  1.00  0.00     0.000 C 
BRANCH   6   7
ATOM      7  C   UNL     1       5.317 -22.244 -11.015  1.00  0.00    -0.003 C 
ATOM      8  C   UNL     1       5.789 -23.433 -11.852  1.00  0.00     0.004 C 
ENDBRANCH   6   7
ENDBRANCH   1   6
TORSDOF 4
ENDMDL
MODEL 9
REMARK VINA RESULT:    -2.998      2.855      4.277
REMARK INTER + INTRA:          -3.767
REMARK INTER:                  -3.674
REMARK INTRA:                  -0.093
REMARK UNBOUND:                -0.068
REMARK SMILES CCCCCC(=O)[O-]
REMARK SMILES IDX 4 1 5 2 6 3 7 4 8 5 3 6 2 7 1 8
REMARK H PARENT
REMARK Flexibility Score: inf
ROOT
ATOM      1  C   UNL     1       5.595  -7.795  -9.393  1.00  0.00     0.006 C 
ENDROOT
BRANCH   1   2
ATOM      2  C   UNL     1       4.887  -6.636  -8.687  1.00  0.00     0.053 C 
BRANCH   2   3
ATOM      3  C   UNL     1       5.761  -6.061  -7.618  1.00  0.00     0.041 C 
ATOM      4  O   UNL     1       6.846  -6.626  -7.314  1.00  0.00    -0.550 OA
ATOM      5  O   UNL     1       5.403  -4.875  -6.990  1.00  0.00    -0.550 OA
ENDBRANCH   2   3
ENDBRANCH   1   2
BRANCH   1   6
ATOM      6  C   UNL     1       5.384  -7.724 -10.914  1.00  0.00     0.000 C 
BRANCH   6   7
ATOM      7  C   UNL     1       5.835  -9.004 -11.633  1.00  0.00    -0.003 C 
ATOM      8  C   UNL     1       6.470 -10.022 -10.686  1.00  0.00     0.004 C 
ENDBRANCH   6   7
ENDBRANCH   1   6
TORSDOF 4
ENDMDL
