MODEL 1
REMARK VINA RESULT:    -4.806      0.000      0.000
REMARK INTER + INTRA:          -9.659
REMARK INTER:                  -8.739
REMARK INTRA:                  -0.920
REMARK UNBOUND:                -0.920
REMARK SMILES CCCCCCCCCCCCCCCC(=O)[O-]
REMARK SMILES IDX 9 1 10 2 11 3 12 4 13 5 14 6 15 7 16 8 17 9 18 10 8 11 7 12
REMARK SMILES IDX 6 13 5 14 4 15 3 16 2 17 1 18
REMARK H PARENT
REMARK Flexibility Score: inf
ROOT
ATOM      1  C   UNL     1      -0.675  61.133  23.690  1.00  0.00     0.000 C 
ENDROOT
BRANCH   1   2
ATOM      2  C   UNL     1      -0.249  62.598  23.890  1.00  0.00     0.000 C 
BRANCH   2   3
ATOM      3  C   UNL     1      -1.074  63.638  23.103  1.00  0.00     0.000 C 
BRANCH   3   4
ATOM      4  C   UNL     1      -0.925  65.091  23.589  1.00  0.00     0.000 C 
BRANCH   4   5
ATOM      5  C   UNL     1      -0.934  66.107  22.435  1.00  0.00     0.000 C 
BRANCH   5   6
ATOM      6  C   UNL     1      -2.327  66.709  22.191  1.00  0.00     0.006 C 
BRANCH   6   7
ATOM      7  C   UNL     1      -3.369  66.207  23.199  1.00  0.00     0.053 C 
BRANCH   7   8
ATOM      8  C   UNL     1      -4.426  65.408  22.503  1.00  0.00     0.041 C 
ATOM      9  O   UNL     1      -4.597  64.195  22.794  1.00  0.00    -0.550 OA
ATOM     10  O   UNL     1      -5.188  65.989  21.498  1.00  0.00    -0.550 OA
ENDBRANCH   7   8
ENDBRANCH   6   7
ENDBRANCH   5   6
ENDBRANCH   4   5
ENDBRANCH   3   4
ENDBRANCH   2   3
ENDBRANCH   1   2
BRANCH   1  11
ATOM     11  C   UNL     1       0.470  60.137  23.943  1.00  0.00     0.000 C 
BRANCH  11  12
ATOM     12  C   UNL     1       0.200  59.227  25.151  1.00  0.00    -0.000 C 
BRANCH  12  13
ATOM     13  C   UNL     1       0.521  57.749  24.866  1.00  0.00    -0.000 C 
BRANCH  13  14
ATOM     14  C   UNL     1       1.883  57.315  25.435  1.00  0.00    -0.000 C 
BRANCH  14  15
ATOM     15  C   UNL     1       2.924  56.897  24.376  1.00  0.00    -0.000 C 
BRANCH  15  16
ATOM     16  C   UNL     1       3.561  58.058  23.587  1.00  0.00    -0.000 C 
BRANCH  16  17
ATOM     17  C   UNL     1       3.114  58.163  22.118  1.00  0.00    -0.003 C 
ATOM     18  C   UNL     1       2.148  57.052  21.710  1.00  0.00     0.004 C 
ENDBRANCH  16  17
ENDBRANCH  15  16
ENDBRANCH  14  15
ENDBRANCH  13  14
ENDBRANCH  12  13
ENDBRANCH  11  12
ENDBRANCH   1  11
TORSDOF 14
ENDMDL
MODEL 2
REMARK VINA RESULT:    -4.795      3.548      8.379
REMARK INTER + INTRA:          -9.639
REMARK INTER:                  -8.538
REMARK INTRA:                  -1.101
REMARK UNBOUND:                -0.920
REMARK SMILES CCCCCCCCCCCCCCCC(=O)[O-]
REMARK SMILES IDX 9 1 10 2 11 3 12 4 13 5 14 6 15 7 16 8 17 9 18 10 8 11 7 12
REMARK SMILES IDX 6 13 5 14 4 15 3 16 2 17 1 18
REMARK H PARENT
REMARK Flexibility Score: inf
ROOT
ATOM      1  C   UNL     1      -0.014  61.575  24.047  1.00  0.00     0.000 C 
ENDROOT
BRANCH   1   2
ATOM      2  C   UNL     1       0.852  60.329  24.306  1.00  0.00     0.000 C 
BRANCH   2   3
ATOM      3  C   UNL     1       0.238  59.287  25.263  1.00  0.00     0.000 C 
BRANCH   3   4
ATOM      4  C   UNL     1       0.397  57.821  24.820  1.00  0.00     0.000 C 
BRANCH   4   5
ATOM      5  C   UNL     1       0.396  57.659  23.291  1.00  0.00     0.000 C 
BRANCH   5   6
ATOM      6  C   UNL     1       1.331  56.536  22.816  1.00  0.00     0.006 C 
BRANCH   6   7
ATOM      7  C   UNL     1       2.389  57.032  21.822  1.00  0.00     0.053 C 
BRANCH   7   8
ATOM      8  C   UNL     1       3.225  58.107  22.442  1.00  0.00     0.041 C 
ATOM      9  O   UNL     1       3.831  57.893  23.525  1.00  0.00    -0.550 OA
ATOM     10  O   UNL     1       3.293  59.362  21.852  1.00  0.00    -0.550 OA
ENDBRANCH   7   8
ENDBRANCH   6   7
ENDBRANCH   5   6
ENDBRANCH   4   5
ENDBRANCH   3   4
ENDBRANCH   2   3
ENDBRANCH   1   2
BRANCH   1  11
ATOM     11  C   UNL     1      -1.255  61.273  23.190  1.00  0.00     0.000 C 
BRANCH  11  12
ATOM     12  C   UNL     1      -2.010  62.548  22.782  1.00  0.00    -0.000 C 
BRANCH  12  13
ATOM     13  C   UNL     1      -1.273  63.834  23.194  1.00  0.00    -0.000 C 
BRANCH  13  14
ATOM     14  C   UNL     1      -2.066  65.108  22.857  1.00  0.00    -0.000 C 
BRANCH  14  15
ATOM     15  C   UNL     1      -1.201  66.353  22.572  1.00  0.00    -0.000 C 
BRANCH  15  16
ATOM     16  C   UNL     1       0.249  66.278  23.090  1.00  0.00    -0.000 C 
BRANCH  16  17
ATOM     17  C   UNL     1       1.294  66.956  22.187  1.00  0.00    -0.003 C 
ATOM     18  C   UNL     1       0.817  67.120  20.745  1.00  0.00     0.004 C 
ENDBRANCH  16  17
ENDBRANCH  15  16
ENDBRANCH  14  15
ENDBRANCH  13  14
ENDBRANCH  12  13
ENDBRANCH  11  12
ENDBRANCH   1  11
TORSDOF 14
ENDMDL
MODEL 3
REMARK VINA RESULT:    -4.739      3.551      8.753
REMARK INTER + INTRA:          -9.539
REMARK INTER:                  -8.646
REMARK INTRA:                  -0.892
REMARK UNBOUND:                -0.920
REMARK SMILES CCCCCCCCCCCCCCCC(=O)[O-]
REMARK SMILES IDX 9 1 10 2 11 3 12 4 13 5 14 6 15 7 16 8 17 9 18 10 8 11 7 12
REMARK SMILES IDX 6 13 5 14 4 15 3 16 2 17 1 18
REMARK H PARENT
REMARK Flexibility Score: inf
ROOT
ATOM      1  C   UNL     1      -0.239  61.552  24.192  1.00  0.00     0.000 C 
ENDROOT
BRANCH   1   2
ATOM      2  C   UNL     1       0.534  60.224  24.094  1.00  0.00     0.000 C 
BRANCH   2   3
ATOM      3  C   UNL     1       0.251  59.212  25.223  1.00  0.00     0.000 C 
BRANCH   3   4
ATOM      4  C   UNL     1       0.482  57.737  24.849  1.00  0.00     0.000 C 
BRANCH   4   5
ATOM      5  C   UNL     1       0.379  57.485  23.335  1.00  0.00     0.000 C 
BRANCH   5   6
ATOM      6  C   UNL     1       1.421  56.473  22.833  1.00  0.00     0.006 C 
BRANCH   6   7
ATOM      7  C   UNL     1       2.348  57.066  21.764  1.00  0.00     0.053 C 
BRANCH   7   8
ATOM      8  C   UNL     1       3.221  58.126  22.359  1.00  0.00     0.041 C 
ATOM      9  O   UNL     1       3.453  59.187  21.722  1.00  0.00    -0.550 OA
ATOM     10  O   UNL     1       3.818  57.922  23.596  1.00  0.00    -0.550 OA
ENDBRANCH   7   8
ENDBRANCH   6   7
ENDBRANCH   5   6
ENDBRANCH   4   5
ENDBRANCH   3   4
ENDBRANCH   2   3
ENDBRANCH   1   2
BRANCH   1  11
ATOM     11  C   UNL     1      -1.335  61.686  23.121  1.00  0.00     0.000 C 
BRANCH  11  12
ATOM     12  C   UNL     1      -1.746  63.147  22.881  1.00  0.00    -0.000 C 
BRANCH  12  13
ATOM     13  C   UNL     1      -0.787  64.151  23.547  1.00  0.00    -0.000 C 
BRANCH  13  14
ATOM     14  C   UNL     1      -1.245  65.610  23.381  1.00  0.00    -0.000 C 
BRANCH  14  15
ATOM     15  C   UNL     1      -1.507  66.046  21.924  1.00  0.00    -0.000 C 
BRANCH  15  16
ATOM     16  C   UNL     1      -2.884  66.692  21.670  1.00  0.00    -0.000 C 
BRANCH  16  17
ATOM     17  C   UNL     1      -4.089  65.796  22.006  1.00  0.00    -0.003 C 
ATOM     18  C   UNL     1      -4.462  65.833  23.487  1.00  0.00     0.004 C 
ENDBRANCH  16  17
ENDBRANCH  15  16
ENDBRANCH  14  15
ENDBRANCH  13  14
ENDBRANCH  12  13
ENDBRANCH  11  12
ENDBRANCH   1  11
TORSDOF 14
ENDMDL
MODEL 4
REMARK VINA RESULT:    -4.705      3.838      5.482
REMARK INTER + INTRA:          -9.475
REMARK INTER:                  -7.424
REMARK INTRA:                  -2.052
REMARK UNBOUND:                -0.920
REMARK SMILES CCCCCCCCCCCCCCCC(=O)[O-]
REMARK SMILES IDX 9 1 10 2 11 3 12 4 13 5 14 6 15 7 16 8 17 9 18 10 8 11 7 12
REMARK SMILES IDX 6 13 5 14 4 15 3 16 2 17 1 18
REMARK H PARENT
REMARK Flexibility Score: inf
ROOT
ATOM      1  C   UNL     1       0.553  56.939  23.306  1.00  0.00     0.000 C 
ENDROOT
BRANCH   1   2
ATOM      2  C   UNL     1       1.080  57.565  22.002  1.00  0.00     0.000 C 
BRANCH   2   3
ATOM      3  C   UNL     1       2.580  57.338  21.721  1.00  0.00     0.000 C 
BRANCH   3   4
ATOM      4  C   UNL     1       3.507  58.481  22.173  1.00  0.00     0.000 C 
BRANCH   4   5
ATOM      5  C   UNL     1       2.806  59.850  22.172  1.00  0.00     0.000 C 
BRANCH   5   6
ATOM      6  C   UNL     1       2.741  60.479  23.573  1.00  0.00     0.006 C 
BRANCH   6   7
ATOM      7  C   UNL     1       1.814  61.700  23.626  1.00  0.00     0.053 C 
BRANCH   7   8
ATOM      8  C   UNL     1       0.431  61.288  24.022  1.00  0.00     0.041 C 
ATOM      9  O   UNL     1       0.101  61.259  25.237  1.00  0.00    -0.550 OA
ATOM     10  O   UNL     1      -0.480  60.888  23.053  1.00  0.00    -0.550 OA
ENDBRANCH   7   8
ENDBRANCH   6   7
ENDBRANCH   5   6
ENDBRANCH   4   5
ENDBRANCH   3   4
ENDBRANCH   2   3
ENDBRANCH   1   2
BRANCH   1  11
ATOM     11  C   UNL     1       0.580  57.918  24.492  1.00  0.00     0.000 C 
BRANCH  11  12
ATOM     12  C   UNL     1       1.345  57.355  25.700  1.00  0.00    -0.000 C 
BRANCH  12  13
ATOM     13  C   UNL     1       2.724  56.788  25.320  1.00  0.00    -0.000 C 
BRANCH  13  14
ATOM     14  C   UNL     1       3.003  55.420  25.966  1.00  0.00    -0.000 C 
BRANCH  14  15
ATOM     15  C   UNL     1       3.565  54.352  25.005  1.00  0.00    -0.000 C 
BRANCH  15  16
ATOM     16  C   UNL     1       3.323  54.625  23.506  1.00  0.00    -0.000 C 
BRANCH  16  17
ATOM     17  C   UNL     1       2.314  53.679  22.833  1.00  0.00    -0.003 C 
ATOM     18  C   UNL     1       2.437  53.665  21.310  1.00  0.00     0.004 C 
ENDBRANCH  16  17
ENDBRANCH  15  16
ENDBRANCH  14  15
ENDBRANCH  13  14
ENDBRANCH  12  13
ENDBRANCH  11  12
ENDBRANCH   1  11
TORSDOF 14
ENDMDL
MODEL 5
REMARK VINA RESULT:    -4.482      4.553      9.376
REMARK INTER + INTRA:          -9.071
REMARK INTER:                  -8.128
REMARK INTRA:                  -0.943
REMARK UNBOUND:                -0.920
REMARK SMILES CCCCCCCCCCCCCCCC(=O)[O-]
REMARK SMILES IDX 9 1 10 2 11 3 12 4 13 5 14 6 15 7 16 8 17 9 18 10 8 11 7 12
REMARK SMILES IDX 6 13 5 14 4 15 3 16 2 17 1 18
REMARK H PARENT
REMARK Flexibility Score: inf
ROOT
ATOM      1  C   UNL     1      -0.132  61.505  23.947  1.00  0.00     0.000 C 
ENDROOT
BRANCH   1   2
ATOM      2  C   UNL     1       0.519  60.119  23.786  1.00  0.00     0.000 C 
BRANCH   2   3
ATOM      3  C   UNL     1       0.420  59.198  25.019  1.00  0.00     0.000 C 
BRANCH   3   4
ATOM      4  C   UNL     1       0.477  57.690  24.712  1.00  0.00     0.000 C 
BRANCH   4   5
ATOM      5  C   UNL     1       0.533  57.393  23.204  1.00  0.00     0.000 C 
BRANCH   5   6
ATOM      6  C   UNL     1       1.845  56.713  22.786  1.00  0.00     0.006 C 
BRANCH   6   7
ATOM      7  C   UNL     1       2.685  56.264  23.990  1.00  0.00     0.053 C 
BRANCH   7   8
ATOM      8  C   UNL     1       2.992  54.802  23.896  1.00  0.00     0.041 C 
ATOM      9  O   UNL     1       3.848  54.284  24.661  1.00  0.00    -0.550 OA
ATOM     10  O   UNL     1       2.369  54.021  22.931  1.00  0.00    -0.550 OA
ENDBRANCH   7   8
ENDBRANCH   6   7
ENDBRANCH   5   6
ENDBRANCH   4   5
ENDBRANCH   3   4
ENDBRANCH   2   3
ENDBRANCH   1   2
BRANCH   1  11
ATOM     11  C   UNL     1      -1.339  61.711  23.017  1.00  0.00     0.000 C 
BRANCH  11  12
ATOM     12  C   UNL     1      -1.728  63.191  22.878  1.00  0.00    -0.000 C 
BRANCH  12  13
ATOM     13  C   UNL     1      -0.774  64.130  23.637  1.00  0.00    -0.000 C 
BRANCH  13  14
ATOM     14  C   UNL     1      -0.845  65.583  23.135  1.00  0.00    -0.000 C 
BRANCH  14  15
ATOM     15  C   UNL     1      -2.247  66.222  23.195  1.00  0.00    -0.000 C 
BRANCH  15  16
ATOM     16  C   UNL     1      -2.894  66.514  21.826  1.00  0.00    -0.000 C 
BRANCH  16  17
ATOM     17  C   UNL     1      -4.294  65.906  21.630  1.00  0.00    -0.003 C 
ATOM     18  C   UNL     1      -4.717  65.002  22.787  1.00  0.00     0.004 C 
ENDBRANCH  16  17
ENDBRANCH  15  16
ENDBRANCH  14  15
ENDBRANCH  13  14
ENDBRANCH  12  13
ENDBRANCH  11  12
ENDBRANCH   1  11
TORSDOF 14
ENDMDL
MODEL 6
REMARK VINA RESULT:    -4.474      3.514      8.904
REMARK INTER + INTRA:          -9.055
REMARK INTER:                  -8.088
REMARK INTRA:                  -0.967
REMARK UNBOUND:                -0.920
REMARK SMILES CCCCCCCCCCCCCCCC(=O)[O-]
REMARK SMILES IDX 9 1 10 2 11 3 12 4 13 5 14 6 15 7 16 8 17 9 18 10 8 11 7 12
REMARK SMILES IDX 6 13 5 14 4 15 3 16 2 17 1 18
REMARK H PARENT
REMARK Flexibility Score: inf
ROOT
ATOM      1  C   UNL     1      -0.697  61.420  23.367  1.00  0.00     0.000 C 
ENDROOT
BRANCH   1   2
ATOM      2  C   UNL     1       0.494  60.498  23.684  1.00  0.00     0.000 C 
BRANCH   2   3
ATOM      3  C   UNL     1       0.356  59.662  24.973  1.00  0.00     0.000 C 
BRANCH   3   4
ATOM      4  C   UNL     1       0.527  58.143  24.786  1.00  0.00     0.000 C 
BRANCH   4   5
ATOM      5  C   UNL     1       0.385  57.705  23.319  1.00  0.00     0.000 C 
BRANCH   5   6
ATOM      6  C   UNL     1       1.402  56.623  22.926  1.00  0.00     0.006 C 
BRANCH   6   7
ATOM      7  C   UNL     1       2.379  57.100  21.843  1.00  0.00     0.053 C 
BRANCH   7   8
ATOM      8  C   UNL     1       3.271  58.173  22.382  1.00  0.00     0.041 C 
ATOM      9  O   UNL     1       3.823  58.034  23.505  1.00  0.00    -0.550 OA
ATOM     10  O   UNL     1       3.454  59.349  21.666  1.00  0.00    -0.550 OA
ENDBRANCH   7   8
ENDBRANCH   6   7
ENDBRANCH   5   6
ENDBRANCH   4   5
ENDBRANCH   3   4
ENDBRANCH   2   3
ENDBRANCH   1   2
BRANCH   1  11
ATOM     11  C   UNL     1      -0.562  62.812  24.008  1.00  0.00     0.000 C 
BRANCH  11  12
ATOM     12  C   UNL     1      -1.055  63.935  23.083  1.00  0.00    -0.000 C 
BRANCH  12  13
ATOM     13  C   UNL     1      -0.676  65.336  23.594  1.00  0.00    -0.000 C 
BRANCH  13  14
ATOM     14  C   UNL     1      -1.645  66.429  23.108  1.00  0.00    -0.000 C 
BRANCH  14  15
ATOM     15  C   UNL     1      -2.740  66.821  24.121  1.00  0.00    -0.000 C 
BRANCH  15  16
ATOM     16  C   UNL     1      -4.118  66.171  23.883  1.00  0.00    -0.000 C 
BRANCH  16  17
ATOM     17  C   UNL     1      -4.304  65.543  22.490  1.00  0.00    -0.003 C 
ATOM     18  C   UNL     1      -5.650  65.890  21.857  1.00  0.00     0.004 C 
ENDBRANCH  16  17
ENDBRANCH  15  16
ENDBRANCH  14  15
ENDBRANCH  13  14
ENDBRANCH  12  13
ENDBRANCH  11  12
ENDBRANCH   1  11
TORSDOF 14
ENDMDL
MODEL 7
REMARK VINA RESULT:    -4.405      4.192      8.853
REMARK INTER + INTRA:          -8.931
REMARK INTER:                  -7.907
REMARK INTRA:                  -1.023
REMARK UNBOUND:                -0.920
REMARK SMILES CCCCCCCCCCCCCCCC(=O)[O-]
REMARK SMILES IDX 9 1 10 2 11 3 12 4 13 5 14 6 15 7 16 8 17 9 18 10 8 11 7 12
REMARK SMILES IDX 6 13 5 14 4 15 3 16 2 17 1 18
REMARK H PARENT
REMARK Flexibility Score: inf
ROOT
ATOM      1  C   UNL     1       0.734  60.179  23.848  1.00  0.00     0.000 C 
ENDROOT
BRANCH   1   2
ATOM      2  C   UNL     1       1.980  61.025  23.532  1.00  0.00     0.000 C 
BRANCH   2   3
ATOM      3  C   UNL     1       3.031  60.341  22.634  1.00  0.00     0.000 C 
BRANCH   3   4
ATOM      4  C   UNL     1       2.966  58.803  22.610  1.00  0.00     0.000 C 
BRANCH   4   5
ATOM      5  C   UNL     1       3.601  58.161  23.854  1.00  0.00     0.000 C 
BRANCH   5   6
ATOM      6  C   UNL     1       2.851  56.903  24.317  1.00  0.00     0.006 C 
BRANCH   6   7
ATOM      7  C   UNL     1       1.739  56.490  23.344  1.00  0.00     0.053 C 
BRANCH   7   8
ATOM      8  C   UNL     1       2.186  55.338  22.500  1.00  0.00     0.041 C 
ATOM      9  O   UNL     1       2.295  55.471  21.253  1.00  0.00    -0.550 OA
ATOM     10  O   UNL     1       2.432  54.102  23.084  1.00  0.00    -0.550 OA
ENDBRANCH   7   8
ENDBRANCH   6   7
ENDBRANCH   5   6
ENDBRANCH   4   5
ENDBRANCH   3   4
ENDBRANCH   2   3
ENDBRANCH   1   2
BRANCH   1  11
ATOM     11  C   UNL     1      -0.511  61.034  24.143  1.00  0.00     0.000 C 
BRANCH  11  12
ATOM     12  C   UNL     1      -1.256  61.446  22.864  1.00  0.00    -0.000 C 
BRANCH  12  13
ATOM     13  C   UNL     1      -1.843  62.866  22.950  1.00  0.00    -0.000 C 
BRANCH  13  14
ATOM     14  C   UNL     1      -0.848  63.888  23.526  1.00  0.00    -0.000 C 
BRANCH  14  15
ATOM     15  C   UNL     1      -1.180  65.362  23.216  1.00  0.00    -0.000 C 
BRANCH  15  16
ATOM     16  C   UNL     1      -2.638  65.631  22.792  1.00  0.00    -0.000 C 
BRANCH  16  17
ATOM     17  C   UNL     1      -2.800  66.637  21.639  1.00  0.00    -0.003 C 
ATOM     18  C   UNL     1      -1.472  67.009  20.984  1.00  0.00     0.004 C 
ENDBRANCH  16  17
ENDBRANCH  15  16
ENDBRANCH  14  15
ENDBRANCH  13  14
ENDBRANCH  12  13
ENDBRANCH  11  12
ENDBRANCH   1  11
TORSDOF 14
ENDMDL
MODEL 8
REMARK VINA RESULT:    -4.357      4.268      8.779
REMARK INTER + INTRA:          -8.843
REMARK INTER:                  -7.968
REMARK INTRA:                  -0.875
REMARK UNBOUND:                -0.920
REMARK SMILES CCCCCCCCCCCCCCCC(=O)[O-]
REMARK SMILES IDX 9 1 10 2 11 3 12 4 13 5 14 6 15 7 16 8 17 9 18 10 8 11 7 12
REMARK SMILES IDX 6 13 5 14 4 15 3 16 2 17 1 18
REMARK H PARENT
REMARK Flexibility Score: inf
ROOT
ATOM      1  C   UNL     1       0.714  57.705  24.898  1.00  0.00     0.000 C 
ENDROOT
BRANCH   1   2
ATOM      2  C   UNL     1       2.096  57.413  25.511  1.00  0.00     0.000 C 
BRANCH   2   3
ATOM      3  C   UNL     1       3.250  57.273  24.498  1.00  0.00     0.000 C 
BRANCH   3   4
ATOM      4  C   UNL     1       3.411  58.455  23.526  1.00  0.00     0.000 C 
BRANCH   4   5
ATOM      5  C   UNL     1       3.196  58.051  22.057  1.00  0.00     0.000 C 
BRANCH   5   6
ATOM      6  C   UNL     1       1.888  57.273  21.846  1.00  0.00     0.006 C 
BRANCH   6   7
ATOM      7  C   UNL     1       2.060  56.080  20.896  1.00  0.00     0.053 C 
BRANCH   7   8
ATOM      8  C   UNL     1       2.240  54.815  21.675  1.00  0.00     0.041 C 
ATOM      9  O   UNL     1       1.920  54.770  22.892  1.00  0.00    -0.550 OA
ATOM     10  O   UNL     1       2.807  53.701  21.071  1.00  0.00    -0.550 OA
ENDBRANCH   7   8
ENDBRANCH   6   7
ENDBRANCH   5   6
ENDBRANCH   4   5
ENDBRANCH   3   4
ENDBRANCH   2   3
ENDBRANCH   1   2
BRANCH   1  11
ATOM     11  C   UNL     1       0.228  59.138  25.175  1.00  0.00     0.000 C 
BRANCH  11  12
ATOM     12  C   UNL     1       0.095  59.971  23.890  1.00  0.00    -0.000 C 
BRANCH  12  13
ATOM     13  C   UNL     1       0.264  61.480  24.139  1.00  0.00    -0.000 C 
BRANCH  13  14
ATOM     14  C   UNL     1      -0.706  62.333  23.303  1.00  0.00    -0.000 C 
BRANCH  14  15
ATOM     15  C   UNL     1      -0.697  63.839  23.637  1.00  0.00    -0.000 C 
BRANCH  15  16
ATOM     16  C   UNL     1      -1.744  64.684  22.884  1.00  0.00    -0.000 C 
BRANCH  16  17
ATOM     17  C   UNL     1      -1.274  66.096  22.493  1.00  0.00    -0.003 C 
ATOM     18  C   UNL     1      -2.061  66.682  21.323  1.00  0.00     0.004 C 
ENDBRANCH  16  17
ENDBRANCH  15  16
ENDBRANCH  14  15
ENDBRANCH  13  14
ENDBRANCH  12  13
ENDBRANCH  11  12
ENDBRANCH   1  11
TORSDOF 14
ENDMDL
MODEL 9
REMARK VINA RESULT:    -4.257      4.541      9.035
REMARK INTER + INTRA:          -8.661
REMARK INTER:                  -7.752
REMARK INTRA:                  -0.909
REMARK UNBOUND:                -0.920
REMARK SMILES CCCCCCCCCCCCCCCC(=O)[O-]
REMARK SMILES IDX 9 1 10 2 11 3 12 4 13 5 14 6 15 7 16 8 17 9 18 10 8 11 7 12
REMARK SMILES IDX 6 13 5 14 4 15 3 16 2 17 1 18
REMARK H PARENT
REMARK Flexibility Score: inf
ROOT
ATOM      1  C   UNL     1       0.074  61.938  23.788  1.00  0.00     0.000 C 
ENDROOT
BRANCH   1   2
ATOM      2  C   UNL     1       0.933  60.668  23.654  1.00  0.00     0.000 C 
BRANCH   2   3
ATOM      3  C   UNL     1       0.449  59.455  24.475  1.00  0.00     0.000 C 
BRANCH   3   4
ATOM      4  C   UNL     1       1.400  58.244  24.472  1.00  0.00     0.000 C 
BRANCH   4   5
ATOM      5  C   UNL     1       2.649  58.473  23.605  1.00  0.00     0.000 C 
BRANCH   5   6
ATOM      6  C   UNL     1       2.841  57.375  22.547  1.00  0.00     0.006 C 
BRANCH   6   7
ATOM      7  C   UNL     1       1.813  56.244  22.681  1.00  0.00     0.053 C 
BRANCH   7   8
ATOM      8  C   UNL     1       2.465  55.007  23.215  1.00  0.00     0.041 C 
ATOM      9  O   UNL     1       2.313  53.905  22.624  1.00  0.00    -0.550 OA
ATOM     10  O   UNL     1       3.199  55.061  24.392  1.00  0.00    -0.550 OA
ENDBRANCH   7   8
ENDBRANCH   6   7
ENDBRANCH   5   6
ENDBRANCH   4   5
ENDBRANCH   3   4
ENDBRANCH   2   3
ENDBRANCH   1   2
BRANCH   1  11
ATOM     11  C   UNL     1      -1.315  61.792  23.144  1.00  0.00     0.000 C 
BRANCH  11  12
ATOM     12  C   UNL     1      -1.997  63.148  22.905  1.00  0.00    -0.000 C 
BRANCH  12  13
ATOM     13  C   UNL     1      -1.111  64.339  23.311  1.00  0.00    -0.000 C 
BRANCH  13  14
ATOM     14  C   UNL     1      -1.905  65.650  23.449  1.00  0.00    -0.000 C 
BRANCH  14  15
ATOM     15  C   UNL     1      -1.183  66.903  22.913  1.00  0.00    -0.000 C 
BRANCH  15  16
ATOM     16  C   UNL     1      -0.578  66.759  21.502  1.00  0.00    -0.000 C 
BRANCH  16  17
ATOM     17  C   UNL     1       0.918  67.107  21.402  1.00  0.00    -0.003 C 
ATOM     18  C   UNL     1       1.672  66.870  22.709  1.00  0.00     0.004 C 
ENDBRANCH  16  17
ENDBRANCH  15  16
ENDBRANCH  14  15
ENDBRANCH  13  14
ENDBRANCH  12  13
ENDBRANCH  11  12
ENDBRANCH   1  11
TORSDOF 14
ENDMDL
