MODEL 1
REMARK VINA RESULT:    -4.956      0.000      0.000
REMARK INTER + INTRA:          -5.517
REMARK INTER:                  -5.391
REMARK INTRA:                  -0.126
REMARK UNBOUND:                -0.126
REMARK SMILES Cc1ccc(C(C)C)cc1O
REMARK SMILES IDX 1 1 2 2 10 3 9 4 5 5 4 6 3 7 11 8 6 10 7 11 8 12
REMARK H PARENT 11 9
REMARK Flexibility Score: inf
ROOT
ATOM      1  C   UNL     1      12.306  -0.624 -12.656  1.00  0.00     0.048 C 
ATOM      2  C   UNL     1      13.734  -0.377 -13.052  1.00  0.00    -0.009 A 
ATOM      3  C   UNL     1      14.672   0.046 -12.094  1.00  0.00     0.118 A 
ATOM      4  C   UNL     1      16.003   0.275 -12.471  1.00  0.00     0.050 A 
ATOM      5  C   UNL     1      16.416   0.086 -13.801  1.00  0.00    -0.042 A 
ATOM      6  C   UNL     1      15.470  -0.338 -14.752  1.00  0.00     0.004 A 
ATOM      7  C   UNL     1      14.143  -0.567 -14.381  1.00  0.00     0.007 A 
ENDROOT
BRANCH   3   8
ATOM      8  O   UNL     1      14.279   0.238 -10.769  1.00  0.00    -0.508 OA
ATOM      9  H   UNL     1      14.417   1.123 -10.297  1.00  0.00     0.293 HD
ENDBRANCH   3   8
BRANCH   5  10
ATOM     10  C   UNL     1      17.860   0.339 -14.191  1.00  0.00     0.013 C 
ATOM     11  C   UNL     1      18.028   0.344 -15.715  1.00  0.00     0.012 C 
ATOM     12  C   UNL     1      18.797  -0.684 -13.537  1.00  0.00     0.012 C 
ENDBRANCH   5  10
TORSDOF 2
ENDMDL
MODEL 2
REMARK VINA RESULT:    -4.903     18.149     20.011
REMARK INTER + INTRA:          -5.458
REMARK INTER:                  -5.332
REMARK INTRA:                  -0.127
REMARK UNBOUND:                -0.126
REMARK SMILES Cc1ccc(C(C)C)cc1O
REMARK SMILES IDX 1 1 2 2 10 3 9 4 5 5 4 6 3 7 11 8 6 10 7 11 8 12
REMARK H PARENT 11 9
REMARK Flexibility Score: inf
ROOT
ATOM      1  C   UNL     1      29.967  16.700 -17.175  1.00  0.00     0.048 C 
ATOM      2  C   UNL     1      29.740  15.259 -16.814  1.00  0.00    -0.009 A 
ATOM      3  C   UNL     1      29.346  14.335 -17.798  1.00  0.00     0.118 A 
ATOM      4  C   UNL     1      29.136  12.992 -17.454  1.00  0.00     0.050 A 
ATOM      5  C   UNL     1      29.315  12.553 -16.130  1.00  0.00    -0.042 A 
ATOM      6  C   UNL     1      29.709  13.485 -15.153  1.00  0.00     0.004 A 
ATOM      7  C   UNL     1      29.919  14.824 -15.492  1.00  0.00     0.007 A 
ENDROOT
BRANCH   3   8
ATOM      8  O   UNL     1      29.165  14.754 -19.116  1.00  0.00    -0.508 OA
ATOM      9  H   UNL     1      28.335  14.509 -19.642  1.00  0.00     0.293 HD
ENDBRANCH   3   8
BRANCH   5  10
ATOM     10  C   UNL     1      29.083  11.097 -15.775  1.00  0.00     0.013 C 
ATOM     11  C   UNL     1      29.405  10.829 -14.301  1.00  0.00     0.012 C 
ATOM     12  C   UNL     1      29.888  10.169 -16.693  1.00  0.00     0.012 C 
ENDBRANCH   5  10
TORSDOF 2
ENDMDL
MODEL 3
REMARK VINA RESULT:    -4.736     19.885     20.822
REMARK INTER + INTRA:          -5.277
REMARK INTER:                  -5.170
REMARK INTRA:                  -0.107
REMARK UNBOUND:                -0.126
REMARK SMILES Cc1ccc(C(C)C)cc1O
REMARK SMILES IDX 1 1 2 2 10 3 9 4 5 5 4 6 3 7 11 8 6 10 7 11 8 12
REMARK H PARENT 11 9
REMARK Flexibility Score: inf
ROOT
ATOM      1  C   UNL     1      30.686  11.379 -18.743  1.00  0.00     0.048 C 
ATOM      2  C   UNL     1      30.525  12.452 -17.703  1.00  0.00    -0.009 A 
ATOM      3  C   UNL     1      29.781  13.610 -17.988  1.00  0.00     0.118 A 
ATOM      4  C   UNL     1      29.636  14.607 -17.013  1.00  0.00     0.050 A 
ATOM      5  C   UNL     1      30.227  14.463 -15.745  1.00  0.00    -0.042 A 
ATOM      6  C   UNL     1      30.969  13.300 -15.469  1.00  0.00     0.004 A 
ATOM      7  C   UNL     1      31.116  12.305 -16.438  1.00  0.00     0.007 A 
ENDROOT
BRANCH   3   8
ATOM      8  O   UNL     1      29.188  13.767 -19.241  1.00  0.00    -0.508 OA
ATOM      9  H   UNL     1      28.985  12.973 -19.836  1.00  0.00     0.293 HD
ENDBRANCH   3   8
BRANCH   5  10
ATOM     10  C   UNL     1      30.059  15.551 -14.702  1.00  0.00     0.013 C 
ATOM     11  C   UNL     1      28.908  15.226 -13.744  1.00  0.00     0.012 C 
ATOM     12  C   UNL     1      29.860  16.922 -15.360  1.00  0.00     0.012 C 
ENDBRANCH   5  10
TORSDOF 2
ENDMDL
MODEL 4
REMARK VINA RESULT:    -4.617      1.196      4.386
REMARK INTER + INTRA:          -5.148
REMARK INTER:                  -5.021
REMARK INTRA:                  -0.126
REMARK UNBOUND:                -0.126
REMARK SMILES Cc1ccc(C(C)C)cc1O
REMARK SMILES IDX 1 1 2 2 10 3 9 4 5 5 4 6 3 7 11 8 6 10 7 11 8 12
REMARK H PARENT 11 9
REMARK Flexibility Score: inf
ROOT
ATOM      1  C   UNL     1      17.334   0.284 -13.387  1.00  0.00     0.048 C 
ATOM      2  C   UNL     1      15.868  -0.046 -13.393  1.00  0.00    -0.009 A 
ATOM      3  C   UNL     1      15.112   0.067 -12.213  1.00  0.00     0.118 A 
ATOM      4  C   UNL     1      13.744  -0.244 -12.225  1.00  0.00     0.050 A 
ATOM      5  C   UNL     1      13.115  -0.668 -13.409  1.00  0.00    -0.042 A 
ATOM      6  C   UNL     1      13.880  -0.777 -14.584  1.00  0.00     0.004 A 
ATOM      7  C   UNL     1      15.242  -0.469 -14.575  1.00  0.00     0.007 A 
ENDROOT
BRANCH   3   8
ATOM      8  O   UNL     1      15.721   0.486 -11.030  1.00  0.00    -0.508 OA
ATOM      9  H   UNL     1      15.189   0.631 -10.181  1.00  0.00     0.293 HD
ENDBRANCH   3   8
BRANCH   5  10
ATOM     10  C   UNL     1      11.634  -1.000 -13.404  1.00  0.00     0.013 C 
ATOM     11  C   UNL     1      11.034  -0.869 -14.809  1.00  0.00     0.012 C 
ATOM     12  C   UNL     1      10.875  -0.128 -12.397  1.00  0.00     0.012 C 
ENDBRANCH   5  10
TORSDOF 2
ENDMDL
MODEL 5
REMARK VINA RESULT:    -4.568      1.320      1.926
REMARK INTER + INTRA:          -5.095
REMARK INTER:                  -4.988
REMARK INTRA:                  -0.107
REMARK UNBOUND:                -0.126
REMARK SMILES Cc1ccc(C(C)C)cc1O
REMARK SMILES IDX 1 1 2 2 10 3 9 4 5 5 4 6 3 7 11 8 6 10 7 11 8 12
REMARK H PARENT 11 9
REMARK Flexibility Score: inf
ROOT
ATOM      1  C   UNL     1      12.532  -0.273 -12.740  1.00  0.00     0.048 C 
ATOM      2  C   UNL     1      13.991  -0.635 -12.733  1.00  0.00    -0.009 A 
ATOM      3  C   UNL     1      14.811  -0.248 -11.658  1.00  0.00     0.118 A 
ATOM      4  C   UNL     1      16.172  -0.588 -11.659  1.00  0.00     0.050 A 
ATOM      5  C   UNL     1      16.730  -1.317 -12.723  1.00  0.00    -0.042 A 
ATOM      6  C   UNL     1      15.901  -1.700 -13.793  1.00  0.00     0.004 A 
ATOM      7  C   UNL     1      14.545  -1.362 -13.797  1.00  0.00     0.007 A 
ENDROOT
BRANCH   3   8
ATOM      8  O   UNL     1      14.272   0.475 -10.594  1.00  0.00    -0.508 OA
ATOM      9  H   UNL     1      13.896   1.407 -10.720  1.00  0.00     0.293 HD
ENDBRANCH   3   8
BRANCH   5  10
ATOM     10  C   UNL     1      18.204  -1.676 -12.707  1.00  0.00     0.013 C 
ATOM     11  C   UNL     1      18.728  -1.794 -11.271  1.00  0.00     0.012 C 
ATOM     12  C   UNL     1      19.028  -0.667 -13.515  1.00  0.00     0.012 C 
ENDBRANCH   5  10
TORSDOF 2
ENDMDL
MODEL 6
REMARK VINA RESULT:    -4.568     18.285     20.216
REMARK INTER + INTRA:          -5.095
REMARK INTER:                  -4.975
REMARK INTRA:                  -0.120
REMARK UNBOUND:                -0.126
REMARK SMILES Cc1ccc(C(C)C)cc1O
REMARK SMILES IDX 1 1 2 2 10 3 9 4 5 5 4 6 3 7 11 8 6 10 7 11 8 12
REMARK H PARENT 11 9
REMARK Flexibility Score: inf
ROOT
ATOM      1  C   UNL     1      30.117  17.074 -16.884  1.00  0.00     0.048 C 
ATOM      2  C   UNL     1      29.841  15.623 -16.607  1.00  0.00    -0.009 A 
ATOM      3  C   UNL     1      29.952  15.118 -15.299  1.00  0.00     0.118 A 
ATOM      4  C   UNL     1      29.694  13.762 -15.048  1.00  0.00     0.050 A 
ATOM      5  C   UNL     1      29.323  12.897 -16.092  1.00  0.00    -0.042 A 
ATOM      6  C   UNL     1      29.214  13.412 -17.396  1.00  0.00     0.004 A 
ATOM      7  C   UNL     1      29.471  14.761 -17.650  1.00  0.00     0.007 A 
ENDROOT
BRANCH   3   8
ATOM      8  O   UNL     1      30.319  15.964 -14.253  1.00  0.00    -0.508 OA
ATOM      9  H   UNL     1      31.162  16.524 -14.293  1.00  0.00     0.293 HD
ENDBRANCH   3   8
BRANCH   5  10
ATOM     10  C   UNL     1      29.047  11.433 -15.802  1.00  0.00     0.013 C 
ATOM     11  C   UNL     1      29.301  11.104 -14.326  1.00  0.00     0.012 C 
ATOM     12  C   UNL     1      29.872  10.523 -16.720  1.00  0.00     0.012 C 
ENDBRANCH   5  10
TORSDOF 2
ENDMDL
MODEL 7
REMARK VINA RESULT:    -4.547     17.736     19.456
REMARK INTER + INTRA:          -5.071
REMARK INTER:                  -4.948
REMARK INTRA:                  -0.124
REMARK UNBOUND:                -0.126
REMARK SMILES Cc1ccc(C(C)C)cc1O
REMARK SMILES IDX 1 1 2 2 10 3 9 4 5 5 4 6 3 7 11 8 6 10 7 11 8 12
REMARK H PARENT 11 9
REMARK Flexibility Score: inf
ROOT
ATOM      1  C   UNL     1      29.940  15.914 -14.854  1.00  0.00     0.048 C 
ATOM      2  C   UNL     1      28.959  15.213 -13.957  1.00  0.00    -0.009 A 
ATOM      3  C   UNL     1      28.051  15.956 -13.181  1.00  0.00     0.118 A 
ATOM      4  C   UNL     1      27.139  15.294 -12.346  1.00  0.00     0.050 A 
ATOM      5  C   UNL     1      27.119  13.891 -12.274  1.00  0.00    -0.042 A 
ATOM      6  C   UNL     1      28.031  13.156 -13.054  1.00  0.00     0.004 A 
ATOM      7  C   UNL     1      28.941  13.811 -13.886  1.00  0.00     0.007 A 
ENDROOT
BRANCH   3   8
ATOM      8  O   UNL     1      28.058  17.349 -13.243  1.00  0.00    -0.508 OA
ATOM      9  H   UNL     1      27.322  17.903 -12.822  1.00  0.00     0.293 HD
ENDBRANCH   3   8
BRANCH   5  10
ATOM     10  C   UNL     1      26.125  13.192 -11.365  1.00  0.00     0.013 C 
ATOM     11  C   UNL     1      25.463  14.184 -10.402  1.00  0.00     0.012 C 
ATOM     12  C   UNL     1      26.791  12.042 -10.599  1.00  0.00     0.012 C 
ENDBRANCH   5  10
TORSDOF 2
ENDMDL
MODEL 8
REMARK VINA RESULT:    -4.491      2.010      4.916
REMARK INTER + INTRA:          -5.010
REMARK INTER:                  -4.885
REMARK INTRA:                  -0.126
REMARK UNBOUND:                -0.126
REMARK SMILES Cc1ccc(C(C)C)cc1O
REMARK SMILES IDX 1 1 2 2 10 3 9 4 5 5 4 6 3 7 11 8 6 10 7 11 8 12
REMARK H PARENT 11 9
REMARK Flexibility Score: inf
ROOT
ATOM      1  C   UNL     1      17.339   0.138 -13.877  1.00  0.00     0.048 C 
ATOM      2  C   UNL     1      15.876  -0.181 -13.749  1.00  0.00    -0.009 A 
ATOM      3  C   UNL     1      15.161  -0.679 -14.852  1.00  0.00     0.118 A 
ATOM      4  C   UNL     1      13.795  -0.974 -14.725  1.00  0.00     0.050 A 
ATOM      5  C   UNL     1      13.129  -0.779 -13.503  1.00  0.00    -0.042 A 
ATOM      6  C   UNL     1      13.854  -0.280 -12.405  1.00  0.00     0.004 A 
ATOM      7  C   UNL     1      15.214   0.015 -12.528  1.00  0.00     0.007 A 
ENDROOT
BRANCH   3   8
ATOM      8  O   UNL     1      15.808  -0.879 -16.071  1.00  0.00    -0.508 OA
ATOM      9  H   UNL     1      16.252  -1.760 -16.298  1.00  0.00     0.293 HD
ENDBRANCH   3   8
BRANCH   5  10
ATOM     10  C   UNL     1      11.652  -1.103 -13.383  1.00  0.00     0.013 C 
ATOM     11  C   UNL     1      10.963  -1.056 -14.752  1.00  0.00     0.012 C 
ATOM     12  C   UNL     1      10.959  -0.167 -12.385  1.00  0.00     0.012 C 
ENDBRANCH   5  10
TORSDOF 2
ENDMDL
MODEL 9
REMARK VINA RESULT:    -4.436     18.570     19.462
REMARK INTER + INTRA:          -4.950
REMARK INTER:                  -4.824
REMARK INTRA:                  -0.127
REMARK UNBOUND:                -0.126
REMARK SMILES Cc1ccc(C(C)C)cc1O
REMARK SMILES IDX 1 1 2 2 10 3 9 4 5 5 4 6 3 7 11 8 6 10 7 11 8 12
REMARK H PARENT 11 9
REMARK Flexibility Score: inf
ROOT
ATOM      1  C   UNL     1      30.761  10.976 -18.775  1.00  0.00     0.048 C 
ATOM      2  C   UNL     1      30.161  11.617 -17.556  1.00  0.00    -0.009 A 
ATOM      3  C   UNL     1      29.743  12.959 -17.594  1.00  0.00     0.118 A 
ATOM      4  C   UNL     1      29.185  13.551 -16.452  1.00  0.00     0.050 A 
ATOM      5  C   UNL     1      29.035  12.818 -15.263  1.00  0.00    -0.042 A 
ATOM      6  C   UNL     1      29.456  11.476 -15.234  1.00  0.00     0.004 A 
ATOM      7  C   UNL     1      30.013  10.882 -16.370  1.00  0.00     0.007 A 
ENDROOT
BRANCH   3   8
ATOM      8  O   UNL     1      29.884  13.701 -18.767  1.00  0.00    -0.508 OA
ATOM      9  H   UNL     1      30.309  14.620 -18.767  1.00  0.00     0.293 HD
ENDBRANCH   3   8
BRANCH   5  10
ATOM     10  C   UNL     1      28.429  13.474 -14.036  1.00  0.00     0.013 C 
ATOM     11  C   UNL     1      28.926  14.916 -13.879  1.00  0.00     0.012 C 
ATOM     12  C   UNL     1      28.712  12.653 -12.773  1.00  0.00     0.012 C 
ENDBRANCH   5  10
TORSDOF 2
ENDMDL
