MODEL 1
REMARK VINA RESULT:    -3.179      0.000      0.000
REMARK INTER + INTRA:          -7.993
REMARK INTER:                  -5.595
REMARK INTRA:                  -2.398
REMARK UNBOUND:                -2.398
REMARK SMILES CCCCCCC=CCCCCCCCC(=O)[O-]
REMARK SMILES IDX 10 1 11 2 12 3 13 4 14 5 15 6 16 7 17 8 18 9 9 10 8 11 7 12
REMARK SMILES IDX 6 13 5 14 4 15 3 16 2 17 1 18
REMARK H PARENT
REMARK Flexibility Score: inf
ROOT
ATOM      1  C   UNL     1       1.006  30.490 -13.635  1.00  0.00     0.004 C 
ENDROOT
BRANCH   1   2
ATOM      2  C   UNL     1       0.118  29.783 -14.682  1.00  0.00     0.000 C 
BRANCH   2   3
ATOM      3  C   UNL     1      -0.836  28.739 -14.077  1.00  0.00     0.000 C 
BRANCH   3   4
ATOM      4  C   UNL     1      -2.282  28.893 -14.579  1.00  0.00     0.000 C 
BRANCH   4   5
ATOM      5  C   UNL     1      -3.236  29.394 -13.482  1.00  0.00     0.006 C 
BRANCH   5   6
ATOM      6  C   UNL     1      -2.569  29.459 -12.103  1.00  0.00     0.053 C 
BRANCH   6   7
ATOM      7  C   UNL     1      -3.590  29.724 -11.042  1.00  0.00     0.041 C 
ATOM      8  O   UNL     1      -4.235  28.770 -10.530  1.00  0.00    -0.550 OA
ATOM      9  O   UNL     1      -3.868  31.029 -10.656  1.00  0.00    -0.550 OA
ENDBRANCH   6   7
ENDBRANCH   5   6
ENDBRANCH   4   5
ENDBRANCH   3   4
ENDBRANCH   2   3
ENDBRANCH   1   2
BRANCH   1  10
ATOM     10  C   UNL     1       0.303  31.704 -13.008  1.00  0.00     0.027 C 
BRANCH  10  11
ATOM     11  C   UNL     1      -0.705  32.297 -13.954  1.00  0.00    -0.031 C 
ATOM     12  C   UNL     1      -1.884  32.769 -13.523  1.00  0.00    -0.031 C 
BRANCH  12  13
ATOM     13  C   UNL     1      -2.871  33.367 -14.488  1.00  0.00     0.027 C 
BRANCH  13  14
ATOM     14  C   UNL     1      -2.578  32.920 -15.927  1.00  0.00     0.004 C 
BRANCH  14  15
ATOM     15  C   UNL     1      -3.511  31.792 -16.396  1.00  0.00     0.000 C 
BRANCH  15  16
ATOM     16  C   UNL     1      -3.093  31.204 -17.755  1.00  0.00    -0.000 C 
BRANCH  16  17
ATOM     17  C   UNL     1      -1.606  30.820 -17.797  1.00  0.00    -0.003 C 
ATOM     18  C   UNL     1      -1.073  30.680 -19.223  1.00  0.00     0.004 C 
ENDBRANCH  16  17
ENDBRANCH  15  16
ENDBRANCH  14  15
ENDBRANCH  13  14
ENDBRANCH  12  13
ENDBRANCH  10  11
ENDBRANCH   1  10
TORSDOF 13
ENDMDL
MODEL 2
REMARK VINA RESULT:    -3.178      2.856      4.365
REMARK INTER + INTRA:          -7.991
REMARK INTER:                  -5.446
REMARK INTRA:                  -2.546
REMARK UNBOUND:                -2.398
REMARK SMILES CCCCCCC=CCCCCCCCC(=O)[O-]
REMARK SMILES IDX 10 1 11 2 12 3 13 4 14 5 15 6 16 7 17 8 18 9 9 10 8 11 7 12
REMARK SMILES IDX 6 13 5 14 4 15 3 16 2 17 1 18
REMARK H PARENT
REMARK Flexibility Score: inf
ROOT
ATOM      1  C   UNL     1      -2.120  32.899 -13.510  1.00  0.00     0.004 C 
ENDROOT
BRANCH   1   2
ATOM      2  C   UNL     1      -2.833  31.911 -12.562  1.00  0.00     0.000 C 
BRANCH   2   3
ATOM      3  C   UNL     1      -2.352  30.458 -12.710  1.00  0.00     0.000 C 
BRANCH   3   4
ATOM      4  C   UNL     1      -0.976  30.352 -13.389  1.00  0.00     0.000 C 
BRANCH   4   5
ATOM      5  C   UNL     1      -0.984  29.398 -14.594  1.00  0.00     0.006 C 
BRANCH   5   6
ATOM      6  C   UNL     1       0.237  29.584 -15.504  1.00  0.00     0.053 C 
BRANCH   6   7
ATOM      7  C   UNL     1       1.434  28.906 -14.914  1.00  0.00     0.041 C 
ATOM      8  O   UNL     1       1.432  27.659 -14.736  1.00  0.00    -0.550 OA
ATOM      9  O   UNL     1       2.530  29.658 -14.514  1.00  0.00    -0.550 OA
ENDBRANCH   6   7
ENDBRANCH   5   6
ENDBRANCH   4   5
ENDBRANCH   3   4
ENDBRANCH   2   3
ENDBRANCH   1   2
BRANCH   1  10
ATOM     10  C   UNL     1      -3.028  33.346 -14.667  1.00  0.00     0.027 C 
BRANCH  10  11
ATOM     11  C   UNL     1      -2.858  32.455 -15.867  1.00  0.00    -0.031 C 
ATOM     12  C   UNL     1      -1.795  32.561 -16.678  1.00  0.00    -0.031 C 
BRANCH  12  13
ATOM     13  C   UNL     1      -1.643  31.651 -17.866  1.00  0.00     0.027 C 
BRANCH  13  14
ATOM     14  C   UNL     1      -2.945  30.889 -18.150  1.00  0.00     0.004 C 
BRANCH  14  15
ATOM     15  C   UNL     1      -2.706  29.398 -18.435  1.00  0.00     0.000 C 
BRANCH  15  16
ATOM     16  C   UNL     1      -3.361  28.482 -17.387  1.00  0.00    -0.000 C 
BRANCH  16  17
ATOM     17  C   UNL     1      -4.651  29.080 -16.807  1.00  0.00    -0.003 C 
ATOM     18  C   UNL     1      -4.629  29.164 -15.281  1.00  0.00     0.004 C 
ENDBRANCH  16  17
ENDBRANCH  15  16
ENDBRANCH  14  15
ENDBRANCH  13  14
ENDBRANCH  12  13
ENDBRANCH  10  11
ENDBRANCH   1  10
TORSDOF 13
ENDMDL
MODEL 3
REMARK VINA RESULT:    -3.149      7.563      9.698
REMARK INTER + INTRA:          -7.941
REMARK INTER:                  -5.895
REMARK INTRA:                  -2.045
REMARK UNBOUND:                -2.398
REMARK SMILES CCCCCCC=CCCCCCCCC(=O)[O-]
REMARK SMILES IDX 10 1 11 2 12 3 13 4 14 5 15 6 16 7 17 8 18 9 9 10 8 11 7 12
REMARK SMILES IDX 6 13 5 14 4 15 3 16 2 17 1 18
REMARK H PARENT
REMARK Flexibility Score: inf
ROOT
ATOM      1  C   UNL     1       2.428  22.365  -9.416  1.00  0.00     0.004 C 
ENDROOT
BRANCH   1   2
ATOM      2  C   UNL     1       3.541  23.382  -9.745  1.00  0.00     0.000 C 
BRANCH   2   3
ATOM      3  C   UNL     1       3.617  24.555  -8.753  1.00  0.00     0.000 C 
BRANCH   3   4
ATOM      4  C   UNL     1       4.743  24.388  -7.718  1.00  0.00     0.000 C 
BRANCH   4   5
ATOM      5  C   UNL     1       4.520  25.243  -6.461  1.00  0.00     0.006 C 
BRANCH   5   6
ATOM      6  C   UNL     1       3.182  25.993  -6.485  1.00  0.00     0.053 C 
BRANCH   6   7
ATOM      7  C   UNL     1       2.979  26.737  -5.204  1.00  0.00     0.041 C 
ATOM      8  O   UNL     1       3.493  27.876  -5.043  1.00  0.00    -0.550 OA
ATOM      9  O   UNL     1       2.265  26.152  -4.166  1.00  0.00    -0.550 OA
ENDBRANCH   6   7
ENDBRANCH   5   6
ENDBRANCH   4   5
ENDBRANCH   3   4
ENDBRANCH   2   3
ENDBRANCH   1   2
BRANCH   1  10
ATOM     10  C   UNL     1       1.715  21.860 -10.681  1.00  0.00     0.027 C 
BRANCH  10  11
ATOM     11  C   UNL     1       0.518  22.711 -11.006  1.00  0.00    -0.031 C 
ATOM     12  C   UNL     1      -0.166  23.358 -10.051  1.00  0.00    -0.031 C 
BRANCH  12  13
ATOM     13  C   UNL     1      -1.354  24.211 -10.403  1.00  0.00     0.027 C 
BRANCH  13  14
ATOM     14  C   UNL     1      -1.196  25.635  -9.851  1.00  0.00     0.004 C 
BRANCH  14  15
ATOM     15  C   UNL     1       0.070  25.799  -8.996  1.00  0.00     0.000 C 
BRANCH  15  16
ATOM     16  C   UNL     1       1.039  26.848  -9.568  1.00  0.00    -0.000 C 
BRANCH  16  17
ATOM     17  C   UNL     1       0.988  26.921 -11.102  1.00  0.00    -0.003 C 
ATOM     18  C   UNL     1       2.165  26.208 -11.766  1.00  0.00     0.004 C 
ENDBRANCH  16  17
ENDBRANCH  15  16
ENDBRANCH  14  15
ENDBRANCH  13  14
ENDBRANCH  12  13
ENDBRANCH  10  11
ENDBRANCH   1  10
TORSDOF 13
ENDMDL
MODEL 4
REMARK VINA RESULT:    -3.138      2.552      5.901
REMARK INTER + INTRA:          -7.922
REMARK INTER:                  -5.836
REMARK INTRA:                  -2.086
REMARK UNBOUND:                -2.398
REMARK SMILES CCCCCCC=CCCCCCCCC(=O)[O-]
REMARK SMILES IDX 10 1 11 2 12 3 13 4 14 5 15 6 16 7 17 8 18 9 9 10 8 11 7 12
REMARK SMILES IDX 6 13 5 14 4 15 3 16 2 17 1 18
REMARK H PARENT
REMARK Flexibility Score: inf
ROOT
ATOM      1  C   UNL     1      -3.512  31.631 -16.584  1.00  0.00     0.004 C 
ENDROOT
BRANCH   1   2
ATOM      2  C   UNL     1      -2.412  32.537 -15.990  1.00  0.00     0.000 C 
BRANCH   2   3
ATOM      3  C   UNL     1      -2.888  33.384 -14.798  1.00  0.00     0.000 C 
BRANCH   3   4
ATOM      4  C   UNL     1      -2.704  32.670 -13.448  1.00  0.00     0.000 C 
BRANCH   4   5
ATOM      5  C   UNL     1      -1.226  32.532 -13.051  1.00  0.00     0.006 C 
BRANCH   5   6
ATOM      6  C   UNL     1      -0.745  31.076 -13.058  1.00  0.00     0.053 C 
BRANCH   6   7
ATOM      7  C   UNL     1       0.446  30.925 -13.951  1.00  0.00     0.041 C 
ATOM      8  O   UNL     1       1.546  31.451 -13.635  1.00  0.00    -0.550 OA
ATOM      9  O   UNL     1       0.328  30.248 -15.158  1.00  0.00    -0.550 OA
ENDBRANCH   6   7
ENDBRANCH   5   6
ENDBRANCH   4   5
ENDBRANCH   3   4
ENDBRANCH   2   3
ENDBRANCH   1   2
BRANCH   1  10
ATOM     10  C   UNL     1      -3.033  30.182 -16.761  1.00  0.00     0.027 C 
BRANCH  10  11
ATOM     11  C   UNL     1      -3.068  29.435 -15.455  1.00  0.00    -0.031 C 
ATOM     12  C   UNL     1      -4.137  29.478 -14.647  1.00  0.00    -0.031 C 
BRANCH  12  13
ATOM     13  C   UNL     1      -4.151  28.714 -13.352  1.00  0.00     0.027 C 
BRANCH  13  14
ATOM     14  C   UNL     1      -4.187  29.666 -12.148  1.00  0.00     0.004 C 
BRANCH  14  15
ATOM     15  C   UNL     1      -3.844  28.960 -10.827  1.00  0.00     0.000 C 
BRANCH  15  16
ATOM     16  C   UNL     1      -4.001  29.881  -9.604  1.00  0.00    -0.000 C 
BRANCH  16  17
ATOM     17  C   UNL     1      -4.004  31.369  -9.986  1.00  0.00    -0.003 C 
ATOM     18  C   UNL     1      -5.230  32.112  -9.454  1.00  0.00     0.004 C 
ENDBRANCH  16  17
ENDBRANCH  15  16
ENDBRANCH  14  15
ENDBRANCH  13  14
ENDBRANCH  12  13
ENDBRANCH  10  11
ENDBRANCH   1  10
TORSDOF 13
ENDMDL
MODEL 5
REMARK VINA RESULT:    -3.122      2.596      4.033
REMARK INTER + INTRA:          -7.892
REMARK INTER:                  -5.372
REMARK INTRA:                  -2.520
REMARK UNBOUND:                -2.398
REMARK SMILES CCCCCCC=CCCCCCCCC(=O)[O-]
REMARK SMILES IDX 10 1 11 2 12 3 13 4 14 5 15 6 16 7 17 8 18 9 9 10 8 11 7 12
REMARK SMILES IDX 6 13 5 14 4 15 3 16 2 17 1 18
REMARK H PARENT
REMARK Flexibility Score: inf
ROOT
ATOM      1  C   UNL     1      -1.692  32.938 -13.453  1.00  0.00     0.004 C 
ENDROOT
BRANCH   1   2
ATOM      2  C   UNL     1      -1.746  31.591 -12.702  1.00  0.00     0.000 C 
BRANCH   2   3
ATOM      3  C   UNL     1      -3.149  30.960 -12.669  1.00  0.00     0.000 C 
BRANCH   3   4
ATOM      4  C   UNL     1      -3.166  29.517 -13.199  1.00  0.00     0.000 C 
BRANCH   4   5
ATOM      5  C   UNL     1      -4.006  29.368 -14.478  1.00  0.00     0.006 C 
BRANCH   5   6
ATOM      6  C   UNL     1      -3.876  27.978 -15.113  1.00  0.00     0.053 C 
BRANCH   6   7
ATOM      7  C   UNL     1      -4.062  28.063 -16.595  1.00  0.00     0.041 C 
ATOM      8  O   UNL     1      -3.313  27.407 -17.366  1.00  0.00    -0.550 OA
ATOM      9  O   UNL     1      -5.029  28.906 -17.127  1.00  0.00    -0.550 OA
ENDBRANCH   6   7
ENDBRANCH   5   6
ENDBRANCH   4   5
ENDBRANCH   3   4
ENDBRANCH   2   3
ENDBRANCH   1   2
BRANCH   1  10
ATOM     10  C   UNL     1      -2.878  33.112 -14.416  1.00  0.00     0.027 C 
BRANCH  10  11
ATOM     11  C   UNL     1      -2.504  32.709 -15.816  1.00  0.00    -0.031 C 
ATOM     12  C   UNL     1      -3.372  32.083 -16.624  1.00  0.00    -0.031 C 
BRANCH  12  13
ATOM     13  C   UNL     1      -2.977  31.699 -18.024  1.00  0.00     0.027 C 
BRANCH  13  14
ATOM     14  C   UNL     1      -1.471  31.416 -18.117  1.00  0.00     0.004 C 
BRANCH  14  15
ATOM     15  C   UNL     1      -1.167  29.946 -18.446  1.00  0.00     0.000 C 
BRANCH  15  16
ATOM     16  C   UNL     1      -0.209  29.298 -17.431  1.00  0.00    -0.000 C 
BRANCH  16  17
ATOM     17  C   UNL     1      -0.662  29.507 -15.979  1.00  0.00    -0.003 C 
ATOM     18  C   UNL     1       0.462  30.019 -15.078  1.00  0.00     0.004 C 
ENDBRANCH  16  17
ENDBRANCH  15  16
ENDBRANCH  14  15
ENDBRANCH  13  14
ENDBRANCH  12  13
ENDBRANCH  10  11
ENDBRANCH   1  10
TORSDOF 13
ENDMDL
MODEL 6
REMARK VINA RESULT:    -3.120      2.248      3.753
REMARK INTER + INTRA:          -7.889
REMARK INTER:                  -5.823
REMARK INTRA:                  -2.066
REMARK UNBOUND:                -2.398
REMARK SMILES CCCCCCC=CCCCCCCCC(=O)[O-]
REMARK SMILES IDX 10 1 11 2 12 3 13 4 14 5 15 6 16 7 17 8 18 9 9 10 8 11 7 12
REMARK SMILES IDX 6 13 5 14 4 15 3 16 2 17 1 18
REMARK H PARENT
REMARK Flexibility Score: inf
ROOT
ATOM      1  C   UNL     1      -2.511  32.430 -13.387  1.00  0.00     0.004 C 
ENDROOT
BRANCH   1   2
ATOM      2  C   UNL     1      -0.985  32.270 -13.220  1.00  0.00     0.000 C 
BRANCH   2   3
ATOM      3  C   UNL     1      -0.502  30.814 -13.336  1.00  0.00     0.000 C 
BRANCH   3   4
ATOM      4  C   UNL     1      -0.367  30.346 -14.795  1.00  0.00     0.000 C 
BRANCH   4   5
ATOM      5  C   UNL     1      -0.904  28.923 -15.009  1.00  0.00     0.006 C 
BRANCH   5   6
ATOM      6  C   UNL     1      -2.421  28.891 -15.237  1.00  0.00     0.053 C 
BRANCH   6   7
ATOM      7  C   UNL     1      -2.865  27.507 -15.592  1.00  0.00     0.041 C 
ATOM      8  O   UNL     1      -2.418  26.943 -16.625  1.00  0.00    -0.550 OA
ATOM      9  O   UNL     1      -3.814  26.861 -14.810  1.00  0.00    -0.550 OA
ENDBRANCH   6   7
ENDBRANCH   5   6
ENDBRANCH   4   5
ENDBRANCH   3   4
ENDBRANCH   2   3
ENDBRANCH   1   2
BRANCH   1  10
ATOM     10  C   UNL     1      -2.869  33.421 -14.506  1.00  0.00     0.027 C 
BRANCH  10  11
ATOM     11  C   UNL     1      -2.598  32.829 -15.863  1.00  0.00    -0.031 C 
ATOM     12  C   UNL     1      -3.493  32.044 -16.480  1.00  0.00    -0.031 C 
BRANCH  12  13
ATOM     13  C   UNL     1      -3.203  31.473 -17.841  1.00  0.00     0.027 C 
BRANCH  13  14
ATOM     14  C   UNL     1      -1.712  31.598 -18.188  1.00  0.00     0.004 C 
BRANCH  14  15
ATOM     15  C   UNL     1      -1.087  30.254 -18.594  1.00  0.00     0.000 C 
BRANCH  15  16
ATOM     16  C   UNL     1      -2.094  29.316 -19.282  1.00  0.00    -0.000 C 
BRANCH  16  17
ATOM     17  C   UNL     1      -1.670  28.944 -20.711  1.00  0.00    -0.003 C 
ATOM     18  C   UNL     1      -0.812  30.022 -21.371  1.00  0.00     0.004 C 
ENDBRANCH  16  17
ENDBRANCH  15  16
ENDBRANCH  14  15
ENDBRANCH  13  14
ENDBRANCH  12  13
ENDBRANCH  10  11
ENDBRANCH   1  10
TORSDOF 13
ENDMDL
MODEL 7
REMARK VINA RESULT:    -3.093      2.455      4.016
REMARK INTER + INTRA:          -7.842
REMARK INTER:                  -5.980
REMARK INTRA:                  -1.862
REMARK UNBOUND:                -2.398
REMARK SMILES CCCCCCC=CCCCCCCCC(=O)[O-]
REMARK SMILES IDX 10 1 11 2 12 3 13 4 14 5 15 6 16 7 17 8 18 9 9 10 8 11 7 12
REMARK SMILES IDX 6 13 5 14 4 15 3 16 2 17 1 18
REMARK H PARENT
REMARK Flexibility Score: inf
ROOT
ATOM      1  C   UNL     1      -1.840  32.889 -13.576  1.00  0.00     0.004 C 
ENDROOT
BRANCH   1   2
ATOM      2  C   UNL     1      -2.356  31.853 -12.555  1.00  0.00     0.000 C 
BRANCH   2   3
ATOM      3  C   UNL     1      -2.961  30.596 -13.204  1.00  0.00     0.000 C 
BRANCH   3   4
ATOM      4  C   UNL     1      -1.965  29.426 -13.280  1.00  0.00     0.000 C 
BRANCH   4   5
ATOM      5  C   UNL     1      -1.538  29.109 -14.722  1.00  0.00     0.006 C 
BRANCH   5   6
ATOM      6  C   UNL     1      -0.318  29.924 -15.170  1.00  0.00     0.053 C 
BRANCH   6   7
ATOM      7  C   UNL     1       0.767  29.845 -14.143  1.00  0.00     0.041 C 
ATOM      8  O   UNL     1       1.158  30.887 -13.552  1.00  0.00    -0.550 OA
ATOM      9  O   UNL     1       1.383  28.629 -13.875  1.00  0.00    -0.550 OA
ENDBRANCH   6   7
ENDBRANCH   5   6
ENDBRANCH   4   5
ENDBRANCH   3   4
ENDBRANCH   2   3
ENDBRANCH   1   2
BRANCH   1  10
ATOM     10  C   UNL     1      -2.903  33.240 -14.630  1.00  0.00     0.027 C 
BRANCH  10  11
ATOM     11  C   UNL     1      -2.519  32.714 -15.986  1.00  0.00    -0.031 C 
ATOM     12  C   UNL     1      -3.289  31.836 -16.645  1.00  0.00    -0.031 C 
BRANCH  12  13
ATOM     13  C   UNL     1      -2.888  31.333 -18.005  1.00  0.00     0.027 C 
BRANCH  13  14
ATOM     14  C   UNL     1      -3.088  29.814 -18.114  1.00  0.00     0.004 C 
BRANCH  14  15
ATOM     15  C   UNL     1      -1.866  29.100 -18.711  1.00  0.00     0.000 C 
BRANCH  15  16
ATOM     16  C   UNL     1      -1.930  28.997 -20.245  1.00  0.00    -0.000 C 
BRANCH  16  17
ATOM     17  C   UNL     1      -0.952  29.957 -20.940  1.00  0.00    -0.003 C 
ATOM     18  C   UNL     1      -0.324  29.352 -22.195  1.00  0.00     0.004 C 
ENDBRANCH  16  17
ENDBRANCH  15  16
ENDBRANCH  14  15
ENDBRANCH  13  14
ENDBRANCH  12  13
ENDBRANCH  10  11
ENDBRANCH   1  10
TORSDOF 13
ENDMDL
MODEL 8
REMARK VINA RESULT:    -3.044      7.190      9.577
REMARK INTER + INTRA:          -7.755
REMARK INTER:                  -5.397
REMARK INTRA:                  -2.358
REMARK UNBOUND:                -2.398
REMARK SMILES CCCCCCC=CCCCCCCCC(=O)[O-]
REMARK SMILES IDX 10 1 11 2 12 3 13 4 14 5 15 6 16 7 17 8 18 9 9 10 8 11 7 12
REMARK SMILES IDX 6 13 5 14 4 15 3 16 2 17 1 18
REMARK H PARENT
REMARK Flexibility Score: inf
ROOT
ATOM      1  C   UNL     1       0.583  23.441  -9.525  1.00  0.00     0.004 C 
ENDROOT
BRANCH   1   2
ATOM      2  C   UNL     1       0.718  24.939  -9.178  1.00  0.00     0.000 C 
BRANCH   2   3
ATOM      3  C   UNL     1       0.052  25.872 -10.205  1.00  0.00     0.000 C 
BRANCH   3   4
ATOM      4  C   UNL     1       0.231  25.387 -11.654  1.00  0.00     0.000 C 
BRANCH   4   5
ATOM      5  C   UNL     1       1.490  25.966 -12.318  1.00  0.00     0.006 C 
BRANCH   5   6
ATOM      6  C   UNL     1       2.601  24.922 -12.489  1.00  0.00     0.053 C 
BRANCH   6   7
ATOM      7  C   UNL     1       3.735  25.493 -13.280  1.00  0.00     0.041 C 
ATOM      8  O   UNL     1       3.514  26.348 -14.179  1.00  0.00    -0.550 OA
ATOM      9  O   UNL     1       5.031  25.044 -13.061  1.00  0.00    -0.550 OA
ENDBRANCH   6   7
ENDBRANCH   5   6
ENDBRANCH   4   5
ENDBRANCH   3   4
ENDBRANCH   2   3
ENDBRANCH   1   2
BRANCH   1  10
ATOM     10  C   UNL     1       1.937  22.715  -9.485  1.00  0.00     0.027 C 
BRANCH  10  11
ATOM     11  C   UNL     1       2.075  21.759 -10.638  1.00  0.00    -0.031 C 
ATOM     12  C   UNL     1       1.023  21.405 -11.390  1.00  0.00    -0.031 C 
BRANCH  12  13
ATOM     13  C   UNL     1       1.189  20.455 -12.544  1.00  0.00     0.027 C 
BRANCH  13  14
ATOM     14  C   UNL     1       0.450  20.963 -13.790  1.00  0.00     0.004 C 
BRANCH  14  15
ATOM     15  C   UNL     1       0.247  22.486 -13.775  1.00  0.00     0.000 C 
BRANCH  15  16
ATOM     16  C   UNL     1      -1.192  22.895 -14.135  1.00  0.00    -0.000 C 
BRANCH  16  17
ATOM     17  C   UNL     1      -2.241  22.173 -13.276  1.00  0.00    -0.003 C 
ATOM     18  C   UNL     1      -2.333  22.737 -11.859  1.00  0.00     0.004 C 
ENDBRANCH  16  17
ENDBRANCH  15  16
ENDBRANCH  14  15
ENDBRANCH  13  14
ENDBRANCH  12  13
ENDBRANCH  10  11
ENDBRANCH   1  10
TORSDOF 13
ENDMDL
MODEL 9
REMARK VINA RESULT:    -3.002      1.358      4.281
REMARK INTER + INTRA:          -7.682
REMARK INTER:                  -5.667
REMARK INTRA:                  -2.015
REMARK UNBOUND:                -2.398
REMARK SMILES CCCCCCC=CCCCCCCCC(=O)[O-]
REMARK SMILES IDX 10 1 11 2 12 3 13 4 14 5 15 6 16 7 17 8 18 9 9 10 8 11 7 12
REMARK SMILES IDX 6 13 5 14 4 15 3 16 2 17 1 18
REMARK H PARENT
REMARK Flexibility Score: inf
ROOT
ATOM      1  C   UNL     1      -2.445  32.148 -16.187  1.00  0.00     0.004 C 
ENDROOT
BRANCH   1   2
ATOM      2  C   UNL     1      -2.929  33.395 -15.416  1.00  0.00     0.000 C 
BRANCH   2   3
ATOM      3  C   UNL     1      -2.719  33.300 -13.895  1.00  0.00     0.000 C 
BRANCH   3   4
ATOM      4  C   UNL     1      -1.407  32.591 -13.519  1.00  0.00     0.000 C 
BRANCH   4   5
ATOM      5  C   UNL     1      -1.622  31.449 -12.513  1.00  0.00     0.006 C 
BRANCH   5   6
ATOM      6  C   UNL     1      -3.021  30.827 -12.614  1.00  0.00     0.053 C 
BRANCH   6   7
ATOM      7  C   UNL     1      -3.739  30.944 -11.307  1.00  0.00     0.041 C 
ATOM      8  O   UNL     1      -3.721  29.989 -10.486  1.00  0.00    -0.550 OA
ATOM      9  O   UNL     1      -4.471  32.088 -11.017  1.00  0.00    -0.550 OA
ENDBRANCH   6   7
ENDBRANCH   5   6
ENDBRANCH   4   5
ENDBRANCH   3   4
ENDBRANCH   2   3
ENDBRANCH   1   2
BRANCH   1  10
ATOM     10  C   UNL     1      -3.609  31.386 -16.842  1.00  0.00     0.027 C 
BRANCH  10  11
ATOM     11  C   UNL     1      -3.114  30.467 -17.925  1.00  0.00    -0.031 C 
ATOM     12  C   UNL     1      -1.931  30.660 -18.527  1.00  0.00    -0.031 C 
BRANCH  12  13
ATOM     13  C   UNL     1      -1.455  29.721 -19.602  1.00  0.00     0.027 C 
BRANCH  13  14
ATOM     14  C   UNL     1      -0.057  29.174 -19.279  1.00  0.00     0.004 C 
BRANCH  14  15
ATOM     15  C   UNL     1       0.041  28.612 -17.852  1.00  0.00     0.000 C 
BRANCH  15  16
ATOM     16  C   UNL     1       0.927  29.474 -16.936  1.00  0.00    -0.000 C 
BRANCH  16  17
ATOM     17  C   UNL     1       0.326  29.652 -15.533  1.00  0.00    -0.003 C 
ATOM     18  C   UNL     1      -0.969  28.864 -15.342  1.00  0.00     0.004 C 
ENDBRANCH  16  17
ENDBRANCH  15  16
ENDBRANCH  14  15
ENDBRANCH  13  14
ENDBRANCH  12  13
ENDBRANCH  10  11
ENDBRANCH   1  10
TORSDOF 13
ENDMDL
