MODEL 1
REMARK VINA RESULT:    -4.915      0.000      0.000
REMARK INTER + INTRA:          -7.142
REMARK INTER:                  -6.640
REMARK INTRA:                  -0.503
REMARK UNBOUND:                -0.503
REMARK SMILES [NH3+]CCCC[C@H]([NH3+])C(=O)[O-]
REMARK SMILES IDX 4 1 3 2 2 3 1 4 5 8 6 9 7 10 8 14 9 15 10 16
REMARK H PARENT 1 5 1 6 1 7 7 11 7 12 7 13
REMARK Flexibility Score: inf
ROOT
ATOM      1  C   UNL     1      20.937 -70.095   0.278  1.00  0.00     0.012 C 
ENDROOT
BRANCH   1   2
ATOM      2  C   UNL     1      21.226 -69.034   1.360  1.00  0.00     0.061 C 
BRANCH   2   3
ATOM      3  C   UNL     1      22.690 -68.563   1.386  1.00  0.00     0.258 C 
BRANCH   3   4
ATOM      4  N   UNL     1      23.156 -68.123   0.070  1.00  0.00    -0.358 N 
ATOM      5  H   UNL     1      23.836 -68.814  -0.321  1.00  0.00     0.344 HD
ATOM      6  H   UNL     1      22.348 -68.001  -0.582  1.00  0.00     0.344 HD
ATOM      7  H   UNL     1      23.646 -67.204   0.173  1.00  0.00     0.344 HD
ENDBRANCH   3   4
ENDBRANCH   2   3
ENDBRANCH   1   2
BRANCH   1   8
ATOM      8  C   UNL     1      19.932 -69.595  -0.776  1.00  0.00     0.072 C 
BRANCH   8   9
ATOM      9  C   UNL     1      19.331 -68.223  -0.404  1.00  0.00     0.227 C 
BRANCH   9  10
ATOM     10  N   UNL     1      17.865 -68.273  -0.464  1.00  0.00    -0.350 N 
ATOM     11  H   UNL     1      17.475 -67.303  -0.424  1.00  0.00     0.345 HD
ATOM     12  H   UNL     1      17.561 -68.709  -1.364  1.00  0.00     0.345 HD
ATOM     13  H   UNL     1      17.481 -68.829   0.336  1.00  0.00     0.345 HD
ENDBRANCH   9  10
BRANCH   9  14
ATOM     14  C   UNL     1      19.846 -67.140  -1.316  1.00  0.00     0.099 C 
ATOM     15  O   UNL     1      20.962 -67.269  -1.883  1.00  0.00    -0.544 OA
ATOM     16  O   UNL     1      19.091 -65.995  -1.542  1.00  0.00    -0.544 OA
ENDBRANCH   9  14
ENDBRANCH   8   9
ENDBRANCH   1   8
TORSDOF 7
ENDMDL
MODEL 2
REMARK VINA RESULT:    -4.809      2.389      4.253
REMARK INTER + INTRA:          -6.998
REMARK INTER:                  -6.484
REMARK INTRA:                  -0.514
REMARK UNBOUND:                -0.503
REMARK SMILES [NH3+]CCCC[C@H]([NH3+])C(=O)[O-]
REMARK SMILES IDX 4 1 3 2 2 3 1 4 5 8 6 9 7 10 8 14 9 15 10 16
REMARK H PARENT 1 5 1 6 1 7 7 11 7 12 7 13
REMARK Flexibility Score: inf
ROOT
ATOM      1  C   UNL     1      20.477 -67.643  -1.247  1.00  0.00     0.012 C 
ENDROOT
BRANCH   1   2
ATOM      2  C   UNL     1      19.501 -67.345  -0.090  1.00  0.00     0.061 C 
BRANCH   2   3
ATOM      3  C   UNL     1      18.103 -67.953  -0.291  1.00  0.00     0.258 C 
BRANCH   3   4
ATOM      4  N   UNL     1      18.152 -69.251  -0.965  1.00  0.00    -0.358 N 
ATOM      5  H   UNL     1      19.144 -69.557  -1.087  1.00  0.00     0.344 HD
ATOM      6  H   UNL     1      17.617 -69.966  -0.422  1.00  0.00     0.344 HD
ATOM      7  H   UNL     1      17.720 -69.158  -1.913  1.00  0.00     0.344 HD
ENDBRANCH   3   4
ENDBRANCH   2   3
ENDBRANCH   1   2
BRANCH   1   8
ATOM      8  C   UNL     1      21.740 -68.383  -0.769  1.00  0.00     0.072 C 
BRANCH   8   9
ATOM      9  C   UNL     1      21.602 -68.897   0.680  1.00  0.00     0.227 C 
BRANCH   9  10
ATOM     10  N   UNL     1      22.820 -68.603   1.446  1.00  0.00    -0.350 N 
ATOM     11  H   UNL     1      22.565 -68.192   2.373  1.00  0.00     0.345 HD
ATOM     12  H   UNL     1      23.354 -69.486   1.616  1.00  0.00     0.345 HD
ATOM     13  H   UNL     1      23.428 -67.927   0.928  1.00  0.00     0.345 HD
ENDBRANCH   9  10
BRANCH   9  14
ATOM     14  C   UNL     1      21.324 -70.377   0.707  1.00  0.00     0.099 C 
ATOM     15  O   UNL     1      21.762 -71.087   1.650  1.00  0.00    -0.544 OA
ATOM     16  O   UNL     1      20.577 -70.969  -0.305  1.00  0.00    -0.544 OA
ENDBRANCH   9  14
ENDBRANCH   8   9
ENDBRANCH   1   8
TORSDOF 7
ENDMDL
MODEL 3
REMARK VINA RESULT:    -4.730      2.031      2.354
REMARK INTER + INTRA:          -6.891
REMARK INTER:                  -6.718
REMARK INTRA:                  -0.173
REMARK UNBOUND:                -0.503
REMARK SMILES [NH3+]CCCC[C@H]([NH3+])C(=O)[O-]
REMARK SMILES IDX 4 1 3 2 2 3 1 4 5 8 6 9 7 10 8 14 9 15 10 16
REMARK H PARENT 1 5 1 6 1 7 7 11 7 12 7 13
REMARK Flexibility Score: inf
ROOT
ATOM      1  C   UNL     1      21.796 -69.310   0.027  1.00  0.00     0.012 C 
ENDROOT
BRANCH   1   2
ATOM      2  C   UNL     1      21.628 -70.128   1.325  1.00  0.00     0.061 C 
BRANCH   2   3
ATOM      3  C   UNL     1      21.400 -71.630   1.082  1.00  0.00     0.258 C 
BRANCH   3   4
ATOM      4  N   UNL     1      21.648 -72.431   2.281  1.00  0.00    -0.358 N 
ATOM      5  H   UNL     1      21.902 -71.811   3.083  1.00  0.00     0.344 HD
ATOM      6  H   UNL     1      20.805 -73.003   2.518  1.00  0.00     0.344 HD
ATOM      7  H   UNL     1      22.451 -73.076   2.099  1.00  0.00     0.344 HD
ENDBRANCH   3   4
ENDBRANCH   2   3
ENDBRANCH   1   2
BRANCH   1   8
ATOM      8  C   UNL     1      20.634 -69.537  -0.958  1.00  0.00     0.072 C 
BRANCH   8   9
ATOM      9  C   UNL     1      19.297 -68.981  -0.422  1.00  0.00     0.227 C 
BRANCH   9  10
ATOM     10  N   UNL     1      18.167 -69.594  -1.131  1.00  0.00    -0.350 N 
ATOM     11  H   UNL     1      17.293 -69.053  -0.939  1.00  0.00     0.345 HD
ATOM     12  H   UNL     1      18.342 -69.574  -2.162  1.00  0.00     0.345 HD
ATOM     13  H   UNL     1      18.031 -70.585  -0.824  1.00  0.00     0.345 HD
ENDBRANCH   9  10
BRANCH   9  14
ATOM     14  C   UNL     1      19.239 -67.483  -0.560  1.00  0.00     0.099 C 
ATOM     15  O   UNL     1      18.773 -66.779   0.375  1.00  0.00    -0.544 OA
ATOM     16  O   UNL     1      19.703 -66.865  -1.715  1.00  0.00    -0.544 OA
ENDBRANCH   9  14
ENDBRANCH   8   9
ENDBRANCH   1   8
TORSDOF 7
ENDMDL
MODEL 4
REMARK VINA RESULT:    -4.631      2.643      4.422
REMARK INTER + INTRA:          -6.757
REMARK INTER:                  -6.670
REMARK INTRA:                  -0.087
REMARK UNBOUND:                -0.503
REMARK SMILES [NH3+]CCCC[C@H]([NH3+])C(=O)[O-]
REMARK SMILES IDX 4 1 3 2 2 3 1 4 5 8 6 9 7 10 8 14 9 15 10 16
REMARK H PARENT 1 5 1 6 1 7 7 11 7 12 7 13
REMARK Flexibility Score: inf
ROOT
ATOM      1  C   UNL     1      19.354 -67.742   0.312  1.00  0.00     0.012 C 
ENDROOT
BRANCH   1   2
ATOM      2  C   UNL     1      18.705 -67.098  -0.932  1.00  0.00     0.061 C 
BRANCH   2   3
ATOM      3  C   UNL     1      19.717 -66.430  -1.878  1.00  0.00     0.258 C 
BRANCH   3   4
ATOM      4  N   UNL     1      19.340 -65.057  -2.216  1.00  0.00    -0.358 N 
ATOM      5  H   UNL     1      18.881 -64.596  -1.397  1.00  0.00     0.344 HD
ATOM      6  H   UNL     1      20.180 -64.510  -2.515  1.00  0.00     0.344 HD
ATOM      7  H   UNL     1      18.655 -65.077  -3.006  1.00  0.00     0.344 HD
ENDBRANCH   3   4
ENDBRANCH   2   3
ENDBRANCH   1   2
BRANCH   1   8
ATOM      8  C   UNL     1      20.831 -68.105   0.076  1.00  0.00     0.072 C 
BRANCH   8   9
ATOM      9  C   UNL     1      21.390 -69.027   1.180  1.00  0.00     0.227 C 
BRANCH   9  10
ATOM     10  N   UNL     1      22.803 -68.722   1.435  1.00  0.00    -0.350 N 
ATOM     11  H   UNL     1      23.364 -68.889   0.569  1.00  0.00     0.345 HD
ATOM     12  H   UNL     1      22.907 -67.715   1.702  1.00  0.00     0.345 HD
ATOM     13  H   UNL     1      23.178 -69.322   2.206  1.00  0.00     0.345 HD
ENDBRANCH   9  10
BRANCH   9  14
ATOM     14  C   UNL     1      21.237 -70.477   0.806  1.00  0.00     0.099 C 
ATOM     15  O   UNL     1      20.729 -70.795  -0.302  1.00  0.00    -0.544 OA
ATOM     16  O   UNL     1      21.660 -71.476   1.675  1.00  0.00    -0.544 OA
ENDBRANCH   9  14
ENDBRANCH   8   9
ENDBRANCH   1   8
TORSDOF 7
ENDMDL
MODEL 5
REMARK VINA RESULT:    -4.604      2.557      4.011
REMARK INTER + INTRA:          -6.721
REMARK INTER:                  -6.267
REMARK INTRA:                  -0.454
REMARK UNBOUND:                -0.503
REMARK SMILES [NH3+]CCCC[C@H]([NH3+])C(=O)[O-]
REMARK SMILES IDX 4 1 3 2 2 3 1 4 5 8 6 9 7 10 8 14 9 15 10 16
REMARK H PARENT 1 5 1 6 1 7 7 11 7 12 7 13
REMARK Flexibility Score: inf
ROOT
ATOM      1  C   UNL     1      20.495 -69.051  -1.131  1.00  0.00     0.012 C 
ENDROOT
BRANCH   1   2
ATOM      2  C   UNL     1      19.071 -68.607  -1.526  1.00  0.00     0.061 C 
BRANCH   2   3
ATOM      3  C   UNL     1      18.253 -68.044  -0.351  1.00  0.00     0.258 C 
BRANCH   3   4
ATOM      4  N   UNL     1      18.969 -66.992   0.371  1.00  0.00    -0.358 N 
ATOM      5  H   UNL     1      19.502 -67.402   1.171  1.00  0.00     0.344 HD
ATOM      6  H   UNL     1      19.616 -66.482  -0.272  1.00  0.00     0.344 HD
ATOM      7  H   UNL     1      18.274 -66.311   0.756  1.00  0.00     0.344 HD
ENDBRANCH   3   4
ENDBRANCH   2   3
ENDBRANCH   1   2
BRANCH   1   8
ATOM      8  C   UNL     1      20.485 -70.285  -0.208  1.00  0.00     0.072 C 
BRANCH   8   9
ATOM      9  C   UNL     1      21.685 -70.298   0.762  1.00  0.00     0.227 C 
BRANCH   9  10
ATOM     10  N   UNL     1      21.548 -71.392   1.731  1.00  0.00    -0.350 N 
ATOM     11  H   UNL     1      22.310 -71.331   2.445  1.00  0.00     0.345 HD
ATOM     12  H   UNL     1      20.630 -71.314   2.227  1.00  0.00     0.345 HD
ATOM     13  H   UNL     1      21.602 -72.320   1.251  1.00  0.00     0.345 HD
ENDBRANCH   9  10
BRANCH   9  14
ATOM     14  C   UNL     1      21.813 -68.983   1.485  1.00  0.00     0.099 C 
ATOM     15  O   UNL     1      20.854 -68.544   2.173  1.00  0.00    -0.544 OA
ATOM     16  O   UNL     1      22.990 -68.248   1.404  1.00  0.00    -0.544 OA
ENDBRANCH   9  14
ENDBRANCH   8   9
ENDBRANCH   1   8
TORSDOF 7
ENDMDL
MODEL 6
REMARK VINA RESULT:    -4.571      2.149      4.006
REMARK INTER + INTRA:          -6.677
REMARK INTER:                  -6.167
REMARK INTRA:                  -0.511
REMARK UNBOUND:                -0.503
REMARK SMILES [NH3+]CCCC[C@H]([NH3+])C(=O)[O-]
REMARK SMILES IDX 4 1 3 2 2 3 1 4 5 8 6 9 7 10 8 14 9 15 10 16
REMARK H PARENT 1 5 1 6 1 7 7 11 7 12 7 13
REMARK Flexibility Score: inf
ROOT
ATOM      1  C   UNL     1      19.946 -68.852  -1.557  1.00  0.00     0.012 C 
ENDROOT
BRANCH   1   2
ATOM      2  C   UNL     1      20.021 -67.328  -1.786  1.00  0.00     0.061 C 
BRANCH   2   3
ATOM      3  C   UNL     1      19.024 -66.527  -0.930  1.00  0.00     0.258 C 
BRANCH   3   4
ATOM      4  N   UNL     1      18.417 -67.341   0.124  1.00  0.00    -0.358 N 
ATOM      5  H   UNL     1      18.005 -68.210  -0.283  1.00  0.00     0.344 HD
ATOM      6  H   UNL     1      19.127 -67.583   0.853  1.00  0.00     0.344 HD
ATOM      7  H   UNL     1      17.648 -66.794   0.575  1.00  0.00     0.344 HD
ENDBRANCH   3   4
ENDBRANCH   2   3
ENDBRANCH   1   2
BRANCH   1   8
ATOM      8  C   UNL     1      21.227 -69.406  -0.906  1.00  0.00     0.072 C 
BRANCH   8   9
ATOM      9  C   UNL     1      22.073 -68.298  -0.244  1.00  0.00     0.227 C 
BRANCH   9  10
ATOM     10  N   UNL     1      23.473 -68.398  -0.672  1.00  0.00    -0.350 N 
ATOM     11  H   UNL     1      24.017 -67.585  -0.301  1.00  0.00     0.345 HD
ATOM     12  H   UNL     1      23.899 -69.274  -0.292  1.00  0.00     0.345 HD
ATOM     13  H   UNL     1      23.541 -68.406  -1.716  1.00  0.00     0.345 HD
ENDBRANCH   9  10
BRANCH   9  14
ATOM     14  C   UNL     1      21.988 -68.374   1.258  1.00  0.00     0.099 C 
ATOM     15  O   UNL     1      23.038 -68.367   1.953  1.00  0.00    -0.544 OA
ATOM     16  O   UNL     1      20.751 -68.446   1.888  1.00  0.00    -0.544 OA
ENDBRANCH   9  14
ENDBRANCH   8   9
ENDBRANCH   1   8
TORSDOF 7
ENDMDL
MODEL 7
REMARK VINA RESULT:    -4.487      2.499      2.749
REMARK INTER + INTRA:          -6.564
REMARK INTER:                  -6.394
REMARK INTRA:                  -0.170
REMARK UNBOUND:                -0.503
REMARK SMILES [NH3+]CCCC[C@H]([NH3+])C(=O)[O-]
REMARK SMILES IDX 4 1 3 2 2 3 1 4 5 8 6 9 7 10 8 14 9 15 10 16
REMARK H PARENT 1 5 1 6 1 7 7 11 7 12 7 13
REMARK Flexibility Score: inf
ROOT
ATOM      1  C   UNL     1      21.803 -69.333  -0.315  1.00  0.00     0.012 C 
ENDROOT
BRANCH   1   2
ATOM      2  C   UNL     1      21.657 -70.052   1.042  1.00  0.00     0.061 C 
BRANCH   2   3
ATOM      3  C   UNL     1      21.305 -71.545   0.914  1.00  0.00     0.258 C 
BRANCH   3   4
ATOM      4  N   UNL     1      21.592 -72.291   2.140  1.00  0.00    -0.358 N 
ATOM      5  H   UNL     1      21.284 -73.285   2.038  1.00  0.00     0.344 HD
ATOM      6  H   UNL     1      22.613 -72.249   2.363  1.00  0.00     0.344 HD
ATOM      7  H   UNL     1      21.059 -71.863   2.931  1.00  0.00     0.344 HD
ENDBRANCH   3   4
ENDBRANCH   2   3
ENDBRANCH   1   2
BRANCH   1   8
ATOM      8  C   UNL     1      21.060 -67.985  -0.343  1.00  0.00     0.072 C 
BRANCH   8   9
ATOM      9  C   UNL     1      19.943 -67.955  -1.406  1.00  0.00     0.227 C 
BRANCH   9  10
ATOM     10  N   UNL     1      19.748 -66.588  -1.906  1.00  0.00    -0.350 N 
ATOM     11  H   UNL     1      20.531 -66.330  -2.549  1.00  0.00     0.345 HD
ATOM     12  H   UNL     1      18.852 -66.531  -2.444  1.00  0.00     0.345 HD
ATOM     13  H   UNL     1      19.716 -65.906  -1.113  1.00  0.00     0.345 HD
ENDBRANCH   9  10
BRANCH   9  14
ATOM     14  C   UNL     1      18.649 -68.488  -0.849  1.00  0.00     0.099 C 
ATOM     15  O   UNL     1      18.322 -69.688  -1.046  1.00  0.00    -0.544 OA
ATOM     16  O   UNL     1      17.811 -67.662  -0.108  1.00  0.00    -0.544 OA
ENDBRANCH   9  14
ENDBRANCH   8   9
ENDBRANCH   1   8
TORSDOF 7
ENDMDL
MODEL 8
REMARK VINA RESULT:    -4.482      2.435      3.766
REMARK INTER + INTRA:          -6.557
REMARK INTER:                  -6.301
REMARK INTRA:                  -0.256
REMARK UNBOUND:                -0.503
REMARK SMILES [NH3+]CCCC[C@H]([NH3+])C(=O)[O-]
REMARK SMILES IDX 4 1 3 2 2 3 1 4 5 8 6 9 7 10 8 14 9 15 10 16
REMARK H PARENT 1 5 1 6 1 7 7 11 7 12 7 13
REMARK Flexibility Score: inf
ROOT
ATOM      1  C   UNL     1      19.437 -68.324  -0.048  1.00  0.00     0.012 C 
ENDROOT
BRANCH   1   2
ATOM      2  C   UNL     1      18.977 -66.933  -0.532  1.00  0.00     0.061 C 
BRANCH   2   3
ATOM      3  C   UNL     1      19.698 -66.453  -1.804  1.00  0.00     0.258 C 
BRANCH   3   4
ATOM      4  N   UNL     1      19.326 -65.087  -2.173  1.00  0.00    -0.358 N 
ATOM      5  H   UNL     1      18.295 -64.952  -2.065  1.00  0.00     0.344 HD
ATOM      6  H   UNL     1      19.846 -64.396  -1.586  1.00  0.00     0.344 HD
ATOM      7  H   UNL     1      19.573 -64.927  -3.177  1.00  0.00     0.344 HD
ENDBRANCH   3   4
ENDBRANCH   2   3
ENDBRANCH   1   2
BRANCH   1   8
ATOM      8  C   UNL     1      20.274 -69.062  -1.109  1.00  0.00     0.072 C 
BRANCH   8   9
ATOM      9  C   UNL     1      21.544 -69.703  -0.510  1.00  0.00     0.227 C 
BRANCH   9  10
ATOM     10  N   UNL     1      21.186 -70.673   0.531  1.00  0.00    -0.350 N 
ATOM     11  H   UNL     1      20.278 -70.401   0.973  1.00  0.00     0.345 HD
ATOM     12  H   UNL     1      21.070 -71.622   0.108  1.00  0.00     0.345 HD
ATOM     13  H   UNL     1      21.927 -70.714   1.269  1.00  0.00     0.345 HD
ENDBRANCH   9  10
BRANCH   9  14
ATOM     14  C   UNL     1      22.463 -68.654   0.059  1.00  0.00     0.099 C 
ATOM     15  O   UNL     1      23.045 -67.840  -0.706  1.00  0.00    -0.544 OA
ATOM     16  O   UNL     1      22.672 -68.573   1.431  1.00  0.00    -0.544 OA
ENDBRANCH   9  14
ENDBRANCH   8   9
ENDBRANCH   1   8
TORSDOF 7
ENDMDL
MODEL 9
REMARK VINA RESULT:    -4.449      1.825      2.062
REMARK INTER + INTRA:          -6.512
REMARK INTER:                  -6.294
REMARK INTRA:                  -0.219
REMARK UNBOUND:                -0.503
REMARK SMILES [NH3+]CCCC[C@H]([NH3+])C(=O)[O-]
REMARK SMILES IDX 4 1 3 2 2 3 1 4 5 8 6 9 7 10 8 14 9 15 10 16
REMARK H PARENT 1 5 1 6 1 7 7 11 7 12 7 13
REMARK Flexibility Score: inf
ROOT
ATOM      1  C   UNL     1      20.578 -69.819  -0.461  1.00  0.00     0.012 C 
ENDROOT
BRANCH   1   2
ATOM      2  C   UNL     1      21.451 -70.109   0.778  1.00  0.00     0.061 C 
BRANCH   2   3
ATOM      3  C   UNL     1      21.709 -68.870   1.653  1.00  0.00     0.258 C 
BRANCH   3   4
ATOM      4  N   UNL     1      23.101 -68.422   1.586  1.00  0.00    -0.358 N 
ATOM      5  H   UNL     1      23.173 -67.422   1.881  1.00  0.00     0.344 HD
ATOM      6  H   UNL     1      23.708 -69.022   2.189  1.00  0.00     0.344 HD
ATOM      7  H   UNL     1      23.434 -68.496   0.597  1.00  0.00     0.344 HD
ENDBRANCH   3   4
ENDBRANCH   2   3
ENDBRANCH   1   2
BRANCH   1   8
ATOM      8  C   UNL     1      20.856 -68.426  -1.055  1.00  0.00     0.072 C 
BRANCH   8   9
ATOM      9  C   UNL     1      19.556 -67.670  -1.404  1.00  0.00     0.227 C 
BRANCH   9  10
ATOM     10  N   UNL     1      19.866 -66.349  -1.964  1.00  0.00    -0.350 N 
ATOM     11  H   UNL     1      20.286 -65.740  -1.224  1.00  0.00     0.345 HD
ATOM     12  H   UNL     1      20.562 -66.446  -2.739  1.00  0.00     0.345 HD
ATOM     13  H   UNL     1      19.000 -65.891  -2.333  1.00  0.00     0.345 HD
ENDBRANCH   9  10
BRANCH   9  14
ATOM     14  C   UNL     1      18.674 -67.520  -0.192  1.00  0.00     0.099 C 
ATOM     15  O   UNL     1      19.052 -66.819   0.783  1.00  0.00    -0.544 OA
ATOM     16  O   UNL     1      17.435 -68.149  -0.144  1.00  0.00    -0.544 OA
ENDBRANCH   9  14
ENDBRANCH   8   9
ENDBRANCH   1   8
TORSDOF 7
ENDMDL
