MODEL 1
REMARK VINA RESULT:    -6.950      0.000      0.000
REMARK INTER + INTRA:         -11.780
REMARK INTER:                 -10.810
REMARK INTRA:                  -0.970
REMARK UNBOUND:                -0.970
REMARK SMILES COc1cc(CNC(=O)CCCCC=CC(C)C)ccc1O
REMARK SMILES IDX 11 1 12 2 13 3 14 4 15 5 16 6 17 7 18 8 10 9 8 10 9 11 7 12
REMARK SMILES IDX 6 14 5 15 4 16 19 17 3 18 20 19 21 20 2 21 1 22 22 23
REMARK H PARENT 7 13 22 24
REMARK Flexibility Score: inf
ROOT
ATOM      1  C   UNL     1     115.696 114.199 121.313  1.00  0.00     0.010 C 
ENDROOT
BRANCH   1   2
ATOM      2  C   UNL     1     114.594 114.784 120.411  1.00  0.00     0.005 C 
BRANCH   2   3
ATOM      3  C   UNL     1     114.835 116.262 120.077  1.00  0.00     0.027 C 
BRANCH   3   4
ATOM      4  C   UNL     1     116.014 116.812 120.845  1.00  0.00    -0.031 C 
ATOM      5  C   UNL     1     116.352 118.110 120.991  1.00  0.00    -0.028 C 
BRANCH   5   6
ATOM      6  C   UNL     1     115.681 119.331 120.380  1.00  0.00     0.005 C 
ATOM      7  C   UNL     1     116.450 119.898 119.177  1.00  0.00     0.012 C 
ATOM      8  C   UNL     1     115.321 120.400 121.420  1.00  0.00     0.012 C 
ENDBRANCH   5   6
ENDBRANCH   3   4
ENDBRANCH   2   3
ENDBRANCH   1   2
BRANCH   1   9
ATOM      9  C   UNL     1     115.452 112.715 121.632  1.00  0.00     0.100 C 
BRANCH   9  10
ATOM     10  C   UNL     1     116.582 112.142 122.437  1.00  0.00     0.220 C 
ATOM     11  O   UNL     1     116.506 112.144 123.695  1.00  0.00    -0.275 OA
ATOM     12  N   UNL     1     117.767 111.663 121.788  1.00  0.00    -0.352 N 
ATOM     13  H   UNL     1     117.743 111.515 120.753  1.00  0.00     0.163 HD
BRANCH  12  14
ATOM     14  C   UNL     1     119.075 111.736 122.433  1.00  0.00     0.151 C 
BRANCH  14  15
ATOM     15  C   UNL     1     120.027 112.480 121.540  1.00  0.00    -0.025 A 
ATOM     16  C   UNL     1     120.060 113.883 121.557  1.00  0.00     0.056 A 
ATOM     17  C   UNL     1     120.784 111.786 120.589  1.00  0.00     0.009 A 
ATOM     18  C   UNL     1     120.848 114.594 120.629  1.00  0.00     0.160 A 
ATOM     19  C   UNL     1     121.579 112.481 119.681  1.00  0.00     0.050 A 
ATOM     20  C   UNL     1     121.613 113.878 119.691  1.00  0.00     0.157 A 
BRANCH  18  21
ATOM     21  O   UNL     1     120.882 115.997 120.604  1.00  0.00    -0.493 OA
ATOM     22  C   UNL     1     119.820 116.837 121.049  1.00  0.00     0.278 C 
ENDBRANCH  18  21
BRANCH  20  23
ATOM     23  O   UNL     1     122.413 114.538 118.759  1.00  0.00    -0.504 OA
ATOM     24  H   UNL     1     122.770 114.077 117.931  1.00  0.00     0.293 HD
ENDBRANCH  20  23
ENDBRANCH  14  15
ENDBRANCH  12  14
ENDBRANCH   9  10
ENDBRANCH   1   9
TORSDOF 10
ENDMDL
MODEL 2
REMARK VINA RESULT:    -6.648      2.451      6.560
REMARK INTER + INTRA:         -11.310
REMARK INTER:                 -10.567
REMARK INTRA:                  -0.743
REMARK UNBOUND:                -0.970
REMARK SMILES COc1cc(CNC(=O)CCCCC=CC(C)C)ccc1O
REMARK SMILES IDX 11 1 12 2 13 3 14 4 15 5 16 6 17 7 18 8 10 9 8 10 9 11 7 12
REMARK SMILES IDX 6 14 5 15 4 16 19 17 3 18 20 19 21 20 2 21 1 22 22 23
REMARK H PARENT 7 13 22 24
REMARK Flexibility Score: inf
ROOT
ATOM      1  C   UNL     1     116.876 111.015 122.200  1.00  0.00     0.010 C 
ENDROOT
BRANCH   1   2
ATOM      2  C   UNL     1     118.220 110.505 121.647  1.00  0.00     0.005 C 
BRANCH   2   3
ATOM      3  C   UNL     1     119.371 111.483 121.917  1.00  0.00     0.027 C 
BRANCH   3   4
ATOM      4  C   UNL     1     120.287 111.596 120.721  1.00  0.00    -0.031 C 
ATOM      5  C   UNL     1     121.057 112.651 120.387  1.00  0.00    -0.028 C 
BRANCH   5   6
ATOM      6  C   UNL     1     121.155 114.002 121.081  1.00  0.00     0.005 C 
ATOM      7  C   UNL     1     121.669 115.115 120.157  1.00  0.00     0.012 C 
ATOM      8  C   UNL     1     121.908 113.936 122.417  1.00  0.00     0.012 C 
ENDBRANCH   5   6
ENDBRANCH   3   4
ENDBRANCH   2   3
ENDBRANCH   1   2
BRANCH   1   9
ATOM      9  C   UNL     1     116.864 112.544 122.364  1.00  0.00     0.100 C 
BRANCH   9  10
ATOM     10  C   UNL     1     115.683 113.153 121.667  1.00  0.00     0.220 C 
ATOM     11  O   UNL     1     114.861 112.402 121.076  1.00  0.00    -0.275 OA
ATOM     12  N   UNL     1     115.527 114.576 121.611  1.00  0.00    -0.352 N 
ATOM     13  H   UNL     1     116.115 115.168 122.242  1.00  0.00     0.163 HD
BRANCH  12  14
ATOM     14  C   UNL     1     114.877 115.230 120.479  1.00  0.00     0.151 C 
BRANCH  14  15
ATOM     15  C   UNL     1     114.960 116.721 120.653  1.00  0.00    -0.025 A 
ATOM     16  C   UNL     1     115.964 117.452 120.000  1.00  0.00     0.056 A 
ATOM     17  C   UNL     1     114.129 117.366 121.575  1.00  0.00     0.009 A 
ATOM     18  C   UNL     1     116.139 118.826 120.263  1.00  0.00     0.160 A 
ATOM     19  C   UNL     1     114.283 118.728 121.827  1.00  0.00     0.050 A 
ATOM     20  C   UNL     1     115.283 119.460 121.181  1.00  0.00     0.157 A 
BRANCH  18  21
ATOM     21  O   UNL     1     117.150 119.579 119.644  1.00  0.00    -0.493 OA
ATOM     22  C   UNL     1     118.203 119.024 118.862  1.00  0.00     0.278 C 
ENDBRANCH  18  21
BRANCH  20  23
ATOM     23  O   UNL     1     115.412 120.819 121.467  1.00  0.00    -0.504 OA
ATOM     24  H   UNL     1     115.058 121.227 122.323  1.00  0.00     0.293 HD
ENDBRANCH  20  23
ENDBRANCH  14  15
ENDBRANCH  12  14
ENDBRANCH   9  10
ENDBRANCH   1   9
TORSDOF 10
ENDMDL
MODEL 3
REMARK VINA RESULT:    -6.357      2.406      6.427
REMARK INTER + INTRA:         -10.858
REMARK INTER:                  -9.419
REMARK INTRA:                  -1.438
REMARK UNBOUND:                -0.970
REMARK SMILES COc1cc(CNC(=O)CCCCC=CC(C)C)ccc1O
REMARK SMILES IDX 11 1 12 2 13 3 14 4 15 5 16 6 17 7 18 8 10 9 8 10 9 11 7 12
REMARK SMILES IDX 6 14 5 15 4 16 19 17 3 18 20 19 21 20 2 21 1 22 22 23
REMARK H PARENT 7 13 22 24
REMARK Flexibility Score: inf
ROOT
ATOM      1  C   UNL     1     121.122 112.049 120.807  1.00  0.00     0.010 C 
ENDROOT
BRANCH   1   2
ATOM      2  C   UNL     1     119.857 111.258 120.429  1.00  0.00     0.005 C 
BRANCH   2   3
ATOM      3  C   UNL     1     119.100 110.743 121.660  1.00  0.00     0.027 C 
BRANCH   3   4
ATOM      4  C   UNL     1     118.408 111.871 122.390  1.00  0.00    -0.031 C 
ATOM      5  C   UNL     1     117.081 112.027 122.568  1.00  0.00    -0.028 C 
BRANCH   5   6
ATOM      6  C   UNL     1     115.951 111.157 122.037  1.00  0.00     0.005 C 
ATOM      7  C   UNL     1     114.916 111.948 121.224  1.00  0.00     0.012 C 
ATOM      8  C   UNL     1     115.316 110.273 123.119  1.00  0.00     0.012 C 
ENDBRANCH   5   6
ENDBRANCH   3   4
ENDBRANCH   2   3
ENDBRANCH   1   2
BRANCH   1   9
ATOM      9  C   UNL     1     121.154 113.436 120.145  1.00  0.00     0.100 C 
BRANCH   9  10
ATOM     10  C   UNL     1     121.071 114.528 121.172  1.00  0.00     0.220 C 
ATOM     11  O   UNL     1     121.382 114.275 122.366  1.00  0.00    -0.275 OA
ATOM     12  N   UNL     1     120.577 115.825 120.815  1.00  0.00    -0.352 N 
ATOM     13  H   UNL     1     120.486 116.062 119.801  1.00  0.00     0.163 HD
BRANCH  12  14
ATOM     14  C   UNL     1     119.859 116.660 121.774  1.00  0.00     0.151 C 
BRANCH  14  15
ATOM     15  C   UNL     1     118.395 116.659 121.434  1.00  0.00    -0.025 A 
ATOM     16  C   UNL     1     117.807 117.787 120.843  1.00  0.00     0.056 A 
ATOM     17  C   UNL     1     117.584 115.591 121.834  1.00  0.00     0.009 A 
ATOM     18  C   UNL     1     116.412 117.852 120.647  1.00  0.00     0.160 A 
ATOM     19  C   UNL     1     116.207 115.639 121.627  1.00  0.00     0.050 A 
ATOM     20  C   UNL     1     115.616 116.762 121.041  1.00  0.00     0.157 A 
BRANCH  18  21
ATOM     21  O   UNL     1     115.793 118.977 120.081  1.00  0.00    -0.493 OA
ATOM     22  C   UNL     1     116.469 119.968 119.312  1.00  0.00     0.278 C 
ENDBRANCH  18  21
BRANCH  20  23
ATOM     23  O   UNL     1     114.234 116.777 120.860  1.00  0.00    -0.504 OA
ATOM     24  H   UNL     1     113.783 116.285 120.098  1.00  0.00     0.293 HD
ENDBRANCH  20  23
ENDBRANCH  14  15
ENDBRANCH  12  14
ENDBRANCH   9  10
ENDBRANCH   1   9
TORSDOF 10
ENDMDL
MODEL 4
REMARK VINA RESULT:    -6.336      1.560      4.397
REMARK INTER + INTRA:         -10.825
REMARK INTER:                  -9.700
REMARK INTRA:                  -1.125
REMARK UNBOUND:                -0.970
REMARK SMILES COc1cc(CNC(=O)CCCCC=CC(C)C)ccc1O
REMARK SMILES IDX 11 1 12 2 13 3 14 4 15 5 16 6 17 7 18 8 10 9 8 10 9 11 7 12
REMARK SMILES IDX 6 14 5 15 4 16 19 17 3 18 20 19 21 20 2 21 1 22 22 23
REMARK H PARENT 7 13 22 24
REMARK Flexibility Score: inf
ROOT
ATOM      1  C   UNL     1     119.742 116.762 121.790  1.00  0.00     0.010 C 
ENDROOT
BRANCH   1   2
ATOM      2  C   UNL     1     118.215 116.604 121.664  1.00  0.00     0.005 C 
BRANCH   2   3
ATOM      3  C   UNL     1     117.600 117.625 120.697  1.00  0.00     0.027 C 
BRANCH   3   4
ATOM      4  C   UNL     1     116.107 117.432 120.573  1.00  0.00    -0.031 C 
ATOM      5  C   UNL     1     115.150 118.356 120.795  1.00  0.00    -0.028 C 
BRANCH   5   6
ATOM      6  C   UNL     1     115.320 119.789 121.278  1.00  0.00     0.005 C 
ATOM      7  C   UNL     1     114.311 120.177 122.370  1.00  0.00     0.012 C 
ATOM      8  C   UNL     1     115.381 120.806 120.130  1.00  0.00     0.012 C 
ENDBRANCH   5   6
ENDBRANCH   3   4
ENDBRANCH   2   3
ENDBRANCH   1   2
BRANCH   1   9
ATOM      9  C   UNL     1     120.461 116.482 120.461  1.00  0.00     0.100 C 
BRANCH   9  10
ATOM     10  C   UNL     1     121.246 115.204 120.530  1.00  0.00     0.220 C 
ATOM     11  O   UNL     1     121.966 114.870 119.551  1.00  0.00    -0.275 OA
ATOM     12  N   UNL     1     121.124 114.337 121.664  1.00  0.00    -0.352 N 
ATOM     13  H   UNL     1     120.663 114.706 122.527  1.00  0.00     0.163 HD
BRANCH  12  14
ATOM     14  C   UNL     1     121.271 112.890 121.539  1.00  0.00     0.151 C 
BRANCH  14  15
ATOM     15  C   UNL     1     119.915 112.246 121.609  1.00  0.00    -0.025 A 
ATOM     16  C   UNL     1     118.786 113.012 121.936  1.00  0.00     0.056 A 
ATOM     17  C   UNL     1     119.793 110.857 121.488  1.00  0.00     0.009 A 
ATOM     18  C   UNL     1     117.534 112.396 122.140  1.00  0.00     0.160 A 
ATOM     19  C   UNL     1     118.555 110.243 121.670  1.00  0.00     0.050 A 
ATOM     20  C   UNL     1     117.428 111.001 121.999  1.00  0.00     0.157 A 
BRANCH  18  21
ATOM     21  O   UNL     1     116.392 113.132 122.492  1.00  0.00    -0.493 OA
ATOM     22  C   UNL     1     115.586 113.860 121.570  1.00  0.00     0.278 C 
ENDBRANCH  18  21
BRANCH  20  23
ATOM     23  O   UNL     1     116.210 110.349 122.183  1.00  0.00    -0.504 OA
ATOM     24  H   UNL     1     115.900 110.028 123.092  1.00  0.00     0.293 HD
ENDBRANCH  20  23
ENDBRANCH  14  15
ENDBRANCH  12  14
ENDBRANCH   9  10
ENDBRANCH   1   9
TORSDOF 10
ENDMDL
MODEL 5
REMARK VINA RESULT:    -6.224      2.446      3.924
REMARK INTER + INTRA:         -10.651
REMARK INTER:                  -9.859
REMARK INTRA:                  -0.793
REMARK UNBOUND:                -0.970
REMARK SMILES COc1cc(CNC(=O)CCCCC=CC(C)C)ccc1O
REMARK SMILES IDX 11 1 12 2 13 3 14 4 15 5 16 6 17 7 18 8 10 9 8 10 9 11 7 12
REMARK SMILES IDX 6 14 5 15 4 16 19 17 3 18 20 19 21 20 2 21 1 22 22 23
REMARK H PARENT 7 13 22 24
REMARK Flexibility Score: inf
ROOT
ATOM      1  C   UNL     1     117.101 117.644 121.117  1.00  0.00     0.010 C 
ENDROOT
BRANCH   1   2
ATOM      2  C   UNL     1     115.674 117.264 121.553  1.00  0.00     0.005 C 
BRANCH   2   3
ATOM      3  C   UNL     1     114.657 118.372 121.251  1.00  0.00     0.027 C 
BRANCH   3   4
ATOM      4  C   UNL     1     115.164 119.721 121.705  1.00  0.00    -0.031 C 
ATOM      5  C   UNL     1     115.510 120.762 120.920  1.00  0.00    -0.028 C 
BRANCH   5   6
ATOM      6  C   UNL     1     115.537 120.826 119.400  1.00  0.00     0.005 C 
ATOM      7  C   UNL     1     116.758 120.121 118.791  1.00  0.00     0.012 C 
ATOM      8  C   UNL     1     115.332 122.247 118.856  1.00  0.00     0.012 C 
ENDBRANCH   5   6
ENDBRANCH   3   4
ENDBRANCH   2   3
ENDBRANCH   1   2
BRANCH   1   9
ATOM      9  C   UNL     1     118.151 116.667 121.670  1.00  0.00     0.100 C 
BRANCH   9  10
ATOM     10  C   UNL     1     119.468 116.835 120.969  1.00  0.00     0.220 C 
ATOM     11  O   UNL     1     119.588 117.728 120.088  1.00  0.00    -0.275 OA
ATOM     12  N   UNL     1     120.557 115.945 121.245  1.00  0.00    -0.352 N 
ATOM     13  H   UNL     1     120.496 115.328 122.087  1.00  0.00     0.163 HD
BRANCH  12  14
ATOM     14  C   UNL     1     121.542 115.603 120.223  1.00  0.00     0.151 C 
BRANCH  14  15
ATOM     15  C   UNL     1     121.254 114.224 119.699  1.00  0.00    -0.025 A 
ATOM     16  C   UNL     1     120.698 113.250 120.543  1.00  0.00     0.056 A 
ATOM     17  C   UNL     1     121.670 113.863 118.413  1.00  0.00     0.009 A 
ATOM     18  C   UNL     1     120.553 111.918 120.105  1.00  0.00     0.160 A 
ATOM     19  C   UNL     1     121.512 112.552 117.965  1.00  0.00     0.050 A 
ATOM     20  C   UNL     1     120.961 111.578 118.803  1.00  0.00     0.157 A 
BRANCH  18  21
ATOM     21  O   UNL     1     120.023 110.917 120.934  1.00  0.00    -0.493 OA
ATOM     22  C   UNL     1     119.205 111.164 122.074  1.00  0.00     0.278 C 
ENDBRANCH  18  21
BRANCH  20  23
ATOM     23  O   UNL     1     120.830 110.276 118.323  1.00  0.00    -0.504 OA
ATOM     24  H   UNL     1     121.164 109.472 118.842  1.00  0.00     0.293 HD
ENDBRANCH  20  23
ENDBRANCH  14  15
ENDBRANCH  12  14
ENDBRANCH   9  10
ENDBRANCH   1   9
TORSDOF 10
ENDMDL
MODEL 6
REMARK VINA RESULT:    -6.214      2.639      6.309
REMARK INTER + INTRA:         -10.636
REMARK INTER:                 -10.235
REMARK INTRA:                  -0.401
REMARK UNBOUND:                -0.970
REMARK SMILES COc1cc(CNC(=O)CCCCC=CC(C)C)ccc1O
REMARK SMILES IDX 11 1 12 2 13 3 14 4 15 5 16 6 17 7 18 8 10 9 8 10 9 11 7 12
REMARK SMILES IDX 6 14 5 15 4 16 19 17 3 18 20 19 21 20 2 21 1 22 22 23
REMARK H PARENT 7 13 22 24
REMARK Flexibility Score: inf
ROOT
ATOM      1  C   UNL     1     117.743 112.123 122.382  1.00  0.00     0.010 C 
ENDROOT
BRANCH   1   2
ATOM      2  C   UNL     1     119.137 111.469 122.369  1.00  0.00     0.005 C 
BRANCH   2   3
ATOM      3  C   UNL     1     120.064 112.092 121.317  1.00  0.00     0.027 C 
BRANCH   3   4
ATOM      4  C   UNL     1     121.178 112.880 121.966  1.00  0.00    -0.031 C 
ATOM      5  C   UNL     1     121.602 114.113 121.625  1.00  0.00    -0.028 C 
BRANCH   5   6
ATOM      6  C   UNL     1     121.120 114.992 120.480  1.00  0.00     0.005 C 
ATOM      7  C   UNL     1     122.262 115.477 119.575  1.00  0.00     0.012 C 
ATOM      8  C   UNL     1     120.197 116.127 120.943  1.00  0.00     0.012 C 
ENDBRANCH   5   6
ENDBRANCH   3   4
ENDBRANCH   2   3
ENDBRANCH   1   2
BRANCH   1   9
ATOM      9  C   UNL     1     117.802 113.612 122.003  1.00  0.00     0.100 C 
BRANCH   9  10
ATOM     10  C   UNL     1     116.431 114.153 121.721  1.00  0.00     0.220 C 
ATOM     11  O   UNL     1     115.524 113.364 121.342  1.00  0.00    -0.275 OA
ATOM     12  N   UNL     1     116.172 115.559 121.810  1.00  0.00    -0.352 N 
ATOM     13  H   UNL     1     116.879 116.168 122.282  1.00  0.00     0.163 HD
BRANCH  12  14
ATOM     14  C   UNL     1     115.177 116.209 120.961  1.00  0.00     0.151 C 
BRANCH  14  15
ATOM     15  C   UNL     1     115.794 117.413 120.307  1.00  0.00    -0.025 A 
ATOM     16  C   UNL     1     115.365 118.703 120.656  1.00  0.00     0.056 A 
ATOM     17  C   UNL     1     116.695 117.252 119.249  1.00  0.00     0.009 A 
ATOM     18  C   UNL     1     115.835 119.831 119.954  1.00  0.00     0.160 A 
ATOM     19  C   UNL     1     117.178 118.363 118.562  1.00  0.00     0.050 A 
ATOM     20  C   UNL     1     116.751 119.650 118.904  1.00  0.00     0.157 A 
BRANCH  18  21
ATOM     21  O   UNL     1     115.405 121.131 120.263  1.00  0.00    -0.493 OA
ATOM     22  C   UNL     1     115.217 122.168 119.304  1.00  0.00     0.278 C 
ENDBRANCH  18  21
BRANCH  20  23
ATOM     23  O   UNL     1     117.250 120.736 118.186  1.00  0.00    -0.504 OA
ATOM     24  H   UNL     1     116.930 120.959 117.250  1.00  0.00     0.293 HD
ENDBRANCH  20  23
ENDBRANCH  14  15
ENDBRANCH  12  14
ENDBRANCH   9  10
ENDBRANCH   1   9
TORSDOF 10
ENDMDL
MODEL 7
REMARK VINA RESULT:    -6.160      2.308      5.816
REMARK INTER + INTRA:         -10.551
REMARK INTER:                  -9.314
REMARK INTRA:                  -1.238
REMARK UNBOUND:                -0.970
REMARK SMILES COc1cc(CNC(=O)CCCCC=CC(C)C)ccc1O
REMARK SMILES IDX 11 1 12 2 13 3 14 4 15 5 16 6 17 7 18 8 10 9 8 10 9 11 7 12
REMARK SMILES IDX 6 14 5 15 4 16 19 17 3 18 20 19 21 20 2 21 1 22 22 23
REMARK H PARENT 7 13 22 24
REMARK Flexibility Score: inf
ROOT
ATOM      1  C   UNL     1     119.786 112.024 122.313  1.00  0.00     0.010 C 
ENDROOT
BRANCH   1   2
ATOM      2  C   UNL     1     118.987 110.761 121.942  1.00  0.00     0.005 C 
BRANCH   2   3
ATOM      3  C   UNL     1     117.471 110.984 122.025  1.00  0.00     0.027 C 
BRANCH   3   4
ATOM      4  C   UNL     1     117.145 112.275 122.740  1.00  0.00    -0.031 C 
ATOM      5  C   UNL     1     116.274 113.224 122.341  1.00  0.00    -0.028 C 
BRANCH   5   6
ATOM      6  C   UNL     1     115.454 113.270 121.060  1.00  0.00     0.005 C 
ATOM      7  C   UNL     1     114.871 114.661 120.771  1.00  0.00     0.012 C 
ATOM      8  C   UNL     1     114.405 112.152 120.979  1.00  0.00     0.012 C 
ENDBRANCH   5   6
ENDBRANCH   3   4
ENDBRANCH   2   3
ENDBRANCH   1   2
BRANCH   1   9
ATOM      9  C   UNL     1     120.586 112.571 121.120  1.00  0.00     0.100 C 
BRANCH   9  10
ATOM     10  C   UNL     1     120.603 114.072 121.123  1.00  0.00     0.220 C 
ATOM     11  O   UNL     1     121.699 114.675 120.971  1.00  0.00    -0.275 OA
ATOM     12  N   UNL     1     119.401 114.812 121.368  1.00  0.00    -0.352 N 
ATOM     13  H   UNL     1     118.486 114.307 121.323  1.00  0.00     0.163 HD
BRANCH  12  14
ATOM     14  C   UNL     1     119.426 116.113 122.030  1.00  0.00     0.151 C 
BRANCH  14  15
ATOM     15  C   UNL     1     118.656 117.105 121.203  1.00  0.00    -0.025 A 
ATOM     16  C   UNL     1     117.280 117.280 121.411  1.00  0.00     0.056 A 
ATOM     17  C   UNL     1     119.278 117.754 120.130  1.00  0.00     0.009 A 
ATOM     18  C   UNL     1     116.522 118.102 120.552  1.00  0.00     0.160 A 
ATOM     19  C   UNL     1     118.540 118.583 119.289  1.00  0.00     0.050 A 
ATOM     20  C   UNL     1     117.167 118.758 119.490  1.00  0.00     0.157 A 
BRANCH  18  21
ATOM     21  O   UNL     1     115.139 118.277 120.720  1.00  0.00    -0.493 OA
ATOM     22  C   UNL     1     114.542 118.990 121.799  1.00  0.00     0.278 C 
ENDBRANCH  18  21
BRANCH  20  23
ATOM     23  O   UNL     1     116.462 119.588 118.620  1.00  0.00    -0.504 OA
ATOM     24  H   UNL     1     116.767 119.761 117.669  1.00  0.00     0.293 HD
ENDBRANCH  20  23
ENDBRANCH  14  15
ENDBRANCH  12  14
ENDBRANCH   9  10
ENDBRANCH   1   9
TORSDOF 10
ENDMDL
MODEL 8
REMARK VINA RESULT:    -6.051      2.008      4.672
REMARK INTER + INTRA:         -10.382
REMARK INTER:                  -9.265
REMARK INTRA:                  -1.117
REMARK UNBOUND:                -0.970
REMARK SMILES COc1cc(CNC(=O)CCCCC=CC(C)C)ccc1O
REMARK SMILES IDX 11 1 12 2 13 3 14 4 15 5 16 6 17 7 18 8 10 9 8 10 9 11 7 12
REMARK SMILES IDX 6 14 5 15 4 16 19 17 3 18 20 19 21 20 2 21 1 22 22 23
REMARK H PARENT 7 13 22 24
REMARK Flexibility Score: inf
ROOT
ATOM      1  C   UNL     1     117.071 117.743 120.166  1.00  0.00     0.010 C 
ENDROOT
BRANCH   1   2
ATOM      2  C   UNL     1     115.623 118.083 120.566  1.00  0.00     0.005 C 
BRANCH   2   3
ATOM      3  C   UNL     1     114.852 116.856 121.070  1.00  0.00     0.027 C 
BRANCH   3   4
ATOM      4  C   UNL     1     114.668 115.835 119.971  1.00  0.00    -0.031 C 
ATOM      5  C   UNL     1     114.765 114.495 120.086  1.00  0.00    -0.028 C 
BRANCH   5   6
ATOM      6  C   UNL     1     115.138 113.681 121.316  1.00  0.00     0.005 C 
ATOM      7  C   UNL     1     116.589 113.906 121.767  1.00  0.00     0.012 C 
ATOM      8  C   UNL     1     114.776 112.195 121.183  1.00  0.00     0.012 C 
ENDBRANCH   5   6
ENDBRANCH   3   4
ENDBRANCH   2   3
ENDBRANCH   1   2
BRANCH   1   9
ATOM      9  C   UNL     1     117.848 117.090 121.321  1.00  0.00     0.100 C 
BRANCH   9  10
ATOM     10  C   UNL     1     119.308 116.974 120.992  1.00  0.00     0.220 C 
ATOM     11  O   UNL     1     119.822 117.785 120.175  1.00  0.00    -0.275 OA
ATOM     12  N   UNL     1     120.095 115.910 121.542  1.00  0.00    -0.352 N 
ATOM     13  H   UNL     1     119.700 115.357 122.337  1.00  0.00     0.163 HD
BRANCH  12  14
ATOM     14  C   UNL     1     121.225 115.340 120.815  1.00  0.00     0.151 C 
BRANCH  14  15
ATOM     15  C   UNL     1     120.898 113.927 120.419  1.00  0.00    -0.025 A 
ATOM     16  C   UNL     1     120.206 113.088 121.306  1.00  0.00     0.056 A 
ATOM     17  C   UNL     1     121.404 113.399 119.226  1.00  0.00     0.009 A 
ATOM     18  C   UNL     1     120.016 111.724 121.004  1.00  0.00     0.160 A 
ATOM     19  C   UNL     1     121.204 112.056 118.912  1.00  0.00     0.050 A 
ATOM     20  C   UNL     1     120.518 111.216 119.793  1.00  0.00     0.157 A 
BRANCH  18  21
ATOM     21  O   UNL     1     119.350 110.854 121.882  1.00  0.00    -0.493 OA
ATOM     22  C   UNL     1     118.055 110.309 121.648  1.00  0.00     0.278 C 
ENDBRANCH  18  21
BRANCH  20  23
ATOM     23  O   UNL     1     120.348 109.876 119.448  1.00  0.00    -0.504 OA
ATOM     24  H   UNL     1     119.950 109.199 120.088  1.00  0.00     0.293 HD
ENDBRANCH  20  23
ENDBRANCH  14  15
ENDBRANCH  12  14
ENDBRANCH   9  10
ENDBRANCH   1   9
TORSDOF 10
ENDMDL
MODEL 9
REMARK VINA RESULT:    -5.965      2.217      6.991
REMARK INTER + INTRA:         -10.249
REMARK INTER:                  -9.179
REMARK INTRA:                  -1.070
REMARK UNBOUND:                -0.970
REMARK SMILES COc1cc(CNC(=O)CCCCC=CC(C)C)ccc1O
REMARK SMILES IDX 11 1 12 2 13 3 14 4 15 5 16 6 17 7 18 8 10 9 8 10 9 11 7 12
REMARK SMILES IDX 6 14 5 15 4 16 19 17 3 18 20 19 21 20 2 21 1 22 22 23
REMARK H PARENT 7 13 22 24
REMARK Flexibility Score: inf
ROOT
ATOM      1  C   UNL     1     121.339 115.405 120.505  1.00  0.00     0.010 C 
ENDROOT
BRANCH   1   2
ATOM      2  C   UNL     1     122.009 114.487 119.466  1.00  0.00     0.005 C 
BRANCH   2   3
ATOM      3  C   UNL     1     120.998 113.583 118.747  1.00  0.00     0.027 C 
BRANCH   3   4
ATOM      4  C   UNL     1     121.258 112.125 119.045  1.00  0.00    -0.031 C 
ATOM      5  C   UNL     1     120.803 111.421 120.102  1.00  0.00    -0.028 C 
BRANCH   5   6
ATOM      6  C   UNL     1     119.977 111.918 121.279  1.00  0.00     0.005 C 
ATOM      7  C   UNL     1     120.826 112.599 122.363  1.00  0.00     0.012 C 
ATOM      8  C   UNL     1     119.032 110.848 121.842  1.00  0.00     0.012 C 
ENDBRANCH   5   6
ENDBRANCH   3   4
ENDBRANCH   2   3
ENDBRANCH   1   2
BRANCH   1   9
ATOM      9  C   UNL     1     120.345 116.380 119.855  1.00  0.00     0.100 C 
BRANCH   9  10
ATOM     10  C   UNL     1     119.484 117.044 120.890  1.00  0.00     0.220 C 
ATOM     11  O   UNL     1     119.788 116.934 122.108  1.00  0.00    -0.275 OA
ATOM     12  N   UNL     1     118.289 117.735 120.506  1.00  0.00    -0.352 N 
ATOM     13  H   UNL     1     118.144 117.959 119.495  1.00  0.00     0.163 HD
BRANCH  12  14
ATOM     14  C   UNL     1     117.126 117.800 121.387  1.00  0.00     0.151 C 
BRANCH  14  15
ATOM     15  C   UNL     1     116.315 116.545 121.231  1.00  0.00    -0.025 A 
ATOM     16  C   UNL     1     116.744 115.348 121.825  1.00  0.00     0.056 A 
ATOM     17  C   UNL     1     115.206 116.529 120.377  1.00  0.00     0.009 A 
ATOM     18  C   UNL     1     116.068 114.137 121.571  1.00  0.00     0.160 A 
ATOM     19  C   UNL     1     114.521 115.340 120.137  1.00  0.00     0.050 A 
ATOM     20  C   UNL     1     114.947 114.145 120.724  1.00  0.00     0.157 A 
BRANCH  18  21
ATOM     21  O   UNL     1     116.489 112.920 122.131  1.00  0.00    -0.493 OA
ATOM     22  C   UNL     1     116.168 112.485 123.449  1.00  0.00     0.278 C 
ENDBRANCH  18  21
BRANCH  20  23
ATOM     23  O   UNL     1     114.242 112.974 120.450  1.00  0.00    -0.504 OA
ATOM     24  H   UNL     1     113.606 112.556 121.119  1.00  0.00     0.293 HD
ENDBRANCH  20  23
ENDBRANCH  14  15
ENDBRANCH  12  14
ENDBRANCH   9  10
ENDBRANCH   1   9
TORSDOF 10
ENDMDL
