MODEL 1
REMARK VINA RESULT:    -3.369      0.000      0.000
REMARK INTER + INTRA:          -4.321
REMARK INTER:                  -4.156
REMARK INTRA:                  -0.164
REMARK UNBOUND:                -0.164
REMARK SMILES CCCCC(=O)CC
REMARK SMILES IDX 4 1 3 2 2 3 1 4 5 5 6 6 7 7 8 8
REMARK H PARENT
REMARK Flexibility Score: inf
ROOT
ATOM      1  C   UNL     1       0.334   8.200   4.439  1.00  0.00     0.075 C 
ENDROOT
BRANCH   1   2
ATOM      2  C   UNL     1       0.018   9.138   3.265  1.00  0.00     0.008 C 
BRANCH   2   3
ATOM      3  C   UNL     1       1.074  10.240   3.090  1.00  0.00    -0.003 C 
ATOM      4  C   UNL     1       2.331   9.992   3.924  1.00  0.00     0.004 C 
ENDBRANCH   2   3
ENDBRANCH   1   2
BRANCH   1   5
ATOM      5  C   UNL     1      -0.159   6.807   4.151  1.00  0.00     0.132 C 
ATOM      6  O   UNL     1       0.154   5.892   4.899  1.00  0.00    -0.300 OA
BRANCH   5   7
ATOM      7  C   UNL     1      -1.033   6.519   2.958  1.00  0.00     0.072 C 
ATOM      8  C   UNL     1      -0.709   5.152   2.365  1.00  0.00     0.012 C 
ENDBRANCH   5   7
ENDBRANCH   1   5
TORSDOF 4
ENDMDL
MODEL 2
REMARK VINA RESULT:    -3.349      2.071      3.861
REMARK INTER + INTRA:          -4.296
REMARK INTER:                  -4.126
REMARK INTRA:                  -0.170
REMARK UNBOUND:                -0.164
REMARK SMILES CCCCC(=O)CC
REMARK SMILES IDX 4 1 3 2 2 3 1 4 5 5 6 6 7 7 8 8
REMARK H PARENT
REMARK Flexibility Score: inf
ROOT
ATOM      1  C   UNL     1       0.368   6.536   4.604  1.00  0.00     0.075 C 
ENDROOT
BRANCH   1   2
ATOM      2  C   UNL     1      -0.337   7.466   3.605  1.00  0.00     0.008 C 
BRANCH   2   3
ATOM      3  C   UNL     1      -1.071   6.694   2.498  1.00  0.00    -0.003 C 
ATOM      4  C   UNL     1      -0.739   5.201   2.498  1.00  0.00     0.004 C 
ENDBRANCH   2   3
ENDBRANCH   1   2
BRANCH   1   5
ATOM      5  C   UNL     1      -0.231   6.684   5.977  1.00  0.00     0.132 C 
ATOM      6  O   UNL     1      -1.377   7.092   6.092  1.00  0.00    -0.300 OA
BRANCH   5   7
ATOM      7  C   UNL     1       0.557   6.338   7.214  1.00  0.00     0.072 C 
ATOM      8  C   UNL     1       2.009   6.780   7.075  1.00  0.00     0.012 C 
ENDBRANCH   5   7
ENDBRANCH   1   5
TORSDOF 4
ENDMDL
MODEL 3
REMARK VINA RESULT:    -3.328      1.514      2.040
REMARK INTER + INTRA:          -4.271
REMARK INTER:                  -4.007
REMARK INTRA:                  -0.264
REMARK UNBOUND:                -0.164
REMARK SMILES CCCCC(=O)CC
REMARK SMILES IDX 4 1 3 2 2 3 1 4 5 5 6 6 7 7 8 8
REMARK H PARENT
REMARK Flexibility Score: inf
ROOT
ATOM      1  C   UNL     1      -0.284   6.628   5.567  1.00  0.00     0.075 C 
ENDROOT
BRANCH   1   2
ATOM      2  C   UNL     1       1.131   6.900   5.037  1.00  0.00     0.008 C 
BRANCH   2   3
ATOM      3  C   UNL     1       1.643   8.299   5.412  1.00  0.00    -0.003 C 
ATOM      4  C   UNL     1       1.438   9.323   4.295  1.00  0.00     0.004 C 
ENDBRANCH   2   3
ENDBRANCH   1   2
BRANCH   1   5
ATOM      5  C   UNL     1      -1.278   6.610   4.436  1.00  0.00     0.132 C 
ATOM      6  O   UNL     1      -2.474   6.619   4.688  1.00  0.00    -0.300 OA
BRANCH   5   7
ATOM      7  C   UNL     1      -0.826   6.581   2.999  1.00  0.00     0.072 C 
ATOM      8  C   UNL     1      -0.830   5.155   2.457  1.00  0.00     0.012 C 
ENDBRANCH   5   7
ENDBRANCH   1   5
TORSDOF 4
ENDMDL
MODEL 4
REMARK VINA RESULT:    -3.305      2.233      3.159
REMARK INTER + INTRA:          -4.242
REMARK INTER:                  -4.110
REMARK INTRA:                  -0.132
REMARK UNBOUND:                -0.164
REMARK SMILES CCCCC(=O)CC
REMARK SMILES IDX 4 1 3 2 2 3 1 4 5 5 6 6 7 7 8 8
REMARK H PARENT
REMARK Flexibility Score: inf
ROOT
ATOM      1  C   UNL     1       0.459   6.627   4.659  1.00  0.00     0.075 C 
ENDROOT
BRANCH   1   2
ATOM      2  C   UNL     1      -0.303   6.624   5.992  1.00  0.00     0.008 C 
BRANCH   2   3
ATOM      3  C   UNL     1       0.585   6.220   7.179  1.00  0.00    -0.003 C 
ATOM      4  C   UNL     1       2.002   6.785   7.076  1.00  0.00     0.004 C 
ENDBRANCH   2   3
ENDBRANCH   1   2
BRANCH   1   5
ATOM      5  C   UNL     1      -0.326   7.357   3.602  1.00  0.00     0.132 C 
ATOM      6  O   UNL     1      -0.313   8.579   3.580  1.00  0.00    -0.300 OA
BRANCH   5   7
ATOM      7  C   UNL     1      -1.128   6.609   2.569  1.00  0.00     0.072 C 
ATOM      8  C   UNL     1      -0.684   5.153   2.486  1.00  0.00     0.012 C 
ENDBRANCH   5   7
ENDBRANCH   1   5
TORSDOF 4
ENDMDL
MODEL 5
REMARK VINA RESULT:    -3.299     13.035     14.636
REMARK INTER + INTRA:          -4.235
REMARK INTER:                  -4.117
REMARK INTRA:                  -0.118
REMARK UNBOUND:                -0.164
REMARK SMILES CCCCC(=O)CC
REMARK SMILES IDX 4 1 3 2 2 3 1 4 5 5 6 6 7 7 8 8
REMARK H PARENT
REMARK Flexibility Score: inf
ROOT
ATOM      1  C   UNL     1       8.202  -4.639   0.634  1.00  0.00     0.075 C 
ENDROOT
BRANCH   1   2
ATOM      2  C   UNL     1       7.600  -3.226   0.620  1.00  0.00     0.008 C 
BRANCH   2   3
ATOM      3  C   UNL     1       8.006  -2.400   1.850  1.00  0.00    -0.003 C 
ATOM      4  C   UNL     1       6.803  -1.929   2.668  1.00  0.00     0.004 C 
ENDBRANCH   2   3
ENDBRANCH   1   2
BRANCH   1   5
ATOM      5  C   UNL     1       7.112  -5.678   0.634  1.00  0.00     0.132 C 
ATOM      6  O   UNL     1       6.075  -5.461   1.244  1.00  0.00    -0.300 OA
BRANCH   5   7
ATOM      7  C   UNL     1       7.275  -6.980  -0.106  1.00  0.00     0.072 C 
ATOM      8  C   UNL     1       6.147  -7.946   0.240  1.00  0.00     0.012 C 
ENDBRANCH   5   7
ENDBRANCH   1   5
TORSDOF 4
ENDMDL
MODEL 6
REMARK VINA RESULT:    -3.271      1.236      2.049
REMARK INTER + INTRA:          -4.200
REMARK INTER:                  -3.845
REMARK INTRA:                  -0.355
REMARK UNBOUND:                -0.164
REMARK SMILES CCCCC(=O)CC
REMARK SMILES IDX 4 1 3 2 2 3 1 4 5 5 6 6 7 7 8 8
REMARK H PARENT
REMARK Flexibility Score: inf
ROOT
ATOM      1  C   UNL     1      -0.887   7.478   2.928  1.00  0.00     0.075 C 
ENDROOT
BRANCH   1   2
ATOM      2  C   UNL     1      -0.857   8.855   3.607  1.00  0.00     0.008 C 
BRANCH   2   3
ATOM      3  C   UNL     1       0.324   9.718   3.138  1.00  0.00    -0.003 C 
ATOM      4  C   UNL     1       1.533   9.621   4.068  1.00  0.00     0.004 C 
ENDBRANCH   2   3
ENDBRANCH   1   2
BRANCH   1   5
ATOM      5  C   UNL     1      -0.383   6.414   3.867  1.00  0.00     0.132 C 
ATOM      6  O   UNL     1       0.192   5.435   3.413  1.00  0.00    -0.300 OA
BRANCH   5   7
ATOM      7  C   UNL     1      -0.573   6.534   5.357  1.00  0.00     0.072 C 
ATOM      8  C   UNL     1       0.772   6.591   6.073  1.00  0.00     0.012 C 
ENDBRANCH   5   7
ENDBRANCH   1   5
TORSDOF 4
ENDMDL
MODEL 7
REMARK VINA RESULT:    -3.224     13.953     15.926
REMARK INTER + INTRA:          -4.142
REMARK INTER:                  -3.872
REMARK INTRA:                  -0.270
REMARK UNBOUND:                -0.164
REMARK SMILES CCCCC(=O)CC
REMARK SMILES IDX 4 1 3 2 2 3 1 4 5 5 6 6 7 7 8 8
REMARK H PARENT
REMARK Flexibility Score: inf
ROOT
ATOM      1  C   UNL     1       8.045  -6.164   0.448  1.00  0.00     0.075 C 
ENDROOT
BRANCH   1   2
ATOM      2  C   UNL     1       7.648  -7.137  -0.672  1.00  0.00     0.008 C 
BRANCH   2   3
ATOM      3  C   UNL     1       8.402  -6.867  -1.982  1.00  0.00    -0.003 C 
ATOM      4  C   UNL     1       8.951  -5.442  -2.066  1.00  0.00     0.004 C 
ENDBRANCH   2   3
ENDBRANCH   1   2
BRANCH   1   5
ATOM      5  C   UNL     1       6.826  -5.487   1.017  1.00  0.00     0.132 C 
ATOM      6  O   UNL     1       5.761  -6.086   1.038  1.00  0.00    -0.300 OA
BRANCH   5   7
ATOM      7  C   UNL     1       6.895  -4.084   1.561  1.00  0.00     0.072 C 
ATOM      8  C   UNL     1       7.648  -3.166   0.604  1.00  0.00     0.012 C 
ENDBRANCH   5   7
ENDBRANCH   1   5
TORSDOF 4
ENDMDL
MODEL 8
REMARK VINA RESULT:    -3.201      2.729      3.856
REMARK INTER + INTRA:          -4.114
REMARK INTER:                  -3.768
REMARK INTRA:                  -0.345
REMARK UNBOUND:                -0.164
REMARK SMILES CCCCC(=O)CC
REMARK SMILES IDX 4 1 3 2 2 3 1 4 5 5 6 6 7 7 8 8
REMARK H PARENT
REMARK Flexibility Score: inf
ROOT
ATOM      1  C   UNL     1      -1.250   8.195   3.367  1.00  0.00     0.075 C 
ENDROOT
BRANCH   1   2
ATOM      2  C   UNL     1      -1.151   6.868   2.601  1.00  0.00     0.008 C 
BRANCH   2   3
ATOM      3  C   UNL     1      -0.262   5.839   3.316  1.00  0.00    -0.003 C 
ATOM      4  C   UNL     1       0.492   6.435   4.506  1.00  0.00     0.004 C 
ENDBRANCH   2   3
ENDBRANCH   1   2
BRANCH   1   5
ATOM      5  C   UNL     1      -2.622   8.357   3.968  1.00  0.00     0.132 C 
ATOM      6  O   UNL     1      -3.388   9.186   3.500  1.00  0.00    -0.300 OA
BRANCH   5   7
ATOM      7  C   UNL     1      -3.067   7.517   5.136  1.00  0.00     0.072 C 
ATOM      8  C   UNL     1      -2.368   7.954   6.418  1.00  0.00     0.012 C 
ENDBRANCH   5   7
ENDBRANCH   1   5
TORSDOF 4
ENDMDL
MODEL 9
REMARK VINA RESULT:    -3.138     12.062     13.377
REMARK INTER + INTRA:          -4.035
REMARK INTER:                  -3.674
REMARK INTRA:                  -0.361
REMARK UNBOUND:                -0.164
REMARK SMILES CCCCC(=O)CC
REMARK SMILES IDX 4 1 3 2 2 3 1 4 5 5 6 6 7 7 8 8
REMARK H PARENT
REMARK Flexibility Score: inf
ROOT
ATOM      1  C   UNL     1      -5.302  -3.555   7.114  1.00  0.00     0.075 C 
ENDROOT
BRANCH   1   2
ATOM      2  C   UNL     1      -5.256  -2.262   6.288  1.00  0.00     0.008 C 
BRANCH   2   3
ATOM      3  C   UNL     1      -6.608  -1.927   5.641  1.00  0.00    -0.003 C 
ATOM      4  C   UNL     1      -7.782  -2.619   6.334  1.00  0.00     0.004 C 
ENDBRANCH   2   3
ENDBRANCH   1   2
BRANCH   1   5
ATOM      5  C   UNL     1      -4.538  -4.653   6.421  1.00  0.00     0.132 C 
ATOM      6  O   UNL     1      -3.327  -4.554   6.294  1.00  0.00    -0.300 OA
BRANCH   5   7
ATOM      7  C   UNL     1      -5.240  -5.872   5.882  1.00  0.00     0.072 C 
ATOM      8  C   UNL     1      -6.101  -5.513   4.675  1.00  0.00     0.012 C 
ENDBRANCH   5   7
ENDBRANCH   1   5
TORSDOF 4
ENDMDL
