MODEL 1
REMARK VINA RESULT:    -5.820      0.000      0.000
REMARK INTER + INTRA:         -16.127
REMARK INTER:                 -12.625
REMARK INTRA:                  -3.502
REMARK UNBOUND:                -3.502
REMARK SMILES CCCCCCCCCCCCCCCCCCCCCC(=O)[O-]
REMARK SMILES IDX 12 1 11 2 10 3 9 4 8 5 7 6 6 7 5 8 4 9 3 10 2 11 1 12 13 13
REMARK SMILES IDX 14 14 15 15 16 16 17 17 18 18 19 19 20 20 21 21 22 22 23 23
REMARK SMILES IDX 24 24
REMARK H PARENT
REMARK Flexibility Score: inf
ROOT
ATOM      1  C   UNL     1      11.163 -14.957  36.550  1.00  0.00     0.000 C 
ENDROOT
BRANCH   1   2
ATOM      2  C   UNL     1      11.888 -13.854  37.337  1.00  0.00     0.000 C 
BRANCH   2   3
ATOM      3  C   UNL     1      13.288 -13.552  36.773  1.00  0.00     0.000 C 
BRANCH   3   4
ATOM      4  C   UNL     1      13.272 -13.278  35.260  1.00  0.00    -0.000 C 
BRANCH   4   5
ATOM      5  C   UNL     1      14.195 -12.112  34.866  1.00  0.00    -0.000 C 
BRANCH   5   6
ATOM      6  C   UNL     1      13.417 -10.866  34.412  1.00  0.00    -0.000 C 
BRANCH   6   7
ATOM      7  C   UNL     1      11.913 -10.955  34.733  1.00  0.00    -0.000 C 
BRANCH   7   8
ATOM      8  C   UNL     1      11.422  -9.743  35.542  1.00  0.00    -0.000 C 
BRANCH   8   9
ATOM      9  C   UNL     1      12.432  -9.274  36.615  1.00  0.00    -0.000 C 
BRANCH   9  10
ATOM     10  C   UNL     1      12.101  -9.776  38.034  1.00  0.00    -0.000 C 
BRANCH  10  11
ATOM     11  C   UNL     1      13.237 -10.560  38.715  1.00  0.00    -0.003 C 
ATOM     12  C   UNL     1      13.248 -10.384  40.233  1.00  0.00     0.004 C 
ENDBRANCH  10  11
ENDBRANCH   9  10
ENDBRANCH   8   9
ENDBRANCH   7   8
ENDBRANCH   6   7
ENDBRANCH   5   6
ENDBRANCH   4   5
ENDBRANCH   3   4
ENDBRANCH   2   3
ENDBRANCH   1   2
BRANCH   1  13
ATOM     13  C   UNL     1      10.226 -15.796  37.437  1.00  0.00     0.000 C 
BRANCH  13  14
ATOM     14  C   UNL     1       9.729 -15.010  38.670  1.00  0.00     0.000 C 
BRANCH  14  15
ATOM     15  C   UNL     1       8.251 -14.594  38.581  1.00  0.00     0.000 C 
BRANCH  15  16
ATOM     16  C   UNL     1       8.013 -13.148  39.045  1.00  0.00     0.000 C 
BRANCH  16  17
ATOM     17  C   UNL     1       9.126 -12.180  38.602  1.00  0.00     0.000 C 
BRANCH  17  18
ATOM     18  C   UNL     1       9.060 -11.726  37.131  1.00  0.00     0.000 C 
BRANCH  18  19
ATOM     19  C   UNL     1       7.724 -11.089  36.702  1.00  0.00     0.000 C 
BRANCH  19  20
ATOM     20  C   UNL     1       6.870 -11.992  35.785  1.00  0.00     0.006 C 
BRANCH  20  21
ATOM     21  C   UNL     1       7.633 -13.230  35.301  1.00  0.00     0.053 C 
BRANCH  21  22
ATOM     22  C   UNL     1       8.072 -13.052  33.881  1.00  0.00     0.041 C 
ATOM     23  O   UNL     1       8.799 -12.075  33.560  1.00  0.00    -0.550 OA
ATOM     24  O   UNL     1       7.643 -13.941  32.904  1.00  0.00    -0.550 OA
ENDBRANCH  21  22
ENDBRANCH  20  21
ENDBRANCH  19  20
ENDBRANCH  18  19
ENDBRANCH  17  18
ENDBRANCH  16  17
ENDBRANCH  15  16
ENDBRANCH  14  15
ENDBRANCH  13  14
ENDBRANCH   1  13
TORSDOF 20
ENDMDL
MODEL 2
REMARK VINA RESULT:    -5.527      2.244      6.183
REMARK INTER + INTRA:         -15.491
REMARK INTER:                 -12.501
REMARK INTRA:                  -2.990
REMARK UNBOUND:                -3.502
REMARK SMILES CCCCCCCCCCCCCCCCCCCCCC(=O)[O-]
REMARK SMILES IDX 12 1 11 2 10 3 9 4 8 5 7 6 6 7 5 8 4 9 3 10 2 11 1 12 13 13
REMARK SMILES IDX 14 14 15 15 16 16 17 17 18 18 19 19 20 20 21 21 22 22 23 23
REMARK SMILES IDX 24 24
REMARK H PARENT
REMARK Flexibility Score: inf
ROOT
ATOM      1  C   UNL     1      11.811 -13.759  37.274  1.00  0.00     0.000 C 
ENDROOT
BRANCH   1   2
ATOM      2  C   UNL     1      11.132 -14.908  36.512  1.00  0.00     0.000 C 
BRANCH   2   3
ATOM      3  C   UNL     1      10.253 -15.781  37.425  1.00  0.00     0.000 C 
BRANCH   3   4
ATOM      4  C   UNL     1       9.913 -15.093  38.757  1.00  0.00    -0.000 C 
BRANCH   4   5
ATOM      5  C   UNL     1       8.428 -15.238  39.129  1.00  0.00    -0.000 C 
BRANCH   5   6
ATOM      6  C   UNL     1       7.615 -13.966  38.834  1.00  0.00    -0.000 C 
BRANCH   6   7
ATOM      7  C   UNL     1       8.506 -12.743  38.552  1.00  0.00    -0.000 C 
BRANCH   7   8
ATOM      8  C   UNL     1       8.169 -12.079  37.206  1.00  0.00    -0.000 C 
BRANCH   8   9
ATOM      9  C   UNL     1       7.208 -12.919  36.334  1.00  0.00    -0.000 C 
BRANCH   9  10
ATOM     10  C   UNL     1       7.931 -13.829  35.321  1.00  0.00    -0.000 C 
BRANCH  10  11
ATOM     11  C   UNL     1       7.849 -13.351  33.861  1.00  0.00    -0.003 C 
ATOM     12  C   UNL     1       8.671 -12.088  33.607  1.00  0.00     0.004 C 
ENDBRANCH  10  11
ENDBRANCH   9  10
ENDBRANCH   8   9
ENDBRANCH   7   8
ENDBRANCH   6   7
ENDBRANCH   5   6
ENDBRANCH   4   5
ENDBRANCH   3   4
ENDBRANCH   2   3
ENDBRANCH   1   2
BRANCH   1  13
ATOM     13  C   UNL     1      13.252 -13.503  36.796  1.00  0.00     0.000 C 
BRANCH  13  14
ATOM     14  C   UNL     1      13.360 -13.480  35.256  1.00  0.00     0.000 C 
BRANCH  14  15
ATOM     15  C   UNL     1      14.373 -12.451  34.725  1.00  0.00     0.000 C 
BRANCH  15  16
ATOM     16  C   UNL     1      13.844 -11.009  34.790  1.00  0.00     0.000 C 
BRANCH  16  17
ATOM     17  C   UNL     1      12.363 -10.891  34.384  1.00  0.00     0.000 C 
BRANCH  17  18
ATOM     18  C   UNL     1      11.373 -10.688  35.546  1.00  0.00     0.000 C 
BRANCH  18  19
ATOM     19  C   UNL     1      11.220  -9.233  36.029  1.00  0.00     0.000 C 
BRANCH  19  20
ATOM     20  C   UNL     1      12.183  -8.853  37.175  1.00  0.00     0.006 C 
BRANCH  20  21
ATOM     21  C   UNL     1      12.890 -10.071  37.779  1.00  0.00     0.053 C 
BRANCH  21  22
ATOM     22  C   UNL     1      12.398 -10.325  39.169  1.00  0.00     0.041 C 
ATOM     23  O   UNL     1      11.172 -10.521  39.381  1.00  0.00    -0.550 OA
ATOM     24  O   UNL     1      13.287 -10.303  40.237  1.00  0.00    -0.550 OA
ENDBRANCH  21  22
ENDBRANCH  20  21
ENDBRANCH  19  20
ENDBRANCH  18  19
ENDBRANCH  17  18
ENDBRANCH  16  17
ENDBRANCH  15  16
ENDBRANCH  14  15
ENDBRANCH  13  14
ENDBRANCH   1  13
TORSDOF 20
ENDMDL
MODEL 3
REMARK VINA RESULT:    -5.520      0.869      1.493
REMARK INTER + INTRA:         -15.476
REMARK INTER:                 -11.699
REMARK INTRA:                  -3.777
REMARK UNBOUND:                -3.502
REMARK SMILES CCCCCCCCCCCCCCCCCCCCCC(=O)[O-]
REMARK SMILES IDX 12 1 11 2 10 3 9 4 8 5 7 6 6 7 5 8 4 9 3 10 2 11 1 12 13 13
REMARK SMILES IDX 14 14 15 15 16 16 17 17 18 18 19 19 20 20 21 21 22 22 23 23
REMARK SMILES IDX 24 24
REMARK H PARENT
REMARK Flexibility Score: inf
ROOT
ATOM      1  C   UNL     1      12.709 -14.235  37.368  1.00  0.00     0.000 C 
ENDROOT
BRANCH   1   2
ATOM      2  C   UNL     1      13.679 -13.242  36.708  1.00  0.00     0.000 C 
BRANCH   2   3
ATOM      3  C   UNL     1      13.860 -13.509  35.203  1.00  0.00     0.000 C 
BRANCH   3   4
ATOM      4  C   UNL     1      13.979 -12.215  34.381  1.00  0.00    -0.000 C 
BRANCH   4   5
ATOM      5  C   UNL     1      14.002 -10.958  35.268  1.00  0.00    -0.000 C 
BRANCH   5   6
ATOM      6  C   UNL     1      12.823 -10.012  34.987  1.00  0.00    -0.000 C 
BRANCH   6   7
ATOM      7  C   UNL     1      11.499 -10.764  34.757  1.00  0.00    -0.000 C 
BRANCH   7   8
ATOM      8  C   UNL     1      10.856 -11.222  36.077  1.00  0.00    -0.000 C 
BRANCH   8   9
ATOM      9  C   UNL     1      11.005 -10.190  37.219  1.00  0.00    -0.000 C 
BRANCH   9  10
ATOM     10  C   UNL     1      11.541 -10.797  38.531  1.00  0.00    -0.000 C 
BRANCH  10  11
ATOM     11  C   UNL     1      13.035 -10.538  38.790  1.00  0.00    -0.003 C 
ATOM     12  C   UNL     1      13.344 -10.299  40.268  1.00  0.00     0.004 C 
ENDBRANCH  10  11
ENDBRANCH   9  10
ENDBRANCH   8   9
ENDBRANCH   7   8
ENDBRANCH   6   7
ENDBRANCH   5   6
ENDBRANCH   4   5
ENDBRANCH   3   4
ENDBRANCH   2   3
ENDBRANCH   1   2
BRANCH   1  13
ATOM     13  C   UNL     1      11.668 -14.791  36.381  1.00  0.00     0.000 C 
BRANCH  13  14
ATOM     14  C   UNL     1      10.519 -15.531  37.099  1.00  0.00     0.000 C 
BRANCH  14  15
ATOM     15  C   UNL     1      10.169 -14.937  38.474  1.00  0.00     0.000 C 
BRANCH  15  16
ATOM     16  C   UNL     1       8.761 -15.330  38.950  1.00  0.00     0.000 C 
BRANCH  16  17
ATOM     17  C   UNL     1       7.747 -14.174  38.856  1.00  0.00     0.000 C 
BRANCH  17  18
ATOM     18  C   UNL     1       8.344 -12.800  38.502  1.00  0.00     0.000 C 
BRANCH  18  19
ATOM     19  C   UNL     1       7.736 -12.123  37.258  1.00  0.00     0.000 C 
BRANCH  19  20
ATOM     20  C   UNL     1       7.124 -13.116  36.246  1.00  0.00     0.006 C 
BRANCH  20  21
ATOM     21  C   UNL     1       8.171 -13.706  35.293  1.00  0.00     0.053 C 
BRANCH  21  22
ATOM     22  C   UNL     1       7.997 -13.148  33.915  1.00  0.00     0.041 C 
ATOM     23  O   UNL     1       8.389 -11.981  33.650  1.00  0.00    -0.550 OA
ATOM     24  O   UNL     1       7.361 -13.901  32.936  1.00  0.00    -0.550 OA
ENDBRANCH  21  22
ENDBRANCH  20  21
ENDBRANCH  19  20
ENDBRANCH  18  19
ENDBRANCH  17  18
ENDBRANCH  16  17
ENDBRANCH  15  16
ENDBRANCH  14  15
ENDBRANCH  13  14
ENDBRANCH   1  13
TORSDOF 20
ENDMDL
MODEL 4
REMARK VINA RESULT:    -5.435      2.294      5.521
REMARK INTER + INTRA:         -15.292
REMARK INTER:                 -12.199
REMARK INTRA:                  -3.094
REMARK UNBOUND:                -3.502
REMARK SMILES CCCCCCCCCCCCCCCCCCCCCC(=O)[O-]
REMARK SMILES IDX 12 1 11 2 10 3 9 4 8 5 7 6 6 7 5 8 4 9 3 10 2 11 1 12 13 13
REMARK SMILES IDX 14 14 15 15 16 16 17 17 18 18 19 19 20 20 21 21 22 22 23 23
REMARK SMILES IDX 24 24
REMARK H PARENT
REMARK Flexibility Score: inf
ROOT
ATOM      1  C   UNL     1       7.692 -11.736  37.319  1.00  0.00     0.000 C 
ENDROOT
BRANCH   1   2
ATOM      2  C   UNL     1       8.633 -12.605  38.167  1.00  0.00     0.000 C 
BRANCH   2   3
ATOM      3  C   UNL     1       7.880 -13.686  38.962  1.00  0.00     0.000 C 
BRANCH   3   4
ATOM      4  C   UNL     1       8.594 -15.047  38.936  1.00  0.00    -0.000 C 
BRANCH   4   5
ATOM      5  C   UNL     1      10.069 -14.927  38.518  1.00  0.00    -0.000 C 
BRANCH   5   6
ATOM      6  C   UNL     1      10.387 -15.708  37.232  1.00  0.00    -0.000 C 
BRANCH   6   7
ATOM      7  C   UNL     1      11.588 -15.125  36.464  1.00  0.00    -0.000 C 
BRANCH   7   8
ATOM      8  C   UNL     1      12.537 -14.338  37.385  1.00  0.00    -0.000 C 
BRANCH   8   9
ATOM      9  C   UNL     1      13.346 -13.250  36.642  1.00  0.00    -0.000 C 
BRANCH   9  10
ATOM     10  C   UNL     1      13.469 -13.501  35.126  1.00  0.00    -0.000 C 
BRANCH  10  11
ATOM     11  C   UNL     1      14.648 -12.777  34.453  1.00  0.00    -0.003 C 
ATOM     12  C   UNL     1      14.572 -11.258  34.606  1.00  0.00     0.004 C 
ENDBRANCH  10  11
ENDBRANCH   9  10
ENDBRANCH   8   9
ENDBRANCH   7   8
ENDBRANCH   6   7
ENDBRANCH   5   6
ENDBRANCH   4   5
ENDBRANCH   3   4
ENDBRANCH   2   3
ENDBRANCH   1   2
BRANCH   1  13
ATOM     13  C   UNL     1       6.899 -12.557  36.286  1.00  0.00     0.000 C 
BRANCH  13  14
ATOM     14  C   UNL     1       7.791 -13.572  35.539  1.00  0.00     0.000 C 
BRANCH  14  15
ATOM     15  C   UNL     1       8.087 -13.176  34.082  1.00  0.00     0.000 C 
BRANCH  15  16
ATOM     16  C   UNL     1       8.982 -11.931  33.976  1.00  0.00     0.000 C 
BRANCH  16  17
ATOM     17  C   UNL     1      10.288 -12.055  34.784  1.00  0.00     0.000 C 
BRANCH  17  18
ATOM     18  C   UNL     1      11.036 -10.733  35.036  1.00  0.00     0.000 C 
BRANCH  18  19
ATOM     19  C   UNL     1      10.751 -10.069  36.396  1.00  0.00     0.000 C 
BRANCH  19  20
ATOM     20  C   UNL     1      11.941  -9.257  36.954  1.00  0.00     0.006 C 
BRANCH  20  21
ATOM     21  C   UNL     1      12.932 -10.126  37.737  1.00  0.00     0.053 C 
BRANCH  21  22
ATOM     22  C   UNL     1      12.450 -10.334  39.139  1.00  0.00     0.041 C 
ATOM     23  O   UNL     1      11.221 -10.478  39.371  1.00  0.00    -0.550 OA
ATOM     24  O   UNL     1      13.354 -10.325  40.193  1.00  0.00    -0.550 OA
ENDBRANCH  21  22
ENDBRANCH  20  21
ENDBRANCH  19  20
ENDBRANCH  18  19
ENDBRANCH  17  18
ENDBRANCH  16  17
ENDBRANCH  15  16
ENDBRANCH  14  15
ENDBRANCH  13  14
ENDBRANCH   1  13
TORSDOF 20
ENDMDL
MODEL 5
REMARK VINA RESULT:    -5.227      0.792      2.288
REMARK INTER + INTRA:         -14.840
REMARK INTER:                 -11.347
REMARK INTRA:                  -3.493
REMARK UNBOUND:                -3.502
REMARK SMILES CCCCCCCCCCCCCCCCCCCCCC(=O)[O-]
REMARK SMILES IDX 12 1 11 2 10 3 9 4 8 5 7 6 6 7 5 8 4 9 3 10 2 11 1 12 13 13
REMARK SMILES IDX 14 14 15 15 16 16 17 17 18 18 19 19 20 20 21 21 22 22 23 23
REMARK SMILES IDX 24 24
REMARK H PARENT
REMARK Flexibility Score: inf
ROOT
ATOM      1  C   UNL     1      11.201 -14.522  36.475  1.00  0.00     0.000 C 
ENDROOT
BRANCH   1   2
ATOM      2  C   UNL     1      12.605 -14.821  37.024  1.00  0.00     0.000 C 
BRANCH   2   3
ATOM      3  C   UNL     1      13.273 -13.580  37.640  1.00  0.00     0.000 C 
BRANCH   3   4
ATOM      4  C   UNL     1      12.286 -12.422  37.861  1.00  0.00    -0.000 C 
BRANCH   4   5
ATOM      5  C   UNL     1      12.987 -11.134  38.327  1.00  0.00    -0.000 C 
BRANCH   5   6
ATOM      6  C   UNL     1      12.056  -9.910  38.302  1.00  0.00    -0.000 C 
BRANCH   6   7
ATOM      7  C   UNL     1      12.196  -9.084  37.010  1.00  0.00    -0.000 C 
BRANCH   7   8
ATOM      8  C   UNL     1      11.160  -9.490  35.948  1.00  0.00    -0.000 C 
BRANCH   8   9
ATOM      9  C   UNL     1      11.796 -10.072  34.665  1.00  0.00    -0.000 C 
BRANCH   9  10
ATOM     10  C   UNL     1      12.080 -11.585  34.750  1.00  0.00    -0.000 C 
BRANCH  10  11
ATOM     11  C   UNL     1      13.544 -11.975  34.482  1.00  0.00    -0.003 C 
ATOM     12  C   UNL     1      14.520 -10.836  34.771  1.00  0.00     0.004 C 
ENDBRANCH  10  11
ENDBRANCH   9  10
ENDBRANCH   8   9
ENDBRANCH   7   8
ENDBRANCH   6   7
ENDBRANCH   5   6
ENDBRANCH   4   5
ENDBRANCH   3   4
ENDBRANCH   2   3
ENDBRANCH   1   2
BRANCH   1  13
ATOM     13  C   UNL     1      10.115 -15.404  37.116  1.00  0.00     0.000 C 
BRANCH  13  14
ATOM     14  C   UNL     1       9.901 -15.073  38.609  1.00  0.00     0.000 C 
BRANCH  14  15
ATOM     15  C   UNL     1       8.430 -15.152  39.052  1.00  0.00     0.000 C 
BRANCH  15  16
ATOM     16  C   UNL     1       7.629 -13.894  38.678  1.00  0.00     0.000 C 
BRANCH  16  17
ATOM     17  C   UNL     1       8.458 -12.600  38.774  1.00  0.00     0.000 C 
BRANCH  17  18
ATOM     18  C   UNL     1       8.797 -11.931  37.430  1.00  0.00     0.000 C 
BRANCH  18  19
ATOM     19  C   UNL     1       7.671 -11.070  36.824  1.00  0.00     0.000 C 
BRANCH  19  20
ATOM     20  C   UNL     1       6.950 -11.737  35.633  1.00  0.00     0.006 C 
BRANCH  20  21
ATOM     21  C   UNL     1       7.593 -13.068  35.225  1.00  0.00     0.053 C 
BRANCH  21  22
ATOM     22  C   UNL     1       8.117 -12.988  33.826  1.00  0.00     0.041 C 
ATOM     23  O   UNL     1       8.892 -12.053  33.492  1.00  0.00    -0.550 OA
ATOM     24  O   UNL     1       7.717 -13.922  32.879  1.00  0.00    -0.550 OA
ENDBRANCH  21  22
ENDBRANCH  20  21
ENDBRANCH  19  20
ENDBRANCH  18  19
ENDBRANCH  17  18
ENDBRANCH  16  17
ENDBRANCH  15  16
ENDBRANCH  14  15
ENDBRANCH  13  14
ENDBRANCH   1  13
TORSDOF 20
ENDMDL
MODEL 6
REMARK VINA RESULT:    -5.135      1.114      5.026
REMARK INTER + INTRA:         -14.641
REMARK INTER:                 -11.062
REMARK INTRA:                  -3.579
REMARK UNBOUND:                -3.502
REMARK SMILES CCCCCCCCCCCCCCCCCCCCCC(=O)[O-]
REMARK SMILES IDX 12 1 11 2 10 3 9 4 8 5 7 6 6 7 5 8 4 9 3 10 2 11 1 12 13 13
REMARK SMILES IDX 14 14 15 15 16 16 17 17 18 18 19 19 20 20 21 21 22 22 23 23
REMARK SMILES IDX 24 24
REMARK H PARENT
REMARK Flexibility Score: inf
ROOT
ATOM      1  C   UNL     1      10.658 -11.730  38.496  1.00  0.00     0.000 C 
ENDROOT
BRANCH   1   2
ATOM      2  C   UNL     1       9.205 -11.633  38.007  1.00  0.00     0.000 C 
BRANCH   2   3
ATOM      3  C   UNL     1       8.242 -12.490  38.847  1.00  0.00     0.000 C 
BRANCH   3   4
ATOM      4  C   UNL     1       7.898 -13.829  38.173  1.00  0.00    -0.000 C 
BRANCH   4   5
ATOM      5  C   UNL     1       8.502 -15.032  38.918  1.00  0.00    -0.000 C 
BRANCH   5   6
ATOM      6  C   UNL     1      10.001 -15.217  38.630  1.00  0.00    -0.000 C 
BRANCH   6   7
ATOM      7  C   UNL     1      10.275 -15.692  37.191  1.00  0.00    -0.000 C 
BRANCH   7   8
ATOM      8  C   UNL     1      11.337 -14.829  36.489  1.00  0.00    -0.000 C 
BRANCH   8   9
ATOM      9  C   UNL     1      12.531 -14.466  37.402  1.00  0.00    -0.000 C 
BRANCH   9  10
ATOM     10  C   UNL     1      13.780 -14.002  36.628  1.00  0.00    -0.000 C 
BRANCH  10  11
ATOM     11  C   UNL     1      13.506 -13.564  35.179  1.00  0.00    -0.003 C 
ATOM     12  C   UNL     1      14.429 -12.435  34.720  1.00  0.00     0.004 C 
ENDBRANCH  10  11
ENDBRANCH   9  10
ENDBRANCH   8   9
ENDBRANCH   7   8
ENDBRANCH   6   7
ENDBRANCH   5   6
ENDBRANCH   4   5
ENDBRANCH   3   4
ENDBRANCH   2   3
ENDBRANCH   1   2
BRANCH   1  13
ATOM     13  C   UNL     1      11.094 -10.497  39.306  1.00  0.00     0.000 C 
BRANCH  13  14
ATOM     14  C   UNL     1      12.575 -10.133  39.065  1.00  0.00     0.000 C 
BRANCH  14  15
ATOM     15  C   UNL     1      13.170 -10.781  37.803  1.00  0.00     0.000 C 
BRANCH  15  16
ATOM     16  C   UNL     1      13.371  -9.775  36.659  1.00  0.00     0.000 C 
BRANCH  16  17
ATOM     17  C   UNL     1      12.167  -8.836  36.461  1.00  0.00     0.000 C 
BRANCH  17  18
ATOM     18  C   UNL     1      10.985  -9.435  35.676  1.00  0.00     0.000 C 
BRANCH  18  19
ATOM     19  C   UNL     1      11.356 -10.555  34.686  1.00  0.00     0.000 C 
BRANCH  19  20
ATOM     20  C   UNL     1      10.500 -11.831  34.840  1.00  0.00     0.006 C 
BRANCH  20  21
ATOM     21  C   UNL     1       9.242 -11.807  33.963  1.00  0.00     0.053 C 
BRANCH  21  22
ATOM     22  C   UNL     1       8.128 -12.554  34.626  1.00  0.00     0.041 C 
ATOM     23  O   UNL     1       8.086 -13.811  34.568  1.00  0.00    -0.550 OA
ATOM     24  O   UNL     1       7.112 -11.860  35.271  1.00  0.00    -0.550 OA
ENDBRANCH  21  22
ENDBRANCH  20  21
ENDBRANCH  19  20
ENDBRANCH  18  19
ENDBRANCH  17  18
ENDBRANCH  16  17
ENDBRANCH  15  16
ENDBRANCH  14  15
ENDBRANCH  13  14
ENDBRANCH   1  13
TORSDOF 20
ENDMDL
MODEL 7
REMARK VINA RESULT:    -5.118      2.336      5.962
REMARK INTER + INTRA:         -14.604
REMARK INTER:                 -11.270
REMARK INTRA:                  -3.334
REMARK UNBOUND:                -3.502
REMARK SMILES CCCCCCCCCCCCCCCCCCCCCC(=O)[O-]
REMARK SMILES IDX 12 1 11 2 10 3 9 4 8 5 7 6 6 7 5 8 4 9 3 10 2 11 1 12 13 13
REMARK SMILES IDX 14 14 15 15 16 16 17 17 18 18 19 19 20 20 21 21 22 22 23 23
REMARK SMILES IDX 24 24
REMARK H PARENT
REMARK Flexibility Score: inf
ROOT
ATOM      1  C   UNL     1      10.270 -15.656  37.158  1.00  0.00     0.000 C 
ENDROOT
BRANCH   1   2
ATOM      2  C   UNL     1       9.953 -14.965  38.493  1.00  0.00     0.000 C 
BRANCH   2   3
ATOM      3  C   UNL     1       8.483 -15.144  38.914  1.00  0.00     0.000 C 
BRANCH   3   4
ATOM      4  C   UNL     1       7.664 -13.851  38.770  1.00  0.00    -0.000 C 
BRANCH   4   5
ATOM      5  C   UNL     1       8.555 -12.606  38.615  1.00  0.00    -0.000 C 
BRANCH   5   6
ATOM      6  C   UNL     1       7.915 -11.525  37.728  1.00  0.00    -0.000 C 
BRANCH   6   7
ATOM      7  C   UNL     1       8.919 -10.891  36.747  1.00  0.00    -0.000 C 
BRANCH   7   8
ATOM      8  C   UNL     1       9.892 -11.929  36.162  1.00  0.00    -0.000 C 
BRANCH   8   9
ATOM      9  C   UNL     1       9.901 -11.954  34.616  1.00  0.00    -0.000 C 
BRANCH   9  10
ATOM     10  C   UNL     1       8.523 -12.263  33.997  1.00  0.00    -0.000 C 
BRANCH  10  11
ATOM     11  C   UNL     1       8.028 -13.701  34.230  1.00  0.00    -0.003 C 
ATOM     12  C   UNL     1       6.989 -13.794  35.346  1.00  0.00     0.004 C 
ENDBRANCH  10  11
ENDBRANCH   9  10
ENDBRANCH   8   9
ENDBRANCH   7   8
ENDBRANCH   6   7
ENDBRANCH   5   6
ENDBRANCH   4   5
ENDBRANCH   3   4
ENDBRANCH   2   3
ENDBRANCH   1   2
BRANCH   1  13
ATOM     13  C   UNL     1      11.441 -14.992  36.412  1.00  0.00     0.000 C 
BRANCH  13  14
ATOM     14  C   UNL     1      12.605 -14.629  37.360  1.00  0.00     0.000 C 
BRANCH  14  15
ATOM     15  C   UNL     1      13.560 -13.569  36.785  1.00  0.00     0.000 C 
BRANCH  15  16
ATOM     16  C   UNL     1      13.215 -13.184  35.337  1.00  0.00     0.000 C 
BRANCH  16  17
ATOM     17  C   UNL     1      14.282 -12.288  34.680  1.00  0.00     0.000 C 
BRANCH  17  18
ATOM     18  C   UNL     1      14.242 -10.804  35.088  1.00  0.00     0.000 C 
BRANCH  18  19
ATOM     19  C   UNL     1      12.834 -10.236  35.351  1.00  0.00     0.000 C 
BRANCH  19  20
ATOM     20  C   UNL     1      12.660  -9.634  36.763  1.00  0.00     0.006 C 
BRANCH  20  21
ATOM     21  C   UNL     1      13.418 -10.422  37.837  1.00  0.00     0.053 C 
BRANCH  21  22
ATOM     22  C   UNL     1      12.706 -10.335  39.150  1.00  0.00     0.041 C 
ATOM     23  O   UNL     1      11.447 -10.307  39.188  1.00  0.00    -0.550 OA
ATOM     24  O   UNL     1      13.432 -10.241  40.331  1.00  0.00    -0.550 OA
ENDBRANCH  21  22
ENDBRANCH  20  21
ENDBRANCH  19  20
ENDBRANCH  18  19
ENDBRANCH  17  18
ENDBRANCH  16  17
ENDBRANCH  15  16
ENDBRANCH  14  15
ENDBRANCH  13  14
ENDBRANCH   1  13
TORSDOF 20
ENDMDL
MODEL 8
REMARK VINA RESULT:    -5.090      2.358      4.916
REMARK INTER + INTRA:         -14.542
REMARK INTER:                 -11.463
REMARK INTRA:                  -3.079
REMARK UNBOUND:                -3.502
REMARK SMILES CCCCCCCCCCCCCCCCCCCCCC(=O)[O-]
REMARK SMILES IDX 12 1 11 2 10 3 9 4 8 5 7 6 6 7 5 8 4 9 3 10 2 11 1 12 13 13
REMARK SMILES IDX 14 14 15 15 16 16 17 17 18 18 19 19 20 20 21 21 22 22 23 23
REMARK SMILES IDX 24 24
REMARK H PARENT
REMARK Flexibility Score: inf
ROOT
ATOM      1  C   UNL     1       7.985 -12.106  37.483  1.00  0.00     0.000 C 
ENDROOT
BRANCH   1   2
ATOM      2  C   UNL     1       7.189 -12.975  36.496  1.00  0.00     0.000 C 
BRANCH   2   3
ATOM      3  C   UNL     1       8.092 -13.678  35.468  1.00  0.00     0.000 C 
BRANCH   3   4
ATOM      4  C   UNL     1       7.875 -13.163  34.037  1.00  0.00    -0.000 C 
BRANCH   4   5
ATOM      5  C   UNL     1       8.868 -12.051  33.657  1.00  0.00    -0.000 C 
BRANCH   5   6
ATOM      6  C   UNL     1       9.994 -11.882  34.691  1.00  0.00    -0.000 C 
BRANCH   6   7
ATOM      7  C   UNL     1      11.017 -10.805  34.285  1.00  0.00    -0.000 C 
BRANCH   7   8
ATOM      8  C   UNL     1      11.531 -10.010  35.498  1.00  0.00    -0.000 C 
BRANCH   8   9
ATOM      9  C   UNL     1      13.074  -9.910  35.553  1.00  0.00    -0.000 C 
BRANCH   9  10
ATOM     10  C   UNL     1      13.784 -10.769  34.488  1.00  0.00    -0.000 C 
BRANCH  10  11
ATOM     11  C   UNL     1      14.674 -11.886  35.060  1.00  0.00    -0.003 C 
ATOM     12  C   UNL     1      14.329 -13.263  34.493  1.00  0.00     0.004 C 
ENDBRANCH  10  11
ENDBRANCH   9  10
ENDBRANCH   8   9
ENDBRANCH   7   8
ENDBRANCH   6   7
ENDBRANCH   5   6
ENDBRANCH   4   5
ENDBRANCH   3   4
ENDBRANCH   2   3
ENDBRANCH   1   2
BRANCH   1  13
ATOM     13  C   UNL     1       8.488 -12.903  38.700  1.00  0.00     0.000 C 
BRANCH  13  14
ATOM     14  C   UNL     1       7.721 -14.230  38.885  1.00  0.00     0.000 C 
BRANCH  14  15
ATOM     15  C   UNL     1       8.634 -15.466  38.939  1.00  0.00     0.000 C 
BRANCH  15  16
ATOM     16  C   UNL     1      10.102 -15.134  38.627  1.00  0.00     0.000 C 
BRANCH  16  17
ATOM     17  C   UNL     1      10.531 -15.560  37.211  1.00  0.00     0.000 C 
BRANCH  17  18
ATOM     18  C   UNL     1      11.464 -14.578  36.479  1.00  0.00     0.000 C 
BRANCH  18  19
ATOM     19  C   UNL     1      12.485 -13.853  37.377  1.00  0.00     0.000 C 
BRANCH  19  20
ATOM     20  C   UNL     1      12.052 -12.430  37.789  1.00  0.00     0.006 C 
BRANCH  20  21
ATOM     21  C   UNL     1      13.211 -11.600  38.353  1.00  0.00     0.053 C 
BRANCH  21  22
ATOM     22  C   UNL     1      12.697 -10.554  39.291  1.00  0.00     0.041 C 
ATOM     23  O   UNL     1      13.446 -10.084  40.188  1.00  0.00    -0.550 OA
ATOM     24  O   UNL     1      11.377 -10.129  39.202  1.00  0.00    -0.550 OA
ENDBRANCH  21  22
ENDBRANCH  20  21
ENDBRANCH  19  20
ENDBRANCH  18  19
ENDBRANCH  17  18
ENDBRANCH  16  17
ENDBRANCH  15  16
ENDBRANCH  14  15
ENDBRANCH  13  14
ENDBRANCH   1  13
TORSDOF 20
ENDMDL
MODEL 9
REMARK VINA RESULT:    -4.894      2.336      6.441
REMARK INTER + INTRA:         -14.118
REMARK INTER:                 -11.264
REMARK INTRA:                  -2.854
REMARK UNBOUND:                -3.502
REMARK SMILES CCCCCCCCCCCCCCCCCCCCCC(=O)[O-]
REMARK SMILES IDX 12 1 11 2 10 3 9 4 8 5 7 6 6 7 5 8 4 9 3 10 2 11 1 12 13 13
REMARK SMILES IDX 14 14 15 15 16 16 17 17 18 18 19 19 20 20 21 21 22 22 23 23
REMARK SMILES IDX 24 24
REMARK H PARENT
REMARK Flexibility Score: inf
ROOT
ATOM      1  C   UNL     1      10.290 -12.049  34.727  1.00  0.00     0.000 C 
ENDROOT
BRANCH   1   2
ATOM      2  C   UNL     1       8.948 -12.027  33.977  1.00  0.00     0.000 C 
BRANCH   2   3
ATOM      3  C   UNL     1       8.088 -13.269  34.272  1.00  0.00     0.000 C 
BRANCH   3   4
ATOM      4  C   UNL     1       7.187 -13.088  35.504  1.00  0.00    -0.000 C 
BRANCH   4   5
ATOM      5  C   UNL     1       6.897 -11.607  35.806  1.00  0.00    -0.000 C 
BRANCH   5   6
ATOM      6  C   UNL     1       7.261 -11.213  37.247  1.00  0.00    -0.000 C 
BRANCH   6   7
ATOM      7  C   UNL     1       8.533 -11.919  37.754  1.00  0.00    -0.000 C 
BRANCH   7   8
ATOM      8  C   UNL     1       8.275 -12.723  39.040  1.00  0.00    -0.000 C 
BRANCH   8   9
ATOM      9  C   UNL     1       7.678 -14.124  38.775  1.00  0.00    -0.000 C 
BRANCH   9  10
ATOM     10  C   UNL     1       8.727 -15.253  38.785  1.00  0.00    -0.000 C 
BRANCH  10  11
ATOM     11  C   UNL     1      10.094 -14.858  38.200  1.00  0.00    -0.003 C 
ATOM     12  C   UNL     1      10.247 -15.260  36.734  1.00  0.00     0.004 C 
ENDBRANCH  10  11
ENDBRANCH   9  10
ENDBRANCH   8   9
ENDBRANCH   7   8
ENDBRANCH   6   7
ENDBRANCH   5   6
ENDBRANCH   4   5
ENDBRANCH   3   4
ENDBRANCH   2   3
ENDBRANCH   1   2
BRANCH   1  13
ATOM     13  C   UNL     1      10.633 -10.692  35.365  1.00  0.00     0.000 C 
BRANCH  13  14
ATOM     14  C   UNL     1      11.753  -9.954  34.599  1.00  0.00     0.000 C 
BRANCH  14  15
ATOM     15  C   UNL     1      13.169 -10.312  35.082  1.00  0.00     0.000 C 
BRANCH  15  16
ATOM     16  C   UNL     1      13.890 -11.285  34.135  1.00  0.00     0.000 C 
BRANCH  16  17
ATOM     17  C   UNL     1      14.343 -12.582  34.832  1.00  0.00     0.000 C 
BRANCH  17  18
ATOM     18  C   UNL     1      13.221 -13.399  35.500  1.00  0.00     0.000 C 
BRANCH  18  19
ATOM     19  C   UNL     1      13.323 -13.518  37.033  1.00  0.00     0.000 C 
BRANCH  19  20
ATOM     20  C   UNL     1      12.484 -12.469  37.795  1.00  0.00     0.006 C 
BRANCH  20  21
ATOM     21  C   UNL     1      13.290 -11.213  38.148  1.00  0.00     0.053 C 
BRANCH  21  22
ATOM     22  C   UNL     1      12.666 -10.499  39.305  1.00  0.00     0.041 C 
ATOM     23  O   UNL     1      13.380 -10.098  40.262  1.00  0.00    -0.550 OA
ATOM     24  O   UNL     1      11.290 -10.316  39.349  1.00  0.00    -0.550 OA
ENDBRANCH  21  22
ENDBRANCH  20  21
ENDBRANCH  19  20
ENDBRANCH  18  19
ENDBRANCH  17  18
ENDBRANCH  16  17
ENDBRANCH  15  16
ENDBRANCH  14  15
ENDBRANCH  13  14
ENDBRANCH   1  13
TORSDOF 20
ENDMDL
