MODEL 1
REMARK VINA RESULT:    -3.003      0.000      0.000
REMARK INTER + INTRA:          -8.104
REMARK INTER:                  -5.637
REMARK INTRA:                  -2.467
REMARK UNBOUND:                -2.467
REMARK SMILES O=C([O-])CCCCCCCCCCCCCCC(=O)[O-]
REMARK SMILES IDX 10 1 9 2 8 3 7 4 6 5 5 6 4 7 2 8 1 9 3 10 11 11 12 12 13 13
REMARK SMILES IDX 14 14 15 15 16 16 17 17 18 18 19 19 20 20
REMARK H PARENT
REMARK Flexibility Score: inf
ROOT
ATOM      1  C   UNL     1     164.765 170.451 151.697  1.00  0.00     0.000 C 
ENDROOT
BRANCH   1   2
ATOM      2  C   UNL     1     165.701 170.922 152.821  1.00  0.00     0.000 C 
BRANCH   2   3
ATOM      3  C   UNL     1     166.441 169.756 153.500  1.00  0.00     0.000 C 
BRANCH   3   4
ATOM      4  C   UNL     1     167.647 169.266 152.682  1.00  0.00     0.000 C 
BRANCH   4   5
ATOM      5  C   UNL     1     168.581 170.412 152.265  1.00  0.00     0.000 C 
BRANCH   5   6
ATOM      6  C   UNL     1     168.863 170.367 150.756  1.00  0.00     0.006 C 
BRANCH   6   7
ATOM      7  C   UNL     1     169.628 169.102 150.345  1.00  0.00     0.053 C 
BRANCH   7   8
ATOM      8  C   UNL     1     169.752 168.986 148.855  1.00  0.00     0.041 C 
ATOM      9  O   UNL     1     170.842 169.260 148.287  1.00  0.00    -0.550 OA
ATOM     10  O   UNL     1     168.674 168.543 148.100  1.00  0.00    -0.550 OA
ENDBRANCH   7   8
ENDBRANCH   6   7
ENDBRANCH   5   6
ENDBRANCH   4   5
ENDBRANCH   3   4
ENDBRANCH   2   3
ENDBRANCH   1   2
BRANCH   1  11
ATOM     11  C   UNL     1     165.080 171.121 150.348  1.00  0.00     0.000 C 
BRANCH  11  12
ATOM     12  C   UNL     1     165.419 170.103 149.248  1.00  0.00     0.000 C 
BRANCH  12  13
ATOM     13  C   UNL     1     165.567 168.674 149.791  1.00  0.00     0.000 C 
BRANCH  13  14
ATOM     14  C   UNL     1     164.469 167.759 149.235  1.00  0.00     0.000 C 
BRANCH  14  15
ATOM     15  C   UNL     1     163.708 167.060 150.368  1.00  0.00     0.000 C 
BRANCH  15  16
ATOM     16  C   UNL     1     164.674 166.559 151.452  1.00  0.00     0.006 C 
BRANCH  16  17
ATOM     17  C   UNL     1     164.187 166.903 152.866  1.00  0.00     0.053 C 
BRANCH  17  18
ATOM     18  C   UNL     1     165.066 166.297 153.918  1.00  0.00     0.041 C 
ATOM     19  O   UNL     1     166.280 166.069 153.676  1.00  0.00    -0.550 OA
ATOM     20  O   UNL     1     164.550 166.016 155.177  1.00  0.00    -0.550 OA
ENDBRANCH  17  18
ENDBRANCH  16  17
ENDBRANCH  15  16
ENDBRANCH  14  15
ENDBRANCH  13  14
ENDBRANCH  12  13
ENDBRANCH  11  12
ENDBRANCH   1  11
TORSDOF 15
ENDMDL
MODEL 2
REMARK VINA RESULT:    -2.999     13.378     15.689
REMARK INTER + INTRA:          -8.096
REMARK INTER:                  -5.432
REMARK INTRA:                  -2.664
REMARK UNBOUND:                -2.467
REMARK SMILES O=C([O-])CCCCCCCCCCCCCCC(=O)[O-]
REMARK SMILES IDX 10 1 9 2 8 3 7 4 6 5 5 6 4 7 2 8 1 9 3 10 11 11 12 12 13 13
REMARK SMILES IDX 14 14 15 15 16 16 17 17 18 18 19 19 20 20
REMARK H PARENT
REMARK Flexibility Score: inf
ROOT
ATOM      1  C   UNL     1     169.633 154.686 151.782  1.00  0.00     0.000 C 
ENDROOT
BRANCH   1   2
ATOM      2  C   UNL     1     170.842 154.622 150.835  1.00  0.00     0.000 C 
BRANCH   2   3
ATOM      3  C   UNL     1     172.066 155.372 151.391  1.00  0.00     0.000 C 
BRANCH   3   4
ATOM      4  C   UNL     1     171.681 156.468 152.397  1.00  0.00     0.000 C 
BRANCH   4   5
ATOM      5  C   UNL     1     172.451 156.350 153.721  1.00  0.00     0.000 C 
BRANCH   5   6
ATOM      6  C   UNL     1     171.504 155.991 154.875  1.00  0.00     0.006 C 
BRANCH   6   7
ATOM      7  C   UNL     1     170.172 156.748 154.791  1.00  0.00     0.053 C 
BRANCH   7   8
ATOM      8  C   UNL     1     170.228 158.057 155.519  1.00  0.00     0.041 C 
ATOM      9  O   UNL     1     169.388 158.960 155.265  1.00  0.00    -0.550 OA
ATOM     10  O   UNL     1     171.187 158.266 156.502  1.00  0.00    -0.550 OA
ENDBRANCH   7   8
ENDBRANCH   6   7
ENDBRANCH   5   6
ENDBRANCH   4   5
ENDBRANCH   3   4
ENDBRANCH   2   3
ENDBRANCH   1   2
BRANCH   1  11
ATOM     11  C   UNL     1     169.636 153.549 152.819  1.00  0.00     0.000 C 
BRANCH  11  12
ATOM     12  C   UNL     1     170.289 152.265 152.286  1.00  0.00     0.000 C 
BRANCH  12  13
ATOM     13  C   UNL     1     171.247 151.624 153.301  1.00  0.00     0.000 C 
BRANCH  13  14
ATOM     14  C   UNL     1     172.497 152.490 153.500  1.00  0.00     0.000 C 
BRANCH  14  15
ATOM     15  C   UNL     1     172.907 152.535 154.976  1.00  0.00     0.000 C 
BRANCH  15  16
ATOM     16  C   UNL     1     171.897 151.776 155.851  1.00  0.00     0.006 C 
BRANCH  16  17
ATOM     17  C   UNL     1     171.140 152.709 156.806  1.00  0.00     0.053 C 
BRANCH  17  18
ATOM     18  C   UNL     1     169.674 152.745 156.499  1.00  0.00     0.041 C 
ATOM     19  O   UNL     1     169.061 151.686 156.204  1.00  0.00    -0.550 OA
ATOM     20  O   UNL     1     168.979 153.946 156.572  1.00  0.00    -0.550 OA
ENDBRANCH  17  18
ENDBRANCH  16  17
ENDBRANCH  15  16
ENDBRANCH  14  15
ENDBRANCH  13  14
ENDBRANCH  12  13
ENDBRANCH  11  12
ENDBRANCH   1  11
TORSDOF 15
ENDMDL
MODEL 3
REMARK VINA RESULT:    -2.831      2.001      2.742
REMARK INTER + INTRA:          -7.780
REMARK INTER:                  -5.709
REMARK INTRA:                  -2.071
REMARK UNBOUND:                -2.467
REMARK SMILES O=C([O-])CCCCCCCCCCCCCCC(=O)[O-]
REMARK SMILES IDX 10 1 9 2 8 3 7 4 6 5 5 6 4 7 2 8 1 9 3 10 11 11 12 12 13 13
REMARK SMILES IDX 14 14 15 15 16 16 17 17 18 18 19 19 20 20
REMARK H PARENT
REMARK Flexibility Score: inf
ROOT
ATOM      1  C   UNL     1     166.701 170.573 149.566  1.00  0.00     0.000 C 
ENDROOT
BRANCH   1   2
ATOM      2  C   UNL     1     166.856 171.123 150.992  1.00  0.00     0.000 C 
BRANCH   2   3
ATOM      3  C   UNL     1     168.067 170.522 151.728  1.00  0.00     0.000 C 
BRANCH   3   4
ATOM      4  C   UNL     1     168.348 169.068 151.314  1.00  0.00     0.000 C 
BRANCH   4   5
ATOM      5  C   UNL     1     169.760 168.882 150.738  1.00  0.00     0.000 C 
BRANCH   5   6
ATOM      6  C   UNL     1     170.406 170.239 150.421  1.00  0.00     0.006 C 
BRANCH   6   7
ATOM      7  C   UNL     1     171.621 170.101 149.494  1.00  0.00     0.053 C 
BRANCH   7   8
ATOM      8  C   UNL     1     171.322 169.232 148.309  1.00  0.00     0.041 C 
ATOM      9  O   UNL     1     171.866 168.102 148.198  1.00  0.00    -0.550 OA
ATOM     10  O   UNL     1     170.416 169.658 147.346  1.00  0.00    -0.550 OA
ENDBRANCH   7   8
ENDBRANCH   6   7
ENDBRANCH   5   6
ENDBRANCH   4   5
ENDBRANCH   3   4
ENDBRANCH   2   3
ENDBRANCH   1   2
BRANCH   1  11
ATOM     11  C   UNL     1     165.267 170.099 149.270  1.00  0.00     0.000 C 
BRANCH  11  12
ATOM     12  C   UNL     1     165.188 168.590 148.995  1.00  0.00     0.000 C 
BRANCH  12  13
ATOM     13  C   UNL     1     165.053 167.761 150.282  1.00  0.00     0.000 C 
BRANCH  13  14
ATOM     14  C   UNL     1     164.072 168.420 151.259  1.00  0.00     0.000 C 
BRANCH  14  15
ATOM     15  C   UNL     1     164.693 168.559 152.653  1.00  0.00     0.000 C 
BRANCH  15  16
ATOM     16  C   UNL     1     164.373 169.931 153.265  1.00  0.00     0.006 C 
BRANCH  16  17
ATOM     17  C   UNL     1     165.340 170.303 154.396  1.00  0.00     0.053 C 
BRANCH  17  18
ATOM     18  C   UNL     1     164.807 169.900 155.737  1.00  0.00     0.041 C 
ATOM     19  O   UNL     1     165.592 169.714 156.703  1.00  0.00    -0.550 OA
ATOM     20  O   UNL     1     163.437 169.762 155.927  1.00  0.00    -0.550 OA
ENDBRANCH  17  18
ENDBRANCH  16  17
ENDBRANCH  15  16
ENDBRANCH  14  15
ENDBRANCH  13  14
ENDBRANCH  12  13
ENDBRANCH  11  12
ENDBRANCH   1  11
TORSDOF 15
ENDMDL
MODEL 4
REMARK VINA RESULT:    -2.806     14.106     16.269
REMARK INTER + INTRA:          -7.735
REMARK INTER:                  -5.634
REMARK INTRA:                  -2.100
REMARK UNBOUND:                -2.467
REMARK SMILES O=C([O-])CCCCCCCCCCCCCCC(=O)[O-]
REMARK SMILES IDX 10 1 9 2 8 3 7 4 6 5 5 6 4 7 2 8 1 9 3 10 11 11 12 12 13 13
REMARK SMILES IDX 14 14 15 15 16 16 17 17 18 18 19 19 20 20
REMARK H PARENT
REMARK Flexibility Score: inf
ROOT
ATOM      1  C   UNL     1     170.463 151.962 154.489  1.00  0.00     0.000 C 
ENDROOT
BRANCH   1   2
ATOM      2  C   UNL     1     170.895 151.106 155.690  1.00  0.00     0.000 C 
BRANCH   2   3
ATOM      3  C   UNL     1     172.192 151.617 156.342  1.00  0.00     0.000 C 
BRANCH   3   4
ATOM      4  C   UNL     1     172.078 153.074 156.821  1.00  0.00     0.000 C 
BRANCH   4   5
ATOM      5  C   UNL     1     173.125 153.991 156.171  1.00  0.00     0.000 C 
BRANCH   5   6
ATOM      6  C   UNL     1     172.543 155.389 155.914  1.00  0.00     0.006 C 
BRANCH   6   7
ATOM      7  C   UNL     1     171.533 155.394 154.758  1.00  0.00     0.053 C 
BRANCH   7   8
ATOM      8  C   UNL     1     172.026 156.198 153.592  1.00  0.00     0.041 C 
ATOM      9  O   UNL     1     171.482 157.296 153.305  1.00  0.00    -0.550 OA
ATOM     10  O   UNL     1     173.108 155.749 152.845  1.00  0.00    -0.550 OA
ENDBRANCH   7   8
ENDBRANCH   6   7
ENDBRANCH   5   6
ENDBRANCH   4   5
ENDBRANCH   3   4
ENDBRANCH   2   3
ENDBRANCH   1   2
BRANCH   1  11
ATOM     11  C   UNL     1     171.138 151.521 153.178  1.00  0.00     0.000 C 
BRANCH  11  12
ATOM     12  C   UNL     1     172.436 152.293 152.892  1.00  0.00     0.000 C 
BRANCH  12  13
ATOM     13  C   UNL     1     172.750 152.385 151.392  1.00  0.00     0.000 C 
BRANCH  13  14
ATOM     14  C   UNL     1     171.470 152.274 150.555  1.00  0.00     0.000 C 
BRANCH  14  15
ATOM     15  C   UNL     1     171.288 153.506 149.660  1.00  0.00     0.000 C 
BRANCH  15  16
ATOM     16  C   UNL     1     170.775 154.705 150.473  1.00  0.00     0.006 C 
BRANCH  16  17
ATOM     17  C   UNL     1     169.531 154.355 151.300  1.00  0.00     0.053 C 
BRANCH  17  18
ATOM     18  C   UNL     1     168.273 154.824 150.635  1.00  0.00     0.041 C 
ATOM     19  O   UNL     1     167.685 154.089 149.799  1.00  0.00    -0.550 OA
ATOM     20  O   UNL     1     167.732 156.061 150.965  1.00  0.00    -0.550 OA
ENDBRANCH  17  18
ENDBRANCH  16  17
ENDBRANCH  15  16
ENDBRANCH  14  15
ENDBRANCH  13  14
ENDBRANCH  12  13
ENDBRANCH  11  12
ENDBRANCH   1  11
TORSDOF 15
ENDMDL
MODEL 5
REMARK VINA RESULT:    -2.784      2.605      5.001
REMARK INTER + INTRA:          -7.693
REMARK INTER:                  -5.740
REMARK INTRA:                  -1.953
REMARK UNBOUND:                -2.467
REMARK SMILES O=C([O-])CCCCCCCCCCCCCCC(=O)[O-]
REMARK SMILES IDX 10 1 9 2 8 3 7 4 6 5 5 6 4 7 2 8 1 9 3 10 11 11 12 12 13 13
REMARK SMILES IDX 14 14 15 15 16 16 17 17 18 18 19 19 20 20
REMARK H PARENT
REMARK Flexibility Score: inf
ROOT
ATOM      1  C   UNL     1     168.141 169.512 147.841  1.00  0.00     0.000 C 
ENDROOT
BRANCH   1   2
ATOM      2  C   UNL     1     169.305 168.548 148.119  1.00  0.00     0.000 C 
BRANCH   2   3
ATOM      3  C   UNL     1     170.318 169.121 149.126  1.00  0.00     0.000 C 
BRANCH   3   4
ATOM      4  C   UNL     1     169.806 169.070 150.574  1.00  0.00     0.000 C 
BRANCH   4   5
ATOM      5  C   UNL     1     169.520 170.466 151.148  1.00  0.00     0.000 C 
BRANCH   5   6
ATOM      6  C   UNL     1     168.362 170.417 152.156  1.00  0.00     0.006 C 
BRANCH   6   7
ATOM      7  C   UNL     1     167.890 168.982 152.429  1.00  0.00     0.053 C 
BRANCH   7   8
ATOM      8  C   UNL     1     167.076 168.894 153.685  1.00  0.00     0.041 C 
ATOM      9  O   UNL     1     167.468 169.465 154.736  1.00  0.00    -0.550 OA
ATOM     10  O   UNL     1     165.867 168.209 153.684  1.00  0.00    -0.550 OA
ENDBRANCH   7   8
ENDBRANCH   6   7
ENDBRANCH   5   6
ENDBRANCH   4   5
ENDBRANCH   3   4
ENDBRANCH   2   3
ENDBRANCH   1   2
BRANCH   1  11
ATOM     11  C   UNL     1     166.801 168.993 148.393  1.00  0.00     0.000 C 
BRANCH  11  12
ATOM     12  C   UNL     1     166.057 170.048 149.226  1.00  0.00     0.000 C 
BRANCH  12  13
ATOM     13  C   UNL     1     165.023 169.429 150.178  1.00  0.00     0.000 C 
BRANCH  13  14
ATOM     14  C   UNL     1     165.053 167.897 150.100  1.00  0.00     0.000 C 
BRANCH  14  15
ATOM     15  C   UNL     1     163.638 167.314 150.186  1.00  0.00     0.000 C 
BRANCH  15  16
ATOM     16  C   UNL     1     163.393 166.297 149.061  1.00  0.00     0.006 C 
BRANCH  16  17
ATOM     17  C   UNL     1     164.359 166.489 147.884  1.00  0.00     0.053 C 
BRANCH  17  18
ATOM     18  C   UNL     1     163.643 166.457 146.568  1.00  0.00     0.041 C 
ATOM     19  O   UNL     1     164.190 166.927 145.537  1.00  0.00    -0.550 OA
ATOM     20  O   UNL     1     162.384 165.877 146.476  1.00  0.00    -0.550 OA
ENDBRANCH  17  18
ENDBRANCH  16  17
ENDBRANCH  15  16
ENDBRANCH  14  15
ENDBRANCH  13  14
ENDBRANCH  12  13
ENDBRANCH  11  12
ENDBRANCH   1  11
TORSDOF 15
ENDMDL
MODEL 6
REMARK VINA RESULT:    -2.780      7.618     10.357
REMARK INTER + INTRA:          -7.686
REMARK INTER:                  -5.490
REMARK INTRA:                  -2.195
REMARK UNBOUND:                -2.467
REMARK SMILES O=C([O-])CCCCCCCCCCCCCCC(=O)[O-]
REMARK SMILES IDX 10 1 9 2 8 3 7 4 6 5 5 6 4 7 2 8 1 9 3 10 11 11 12 12 13 13
REMARK SMILES IDX 14 14 15 15 16 16 17 17 18 18 19 19 20 20
REMARK H PARENT
REMARK Flexibility Score: inf
ROOT
ATOM      1  C   UNL     1     167.562 162.927 147.367  1.00  0.00     0.000 C 
ENDROOT
BRANCH   1   2
ATOM      2  C   UNL     1     168.156 161.511 147.385  1.00  0.00     0.000 C 
BRANCH   2   3
ATOM      3  C   UNL     1     169.212 161.328 148.490  1.00  0.00     0.000 C 
BRANCH   3   4
ATOM      4  C   UNL     1     170.604 160.998 147.929  1.00  0.00     0.000 C 
BRANCH   4   5
ATOM      5  C   UNL     1     170.589 160.774 146.409  1.00  0.00     0.000 C 
BRANCH   5   6
ATOM      6  C   UNL     1     172.006 160.506 145.881  1.00  0.00     0.006 C 
BRANCH   6   7
ATOM      7  C   UNL     1     172.364 161.409 144.693  1.00  0.00     0.053 C 
BRANCH   7   8
ATOM      8  C   UNL     1     171.427 161.208 143.540  1.00  0.00     0.041 C 
ATOM      9  O   UNL     1     170.775 162.180 143.076  1.00  0.00    -0.550 OA
ATOM     10  O   UNL     1     171.300 159.953 142.957  1.00  0.00    -0.550 OA
ENDBRANCH   7   8
ENDBRANCH   6   7
ENDBRANCH   5   6
ENDBRANCH   4   5
ENDBRANCH   3   4
ENDBRANCH   2   3
ENDBRANCH   1   2
BRANCH   1  11
ATOM     11  C   UNL     1     168.062 163.761 146.174  1.00  0.00     0.000 C 
BRANCH  11  12
ATOM     12  C   UNL     1     169.196 164.724 146.560  1.00  0.00     0.000 C 
BRANCH  12  13
ATOM     13  C   UNL     1     170.484 164.468 145.764  1.00  0.00     0.000 C 
BRANCH  13  14
ATOM     14  C   UNL     1     171.724 164.750 146.621  1.00  0.00     0.000 C 
BRANCH  14  15
ATOM     15  C   UNL     1     172.982 164.859 145.751  1.00  0.00     0.000 C 
BRANCH  15  16
ATOM     16  C   UNL     1     172.621 165.245 144.308  1.00  0.00     0.006 C 
BRANCH  16  17
ATOM     17  C   UNL     1     173.125 166.647 143.940  1.00  0.00     0.053 C 
BRANCH  17  18
ATOM     18  C   UNL     1     172.010 167.648 143.914  1.00  0.00     0.041 C 
ATOM     19  O   UNL     1     171.673 168.195 142.832  1.00  0.00    -0.550 OA
ATOM     20  O   UNL     1     171.322 167.951 145.083  1.00  0.00    -0.550 OA
ENDBRANCH  17  18
ENDBRANCH  16  17
ENDBRANCH  15  16
ENDBRANCH  14  15
ENDBRANCH  13  14
ENDBRANCH  12  13
ENDBRANCH  11  12
ENDBRANCH   1  11
TORSDOF 15
ENDMDL
MODEL 7
REMARK VINA RESULT:    -2.778      2.267      5.540
REMARK INTER + INTRA:          -7.681
REMARK INTER:                  -5.508
REMARK INTRA:                  -2.173
REMARK UNBOUND:                -2.467
REMARK SMILES O=C([O-])CCCCCCCCCCCCCCC(=O)[O-]
REMARK SMILES IDX 10 1 9 2 8 3 7 4 6 5 5 6 4 7 2 8 1 9 3 10 11 11 12 12 13 13
REMARK SMILES IDX 14 14 15 15 16 16 17 17 18 18 19 19 20 20
REMARK H PARENT
REMARK Flexibility Score: inf
ROOT
ATOM      1  C   UNL     1     165.410 169.653 148.972  1.00  0.00     0.000 C 
ENDROOT
BRANCH   1   2
ATOM      2  C   UNL     1     166.588 170.302 149.714  1.00  0.00     0.000 C 
BRANCH   2   3
ATOM      3  C   UNL     1     167.420 169.279 150.509  1.00  0.00     0.000 C 
BRANCH   3   4
ATOM      4  C   UNL     1     168.412 169.947 151.475  1.00  0.00     0.000 C 
BRANCH   4   5
ATOM      5  C   UNL     1     167.952 169.870 152.938  1.00  0.00     0.000 C 
BRANCH   5   6
ATOM      6  C   UNL     1     167.153 171.123 153.328  1.00  0.00     0.006 C 
BRANCH   6   7
ATOM      7  C   UNL     1     165.845 170.777 154.051  1.00  0.00     0.053 C 
BRANCH   7   8
ATOM      8  C   UNL     1     164.865 170.105 153.138  1.00  0.00     0.041 C 
ATOM      9  O   UNL     1     164.266 170.769 152.252  1.00  0.00    -0.550 OA
ATOM     10  O   UNL     1     164.639 168.738 153.245  1.00  0.00    -0.550 OA
ENDBRANCH   7   8
ENDBRANCH   6   7
ENDBRANCH   5   6
ENDBRANCH   4   5
ENDBRANCH   3   4
ENDBRANCH   2   3
ENDBRANCH   1   2
BRANCH   1  11
ATOM     11  C   UNL     1     164.893 168.387 149.679  1.00  0.00     0.000 C 
BRANCH  11  12
ATOM     12  C   UNL     1     164.579 167.248 148.696  1.00  0.00     0.000 C 
BRANCH  12  13
ATOM     13  C   UNL     1     165.280 167.427 147.341  1.00  0.00     0.000 C 
BRANCH  13  14
ATOM     14  C   UNL     1     165.956 166.124 146.897  1.00  0.00     0.000 C 
BRANCH  14  15
ATOM     15  C   UNL     1     167.434 166.358 146.560  1.00  0.00     0.000 C 
BRANCH  15  16
ATOM     16  C   UNL     1     167.817 167.832 146.757  1.00  0.00     0.006 C 
BRANCH  16  17
ATOM     17  C   UNL     1     169.201 167.991 147.401  1.00  0.00     0.053 C 
BRANCH  17  18
ATOM     18  C   UNL     1     169.572 169.433 147.569  1.00  0.00     0.041 C 
ATOM     19  O   UNL     1     168.807 170.339 147.146  1.00  0.00    -0.550 OA
ATOM     20  O   UNL     1     170.749 169.776 148.224  1.00  0.00    -0.550 OA
ENDBRANCH  17  18
ENDBRANCH  16  17
ENDBRANCH  15  16
ENDBRANCH  14  15
ENDBRANCH  13  14
ENDBRANCH  12  13
ENDBRANCH  11  12
ENDBRANCH   1  11
TORSDOF 15
ENDMDL
MODEL 8
REMARK VINA RESULT:    -2.770      2.892      4.945
REMARK INTER + INTRA:          -7.666
REMARK INTER:                  -5.923
REMARK INTRA:                  -1.743
REMARK UNBOUND:                -2.467
REMARK SMILES O=C([O-])CCCCCCCCCCCCCCC(=O)[O-]
REMARK SMILES IDX 10 1 9 2 8 3 7 4 6 5 5 6 4 7 2 8 1 9 3 10 11 11 12 12 13 13
REMARK SMILES IDX 14 14 15 15 16 16 17 17 18 18 19 19 20 20
REMARK H PARENT
REMARK Flexibility Score: inf
ROOT
ATOM      1  C   UNL     1     168.243 169.449 152.336  1.00  0.00     0.000 C 
ENDROOT
BRANCH   1   2
ATOM      2  C   UNL     1     168.217 170.928 152.751  1.00  0.00     0.000 C 
BRANCH   2   3
ATOM      3  C   UNL     1     168.239 171.112 154.279  1.00  0.00     0.000 C 
BRANCH   3   4
ATOM      4  C   UNL     1     167.286 170.149 155.004  1.00  0.00     0.000 C 
BRANCH   4   5
ATOM      5  C   UNL     1     166.074 170.868 155.616  1.00  0.00     0.000 C 
BRANCH   5   6
ATOM      6  C   UNL     1     164.760 170.236 155.132  1.00  0.00     0.006 C 
BRANCH   6   7
ATOM      7  C   UNL     1     164.987 169.209 154.015  1.00  0.00     0.053 C 
BRANCH   7   8
ATOM      8  C   UNL     1     164.363 169.644 152.723  1.00  0.00     0.041 C 
ATOM      9  O   UNL     1     163.488 168.929 152.169  1.00  0.00    -0.550 OA
ATOM     10  O   UNL     1     164.726 170.857 152.151  1.00  0.00    -0.550 OA
ENDBRANCH   7   8
ENDBRANCH   6   7
ENDBRANCH   5   6
ENDBRANCH   4   5
ENDBRANCH   3   4
ENDBRANCH   2   3
ENDBRANCH   1   2
BRANCH   1  11
ATOM     11  C   UNL     1     169.037 169.215 151.038  1.00  0.00     0.000 C 
BRANCH  11  12
ATOM     12  C   UNL     1     169.328 170.519 150.280  1.00  0.00     0.000 C 
BRANCH  12  13
ATOM     13  C   UNL     1     168.732 170.525 148.864  1.00  0.00     0.000 C 
BRANCH  13  14
ATOM     14  C   UNL     1     167.677 169.423 148.708  1.00  0.00     0.000 C 
BRANCH  14  15
ATOM     15  C   UNL     1     166.263 169.985 148.896  1.00  0.00     0.000 C 
BRANCH  15  16
ATOM     16  C   UNL     1     165.250 168.856 149.139  1.00  0.00     0.006 C 
BRANCH  16  17
ATOM     17  C   UNL     1     165.246 167.825 148.002  1.00  0.00     0.053 C 
BRANCH  17  18
ATOM     18  C   UNL     1     164.668 166.515 148.444  1.00  0.00     0.041 C 
ATOM     19  O   UNL     1     164.452 165.602 147.605  1.00  0.00    -0.550 OA
ATOM     20  O   UNL     1     164.398 166.292 149.789  1.00  0.00    -0.550 OA
ENDBRANCH  17  18
ENDBRANCH  16  17
ENDBRANCH  15  16
ENDBRANCH  14  15
ENDBRANCH  13  14
ENDBRANCH  12  13
ENDBRANCH  11  12
ENDBRANCH   1  11
TORSDOF 15
ENDMDL
MODEL 9
REMARK VINA RESULT:    -2.758      3.757      6.136
REMARK INTER + INTRA:          -7.644
REMARK INTER:                  -5.815
REMARK INTRA:                  -1.830
REMARK UNBOUND:                -2.467
REMARK SMILES O=C([O-])CCCCCCCCCCCCCCC(=O)[O-]
REMARK SMILES IDX 10 1 9 2 8 3 7 4 6 5 5 6 4 7 2 8 1 9 3 10 11 11 12 12 13 13
REMARK SMILES IDX 14 14 15 15 16 16 17 17 18 18 19 19 20 20
REMARK H PARENT
REMARK Flexibility Score: inf
ROOT
ATOM      1  C   UNL     1     165.798 169.866 149.189  1.00  0.00     0.000 C 
ENDROOT
BRANCH   1   2
ATOM      2  C   UNL     1     166.543 168.703 148.516  1.00  0.00     0.000 C 
BRANCH   2   3
ATOM      3  C   UNL     1     167.768 169.173 147.712  1.00  0.00     0.000 C 
BRANCH   3   4
ATOM      4  C   UNL     1     168.578 168.003 147.130  1.00  0.00     0.000 C 
BRANCH   4   5
ATOM      5  C   UNL     1     168.064 167.556 145.754  1.00  0.00     0.000 C 
BRANCH   5   6
ATOM      6  C   UNL     1     169.086 167.882 144.655  1.00  0.00     0.006 C 
BRANCH   6   7
ATOM      7  C   UNL     1     170.394 167.097 144.825  1.00  0.00     0.053 C 
BRANCH   7   8
ATOM      8  C   UNL     1     171.591 167.999 144.801  1.00  0.00     0.041 C 
ATOM      9  O   UNL     1     172.003 168.476 143.711  1.00  0.00    -0.550 OA
ATOM     10  O   UNL     1     172.231 168.338 145.987  1.00  0.00    -0.550 OA
ENDBRANCH   7   8
ENDBRANCH   6   7
ENDBRANCH   5   6
ENDBRANCH   4   5
ENDBRANCH   3   4
ENDBRANCH   2   3
ENDBRANCH   1   2
BRANCH   1  11
ATOM     11  C   UNL     1     165.435 169.564 150.653  1.00  0.00     0.000 C 
BRANCH  11  12
ATOM     12  C   UNL     1     166.519 170.027 151.639  1.00  0.00     0.000 C 
BRANCH  12  13
ATOM     13  C   UNL     1     167.398 168.869 152.137  1.00  0.00     0.000 C 
BRANCH  13  14
ATOM     14  C   UNL     1     168.809 168.957 151.544  1.00  0.00     0.000 C 
BRANCH  14  15
ATOM     15  C   UNL     1     169.079 170.352 150.968  1.00  0.00     0.000 C 
BRANCH  15  16
ATOM     16  C   UNL     1     170.364 170.361 150.126  1.00  0.00     0.006 C 
BRANCH  16  17
ATOM     17  C   UNL     1     171.002 168.969 150.025  1.00  0.00     0.053 C 
BRANCH  17  18
ATOM     18  C   UNL     1     172.454 169.049 149.667  1.00  0.00     0.041 C 
ATOM     19  O   UNL     1     173.081 170.133 149.797  1.00  0.00    -0.550 OA
ATOM     20  O   UNL     1     173.124 167.916 149.222  1.00  0.00    -0.550 OA
ENDBRANCH  17  18
ENDBRANCH  16  17
ENDBRANCH  15  16
ENDBRANCH  14  15
ENDBRANCH  13  14
ENDBRANCH  12  13
ENDBRANCH  11  12
ENDBRANCH   1  11
TORSDOF 15
ENDMDL
