MODEL 1
REMARK VINA RESULT:    33.919      0.000      0.000
REMARK INTER + INTRA:          37.337
REMARK INTER:                  36.893
REMARK INTRA:                   0.444
REMARK UNBOUND:                 0.444
REMARK SMILES C=C(C)[C@H]1CC[C@@]2(C)CC[C@@]3(C)[C@H](CC[C@@H]4[C@@]5(C)CC[C@@H](O)C(C)(C)[C@H]5CC[C@@]43C)[C@@H]12
REMARK SMILES IDX 4 1 5 2 6 3 7 4 31 5 13 6 14 7 15 8 16 9 17 10 19 11 20 12
REMARK SMILES IDX 21 13 23 14 26 15 27 16 28 17 29 18 11 19 10 20 9 21 12 22
REMARK SMILES IDX 30 23 24 24 25 25 18 26 8 27 2 28 3 29 1 30 22 31
REMARK H PARENT 22 32
REMARK Flexibility Score: inf
ROOT
ATOM      1  C   UNL     1      18.382  36.046  68.762  1.00  0.00     0.018 C 
ATOM      2  C   UNL     1      17.859  36.021  67.321  1.00  0.00     0.009 C 
ATOM      3  C   UNL     1      18.418  34.742  66.695  1.00  0.00     0.008 C 
ATOM      4  C   UNL     1      19.344  34.087  67.752  1.00  0.00    -0.029 C 
ATOM      5  C   UNL     1      19.706  35.226  68.743  1.00  0.00     0.006 C 
ATOM      6  C   UNL     1      20.979  36.112  68.389  1.00  0.00    -0.000 C 
ATOM      7  C   UNL     1      21.521  36.738  69.708  1.00  0.00     0.005 C 
ATOM      8  C   UNL     1      22.922  37.309  69.604  1.00  0.00     0.005 C 
ATOM      9  C   UNL     1      23.968  36.199  69.338  1.00  0.00     0.002 C 
ATOM     10  C   UNL     1      25.445  36.743  69.105  1.00  0.00    -0.026 C 
ATOM     11  C   UNL     1      25.894  37.767  70.208  1.00  0.00     0.010 C 
ATOM     12  C   UNL     1      26.303  37.149  71.535  1.00  0.00     0.033 C 
ATOM     13  C   UNL     1      27.499  36.222  71.310  1.00  0.00     0.120 C 
ATOM     14  C   UNL     1      27.106  35.009  70.415  1.00  0.00    -0.006 C 
ATOM     15  C   UNL     1      26.461  35.523  69.041  1.00  0.00     0.003 C 
ATOM     16  C   UNL     1      25.975  34.350  68.131  1.00  0.00     0.005 C 
ATOM     17  C   UNL     1      24.619  34.526  67.432  1.00  0.00     0.008 C 
ATOM     18  C   UNL     1      23.446  35.039  68.350  1.00  0.00    -0.024 C 
ATOM     19  C   UNL     1      22.144  35.495  67.475  1.00  0.00    -0.024 C 
ATOM     20  C   UNL     1      21.595  34.356  66.544  1.00  0.00     0.008 C 
ATOM     21  C   UNL     1      20.572  33.400  67.139  1.00  0.00     0.007 C 
ATOM     22  C   UNL     1      22.550  36.608  66.442  1.00  0.00     0.012 C 
ATOM     23  C   UNL     1      23.055  33.807  69.228  1.00  0.00     0.012 C 
ATOM     24  C   UNL     1      26.214  34.034  71.246  1.00  0.00     0.014 C 
ATOM     25  C   UNL     1      28.413  34.237  70.085  1.00  0.00     0.014 C 
ATOM     26  C   UNL     1      25.547  37.589  67.793  1.00  0.00     0.012 C 
ATOM     27  C   UNL     1      18.543  32.967  68.484  1.00  0.00     0.011 C 
ENDROOT
BRANCH   1  28
ATOM     28  C   UNL     1      18.381  37.404  69.467  1.00  0.00    -0.077 C 
ATOM     29  C   UNL     1      17.665  38.559  68.811  1.00  0.00     0.039 C 
ATOM     30  C   UNL     1      18.983  37.629  70.650  1.00  0.00     0.008 C 
ENDBRANCH   1  28
BRANCH  13  31
ATOM     31  O   UNL     1      28.005  35.794  72.552  1.00  0.00    -0.393 OA
ATOM     32  H   UNL     1      27.234  35.462  73.081  1.00  0.00     0.210 HD
ENDBRANCH  13  31
TORSDOF 2
ENDMDL
