MODEL 1
REMARK VINA RESULT:    -3.271      0.000      0.000
REMARK INTER + INTRA:          -5.095
REMARK INTER:                  -4.418
REMARK INTRA:                  -0.677
REMARK UNBOUND:                -0.677
REMARK SMILES C[C@@H](O)[C@@H](O)[C@H](O)[C@@H](O)C=O
REMARK SMILES IDX 4 1 2 2 1 3 3 4 6 6 8 7 10 8 11 9 9 10 7 12 5 14
REMARK H PARENT 3 5 9 11 7 13 5 15
REMARK Flexibility Score: inf
ROOT
ATOM      1  C   UNL     1      64.413  35.178  47.566  1.00  0.00     0.174 C 
ENDROOT
BRANCH   1   2
ATOM      2  C   UNL     1      65.899  34.772  47.313  1.00  0.00     0.142 C 
ATOM      3  C   UNL     1      66.709  34.590  48.604  1.00  0.00     0.041 C 
BRANCH   2   4
ATOM      4  O   UNL     1      65.943  33.560  46.603  1.00  0.00    -0.391 OA
ATOM      5  H   UNL     1      66.808  33.542  46.116  1.00  0.00     0.211 HD
ENDBRANCH   2   4
ENDBRANCH   1   2
BRANCH   1   6
ATOM      6  C   UNL     1      63.711  34.380  48.698  1.00  0.00     0.181 C 
BRANCH   6   7
ATOM      7  C   UNL     1      62.267  34.852  49.000  1.00  0.00     0.209 C 
BRANCH   7   8
ATOM      8  C   UNL     1      61.918  34.620  50.447  1.00  0.00     0.258 C 
ATOM      9  O   UNL     1      62.480  33.751  51.095  1.00  0.00    -0.300 OA
ENDBRANCH   7   8
BRANCH   7  10
ATOM     10  O   UNL     1      61.349  34.171  48.184  1.00  0.00    -0.383 OA
ATOM     11  H   UNL     1      60.472  34.623  48.299  1.00  0.00     0.211 HD
ENDBRANCH   7  10
ENDBRANCH   6   7
BRANCH   6  12
ATOM     12  O   UNL     1      63.725  33.009  48.378  1.00  0.00    -0.387 OA
ATOM     13  H   UNL     1      64.220  32.910  47.524  1.00  0.00     0.211 HD
ENDBRANCH   6  12
ENDBRANCH   1   6
BRANCH   1  14
ATOM     14  O   UNL     1      63.666  35.111  46.375  1.00  0.00    -0.388 OA
ATOM     15  H   UNL     1      63.787  34.198  46.003  1.00  0.00     0.211 HD
ENDBRANCH   1  14
TORSDOF 8
ENDMDL
MODEL 2
REMARK VINA RESULT:    -3.269     16.733     17.728
REMARK INTER + INTRA:          -5.093
REMARK INTER:                  -4.337
REMARK INTRA:                  -0.755
REMARK UNBOUND:                -0.677
REMARK SMILES C[C@@H](O)[C@@H](O)[C@H](O)[C@@H](O)C=O
REMARK SMILES IDX 4 1 2 2 1 3 3 4 6 6 8 7 10 8 11 9 9 10 7 12 5 14
REMARK H PARENT 3 5 9 11 7 13 5 15
REMARK Flexibility Score: inf
ROOT
ATOM      1  C   UNL     1      55.586  19.257  50.650  1.00  0.00     0.174 C 
ENDROOT
BRANCH   1   2
ATOM      2  C   UNL     1      57.007  18.703  50.320  1.00  0.00     0.142 C 
ATOM      3  C   UNL     1      58.126  19.371  51.131  1.00  0.00     0.041 C 
BRANCH   2   4
ATOM      4  O   UNL     1      57.050  17.323  50.583  1.00  0.00    -0.391 OA
ATOM      5  H   UNL     1      57.319  17.219  51.533  1.00  0.00     0.211 HD
ENDBRANCH   2   4
ENDBRANCH   1   2
BRANCH   1   6
ATOM      6  C   UNL     1      55.362  19.603  52.147  1.00  0.00     0.181 C 
BRANCH   6   7
ATOM      7  C   UNL     1      54.182  20.575  52.400  1.00  0.00     0.209 C 
BRANCH   7   8
ATOM      8  C   UNL     1      53.091  19.901  53.190  1.00  0.00     0.258 C 
ATOM      9  O   UNL     1      53.189  19.761  54.399  1.00  0.00    -0.300 OA
ENDBRANCH   7   8
BRANCH   7  10
ATOM     10  O   UNL     1      53.658  21.037  51.181  1.00  0.00    -0.383 OA
ATOM     11  H   UNL     1      54.024  20.448  50.470  1.00  0.00     0.211 HD
ENDBRANCH   7  10
ENDBRANCH   6   7
BRANCH   6  12
ATOM     12  O   UNL     1      55.186  18.414  52.878  1.00  0.00    -0.387 OA
ATOM     13  H   UNL     1      55.941  18.345  53.518  1.00  0.00     0.211 HD
ENDBRANCH   6  12
ENDBRANCH   1   6
BRANCH   1  14
ATOM     14  O   UNL     1      54.586  18.380  50.189  1.00  0.00    -0.388 OA
ATOM     15  H   UNL     1      54.986  17.472  50.155  1.00  0.00     0.211 HD
ENDBRANCH   1  14
TORSDOF 8
ENDMDL
MODEL 3
REMARK VINA RESULT:    -3.257     16.339     17.790
REMARK INTER + INTRA:          -5.077
REMARK INTER:                  -4.760
REMARK INTRA:                  -0.318
REMARK UNBOUND:                -0.677
REMARK SMILES C[C@@H](O)[C@@H](O)[C@H](O)[C@@H](O)C=O
REMARK SMILES IDX 4 1 2 2 1 3 3 4 6 6 8 7 10 8 11 9 9 10 7 12 5 14
REMARK H PARENT 3 5 9 11 7 13 5 15
REMARK Flexibility Score: inf
ROOT
ATOM      1  C   UNL     1      55.274  19.559  52.173  1.00  0.00     0.174 C 
ENDROOT
BRANCH   1   2
ATOM      2  C   UNL     1      53.905  20.300  52.271  1.00  0.00     0.142 C 
ATOM      3  C   UNL     1      53.800  21.229  53.489  1.00  0.00     0.041 C 
BRANCH   2   4
ATOM      4  O   UNL     1      53.705  21.078  51.118  1.00  0.00    -0.391 OA
ATOM      5  H   UNL     1      54.492  20.933  50.532  1.00  0.00     0.211 HD
ENDBRANCH   2   4
ENDBRANCH   1   2
BRANCH   1   6
ATOM      6  C   UNL     1      55.668  19.121  50.735  1.00  0.00     0.181 C 
BRANCH   6   7
ATOM      7  C   UNL     1      56.994  18.325  50.659  1.00  0.00     0.209 C 
BRANCH   7   8
ATOM      8  C   UNL     1      58.181  19.248  50.762  1.00  0.00     0.258 C 
ATOM      9  O   UNL     1      58.862  19.502  49.781  1.00  0.00    -0.300 OA
ENDBRANCH   7   8
BRANCH   7  10
ATOM     10  O   UNL     1      57.065  17.606  49.455  1.00  0.00    -0.383 OA
ATOM     11  H   UNL     1      58.020  17.597  49.181  1.00  0.00     0.211 HD
ENDBRANCH   7  10
ENDBRANCH   6   7
BRANCH   6  12
ATOM     12  O   UNL     1      54.614  18.377  50.172  1.00  0.00    -0.387 OA
ATOM     13  H   UNL     1      55.021  17.643  49.642  1.00  0.00     0.211 HD
ENDBRANCH   6  12
ENDBRANCH   1   6
BRANCH   1  14
ATOM     14  O   UNL     1      55.316  18.462  53.054  1.00  0.00    -0.388 OA
ATOM     15  H   UNL     1      56.272  18.234  53.194  1.00  0.00     0.211 HD
ENDBRANCH   1  14
TORSDOF 8
ENDMDL
MODEL 4
REMARK VINA RESULT:    -3.244     12.574     14.168
REMARK INTER + INTRA:          -5.060
REMARK INTER:                  -4.737
REMARK INTRA:                  -0.322
REMARK UNBOUND:                -0.677
REMARK SMILES C[C@@H](O)[C@@H](O)[C@H](O)[C@@H](O)C=O
REMARK SMILES IDX 4 1 2 2 1 3 3 4 6 6 8 7 10 8 11 9 9 10 7 12 5 14
REMARK H PARENT 3 5 9 11 7 13 5 15
REMARK Flexibility Score: inf
ROOT
ATOM      1  C   UNL     1      70.859  33.356  59.019  1.00  0.00     0.174 C 
ENDROOT
BRANCH   1   2
ATOM      2  C   UNL     1      70.494  34.836  58.686  1.00  0.00     0.142 C 
ATOM      3  C   UNL     1      69.560  34.976  57.477  1.00  0.00     0.041 C 
BRANCH   2   4
ATOM      4  O   UNL     1      69.857  35.425  59.792  1.00  0.00    -0.391 OA
ATOM      5  H   UNL     1      70.436  35.258  60.581  1.00  0.00     0.211 HD
ENDBRANCH   2   4
ENDBRANCH   1   2
BRANCH   1   6
ATOM      6  C   UNL     1      71.363  33.128  60.470  1.00  0.00     0.181 C 
BRANCH   6   7
ATOM      7  C   UNL     1      72.074  31.768  60.685  1.00  0.00     0.209 C 
BRANCH   7   8
ATOM      8  C   UNL     1      71.073  30.645  60.763  1.00  0.00     0.258 C 
ATOM      9  O   UNL     1      70.599  30.304  61.835  1.00  0.00    -0.300 OA
ENDBRANCH   7   8
BRANCH   7  10
ATOM     10  O   UNL     1      72.838  31.795  61.863  1.00  0.00    -0.383 OA
ATOM     11  H   UNL     1      72.336  31.273  62.543  1.00  0.00     0.211 HD
ENDBRANCH   7  10
ENDBRANCH   6   7
BRANCH   6  12
ATOM     12  O   UNL     1      72.210  34.189  60.841  1.00  0.00    -0.387 OA
ATOM     13  H   UNL     1      73.121  33.968  60.517  1.00  0.00     0.211 HD
ENDBRANCH   6  12
ENDBRANCH   1   6
BRANCH   1  14
ATOM     14  O   UNL     1      71.783  32.845  58.088  1.00  0.00    -0.388 OA
ATOM     15  H   UNL     1      72.260  33.621  57.693  1.00  0.00     0.211 HD
ENDBRANCH   1  14
TORSDOF 8
ENDMDL
MODEL 5
REMARK VINA RESULT:    -3.234     11.179     12.701
REMARK INTER + INTRA:          -5.045
REMARK INTER:                  -4.673
REMARK INTRA:                  -0.372
REMARK UNBOUND:                -0.677
REMARK SMILES C[C@@H](O)[C@@H](O)[C@H](O)[C@@H](O)C=O
REMARK SMILES IDX 4 1 2 2 1 3 3 4 6 6 8 7 10 8 11 9 9 10 7 12 5 14
REMARK H PARENT 3 5 9 11 7 13 5 15
REMARK Flexibility Score: inf
ROOT
ATOM      1  C   UNL     1      70.544  34.824  59.750  1.00  0.00     0.174 C 
ENDROOT
BRANCH   1   2
ATOM      2  C   UNL     1      71.161  33.396  59.638  1.00  0.00     0.142 C 
ATOM      3  C   UNL     1      71.510  32.993  58.198  1.00  0.00     0.041 C 
BRANCH   2   4
ATOM      4  O   UNL     1      72.339  33.329  60.401  1.00  0.00    -0.391 OA
ATOM      5  H   UNL     1      73.056  33.758  59.863  1.00  0.00     0.211 HD
ENDBRANCH   2   4
ENDBRANCH   1   2
BRANCH   1   6
ATOM      6  C   UNL     1      70.390  35.567  58.395  1.00  0.00     0.181 C 
BRANCH   6   7
ATOM      7  C   UNL     1      68.927  35.924  58.033  1.00  0.00     0.209 C 
BRANCH   7   8
ATOM      8  C   UNL     1      68.878  37.078  57.067  1.00  0.00     0.258 C 
ATOM      9  O   UNL     1      69.632  37.124  56.108  1.00  0.00    -0.300 OA
ENDBRANCH   7   8
BRANCH   7  10
ATOM     10  O   UNL     1      68.203  36.253  59.191  1.00  0.00    -0.383 OA
ATOM     11  H   UNL     1      67.980  35.398  59.644  1.00  0.00     0.211 HD
ENDBRANCH   7  10
ENDBRANCH   6   7
BRANCH   6  12
ATOM     12  O   UNL     1      71.190  36.725  58.407  1.00  0.00    -0.387 OA
ATOM     13  H   UNL     1      71.575  36.809  59.317  1.00  0.00     0.211 HD
ENDBRANCH   6  12
ENDBRANCH   1   6
BRANCH   1  14
ATOM     14  O   UNL     1      71.264  35.611  60.668  1.00  0.00    -0.388 OA
ATOM     15  H   UNL     1      71.024  35.294  61.578  1.00  0.00     0.211 HD
ENDBRANCH   1  14
TORSDOF 8
ENDMDL
MODEL 6
REMARK VINA RESULT:    -3.224      1.185      4.310
REMARK INTER + INTRA:          -5.032
REMARK INTER:                  -4.321
REMARK INTRA:                  -0.711
REMARK UNBOUND:                -0.677
REMARK SMILES C[C@@H](O)[C@@H](O)[C@H](O)[C@@H](O)C=O
REMARK SMILES IDX 4 1 2 2 1 3 3 4 6 6 8 7 10 8 11 9 9 10 7 12 5 14
REMARK H PARENT 3 5 9 11 7 13 5 15
REMARK Flexibility Score: inf
ROOT
ATOM      1  C   UNL     1      63.460  33.781  49.106  1.00  0.00     0.174 C 
ENDROOT
BRANCH   1   2
ATOM      2  C   UNL     1      61.968  34.038  49.482  1.00  0.00     0.142 C 
ATOM      3  C   UNL     1      61.740  35.380  50.192  1.00  0.00     0.041 C 
BRANCH   2   4
ATOM      4  O   UNL     1      61.179  34.028  48.319  1.00  0.00    -0.391 OA
ATOM      5  H   UNL     1      61.432  34.830  47.792  1.00  0.00     0.211 HD
ENDBRANCH   2   4
ENDBRANCH   1   2
BRANCH   1   6
ATOM      6  C   UNL     1      64.083  34.853  48.170  1.00  0.00     0.181 C 
BRANCH   6   7
ATOM      7  C   UNL     1      65.599  34.666  47.917  1.00  0.00     0.209 C 
BRANCH   7   8
ATOM      8  C   UNL     1      66.184  35.875  47.237  1.00  0.00     0.258 C 
ATOM      9  O   UNL     1      65.938  36.114  46.065  1.00  0.00    -0.300 OA
ENDBRANCH   7   8
BRANCH   7  10
ATOM     10  O   UNL     1      65.826  33.529  47.124  1.00  0.00    -0.383 OA
ATOM     11  H   UNL     1      65.956  32.766  47.746  1.00  0.00     0.211 HD
ENDBRANCH   7  10
ENDBRANCH   6   7
BRANCH   6  12
ATOM     12  O   UNL     1      63.378  34.871  46.952  1.00  0.00    -0.387 OA
ATOM     13  H   UNL     1      63.313  33.933  46.635  1.00  0.00     0.211 HD
ENDBRANCH   6  12
ENDBRANCH   1   6
BRANCH   1  14
ATOM     14  O   UNL     1      63.627  32.493  48.565  1.00  0.00    -0.388 OA
ATOM     15  H   UNL     1      64.585  32.398  48.324  1.00  0.00     0.211 HD
ENDBRANCH   1  14
TORSDOF 8
ENDMDL
MODEL 7
REMARK VINA RESULT:    -3.191     16.612     17.377
REMARK INTER + INTRA:          -4.987
REMARK INTER:                  -4.034
REMARK INTRA:                  -0.954
REMARK UNBOUND:                -0.677
REMARK SMILES C[C@@H](O)[C@@H](O)[C@H](O)[C@@H](O)C=O
REMARK SMILES IDX 4 1 2 2 1 3 3 4 6 6 8 7 10 8 11 9 9 10 7 12 5 14
REMARK H PARENT 3 5 9 11 7 13 5 15
REMARK Flexibility Score: inf
ROOT
ATOM      1  C   UNL     1      55.586  19.600  52.134  1.00  0.00     0.174 C 
ENDROOT
BRANCH   1   2
ATOM      2  C   UNL     1      56.018  18.964  50.777  1.00  0.00     0.142 C 
ATOM      3  C   UNL     1      57.189  17.981  50.909  1.00  0.00     0.041 C 
BRANCH   2   4
ATOM      4  O   UNL     1      54.934  18.267  50.216  1.00  0.00    -0.391 OA
ATOM      5  H   UNL     1      54.185  18.328  50.865  1.00  0.00     0.211 HD
ENDBRANCH   2   4
ENDBRANCH   1   2
BRANCH   1   6
ATOM      6  C   UNL     1      54.083  19.980  52.218  1.00  0.00     0.181 C 
BRANCH   6   7
ATOM      7  C   UNL     1      53.639  20.493  53.611  1.00  0.00     0.209 C 
BRANCH   7   8
ATOM      8  C   UNL     1      53.433  21.985  53.593  1.00  0.00     0.258 C 
ATOM      9  O   UNL     1      54.376  22.744  53.434  1.00  0.00    -0.300 OA
ENDBRANCH   7   8
BRANCH   7  10
ATOM     10  O   UNL     1      54.599  20.166  54.582  1.00  0.00    -0.383 OA
ATOM     11  H   UNL     1      55.267  20.900  54.586  1.00  0.00     0.211 HD
ENDBRANCH   7  10
ENDBRANCH   6   7
BRANCH   6  12
ATOM     12  O   UNL     1      53.788  20.934  51.226  1.00  0.00    -0.387 OA
ATOM     13  H   UNL     1      53.612  21.794  51.686  1.00  0.00     0.211 HD
ENDBRANCH   6  12
ENDBRANCH   1   6
BRANCH   1  14
ATOM     14  O   UNL     1      56.396  20.707  52.449  1.00  0.00    -0.388 OA
ATOM     15  H   UNL     1      57.060  20.403  53.122  1.00  0.00     0.211 HD
ENDBRANCH   1  14
TORSDOF 8
ENDMDL
MODEL 8
REMARK VINA RESULT:    -3.146     12.866     14.136
REMARK INTER + INTRA:          -4.927
REMARK INTER:                  -3.957
REMARK INTRA:                  -0.970
REMARK UNBOUND:                -0.677
REMARK SMILES C[C@@H](O)[C@@H](O)[C@H](O)[C@@H](O)C=O
REMARK SMILES IDX 4 1 2 2 1 3 3 4 6 6 8 7 10 8 11 9 9 10 7 12 5 14
REMARK H PARENT 3 5 9 11 7 13 5 15
REMARK Flexibility Score: inf
ROOT
ATOM      1  C   UNL     1      62.058  30.311  61.784  1.00  0.00     0.174 C 
ENDROOT
BRANCH   1   2
ATOM      2  C   UNL     1      60.773  31.195  61.812  1.00  0.00     0.142 C 
ATOM      3  C   UNL     1      60.788  32.326  60.773  1.00  0.00     0.041 C 
BRANCH   2   4
ATOM      4  O   UNL     1      59.644  30.396  61.561  1.00  0.00    -0.391 OA
ATOM      5  H   UNL     1      59.163  30.297  62.424  1.00  0.00     0.211 HD
ENDBRANCH   2   4
ENDBRANCH   1   2
BRANCH   1   6
ATOM      6  C   UNL     1      62.590  29.992  60.360  1.00  0.00     0.181 C 
BRANCH   6   7
ATOM      7  C   UNL     1      64.077  29.562  60.324  1.00  0.00     0.209 C 
BRANCH   7   8
ATOM      8  C   UNL     1      64.201  28.072  60.137  1.00  0.00     0.258 C 
ATOM      9  O   UNL     1      63.812  27.299  60.997  1.00  0.00    -0.300 OA
ENDBRANCH   7   8
BRANCH   7  10
ATOM     10  O   UNL     1      64.725  29.938  61.513  1.00  0.00    -0.383 OA
ATOM     11  H   UNL     1      65.455  29.281  61.663  1.00  0.00     0.211 HD
ENDBRANCH   7  10
ENDBRANCH   6   7
BRANCH   6  12
ATOM     12  O   UNL     1      61.777  29.005  59.771  1.00  0.00    -0.387 OA
ATOM     13  H   UNL     1      62.109  28.862  58.847  1.00  0.00     0.211 HD
ENDBRANCH   6  12
ENDBRANCH   1   6
BRANCH   1  14
ATOM     14  O   UNL     1      61.867  29.126  62.519  1.00  0.00    -0.388 OA
ATOM     15  H   UNL     1      62.520  29.136  63.267  1.00  0.00     0.211 HD
ENDBRANCH   1  14
TORSDOF 8
ENDMDL
MODEL 9
REMARK VINA RESULT:    -3.142     11.048     12.602
REMARK INTER + INTRA:          -4.922
REMARK INTER:                  -3.975
REMARK INTRA:                  -0.947
REMARK UNBOUND:                -0.677
REMARK SMILES C[C@@H](O)[C@@H](O)[C@H](O)[C@@H](O)C=O
REMARK SMILES IDX 4 1 2 2 1 3 3 4 6 6 8 7 10 8 11 9 9 10 7 12 5 14
REMARK H PARENT 3 5 9 11 7 13 5 15
REMARK Flexibility Score: inf
ROOT
ATOM      1  C   UNL     1      70.768  33.740  58.854  1.00  0.00     0.174 C 
ENDROOT
BRANCH   1   2
ATOM      2  C   UNL     1      71.341  33.096  60.154  1.00  0.00     0.142 C 
ATOM      3  C   UNL     1      72.184  31.840  59.893  1.00  0.00     0.041 C 
BRANCH   2   4
ATOM      4  O   UNL     1      72.152  34.027  60.824  1.00  0.00    -0.391 OA
ATOM      5  H   UNL     1      72.690  33.519  61.486  1.00  0.00     0.211 HD
ENDBRANCH   2   4
ENDBRANCH   1   2
BRANCH   1   6
ATOM      6  C   UNL     1      70.533  35.272  58.943  1.00  0.00     0.181 C 
BRANCH   6   7
ATOM      7  C   UNL     1      70.058  35.916  57.617  1.00  0.00     0.209 C 
BRANCH   7   8
ATOM      8  C   UNL     1      68.599  36.282  57.689  1.00  0.00     0.258 C 
ATOM      9  O   UNL     1      67.740  35.417  57.762  1.00  0.00    -0.300 OA
ENDBRANCH   7   8
BRANCH   7  10
ATOM     10  O   UNL     1      70.266  35.035  56.543  1.00  0.00    -0.383 OA
ATOM     11  H   UNL     1      70.018  34.128  56.863  1.00  0.00     0.211 HD
ENDBRANCH   7  10
ENDBRANCH   6   7
BRANCH   6  12
ATOM     12  O   UNL     1      69.616  35.542  59.977  1.00  0.00    -0.387 OA
ATOM     13  H   UNL     1      70.141  35.683  60.807  1.00  0.00     0.211 HD
ENDBRANCH   6  12
ENDBRANCH   1   6
BRANCH   1  14
ATOM     14  O   UNL     1      69.594  33.081  58.443  1.00  0.00    -0.388 OA
ATOM     15  H   UNL     1      69.038  32.939  59.254  1.00  0.00     0.211 HD
ENDBRANCH   1  14
TORSDOF 8
ENDMDL
