MODEL 1
REMARK VINA RESULT:    -5.345      0.000      0.000
REMARK INTER + INTRA:          -7.021
REMARK INTER:                  -7.532
REMARK INTRA:                   0.512
REMARK UNBOUND:                 0.512
REMARK SMILES CC1=CCC(=C(C)C)C(=O)CC(C)=CCC1
REMARK SMILES IDX 12 1 14 2 13 3 15 4 16 5 2 6 1 7 3 8 11 10 9 11 10 12 5 13
REMARK SMILES IDX 6 14 7 15 8 16 4 17
REMARK H PARENT
REMARK Flexibility Score: 60.00
ROOT
ATOM      1  C   UNL     1      21.682 -20.019  21.630  1.00  0.00    -0.070 C 
ATOM      2  C   UNL     1      22.508 -18.972  21.398  1.00  0.00    -0.027 C 
ATOM      3  C   UNL     1      20.229 -19.712  21.904  1.00  0.00     0.039 C 
ENDROOT
BRANCH   2   4
ATOM      4  C   UNL     1      23.963 -19.053  21.001  1.00  0.00     0.032 C 
BRANCH   4   5
ATOM      5  C   UNL     1      24.154 -19.207  19.481  1.00  0.00     0.034 C 
BRANCH   5   6
ATOM      6  C   UNL     1      25.265 -20.182  19.140  1.00  0.00    -0.077 C 
ATOM      7  C   UNL     1      26.691 -19.755  19.386  1.00  0.00     0.039 C 
ATOM      8  C   UNL     1      25.053 -21.404  18.602  1.00  0.00    -0.023 CG0
ATOM      9  G   UNL     1      23.708 -21.992  18.252  1.00  0.00     0.000 G0
ENDBRANCH   5   6
ENDBRANCH   4   5
ENDBRANCH   2   4
BRANCH   1  10
ATOM     10  C   UNL     1      22.120 -21.473  21.563  1.00  0.00     0.111 C 
BRANCH  10  11
ATOM     11  C   UNL     1      21.984 -22.030  20.167  1.00  0.00     0.163 C 
ATOM     12  O   UNL     1      20.856 -21.956  19.607  1.00  0.00    -0.294 OA
BRANCH  11  13
ATOM     13  C   UNL     1      23.121 -22.702  19.468  1.00  0.00    -0.002 C 
ATOM     14  C   UNL     1      23.578 -23.932  19.853  1.00  0.00    -0.069 C 
ATOM     15  C   UNL     1      22.910 -24.713  20.963  1.00  0.00     0.039 C 
ATOM     16  C   UNL     1      24.755 -24.588  19.164  1.00  0.00     0.039 C 
BRANCH  13  17
ATOM     17  C   UNL     1      23.703 -21.993  18.257  1.00  0.00     0.066 CG0
ATOM     18  G   UNL     1      25.049 -21.406  18.606  1.00  0.00     0.000 G0
ENDBRANCH  13  17
ENDBRANCH  11  13
ENDBRANCH  10  11
ENDBRANCH   1  10
TORSDOF 0
ENDMDL
MODEL 2
REMARK VINA RESULT:    -5.316      1.879      4.158
REMARK INTER + INTRA:          -6.979
REMARK INTER:                  -7.429
REMARK INTRA:                   0.450
REMARK UNBOUND:                 0.512
REMARK SMILES CC1=CCC(=C(C)C)C(=O)CC(C)=CCC1
REMARK SMILES IDX 12 1 14 2 13 3 15 4 16 5 2 6 1 7 3 8 11 10 9 11 10 12 5 13
REMARK SMILES IDX 6 14 7 15 8 16 4 17
REMARK H PARENT
REMARK Flexibility Score: 60.00
ROOT
ATOM      1  C   UNL     1      24.965 -18.767  20.201  1.00  0.00    -0.070 C 
ATOM      2  C   UNL     1      24.114 -18.738  21.254  1.00  0.00    -0.027 C 
ATOM      3  C   UNL     1      26.418 -18.462  20.473  1.00  0.00     0.039 C 
ENDROOT
BRANCH   2   4
ATOM      4  C   UNL     1      22.651 -19.111  21.231  1.00  0.00     0.032 C 
BRANCH   4   5
ATOM      5  C   UNL     1      22.418 -20.610  21.493  1.00  0.00     0.034 C 
BRANCH   5   6
ATOM      6  C   UNL     1      21.334 -21.186  20.602  1.00  0.00    -0.077 C 
ATOM      7  C   UNL     1      19.896 -20.866  20.927  1.00  0.00     0.039 C 
ATOM      8  C   UNL     1      21.580 -21.994  19.546  1.00  0.00    -0.023 CG0
ATOM      9  G   UNL     1      22.942 -22.454  19.087  1.00  0.00     0.000 G0
ENDBRANCH   5   6
ENDBRANCH   4   5
ENDBRANCH   2   4
BRANCH   1  10
ATOM     10  C   UNL     1      24.551 -19.151  18.790  1.00  0.00     0.111 C 
BRANCH  10  11
ATOM     11  C   UNL     1      24.679 -20.636  18.559  1.00  0.00     0.163 C 
ATOM     12  O   UNL     1      25.808 -21.169  18.734  1.00  0.00    -0.294 OA
BRANCH  11  13
ATOM     13  C   UNL     1      23.528 -21.466  18.086  1.00  0.00    -0.002 C 
ATOM     14  C   UNL     1      23.064 -21.389  16.802  1.00  0.00    -0.069 C 
ATOM     15  C   UNL     1      23.736 -20.511  15.769  1.00  0.00     0.039 C 
ATOM     16  C   UNL     1      21.875 -22.204  16.343  1.00  0.00     0.039 C 
BRANCH  13  17
ATOM     17  C   UNL     1      22.941 -22.459  19.075  1.00  0.00     0.066 CG0
ATOM     18  G   UNL     1      21.587 -21.980  19.538  1.00  0.00     0.000 G0
ENDBRANCH  13  17
ENDBRANCH  11  13
ENDBRANCH  10  11
ENDBRANCH   1  10
TORSDOF 0
ENDMDL
MODEL 3
REMARK VINA RESULT:    -5.228      2.739      5.047
REMARK INTER + INTRA:          -6.856
REMARK INTER:                  -7.289
REMARK INTRA:                   0.433
REMARK UNBOUND:                 0.512
REMARK SMILES CC1=CCC(=C(C)C)C(=O)CC(C)=CCC1
REMARK SMILES IDX 12 1 14 2 13 3 15 4 16 5 2 6 1 7 3 8 11 10 9 11 10 12 5 13
REMARK SMILES IDX 6 14 7 15 8 16 4 17
REMARK H PARENT
REMARK Flexibility Score: 60.00
ROOT
ATOM      1  C   UNL     1      27.830 -20.847  18.980  1.00  0.00    -0.070 C 
ATOM      2  C   UNL     1      28.350 -22.010  19.439  1.00  0.00    -0.027 C 
ATOM      3  C   UNL     1      28.506 -19.567  19.408  1.00  0.00     0.039 C 
ENDROOT
BRANCH   2   4
ATOM      4  C   UNL     1      27.902 -23.401  19.057  1.00  0.00     0.032 C 
BRANCH   4   5
ATOM      5  C   UNL     1      26.639 -23.846  19.816  1.00  0.00     0.034 C 
BRANCH   5   6
ATOM      6  C   UNL     1      25.592 -24.434  18.890  1.00  0.00    -0.077 C 
ATOM      7  C   UNL     1      25.935 -25.690  18.128  1.00  0.00     0.039 C 
ATOM      8  C   UNL     1      24.374 -23.882  18.687  1.00  0.00    -0.023 CG0
ATOM      9  G   UNL     1      23.862 -22.615  19.327  1.00  0.00     0.000 G0
ENDBRANCH   5   6
ENDBRANCH   4   5
ENDBRANCH   2   4
BRANCH   1  10
ATOM     10  C   UNL     1      26.659 -20.767  18.015  1.00  0.00     0.111 C 
BRANCH  10  11
ATOM     11  C   UNL     1      25.349 -20.598  18.745  1.00  0.00     0.163 C 
ATOM     12  O   UNL     1      25.297 -19.758  19.683  1.00  0.00    -0.294 OA
BRANCH  11  13
ATOM     13  C   UNL     1      24.149 -21.428  18.420  1.00  0.00    -0.002 C 
ATOM     14  C   UNL     1      23.378 -21.180  17.318  1.00  0.00    -0.069 C 
ATOM     15  C   UNL     1      23.740 -20.095  16.327  1.00  0.00     0.039 C 
ATOM     16  C   UNL     1      22.143 -22.000  17.018  1.00  0.00     0.039 C 
BRANCH  13  17
ATOM     17  C   UNL     1      23.862 -22.613  19.327  1.00  0.00     0.066 CG0
ATOM     18  G   UNL     1      24.350 -23.885  18.677  1.00  0.00     0.000 G0
ENDBRANCH  13  17
ENDBRANCH  11  13
ENDBRANCH  10  11
ENDBRANCH   1  10
TORSDOF 0
ENDMDL
MODEL 4
REMARK VINA RESULT:    -5.227      1.969      4.214
REMARK INTER + INTRA:          -6.854
REMARK INTER:                  -7.218
REMARK INTRA:                   0.364
REMARK UNBOUND:                 0.512
REMARK SMILES CC1=CCC(=C(C)C)C(=O)CC(C)=CCC1
REMARK SMILES IDX 12 1 14 2 13 3 15 4 16 5 2 6 1 7 3 8 11 10 9 11 10 12 5 13
REMARK SMILES IDX 6 14 7 15 8 16 4 17
REMARK H PARENT
REMARK Flexibility Score: 60.00
ROOT
ATOM      1  C   UNL     1      27.369 -23.744  19.284  1.00  0.00    -0.070 C 
ATOM      2  C   UNL     1      28.091 -22.641  18.976  1.00  0.00    -0.027 C 
ATOM      3  C   UNL     1      27.895 -25.076  18.805  1.00  0.00     0.039 C 
ENDROOT
BRANCH   2   4
ATOM      4  C   UNL     1      27.810 -21.231  19.439  1.00  0.00     0.032 C 
BRANCH   4   5
ATOM      5  C   UNL     1      26.802 -20.500  18.532  1.00  0.00     0.034 C 
BRANCH   5   6
ATOM      6  C   UNL     1      25.684 -19.852  19.326  1.00  0.00    -0.077 C 
ATOM      7  C   UNL     1      26.018 -18.670  20.199  1.00  0.00     0.039 C 
ATOM      8  C   UNL     1      24.405 -20.291  19.315  1.00  0.00    -0.023 CG0
ATOM      9  G   UNL     1      23.884 -21.474  18.536  1.00  0.00     0.000 G0
ENDBRANCH   5   6
ENDBRANCH   4   5
ENDBRANCH   2   4
BRANCH   1  10
ATOM     10  C   UNL     1      26.108 -23.720  20.133  1.00  0.00     0.111 C 
BRANCH  10  11
ATOM     11  C   UNL     1      24.864 -23.730  19.280  1.00  0.00     0.163 C 
ATOM     12  O   UNL     1      24.766 -24.613  18.385  1.00  0.00    -0.294 OA
BRANCH  11  13
ATOM     13  C   UNL     1      23.789 -22.703  19.435  1.00  0.00    -0.002 C 
ATOM     14  C   UNL     1      22.812 -22.821  20.386  1.00  0.00    -0.069 C 
ATOM     15  C   UNL     1      22.809 -23.961  21.380  1.00  0.00     0.039 C 
ATOM     16  C   UNL     1      21.705 -21.796  20.510  1.00  0.00     0.039 C 
BRANCH  13  17
ATOM     17  C   UNL     1      23.868 -21.479  18.539  1.00  0.00     0.066 CG0
ATOM     18  G   UNL     1      24.402 -20.305  19.323  1.00  0.00     0.000 G0
ENDBRANCH  13  17
ENDBRANCH  11  13
ENDBRANCH  10  11
ENDBRANCH   1  10
TORSDOF 0
ENDMDL
MODEL 5
REMARK VINA RESULT:    -5.120      1.252      4.178
REMARK INTER + INTRA:          -6.704
REMARK INTER:                  -7.734
REMARK INTRA:                   1.031
REMARK UNBOUND:                 0.512
REMARK SMILES CC1=CCC(=C(C)C)C(=O)CC(C)=CCC1
REMARK SMILES IDX 12 1 14 2 13 3 15 4 16 5 2 6 1 7 3 8 11 10 9 11 10 12 5 13
REMARK SMILES IDX 6 14 7 15 8 16 4 17
REMARK H PARENT
REMARK Flexibility Score: 60.00
ROOT
ATOM      1  C   UNL     1      22.611 -24.462  21.309  1.00  0.00    -0.070 C 
ATOM      2  C   UNL     1      23.374 -25.047  20.356  1.00  0.00    -0.027 C 
ATOM      3  C   UNL     1      21.594 -25.328  22.013  1.00  0.00     0.039 C 
ENDROOT
BRANCH   2   4
ATOM      4  C   UNL     1      24.516 -24.402  19.605  1.00  0.00     0.032 C 
BRANCH   4   5
ATOM      5  C   UNL     1      24.395 -24.576  18.080  1.00  0.00     0.034 C 
BRANCH   5   6
ATOM      6  C   UNL     1      23.469 -23.548  17.459  1.00  0.00    -0.077 C 
ATOM      7  C   UNL     1      22.595 -23.976  16.307  1.00  0.00     0.039 C 
ATOM      8  C   UNL     1      23.401 -22.259  17.861  1.00  0.00    -0.023 CG0
ATOM      9  G   UNL     1      24.218 -21.635  18.967  1.00  0.00     0.000 G0
ENDBRANCH   5   6
ENDBRANCH   4   5
ENDBRANCH   2   4
BRANCH   1  10
ATOM     10  C   UNL     1      22.769 -23.016  21.749  1.00  0.00     0.111 C 
BRANCH  10  11
ATOM     11  C   UNL     1      22.341 -22.057  20.667  1.00  0.00     0.163 C 
ATOM     12  O   UNL     1      21.151 -22.120  20.255  1.00  0.00    -0.294 OA
BRANCH  11  13
ATOM     13  C   UNL     1      23.294 -21.086  20.046  1.00  0.00    -0.002 C 
ATOM     14  C   UNL     1      23.384 -19.791  20.477  1.00  0.00    -0.069 C 
ATOM     15  C   UNL     1      22.575 -19.288  21.652  1.00  0.00     0.039 C 
ATOM     16  C   UNL     1      24.323 -18.804  19.817  1.00  0.00     0.039 C 
BRANCH  13  17
ATOM     17  C   UNL     1      24.216 -21.619  18.964  1.00  0.00     0.066 CG0
ATOM     18  G   UNL     1      23.402 -22.271  17.873  1.00  0.00     0.000 G0
ENDBRANCH  13  17
ENDBRANCH  11  13
ENDBRANCH  10  11
ENDBRANCH   1  10
TORSDOF 0
ENDMDL
MODEL 6
REMARK VINA RESULT:    -5.060      2.434      5.295
REMARK INTER + INTRA:          -6.619
REMARK INTER:                  -7.077
REMARK INTRA:                   0.458
REMARK UNBOUND:                 0.512
REMARK SMILES CC1=CCC(=C(C)C)C(=O)CC(C)=CCC1
REMARK SMILES IDX 12 1 14 2 13 3 15 4 16 5 2 6 1 7 3 8 11 10 9 11 10 12 5 13
REMARK SMILES IDX 6 14 7 15 8 16 4 17
REMARK H PARENT
REMARK Flexibility Score: 60.00
ROOT
ATOM      1  C   UNL     1      24.526 -25.531  17.484  1.00  0.00    -0.070 C 
ATOM      2  C   UNL     1      23.906 -25.392  16.288  1.00  0.00    -0.027 C 
ATOM      3  C   UNL     1      25.913 -26.127  17.485  1.00  0.00     0.039 C 
ENDROOT
BRANCH   2   4
ATOM      4  C   UNL     1      22.572 -24.729  16.045  1.00  0.00     0.032 C 
BRANCH   4   5
ATOM      5  C   UNL     1      22.686 -23.198  15.917  1.00  0.00     0.034 C 
BRANCH   5   6
ATOM      6  C   UNL     1      21.546 -22.479  16.612  1.00  0.00    -0.077 C 
ATOM      7  C   UNL     1      20.169 -22.564  16.002  1.00  0.00     0.039 C 
ATOM      8  C   UNL     1      21.697 -21.742  17.735  1.00  0.00    -0.023 CG0
ATOM      9  G   UNL     1      22.995 -21.510  18.470  1.00  0.00     0.000 G0
ENDBRANCH   5   6
ENDBRANCH   4   5
ENDBRANCH   2   4
BRANCH   1  10
ATOM     10  C   UNL     1      23.932 -25.062  18.803  1.00  0.00     0.111 C 
BRANCH  10  11
ATOM     11  C   UNL     1      24.291 -23.625  19.092  1.00  0.00     0.163 C 
ATOM     12  O   UNL     1      25.508 -23.298  19.051  1.00  0.00    -0.294 OA
BRANCH  11  13
ATOM     13  C   UNL     1      23.258 -22.612  19.471  1.00  0.00    -0.002 C 
ATOM     14  C   UNL     1      22.626 -22.646  20.682  1.00  0.00    -0.069 C 
ATOM     15  C   UNL     1      22.987 -23.670  21.736  1.00  0.00     0.039 C 
ATOM     16  C   UNL     1      21.554 -21.640  21.042  1.00  0.00     0.039 C 
BRANCH  13  17
ATOM     17  C   UNL     1      22.994 -21.492  18.479  1.00  0.00     0.066 CG0
ATOM     18  G   UNL     1      21.697 -21.748  17.751  1.00  0.00     0.000 G0
ENDBRANCH  13  17
ENDBRANCH  11  13
ENDBRANCH  10  11
ENDBRANCH   1  10
TORSDOF 0
ENDMDL
MODEL 7
REMARK VINA RESULT:    -4.837      2.294      4.880
REMARK INTER + INTRA:          -6.305
REMARK INTER:                  -7.715
REMARK INTRA:                   1.410
REMARK UNBOUND:                 0.512
REMARK SMILES CC1=CCC(=C(C)C)C(=O)CC(C)=CCC1
REMARK SMILES IDX 12 1 14 2 13 3 15 4 16 5 2 6 1 7 3 8 11 10 9 11 10 12 5 13
REMARK SMILES IDX 6 14 7 15 8 16 4 17
REMARK H PARENT
REMARK Flexibility Score: 60.00
ROOT
ATOM      1  C   UNL     1      24.026 -20.096  15.952  1.00  0.00    -0.070 C 
ATOM      2  C   UNL     1      23.370 -21.216  15.565  1.00  0.00    -0.027 C 
ATOM      3  C   UNL     1      24.944 -19.445  14.946  1.00  0.00     0.039 C 
ENDROOT
BRANCH   2   4
ATOM      4  C   UNL     1      22.330 -21.964  16.366  1.00  0.00     0.032 C 
BRANCH   4   5
ATOM      5  C   UNL     1      22.618 -23.474  16.445  1.00  0.00     0.034 C 
BRANCH   5   6
ATOM      6  C   UNL     1      23.404 -23.843  17.688  1.00  0.00    -0.077 C 
ATOM      7  C   UNL     1      24.344 -25.020  17.617  1.00  0.00     0.039 C 
ATOM      8  C   UNL     1      23.290 -23.193  18.868  1.00  0.00    -0.023 CG0
ATOM      9  G   UNL     1      22.381 -22.021  19.146  1.00  0.00     0.000 G0
ENDBRANCH   5   6
ENDBRANCH   4   5
ENDBRANCH   2   4
BRANCH   1  10
ATOM     10  C   UNL     1      23.836 -19.430  17.305  1.00  0.00     0.111 C 
BRANCH  10  11
ATOM     11  C   UNL     1      24.214 -20.354  18.436  1.00  0.00     0.163 C 
ATOM     12  O   UNL     1      25.393 -20.801  18.467  1.00  0.00    -0.294 OA
BRANCH  11  13
ATOM     13  C   UNL     1      23.226 -20.785  19.471  1.00  0.00    -0.002 C 
ATOM     14  C   UNL     1      23.032 -20.072  20.623  1.00  0.00    -0.069 C 
ATOM     15  C   UNL     1      23.757 -18.769  20.879  1.00  0.00     0.039 C 
ATOM     16  C   UNL     1      22.057 -20.537  21.683  1.00  0.00     0.039 C 
BRANCH  13  17
ATOM     17  C   UNL     1      22.386 -22.011  19.157  1.00  0.00     0.066 CG0
ATOM     18  G   UNL     1      23.286 -23.189  18.874  1.00  0.00     0.000 G0
ENDBRANCH  13  17
ENDBRANCH  11  13
ENDBRANCH  10  11
ENDBRANCH   1  10
TORSDOF 0
ENDMDL
MODEL 8
REMARK VINA RESULT:    -4.717      2.147      3.722
REMARK INTER + INTRA:          -6.135
REMARK INTER:                  -7.316
REMARK INTRA:                   1.181
REMARK UNBOUND:                 0.512
REMARK SMILES CC1=CCC(=C(C)C)C(=O)CC(C)=CCC1
REMARK SMILES IDX 12 1 14 2 13 3 15 4 16 5 2 6 1 7 3 8 11 10 9 11 10 12 5 13
REMARK SMILES IDX 6 14 7 15 8 16 4 17
REMARK H PARENT
REMARK Flexibility Score: 60.00
ROOT
ATOM      1  C   UNL     1      23.679 -19.707  16.212  1.00  0.00    -0.070 C 
ATOM      2  C   UNL     1      24.123 -19.166  17.370  1.00  0.00    -0.027 C 
ATOM      3  C   UNL     1      23.081 -18.770  15.190  1.00  0.00     0.039 C 
ENDROOT
BRANCH   2   4
ATOM      4  C   UNL     1      24.846 -19.895  18.478  1.00  0.00     0.032 C 
BRANCH   4   5
ATOM      5  C   UNL     1      24.256 -19.594  19.868  1.00  0.00     0.034 C 
BRANCH   5   6
ATOM      6  C   UNL     1      23.228 -20.627  20.289  1.00  0.00    -0.077 C 
ATOM      7  C   UNL     1      22.151 -20.209  21.258  1.00  0.00     0.039 C 
ATOM      8  C   UNL     1      23.238 -21.911  19.867  1.00  0.00    -0.023 CG0
ATOM      9  G   UNL     1      24.250 -22.524  18.930  1.00  0.00     0.000 G0
ENDBRANCH   5   6
ENDBRANCH   4   5
ENDBRANCH   2   4
BRANCH   1  10
ATOM     10  C   UNL     1      23.810 -21.181  15.862  1.00  0.00     0.111 C 
BRANCH  10  11
ATOM     11  C   UNL     1      22.961 -22.042  16.764  1.00  0.00     0.163 C 
ATOM     12  O   UNL     1      21.714 -21.855  16.761  1.00  0.00    -0.294 OA
BRANCH  11  13
ATOM     13  C   UNL     1      23.560 -23.059  17.682  1.00  0.00    -0.002 C 
ATOM     14  C   UNL     1      23.551 -24.394  17.382  1.00  0.00    -0.069 C 
ATOM     15  C   UNL     1      22.997 -24.907  16.072  1.00  0.00     0.039 C 
ATOM     16  C   UNL     1      24.125 -25.419  18.335  1.00  0.00     0.039 C 
BRANCH  13  17
ATOM     17  C   UNL     1      24.250 -22.540  18.931  1.00  0.00     0.066 CG0
ATOM     18  G   UNL     1      23.233 -21.915  19.855  1.00  0.00     0.000 G0
ENDBRANCH  13  17
ENDBRANCH  11  13
ENDBRANCH  10  11
ENDBRANCH   1  10
TORSDOF 0
ENDMDL
MODEL 9
REMARK VINA RESULT:    -4.519      2.481      4.747
REMARK INTER + INTRA:          -5.856
REMARK INTER:                  -6.930
REMARK INTRA:                   1.074
REMARK UNBOUND:                 0.512
REMARK SMILES CC1=CCC(=C(C)C)C(=O)CC(C)=CCC1
REMARK SMILES IDX 12 1 14 2 13 3 15 4 16 5 2 6 1 7 3 8 11 10 9 11 10 12 5 13
REMARK SMILES IDX 6 14 7 15 8 16 4 17
REMARK H PARENT
REMARK Flexibility Score: 60.00
ROOT
ATOM      1  C   UNL     1      23.981 -20.295  16.530  1.00  0.00    -0.070 C 
ATOM      2  C   UNL     1      23.376 -21.506  16.530  1.00  0.00    -0.027 C 
ATOM      3  C   UNL     1      24.500 -19.776  15.211  1.00  0.00     0.039 C 
ENDROOT
BRANCH   2   4
ATOM      4  C   UNL     1      22.695 -22.165  17.706  1.00  0.00     0.032 C 
BRANCH   4   5
ATOM      5  C   UNL     1      23.212 -23.592  17.966  1.00  0.00     0.034 C 
BRANCH   5   6
ATOM      6  C   UNL     1      23.980 -23.695  19.270  1.00  0.00    -0.077 C 
ATOM      7  C   UNL     1      23.343 -24.437  20.417  1.00  0.00     0.039 C 
ATOM      8  C   UNL     1      25.193 -23.134  19.472  1.00  0.00    -0.023 CG0
ATOM      9  G   UNL     1      25.972 -22.327  18.462  1.00  0.00     0.000 G0
ENDBRANCH   5   6
ENDBRANCH   4   5
ENDBRANCH   2   4
BRANCH   1  10
ATOM     10  C   UNL     1      24.103 -19.411  17.761  1.00  0.00     0.111 C 
BRANCH  10  11
ATOM     11  C   UNL     1      24.676 -20.169  18.933  1.00  0.00     0.163 C 
ATOM     12  O   UNL     1      24.025 -20.173  20.013  1.00  0.00    -0.294 OA
BRANCH  11  13
ATOM     13  C   UNL     1      26.000 -20.860  18.859  1.00  0.00    -0.002 C 
ATOM     14  C   UNL     1      27.164 -20.225  19.193  1.00  0.00    -0.069 C 
ATOM     15  C   UNL     1      27.168 -18.809  19.726  1.00  0.00     0.039 C 
ATOM     16  C   UNL     1      28.503 -20.920  19.077  1.00  0.00     0.039 C 
BRANCH  13  17
ATOM     17  C   UNL     1      25.992 -22.328  18.467  1.00  0.00     0.066 CG0
ATOM     18  G   UNL     1      25.190 -23.121  19.470  1.00  0.00     0.000 G0
ENDBRANCH  13  17
ENDBRANCH  11  13
ENDBRANCH  10  11
ENDBRANCH   1  10
TORSDOF 0
ENDMDL
