MODEL 1
REMARK VINA RESULT:    -4.763      0.000      0.000
REMARK INTER + INTRA:          -7.957
REMARK INTER:                  -7.547
REMARK INTRA:                  -0.410
REMARK UNBOUND:                -0.410
REMARK SMILES CCCCCCCCCCCC(=O)[O-]
REMARK SMILES IDX 7 1 8 2 9 3 10 4 11 5 12 6 13 7 14 8 6 9 5 10 4 11 3 12 2 13
REMARK SMILES IDX 1 14
REMARK H PARENT
REMARK Flexibility Score: inf
ROOT
ATOM      1  C   UNL     1      -1.809   9.520  -4.271  1.00  0.00     0.000 C 
ENDROOT
BRANCH   1   2
ATOM      2  C   UNL     1      -2.964   9.003  -3.396  1.00  0.00     0.000 C 
BRANCH   2   3
ATOM      3  C   UNL     1      -4.182   9.943  -3.415  1.00  0.00     0.000 C 
BRANCH   3   4
ATOM      4  C   UNL     1      -5.202   9.564  -4.501  1.00  0.00     0.006 C 
BRANCH   4   5
ATOM      5  C   UNL     1      -4.987   8.147  -5.048  1.00  0.00     0.053 C 
BRANCH   5   6
ATOM      6  C   UNL     1      -6.269   7.377  -5.021  1.00  0.00     0.041 C 
ATOM      7  O   UNL     1      -6.252   6.121  -4.920  1.00  0.00    -0.550 OA
ATOM      8  O   UNL     1      -7.485   8.048  -5.055  1.00  0.00    -0.550 OA
ENDBRANCH   5   6
ENDBRANCH   4   5
ENDBRANCH   3   4
ENDBRANCH   2   3
ENDBRANCH   1   2
BRANCH   1   9
ATOM      9  C   UNL     1      -1.325   8.470  -5.285  1.00  0.00     0.000 C 
BRANCH   9  10
ATOM     10  C   UNL     1      -0.441   9.071  -6.395  1.00  0.00    -0.000 C 
BRANCH  10  11
ATOM     11  C   UNL     1       0.888   8.334  -6.637  1.00  0.00    -0.000 C 
BRANCH  11  12
ATOM     12  C   UNL     1       1.551   8.718  -7.972  1.00  0.00    -0.000 C 
BRANCH  12  13
ATOM     13  C   UNL     1       2.562   7.665  -8.452  1.00  0.00    -0.003 C 
ATOM     14  C   UNL     1       3.015   6.730  -7.331  1.00  0.00     0.004 C 
ENDBRANCH  12  13
ENDBRANCH  11  12
ENDBRANCH  10  11
ENDBRANCH   9  10
ENDBRANCH   1   9
TORSDOF 10
ENDMDL
MODEL 2
REMARK VINA RESULT:    -4.610      3.616      6.593
REMARK INTER + INTRA:          -7.715
REMARK INTER:                  -6.910
REMARK INTRA:                  -0.804
REMARK UNBOUND:                -0.410
REMARK SMILES CCCCCCCCCCCC(=O)[O-]
REMARK SMILES IDX 7 1 8 2 9 3 10 4 11 5 12 6 13 7 14 8 6 9 5 10 4 11 3 12 2 13
REMARK SMILES IDX 1 14
REMARK H PARENT
REMARK Flexibility Score: inf
ROOT
ATOM      1  C   UNL     1      -2.999   9.033  -3.320  1.00  0.00     0.000 C 
ENDROOT
BRANCH   1   2
ATOM      2  C   UNL     1      -1.910   9.512  -4.294  1.00  0.00     0.000 C 
BRANCH   2   3
ATOM      3  C   UNL     1      -1.638   8.498  -5.418  1.00  0.00     0.000 C 
BRANCH   3   4
ATOM      4  C   UNL     1      -0.136   8.278  -5.663  1.00  0.00     0.006 C 
BRANCH   4   5
ATOM      5  C   UNL     1       0.378   9.025  -6.901  1.00  0.00     0.053 C 
BRANCH   5   6
ATOM      6  C   UNL     1       1.581   8.338  -7.463  1.00  0.00     0.041 C 
ATOM      7  O   UNL     1       2.106   7.372  -6.846  1.00  0.00    -0.550 OA
ATOM      8  O   UNL     1       2.096   8.728  -8.693  1.00  0.00    -0.550 OA
ENDBRANCH   5   6
ENDBRANCH   4   5
ENDBRANCH   3   4
ENDBRANCH   2   3
ENDBRANCH   1   2
BRANCH   1   9
ATOM      9  C   UNL     1      -4.246   9.934  -3.341  1.00  0.00     0.000 C 
BRANCH   9  10
ATOM     10  C   UNL     1      -5.037   9.833  -4.660  1.00  0.00    -0.000 C 
BRANCH  10  11
ATOM     11  C   UNL     1      -6.131   8.750  -4.680  1.00  0.00    -0.000 C 
BRANCH  11  12
ATOM     12  C   UNL     1      -6.013   7.803  -5.887  1.00  0.00    -0.000 C 
BRANCH  12  13
ATOM     13  C   UNL     1      -5.372   6.456  -5.518  1.00  0.00    -0.003 C 
ATOM     14  C   UNL     1      -4.149   6.131  -6.375  1.00  0.00     0.004 C 
ENDBRANCH  12  13
ENDBRANCH  11  12
ENDBRANCH  10  11
ENDBRANCH   9  10
ENDBRANCH   1   9
TORSDOF 10
ENDMDL
MODEL 3
REMARK VINA RESULT:    -4.549      3.935      7.293
REMARK INTER + INTRA:          -7.619
REMARK INTER:                  -7.090
REMARK INTRA:                  -0.528
REMARK UNBOUND:                -0.410
REMARK SMILES CCCCCCCCCCCC(=O)[O-]
REMARK SMILES IDX 7 1 8 2 9 3 10 4 11 5 12 6 13 7 14 8 6 9 5 10 4 11 3 12 2 13
REMARK SMILES IDX 1 14
REMARK H PARENT
REMARK Flexibility Score: inf
ROOT
ATOM      1  C   UNL     1      -1.135   8.626  -4.624  1.00  0.00     0.000 C 
ENDROOT
BRANCH   1   2
ATOM      2  C   UNL     1      -0.651   9.748  -5.559  1.00  0.00     0.000 C 
BRANCH   2   3
ATOM      3  C   UNL     1      -0.141   9.211  -6.907  1.00  0.00     0.000 C 
BRANCH   3   4
ATOM      4  C   UNL     1       1.077   8.286  -6.750  1.00  0.00     0.006 C 
BRANCH   4   5
ATOM      5  C   UNL     1       1.978   8.277  -7.992  1.00  0.00     0.053 C 
BRANCH   5   6
ATOM      6  C   UNL     1       3.043   7.236  -7.857  1.00  0.00     0.041 C 
ATOM      7  O   UNL     1       3.984   7.179  -8.693  1.00  0.00    -0.550 OA
ATOM      8  O   UNL     1       3.026   6.359  -6.779  1.00  0.00    -0.550 OA
ENDBRANCH   5   6
ENDBRANCH   4   5
ENDBRANCH   3   4
ENDBRANCH   2   3
ENDBRANCH   1   2
BRANCH   1   9
ATOM      9  C   UNL     1      -2.179   9.117  -3.606  1.00  0.00     0.000 C 
BRANCH   9  10
ATOM     10  C   UNL     1      -3.274   9.993  -4.246  1.00  0.00    -0.000 C 
BRANCH  10  11
ATOM     11  C   UNL     1      -4.673   9.843  -3.622  1.00  0.00    -0.000 C 
BRANCH  11  12
ATOM     12  C   UNL     1      -5.696   9.220  -4.588  1.00  0.00    -0.000 C 
BRANCH  12  13
ATOM     13  C   UNL     1      -5.063   8.182  -5.527  1.00  0.00    -0.003 C 
ATOM     14  C   UNL     1      -5.580   6.766  -5.274  1.00  0.00     0.004 C 
ENDBRANCH  12  13
ENDBRANCH  11  12
ENDBRANCH  10  11
ENDBRANCH   9  10
ENDBRANCH   1   9
TORSDOF 10
ENDMDL
MODEL 4
REMARK VINA RESULT:    -4.518      1.637      3.364
REMARK INTER + INTRA:          -7.569
REMARK INTER:                  -6.722
REMARK INTRA:                  -0.847
REMARK UNBOUND:                -0.410
REMARK SMILES CCCCCCCCCCCC(=O)[O-]
REMARK SMILES IDX 7 1 8 2 9 3 10 4 11 5 12 6 13 7 14 8 6 9 5 10 4 11 3 12 2 13
REMARK SMILES IDX 1 14
REMARK H PARENT
REMARK Flexibility Score: inf
ROOT
ATOM      1  C   UNL     1      -4.771  10.027  -4.706  1.00  0.00     0.000 C 
ENDROOT
BRANCH   1   2
ATOM      2  C   UNL     1      -5.604   8.821  -5.172  1.00  0.00     0.000 C 
BRANCH   2   3
ATOM      3  C   UNL     1      -4.765   7.791  -5.948  1.00  0.00     0.000 C 
BRANCH   3   4
ATOM      4  C   UNL     1      -5.390   6.387  -5.928  1.00  0.00     0.006 C 
BRANCH   4   5
ATOM      5  C   UNL     1      -6.738   6.348  -5.197  1.00  0.00     0.053 C 
BRANCH   5   6
ATOM      6  C   UNL     1      -7.804   5.806  -6.096  1.00  0.00     0.041 C 
ATOM      7  O   UNL     1      -7.492   5.194  -7.152  1.00  0.00    -0.550 OA
ATOM      8  O   UNL     1      -9.142   5.932  -5.744  1.00  0.00    -0.550 OA
ENDBRANCH   5   6
ENDBRANCH   4   5
ENDBRANCH   3   4
ENDBRANCH   2   3
ENDBRANCH   1   2
BRANCH   1   9
ATOM      9  C   UNL     1      -4.241   9.857  -3.272  1.00  0.00     0.000 C 
BRANCH   9  10
ATOM     10  C   UNL     1      -2.873   9.151  -3.218  1.00  0.00    -0.000 C 
BRANCH  10  11
ATOM     11  C   UNL     1      -1.852   9.630  -4.266  1.00  0.00    -0.000 C 
BRANCH  11  12
ATOM     12  C   UNL     1      -1.223   8.472  -5.061  1.00  0.00    -0.000 C 
BRANCH  12  13
ATOM     13  C   UNL     1      -0.847   8.878  -6.494  1.00  0.00    -0.003 C 
ATOM     14  C   UNL     1       0.632   8.646  -6.804  1.00  0.00     0.004 C 
ENDBRANCH  12  13
ENDBRANCH  11  12
ENDBRANCH  10  11
ENDBRANCH   9  10
ENDBRANCH   1   9
TORSDOF 10
ENDMDL
MODEL 5
REMARK VINA RESULT:    -4.381      1.020      2.041
REMARK INTER + INTRA:          -7.352
REMARK INTER:                  -6.528
REMARK INTRA:                  -0.824
REMARK UNBOUND:                -0.410
REMARK SMILES CCCCCCCCCCCC(=O)[O-]
REMARK SMILES IDX 7 1 8 2 9 3 10 4 11 5 12 6 13 7 14 8 6 9 5 10 4 11 3 12 2 13
REMARK SMILES IDX 1 14
REMARK H PARENT
REMARK Flexibility Score: inf
ROOT
ATOM      1  C   UNL     1      -3.248   9.085  -3.337  1.00  0.00     0.000 C 
ENDROOT
BRANCH   1   2
ATOM      2  C   UNL     1      -4.360  10.119  -3.585  1.00  0.00     0.000 C 
BRANCH   2   3
ATOM      3  C   UNL     1      -5.204   9.788  -4.828  1.00  0.00     0.000 C 
BRANCH   3   4
ATOM      4  C   UNL     1      -5.824   8.383  -4.762  1.00  0.00     0.006 C 
BRANCH   4   5
ATOM      5  C   UNL     1      -5.343   7.469  -5.897  1.00  0.00     0.053 C 
BRANCH   5   6
ATOM      6  C   UNL     1      -6.291   6.328  -6.086  1.00  0.00     0.041 C 
ATOM      7  O   UNL     1      -7.155   6.068  -5.205  1.00  0.00    -0.550 OA
ATOM      8  O   UNL     1      -6.256   5.580  -7.256  1.00  0.00    -0.550 OA
ENDBRANCH   5   6
ENDBRANCH   4   5
ENDBRANCH   3   4
ENDBRANCH   2   3
ENDBRANCH   1   2
BRANCH   1   9
ATOM      9  C   UNL     1      -1.883   9.550  -3.872  1.00  0.00     0.000 C 
BRANCH   9  10
ATOM     10  C   UNL     1      -1.308   8.609  -4.948  1.00  0.00    -0.000 C 
BRANCH  10  11
ATOM     11  C   UNL     1      -1.751   8.920  -6.389  1.00  0.00    -0.000 C 
BRANCH  11  12
ATOM     12  C   UNL     1      -0.566   9.132  -7.347  1.00  0.00    -0.000 C 
BRANCH  12  13
ATOM     13  C   UNL     1       0.756   8.596  -6.775  1.00  0.00    -0.003 C 
ATOM     14  C   UNL     1       1.791   8.304  -7.860  1.00  0.00     0.004 C 
ENDBRANCH  12  13
ENDBRANCH  11  12
ENDBRANCH  10  11
ENDBRANCH   9  10
ENDBRANCH   1   9
TORSDOF 10
ENDMDL
MODEL 6
REMARK VINA RESULT:    -4.229      3.412      6.258
REMARK INTER + INTRA:          -7.111
REMARK INTER:                  -6.202
REMARK INTRA:                  -0.909
REMARK UNBOUND:                -0.410
REMARK SMILES CCCCCCCCCCCC(=O)[O-]
REMARK SMILES IDX 7 1 8 2 9 3 10 4 11 5 12 6 13 7 14 8 6 9 5 10 4 11 3 12 2 13
REMARK SMILES IDX 1 14
REMARK H PARENT
REMARK Flexibility Score: inf
ROOT
ATOM      1  C   UNL     1      -4.880  10.124  -5.165  1.00  0.00     0.000 C 
ENDROOT
BRANCH   1   2
ATOM      2  C   UNL     1      -4.599   9.797  -3.688  1.00  0.00     0.000 C 
BRANCH   2   3
ATOM      3  C   UNL     1      -3.165   9.290  -3.460  1.00  0.00     0.000 C 
BRANCH   3   4
ATOM      4  C   UNL     1      -2.234   9.604  -4.643  1.00  0.00     0.006 C 
BRANCH   4   5
ATOM      5  C   UNL     1      -1.823   8.349  -5.424  1.00  0.00     0.053 C 
BRANCH   5   6
ATOM      6  C   UNL     1      -0.333   8.252  -5.507  1.00  0.00     0.041 C 
ATOM      7  O   UNL     1       0.321   7.709  -4.576  1.00  0.00    -0.550 OA
ATOM      8  O   UNL     1       0.333   8.713  -6.636  1.00  0.00    -0.550 OA
ENDBRANCH   5   6
ENDBRANCH   4   5
ENDBRANCH   3   4
ENDBRANCH   2   3
ENDBRANCH   1   2
BRANCH   1   9
ATOM      9  C   UNL     1      -6.284   9.679  -5.609  1.00  0.00     0.000 C 
BRANCH   9  10
ATOM     10  C   UNL     1      -6.867   8.560  -4.726  1.00  0.00    -0.000 C 
BRANCH  10  11
ATOM     11  C   UNL     1      -7.708   7.511  -5.476  1.00  0.00    -0.000 C 
BRANCH  11  12
ATOM     12  C   UNL     1      -6.988   6.160  -5.624  1.00  0.00    -0.000 C 
BRANCH  12  13
ATOM     13  C   UNL     1      -5.975   6.157  -6.780  1.00  0.00    -0.003 C 
ATOM     14  C   UNL     1      -4.526   6.120  -6.293  1.00  0.00     0.004 C 
ENDBRANCH  12  13
ENDBRANCH  11  12
ENDBRANCH  10  11
ENDBRANCH   9  10
ENDBRANCH   1   9
TORSDOF 10
ENDMDL
MODEL 7
REMARK VINA RESULT:    -4.224      1.630      2.983
REMARK INTER + INTRA:          -7.104
REMARK INTER:                  -6.550
REMARK INTRA:                  -0.553
REMARK UNBOUND:                -0.410
REMARK SMILES CCCCCCCCCCCC(=O)[O-]
REMARK SMILES IDX 7 1 8 2 9 3 10 4 11 5 12 6 13 7 14 8 6 9 5 10 4 11 3 12 2 13
REMARK SMILES IDX 1 14
REMARK H PARENT
REMARK Flexibility Score: inf
ROOT
ATOM      1  C   UNL     1      -4.722   9.864  -3.608  1.00  0.00     0.000 C 
ENDROOT
BRANCH   1   2
ATOM      2  C   UNL     1      -5.145  10.032  -5.078  1.00  0.00     0.000 C 
BRANCH   2   3
ATOM      3  C   UNL     1      -5.683   8.726  -5.688  1.00  0.00     0.000 C 
BRANCH   3   4
ATOM      4  C   UNL     1      -6.625   7.974  -4.734  1.00  0.00     0.006 C 
BRANCH   4   5
ATOM      5  C   UNL     1      -7.888   7.457  -5.434  1.00  0.00     0.053 C 
BRANCH   5   6
ATOM      6  C   UNL     1      -9.027   8.402  -5.220  1.00  0.00     0.041 C 
ATOM      7  O   UNL     1      -9.139   9.432  -5.937  1.00  0.00    -0.550 OA
ATOM      8  O   UNL     1      -9.996   8.121  -4.265  1.00  0.00    -0.550 OA
ENDBRANCH   5   6
ENDBRANCH   4   5
ENDBRANCH   3   4
ENDBRANCH   2   3
ENDBRANCH   1   2
BRANCH   1   9
ATOM      9  C   UNL     1      -3.340   9.203  -3.465  1.00  0.00     0.000 C 
BRANCH   9  10
ATOM     10  C   UNL     1      -2.368   9.597  -4.594  1.00  0.00    -0.000 C 
BRANCH  10  11
ATOM     11  C   UNL     1      -1.841   8.421  -5.437  1.00  0.00    -0.000 C 
BRANCH  11  12
ATOM     12  C   UNL     1      -0.305   8.393  -5.530  1.00  0.00    -0.000 C 
BRANCH  12  13
ATOM     13  C   UNL     1       0.216   9.010  -6.837  1.00  0.00    -0.003 C 
ATOM     14  C   UNL     1       1.479   8.319  -7.352  1.00  0.00     0.004 C 
ENDBRANCH  12  13
ENDBRANCH  11  12
ENDBRANCH  10  11
ENDBRANCH   9  10
ENDBRANCH   1   9
TORSDOF 10
ENDMDL
MODEL 8
REMARK VINA RESULT:    -4.202      2.013      3.771
REMARK INTER + INTRA:          -7.069
REMARK INTER:                  -6.259
REMARK INTRA:                  -0.810
REMARK UNBOUND:                -0.410
REMARK SMILES CCCCCCCCCCCC(=O)[O-]
REMARK SMILES IDX 7 1 8 2 9 3 10 4 11 5 12 6 13 7 14 8 6 9 5 10 4 11 3 12 2 13
REMARK SMILES IDX 1 14
REMARK H PARENT
REMARK Flexibility Score: inf
ROOT
ATOM      1  C   UNL     1      -4.886   9.816  -5.326  1.00  0.00     0.000 C 
ENDROOT
BRANCH   1   2
ATOM      2  C   UNL     1      -6.116   9.000  -5.762  1.00  0.00     0.000 C 
BRANCH   2   3
ATOM      3  C   UNL     1      -6.455   7.874  -4.771  1.00  0.00     0.000 C 
BRANCH   3   4
ATOM      4  C   UNL     1      -6.206   6.476  -5.360  1.00  0.00     0.006 C 
BRANCH   4   5
ATOM      5  C   UNL     1      -5.808   6.518  -6.841  1.00  0.00     0.053 C 
BRANCH   5   6
ATOM      6  C   UNL     1      -4.408   6.023  -7.019  1.00  0.00     0.041 C 
ATOM      7  O   UNL     1      -3.460   6.560  -6.386  1.00  0.00    -0.550 OA
ATOM      8  O   UNL     1      -4.154   4.934  -7.845  1.00  0.00    -0.550 OA
ENDBRANCH   5   6
ENDBRANCH   4   5
ENDBRANCH   3   4
ENDBRANCH   2   3
ENDBRANCH   1   2
BRANCH   1   9
ATOM      9  C   UNL     1      -4.658   9.768  -3.806  1.00  0.00     0.000 C 
BRANCH   9  10
ATOM     10  C   UNL     1      -3.295   9.161  -3.423  1.00  0.00    -0.000 C 
BRANCH  10  11
ATOM     11  C   UNL     1      -2.074   9.854  -4.055  1.00  0.00    -0.000 C 
BRANCH  11  12
ATOM     12  C   UNL     1      -1.201   8.892  -4.880  1.00  0.00    -0.000 C 
BRANCH  12  13
ATOM     13  C   UNL     1      -0.297   9.629  -5.881  1.00  0.00    -0.003 C 
ATOM     14  C   UNL     1       0.532   8.674  -6.739  1.00  0.00     0.004 C 
ENDBRANCH  12  13
ENDBRANCH  11  12
ENDBRANCH  10  11
ENDBRANCH   9  10
ENDBRANCH   1   9
TORSDOF 10
ENDMDL
MODEL 9
REMARK VINA RESULT:    -4.160      1.670      2.166
REMARK INTER + INTRA:          -7.001
REMARK INTER:                  -6.405
REMARK INTRA:                  -0.596
REMARK UNBOUND:                -0.410
REMARK SMILES CCCCCCCCCCCC(=O)[O-]
REMARK SMILES IDX 7 1 8 2 9 3 10 4 11 5 12 6 13 7 14 8 6 9 5 10 4 11 3 12 2 13
REMARK SMILES IDX 1 14
REMARK H PARENT
REMARK Flexibility Score: inf
ROOT
ATOM      1  C   UNL     1      -2.093   8.604  -6.845  1.00  0.00     0.000 C 
ENDROOT
BRANCH   1   2
ATOM      2  C   UNL     1      -3.311   7.670  -6.952  1.00  0.00     0.000 C 
BRANCH   2   3
ATOM      3  C   UNL     1      -4.639   8.403  -6.698  1.00  0.00     0.000 C 
BRANCH   3   4
ATOM      4  C   UNL     1      -5.339   7.928  -5.415  1.00  0.00     0.006 C 
BRANCH   4   5
ATOM      5  C   UNL     1      -5.492   6.403  -5.353  1.00  0.00     0.053 C 
BRANCH   5   6
ATOM      6  C   UNL     1      -6.742   5.975  -6.055  1.00  0.00     0.041 C 
ATOM      7  O   UNL     1      -7.846   5.984  -5.447  1.00  0.00    -0.550 OA
ATOM      8  O   UNL     1      -6.698   5.614  -7.396  1.00  0.00    -0.550 OA
ENDBRANCH   5   6
ENDBRANCH   4   5
ENDBRANCH   3   4
ENDBRANCH   2   3
ENDBRANCH   1   2
BRANCH   1   9
ATOM      9  C   UNL     1      -1.167   8.231  -5.674  1.00  0.00     0.000 C 
BRANCH   9  10
ATOM     10  C   UNL     1       0.325   8.431  -6.002  1.00  0.00    -0.000 C 
BRANCH  10  11
ATOM     11  C   UNL     1       0.606   9.271  -7.261  1.00  0.00    -0.000 C 
BRANCH  11  12
ATOM     12  C   UNL     1       1.616   8.604  -8.212  1.00  0.00    -0.000 C 
BRANCH  12  13
ATOM     13  C   UNL     1       2.386   7.455  -7.541  1.00  0.00    -0.003 C 
ATOM     14  C   UNL     1       3.697   7.129  -8.255  1.00  0.00     0.004 C 
ENDBRANCH  12  13
ENDBRANCH  11  12
ENDBRANCH  10  11
ENDBRANCH   9  10
ENDBRANCH   1   9
TORSDOF 10
ENDMDL
