MODEL 1
REMARK VINA RESULT:    -3.595      0.000      0.000
REMARK INTER + INTRA:          -4.552
REMARK INTER:                  -4.330
REMARK INTRA:                  -0.222
REMARK UNBOUND:                -0.222
REMARK SMILES OCC(O)CO
REMARK SMILES IDX 3 1 5 2 6 3 2 5 1 6 4 8
REMARK H PARENT 6 4 1 7 4 9
REMARK Flexibility Score: inf
ROOT
ATOM      1  C   UNL     1      -2.706 -49.739 -14.336  1.00  0.00     0.165 C 
ENDROOT
BRANCH   1   2
ATOM      2  C   UNL     1      -3.776 -50.767 -13.948  1.00  0.00     0.190 C 
BRANCH   2   3
ATOM      3  O   UNL     1      -3.785 -51.833 -14.858  1.00  0.00    -0.394 OA
ATOM      4  H   UNL     1      -4.228 -51.499 -15.683  1.00  0.00     0.210 HD
ENDBRANCH   2   3
ENDBRANCH   1   2
BRANCH   1   5
ATOM      5  C   UNL     1      -3.212 -48.839 -15.474  1.00  0.00     0.190 C 
BRANCH   5   6
ATOM      6  O   UNL     1      -3.221 -49.538 -16.689  1.00  0.00    -0.394 OA
ATOM      7  H   UNL     1      -2.297 -49.873 -16.831  1.00  0.00     0.210 HD
ENDBRANCH   5   6
ENDBRANCH   1   5
BRANCH   1   8
ATOM      8  O   UNL     1      -2.389 -48.958 -13.212  1.00  0.00    -0.388 OA
ATOM      9  H   UNL     1      -2.874 -49.351 -12.440  1.00  0.00     0.211 HD
ENDBRANCH   1   8
TORSDOF 5
ENDMDL
MODEL 2
REMARK VINA RESULT:    -3.581      0.861      2.397
REMARK INTER + INTRA:          -4.535
REMARK INTER:                  -4.312
REMARK INTRA:                  -0.223
REMARK UNBOUND:                -0.222
REMARK SMILES OCC(O)CO
REMARK SMILES IDX 3 1 5 2 6 3 2 5 1 6 4 8
REMARK H PARENT 6 4 1 7 4 9
REMARK Flexibility Score: inf
ROOT
ATOM      1  C   UNL     1      -2.882 -49.795 -14.230  1.00  0.00     0.165 C 
ENDROOT
BRANCH   1   2
ATOM      2  C   UNL     1      -2.935 -48.856 -15.441  1.00  0.00     0.190 C 
BRANCH   2   3
ATOM      3  O   UNL     1      -3.209 -49.578 -16.611  1.00  0.00    -0.394 OA
ATOM      4  H   UNL     1      -4.184 -49.489 -16.779  1.00  0.00     0.210 HD
ENDBRANCH   2   3
ENDBRANCH   1   2
BRANCH   1   5
ATOM      5  C   UNL     1      -4.093 -50.742 -14.230  1.00  0.00     0.190 C 
BRANCH   5   6
ATOM      6  O   UNL     1      -3.785 -51.936 -14.897  1.00  0.00    -0.394 OA
ATOM      7  H   UNL     1      -4.162 -51.856 -15.813  1.00  0.00     0.210 HD
ENDBRANCH   5   6
ENDBRANCH   1   5
BRANCH   1   8
ATOM      8  O   UNL     1      -1.692 -50.540 -14.276  1.00  0.00    -0.388 OA
ATOM      9  H   UNL     1      -1.752 -51.133 -15.070  1.00  0.00     0.211 HD
ENDBRANCH   1   8
TORSDOF 5
ENDMDL
MODEL 3
REMARK VINA RESULT:    -3.569      2.909      3.874
REMARK INTER + INTRA:          -4.521
REMARK INTER:                  -4.332
REMARK INTRA:                  -0.189
REMARK UNBOUND:                -0.222
REMARK SMILES OCC(O)CO
REMARK SMILES IDX 3 1 5 2 6 3 2 5 1 6 4 8
REMARK H PARENT 6 4 1 7 4 9
REMARK Flexibility Score: inf
ROOT
ATOM      1  C   UNL     1      -3.413 -47.304 -14.492  1.00  0.00     0.165 C 
ENDROOT
BRANCH   1   2
ATOM      2  C   UNL     1      -3.384 -45.798 -14.204  1.00  0.00     0.190 C 
BRANCH   2   3
ATOM      3  O   UNL     1      -2.062 -45.332 -14.160  1.00  0.00    -0.394 OA
ATOM      4  H   UNL     1      -1.634 -45.768 -13.376  1.00  0.00     0.210 HD
ENDBRANCH   2   3
ENDBRANCH   1   2
BRANCH   1   5
ATOM      5  C   UNL     1      -3.785 -47.564 -15.960  1.00  0.00     0.190 C 
BRANCH   5   6
ATOM      6  O   UNL     1      -3.162 -46.631 -16.801  1.00  0.00    -0.394 OA
ATOM      7  H   UNL     1      -3.397 -46.885 -17.731  1.00  0.00     0.210 HD
ENDBRANCH   5   6
ENDBRANCH   1   5
BRANCH   1   8
ATOM      8  O   UNL     1      -2.149 -47.850 -14.215  1.00  0.00    -0.388 OA
ATOM      9  H   UNL     1      -2.074 -48.689 -14.741  1.00  0.00     0.211 HD
ENDBRANCH   1   8
TORSDOF 5
ENDMDL
MODEL 4
REMARK VINA RESULT:    -3.512      2.294      3.366
REMARK INTER + INTRA:          -4.452
REMARK INTER:                  -4.230
REMARK INTRA:                  -0.222
REMARK UNBOUND:                -0.222
REMARK SMILES OCC(O)CO
REMARK SMILES IDX 3 1 5 2 6 3 2 5 1 6 4 8
REMARK H PARENT 6 4 1 7 4 9
REMARK Flexibility Score: inf
ROOT
ATOM      1  C   UNL     1      -3.855 -47.440 -15.804  1.00  0.00     0.165 C 
ENDROOT
BRANCH   1   2
ATOM      2  C   UNL     1      -5.350 -47.753 -15.941  1.00  0.00     0.190 C 
BRANCH   2   3
ATOM      3  O   UNL     1      -5.671 -48.040 -17.275  1.00  0.00    -0.394 OA
ATOM      4  H   UNL     1      -5.181 -48.871 -17.512  1.00  0.00     0.210 HD
ENDBRANCH   2   3
ENDBRANCH   1   2
BRANCH   1   5
ATOM      5  C   UNL     1      -3.053 -48.732 -15.578  1.00  0.00     0.190 C 
BRANCH   5   6
ATOM      6  O   UNL     1      -3.216 -49.609 -16.660  1.00  0.00    -0.394 OA
ATOM      7  H   UNL     1      -4.189 -49.801 -16.725  1.00  0.00     0.210 HD
ENDBRANCH   5   6
ENDBRANCH   1   5
BRANCH   1   8
ATOM      8  O   UNL     1      -3.409 -46.798 -16.971  1.00  0.00    -0.388 OA
ATOM      9  H   UNL     1      -2.900 -47.470 -17.495  1.00  0.00     0.211 HD
ENDBRANCH   1   8
TORSDOF 5
ENDMDL
MODEL 5
REMARK VINA RESULT:    -3.506      2.069      3.416
REMARK INTER + INTRA:          -4.445
REMARK INTER:                  -4.434
REMARK INTRA:                  -0.011
REMARK UNBOUND:                -0.222
REMARK SMILES OCC(O)CO
REMARK SMILES IDX 3 1 5 2 6 3 2 5 1 6 4 8
REMARK H PARENT 6 4 1 7 4 9
REMARK Flexibility Score: inf
ROOT
ATOM      1  C   UNL     1      -3.830 -47.299 -15.738  1.00  0.00     0.165 C 
ENDROOT
BRANCH   1   2
ATOM      2  C   UNL     1      -3.066 -48.597 -15.451  1.00  0.00     0.190 C 
BRANCH   2   3
ATOM      3  O   UNL     1      -3.169 -49.477 -16.537  1.00  0.00    -0.394 OA
ATOM      4  H   UNL     1      -3.182 -50.396 -16.158  1.00  0.00     0.210 HD
ENDBRANCH   2   3
ENDBRANCH   1   2
BRANCH   1   5
ATOM      5  C   UNL     1      -3.516 -46.242 -14.666  1.00  0.00     0.190 C 
BRANCH   5   6
ATOM      6  O   UNL     1      -2.287 -46.514 -14.050  1.00  0.00    -0.394 OA
ATOM      7  H   UNL     1      -1.855 -45.636 -13.878  1.00  0.00     0.210 HD
ENDBRANCH   5   6
ENDBRANCH   1   5
BRANCH   1   8
ATOM      8  O   UNL     1      -3.462 -46.819 -17.006  1.00  0.00    -0.388 OA
ATOM      9  H   UNL     1      -4.117 -46.113 -17.249  1.00  0.00     0.211 HD
ENDBRANCH   1   8
TORSDOF 5
ENDMDL
MODEL 6
REMARK VINA RESULT:    -3.467      2.247      3.828
REMARK INTER + INTRA:          -4.398
REMARK INTER:                  -4.392
REMARK INTRA:                  -0.006
REMARK UNBOUND:                -0.222
REMARK SMILES OCC(O)CO
REMARK SMILES IDX 3 1 5 2 6 3 2 5 1 6 4 8
REMARK H PARENT 6 4 1 7 4 9
REMARK Flexibility Score: inf
ROOT
ATOM      1  C   UNL     1      -3.553 -47.143 -16.107  1.00  0.00     0.165 C 
ENDROOT
BRANCH   1   2
ATOM      2  C   UNL     1      -3.466 -46.102 -14.985  1.00  0.00     0.190 C 
BRANCH   2   3
ATOM      3  O   UNL     1      -2.228 -46.185 -14.333  1.00  0.00    -0.394 OA
ATOM      4  H   UNL     1      -2.275 -46.977 -13.735  1.00  0.00     0.210 HD
ENDBRANCH   2   3
ENDBRANCH   1   2
BRANCH   1   5
ATOM      5  C   UNL     1      -2.952 -48.481 -15.648  1.00  0.00     0.190 C 
BRANCH   5   6
ATOM      6  O   UNL     1      -3.186 -49.481 -16.602  1.00  0.00    -0.394 OA
ATOM      7  H   UNL     1      -3.609 -49.036 -17.382  1.00  0.00     0.210 HD
ENDBRANCH   5   6
ENDBRANCH   1   5
BRANCH   1   8
ATOM      8  O   UNL     1      -4.900 -47.322 -16.466  1.00  0.00    -0.388 OA
ATOM      9  H   UNL     1      -4.910 -47.899 -17.274  1.00  0.00     0.211 HD
ENDBRANCH   1   8
TORSDOF 5
ENDMDL
MODEL 7
REMARK VINA RESULT:    -3.422      1.802      3.040
REMARK INTER + INTRA:          -4.344
REMARK INTER:                  -4.120
REMARK INTRA:                  -0.224
REMARK UNBOUND:                -0.222
REMARK SMILES OCC(O)CO
REMARK SMILES IDX 3 1 5 2 6 3 2 5 1 6 4 8
REMARK H PARENT 6 4 1 7 4 9
REMARK Flexibility Score: inf
ROOT
ATOM      1  C   UNL     1      -3.725 -48.723 -15.527  1.00  0.00     0.165 C 
ENDROOT
BRANCH   1   2
ATOM      2  C   UNL     1      -2.635 -48.708 -14.448  1.00  0.00     0.190 C 
BRANCH   2   3
ATOM      3  O   UNL     1      -2.319 -47.391 -14.087  1.00  0.00    -0.394 OA
ATOM      4  H   UNL     1      -2.334 -46.856 -14.924  1.00  0.00     0.210 HD
ENDBRANCH   2   3
ENDBRANCH   1   2
BRANCH   1   5
ATOM      5  C   UNL     1      -4.081 -47.290 -15.952  1.00  0.00     0.190 C 
BRANCH   5   6
ATOM      6  O   UNL     1      -3.133 -46.794 -16.859  1.00  0.00    -0.394 OA
ATOM      7  H   UNL     1      -2.925 -45.866 -16.573  1.00  0.00     0.210 HD
ENDBRANCH   5   6
ENDBRANCH   1   5
BRANCH   1   8
ATOM      8  O   UNL     1      -3.266 -49.452 -16.636  1.00  0.00    -0.388 OA
ATOM      9  H   UNL     1      -2.327 -49.711 -16.444  1.00  0.00     0.211 HD
ENDBRANCH   1   8
TORSDOF 5
ENDMDL
MODEL 8
REMARK VINA RESULT:    -3.404      1.717      2.695
REMARK INTER + INTRA:          -4.322
REMARK INTER:                  -4.103
REMARK INTRA:                  -0.219
REMARK UNBOUND:                -0.222
REMARK SMILES OCC(O)CO
REMARK SMILES IDX 3 1 5 2 6 3 2 5 1 6 4 8
REMARK H PARENT 6 4 1 7 4 9
REMARK Flexibility Score: inf
ROOT
ATOM      1  C   UNL     1      -3.250 -47.915 -14.603  1.00  0.00     0.165 C 
ENDROOT
BRANCH   1   2
ATOM      2  C   UNL     1      -3.500 -48.006 -16.113  1.00  0.00     0.190 C 
BRANCH   2   3
ATOM      3  O   UNL     1      -3.244 -49.304 -16.576  1.00  0.00    -0.394 OA
ATOM      4  H   UNL     1      -3.246 -49.257 -17.568  1.00  0.00     0.210 HD
ENDBRANCH   2   3
ENDBRANCH   1   2
BRANCH   1   5
ATOM      5  C   UNL     1      -2.612 -49.213 -14.083  1.00  0.00     0.190 C 
BRANCH   5   6
ATOM      6  O   UNL     1      -1.233 -49.221 -14.336  1.00  0.00    -0.394 OA
ATOM      7  H   UNL     1      -0.800 -49.613 -13.533  1.00  0.00     0.210 HD
ENDBRANCH   5   6
ENDBRANCH   1   5
BRANCH   1   8
ATOM      8  O   UNL     1      -2.402 -46.826 -14.340  1.00  0.00    -0.388 OA
ATOM      9  H   UNL     1      -2.883 -46.230 -13.709  1.00  0.00     0.211 HD
ENDBRANCH   1   8
TORSDOF 5
ENDMDL
MODEL 9
REMARK VINA RESULT:    -3.300      3.058      3.724
REMARK INTER + INTRA:          -4.196
REMARK INTER:                  -4.193
REMARK INTRA:                  -0.003
REMARK UNBOUND:                -0.222
REMARK SMILES OCC(O)CO
REMARK SMILES IDX 3 1 5 2 6 3 2 5 1 6 4 8
REMARK H PARENT 6 4 1 7 4 9
REMARK Flexibility Score: inf
ROOT
ATOM      1  C   UNL     1      -3.332 -46.829 -14.149  1.00  0.00     0.165 C 
ENDROOT
BRANCH   1   2
ATOM      2  C   UNL     1      -3.350 -47.910 -13.062  1.00  0.00     0.190 C 
BRANCH   2   3
ATOM      3  O   UNL     1      -2.292 -48.811 -13.248  1.00  0.00    -0.394 OA
ATOM      4  H   UNL     1      -1.914 -48.996 -12.348  1.00  0.00     0.210 HD
ENDBRANCH   2   3
ENDBRANCH   1   2
BRANCH   1   5
ATOM      5  C   UNL     1      -4.668 -46.070 -14.176  1.00  0.00     0.190 C 
BRANCH   5   6
ATOM      6  O   UNL     1      -4.455 -44.703 -14.404  1.00  0.00    -0.394 OA
ATOM      7  H   UNL     1      -3.862 -44.637 -15.197  1.00  0.00     0.210 HD
ENDBRANCH   5   6
ENDBRANCH   1   5
BRANCH   1   8
ATOM      8  O   UNL     1      -2.279 -45.935 -13.893  1.00  0.00    -0.388 OA
ATOM      9  H   UNL     1      -1.439 -46.465 -13.907  1.00  0.00     0.211 HD
ENDBRANCH   1   8
TORSDOF 5
ENDMDL
