MODEL 1
REMARK VINA RESULT:    -6.100      0.000      0.000
REMARK INTER + INTRA:          -6.559
REMARK INTER:                  -6.457
REMARK INTRA:                  -0.102
REMARK UNBOUND:                -0.102
REMARK SMILES C=C1CC[C@H](C(C)C)[C@@H]2C=C(C)CC[C@@H]12
REMARK SMILES IDX 12 1 11 2 10 3 9 4 15 5 14 6 13 7 2 8 1 9 3 10 4 11 5 12
REMARK SMILES IDX 6 13 7 14 8 15
REMARK H PARENT
REMARK Flexibility Score: inf
ROOT
ATOM      1  C   UNL     1     140.338 147.969 164.943  1.00  0.00     0.039 C 
ATOM      2  C   UNL     1     140.983 146.750 164.344  1.00  0.00    -0.077 C 
ATOM      3  C   UNL     1     140.609 146.351 163.111  1.00  0.00    -0.024 C 
ATOM      4  C   UNL     1     141.148 145.095 162.463  1.00  0.00     0.022 C 
ATOM      5  C   UNL     1     142.503 144.644 163.063  1.00  0.00     0.022 C 
ATOM      6  C   UNL     1     142.402 144.650 164.599  1.00  0.00     0.013 C 
ATOM      7  C   UNL     1     142.109 146.070 165.099  1.00  0.00     0.031 C 
ATOM      8  C   UNL     1     142.901 143.320 162.427  1.00  0.00    -0.074 C 
ATOM      9  C   UNL     1     143.198 142.209 163.127  1.00  0.00     0.008 C 
ATOM     10  C   UNL     1     142.964 143.303 160.919  1.00  0.00     0.031 C 
ATOM     11  C   UNL     1     141.632 143.782 160.325  1.00  0.00     0.009 C 
ATOM     12  C   UNL     1     141.134 145.139 160.899  1.00  0.00    -0.001 C 
ENDROOT
BRANCH  12  13
ATOM     13  C   UNL     1     141.765 146.385 160.160  1.00  0.00    -0.014 C 
ATOM     14  C   UNL     1     140.866 147.621 160.026  1.00  0.00     0.007 C 
ATOM     15  C   UNL     1     142.336 146.022 158.777  1.00  0.00     0.007 C 
ENDBRANCH  12  13
TORSDOF 1
ENDMDL
MODEL 2
REMARK VINA RESULT:    -6.095      6.657      8.117
REMARK INTER + INTRA:          -6.554
REMARK INTER:                  -6.464
REMARK INTRA:                  -0.090
REMARK UNBOUND:                -0.102
REMARK SMILES C=C1CC[C@H](C(C)C)[C@@H]2C=C(C)CC[C@@H]12
REMARK SMILES IDX 12 1 11 2 10 3 9 4 15 5 14 6 13 7 2 8 1 9 3 10 4 11 5 12
REMARK SMILES IDX 6 13 7 14 8 15
REMARK H PARENT
REMARK Flexibility Score: inf
ROOT
ATOM      1  C   UNL     1     150.513 142.745 164.964  1.00  0.00     0.039 C 
ATOM      2  C   UNL     1     149.852 143.954 164.360  1.00  0.00    -0.077 C 
ATOM      3  C   UNL     1     150.225 144.355 163.127  1.00  0.00    -0.024 C 
ATOM      4  C   UNL     1     149.672 145.601 162.474  1.00  0.00     0.022 C 
ATOM      5  C   UNL     1     148.308 146.035 163.068  1.00  0.00     0.022 C 
ATOM      6  C   UNL     1     148.404 146.035 164.604  1.00  0.00     0.013 C 
ATOM      7  C   UNL     1     148.715 144.620 165.109  1.00  0.00     0.031 C 
ATOM      8  C   UNL     1     147.894 147.352 162.427  1.00  0.00    -0.074 C 
ATOM      9  C   UNL     1     147.579 148.460 163.123  1.00  0.00     0.008 C 
ATOM     10  C   UNL     1     147.836 147.364 160.918  1.00  0.00     0.031 C 
ATOM     11  C   UNL     1     149.176 146.903 160.330  1.00  0.00     0.009 C 
ATOM     12  C   UNL     1     149.692 145.555 160.910  1.00  0.00    -0.001 C 
ENDROOT
BRANCH  12  13
ATOM     13  C   UNL     1     149.081 144.298 160.172  1.00  0.00    -0.014 C 
ATOM     14  C   UNL     1     149.975 143.052 160.100  1.00  0.00     0.007 C 
ATOM     15  C   UNL     1     148.570 144.636 158.760  1.00  0.00     0.007 C 
ENDBRANCH  12  13
TORSDOF 1
ENDMDL
MODEL 3
REMARK VINA RESULT:    -6.089      4.834      5.722
REMARK INTER + INTRA:          -6.547
REMARK INTER:                  -6.448
REMARK INTRA:                  -0.100
REMARK UNBOUND:                -0.102
REMARK SMILES C=C1CC[C@H](C(C)C)[C@@H]2C=C(C)CC[C@@H]12
REMARK SMILES IDX 12 1 11 2 10 3 9 4 15 5 14 6 13 7 2 8 1 9 3 10 4 11 5 12
REMARK SMILES IDX 6 13 7 14 8 15
REMARK H PARENT
REMARK Flexibility Score: inf
ROOT
ATOM      1  C   UNL     1     147.995 150.450 164.919  1.00  0.00     0.039 C 
ATOM      2  C   UNL     1     146.777 149.799 164.325  1.00  0.00    -0.077 C 
ATOM      3  C   UNL     1     146.373 150.170 163.092  1.00  0.00    -0.024 C 
ATOM      4  C   UNL     1     145.118 149.626 162.448  1.00  0.00     0.022 C 
ATOM      5  C   UNL     1     144.673 148.269 163.052  1.00  0.00     0.022 C 
ATOM      6  C   UNL     1     144.682 148.374 164.587  1.00  0.00     0.013 C 
ATOM      7  C   UNL     1     146.102 148.673 165.084  1.00  0.00     0.031 C 
ATOM      8  C   UNL     1     143.349 147.866 162.420  1.00  0.00    -0.074 C 
ATOM      9  C   UNL     1     142.241 147.567 163.123  1.00  0.00     0.008 C 
ATOM     10  C   UNL     1     143.328 147.801 160.912  1.00  0.00     0.031 C 
ATOM     11  C   UNL     1     143.801 149.132 160.314  1.00  0.00     0.009 C 
ATOM     12  C   UNL     1     145.157 149.637 160.884  1.00  0.00    -0.001 C 
ENDROOT
BRANCH  12  13
ATOM     13  C   UNL     1     146.404 149.009 160.143  1.00  0.00    -0.014 C 
ATOM     14  C   UNL     1     147.640 149.908 160.013  1.00  0.00     0.007 C 
ATOM     15  C   UNL     1     146.041 148.443 158.758  1.00  0.00     0.007 C 
ENDBRANCH  12  13
TORSDOF 1
ENDMDL
MODEL 4
REMARK VINA RESULT:    -6.077      4.821      5.704
REMARK INTER + INTRA:          -6.534
REMARK INTER:                  -6.436
REMARK INTRA:                  -0.099
REMARK UNBOUND:                -0.102
REMARK SMILES C=C1CC[C@H](C(C)C)[C@@H]2C=C(C)CC[C@@H]12
REMARK SMILES IDX 12 1 11 2 10 3 9 4 15 5 14 6 13 7 2 8 1 9 3 10 4 11 5 12
REMARK SMILES IDX 6 13 7 14 8 15
REMARK H PARENT
REMARK Flexibility Score: inf
ROOT
ATOM      1  C   UNL     1     142.754 140.251 164.899  1.00  0.00     0.039 C 
ATOM      2  C   UNL     1     143.971 140.915 164.314  1.00  0.00    -0.077 C 
ATOM      3  C   UNL     1     144.382 140.559 163.080  1.00  0.00    -0.024 C 
ATOM      4  C   UNL     1     145.636 141.117 162.446  1.00  0.00     0.022 C 
ATOM      5  C   UNL     1     146.070 142.470 163.063  1.00  0.00     0.022 C 
ATOM      6  C   UNL     1     146.055 142.352 164.598  1.00  0.00     0.013 C 
ATOM      7  C   UNL     1     144.635 142.039 165.086  1.00  0.00     0.031 C 
ATOM      8  C   UNL     1     147.393 142.888 162.441  1.00  0.00    -0.074 C 
ATOM      9  C   UNL     1     148.497 143.189 163.151  1.00  0.00     0.008 C 
ATOM     10  C   UNL     1     147.420 142.967 160.933  1.00  0.00     0.031 C 
ATOM     11  C   UNL     1     146.959 141.638 160.322  1.00  0.00     0.009 C 
ATOM     12  C   UNL     1     145.603 141.119 160.881  1.00  0.00    -0.001 C 
ENDROOT
BRANCH  12  13
ATOM     13  C   UNL     1     144.355 141.745 160.141  1.00  0.00    -0.014 C 
ATOM     14  C   UNL     1     143.122 140.843 160.008  1.00  0.00     0.007 C 
ATOM     15  C   UNL     1     144.717 142.315 158.758  1.00  0.00     0.007 C 
ENDBRANCH  12  13
TORSDOF 1
ENDMDL
MODEL 5
REMARK VINA RESULT:    -5.984      5.991      7.519
REMARK INTER + INTRA:          -6.436
REMARK INTER:                  -6.358
REMARK INTRA:                  -0.078
REMARK UNBOUND:                -0.102
REMARK SMILES C=C1CC[C@H](C(C)C)[C@@H]2C=C(C)CC[C@@H]12
REMARK SMILES IDX 12 1 11 2 10 3 9 4 15 5 14 6 13 7 2 8 1 9 3 10 4 11 5 12
REMARK SMILES IDX 6 13 7 14 8 15
REMARK H PARENT
REMARK Flexibility Score: inf
ROOT
ATOM      1  C   UNL     1     148.515 144.971 164.641  1.00  0.00     0.039 C 
ATOM      2  C   UNL     1     148.146 146.038 163.647  1.00  0.00    -0.077 C 
ATOM      3  C   UNL     1     147.055 146.797 163.877  1.00  0.00    -0.024 C 
ATOM      4  C   UNL     1     146.566 147.840 162.897  1.00  0.00     0.022 C 
ATOM      5  C   UNL     1     147.678 148.326 161.933  1.00  0.00     0.022 C 
ATOM      6  C   UNL     1     148.408 147.103 161.348  1.00  0.00     0.013 C 
ATOM      7  C   UNL     1     149.071 146.300 162.474  1.00  0.00     0.031 C 
ATOM      8  C   UNL     1     147.063 149.281 160.921  1.00  0.00    -0.074 C 
ATOM      9  C   UNL     1     147.164 149.130 159.587  1.00  0.00     0.008 C 
ATOM     10  C   UNL     1     146.315 150.460 161.495  1.00  0.00     0.031 C 
ATOM     11  C   UNL     1     145.235 149.980 162.474  1.00  0.00     0.009 C 
ATOM     12  C   UNL     1     145.758 149.002 163.564  1.00  0.00    -0.001 C 
ENDROOT
BRANCH  12  13
ATOM     13  C   UNL     1     146.378 149.749 164.812  1.00  0.00    -0.014 C 
ATOM     14  C   UNL     1     145.614 150.981 165.313  1.00  0.00     0.007 C 
ATOM     15  C   UNL     1     147.856 150.122 164.598  1.00  0.00     0.007 C 
ENDBRANCH  12  13
TORSDOF 1
ENDMDL
MODEL 6
REMARK VINA RESULT:    -5.950      2.490      4.559
REMARK INTER + INTRA:          -6.400
REMARK INTER:                  -6.313
REMARK INTRA:                  -0.086
REMARK UNBOUND:                -0.102
REMARK SMILES C=C1CC[C@H](C(C)C)[C@@H]2C=C(C)CC[C@@H]12
REMARK SMILES IDX 12 1 11 2 10 3 9 4 15 5 14 6 13 7 2 8 1 9 3 10 4 11 5 12
REMARK SMILES IDX 6 13 7 14 8 15
REMARK H PARENT
REMARK Flexibility Score: inf
ROOT
ATOM      1  C   UNL     1     145.845 148.668 164.662  1.00  0.00     0.039 C 
ATOM      2  C   UNL     1     144.809 148.282 163.641  1.00  0.00    -0.077 C 
ATOM      3  C   UNL     1     144.041 147.197 163.866  1.00  0.00    -0.024 C 
ATOM      4  C   UNL     1     143.030 146.692 162.862  1.00  0.00     0.022 C 
ATOM      5  C   UNL     1     142.578 147.786 161.862  1.00  0.00     0.022 C 
ATOM      6  C   UNL     1     143.821 148.502 161.304  1.00  0.00     0.013 C 
ATOM      7  C   UNL     1     144.589 149.185 162.443  1.00  0.00     0.031 C 
ATOM      8  C   UNL     1     141.655 147.154 160.831  1.00  0.00    -0.074 C 
ATOM      9  C   UNL     1     141.850 147.229 159.501  1.00  0.00     0.008 C 
ATOM     10  C   UNL     1     140.456 146.418 161.379  1.00  0.00     0.031 C 
ATOM     11  C   UNL     1     140.901 145.357 162.394  1.00  0.00     0.009 C 
ATOM     12  C   UNL     1     141.844 145.899 163.506  1.00  0.00    -0.001 C 
ENDROOT
BRANCH  12  13
ATOM     13  C   UNL     1     141.058 146.543 164.716  1.00  0.00    -0.014 C 
ATOM     14  C   UNL     1     139.863 145.744 165.251  1.00  0.00     0.007 C 
ATOM     15  C   UNL     1     140.613 147.987 164.425  1.00  0.00     0.007 C 
ENDBRANCH  12  13
TORSDOF 1
ENDMDL
MODEL 7
REMARK VINA RESULT:    -5.949      5.749      7.825
REMARK INTER + INTRA:          -6.399
REMARK INTER:                  -6.317
REMARK INTRA:                  -0.081
REMARK UNBOUND:                -0.102
REMARK SMILES C=C1CC[C@H](C(C)C)[C@@H]2C=C(C)CC[C@@H]12
REMARK SMILES IDX 12 1 11 2 10 3 9 4 15 5 14 6 13 7 2 8 1 9 3 10 4 11 5 12
REMARK SMILES IDX 6 13 7 14 8 15
REMARK H PARENT
REMARK Flexibility Score: inf
ROOT
ATOM      1  C   UNL     1     144.878 142.016 164.475  1.00  0.00     0.039 C 
ATOM      2  C   UNL     1     145.932 142.417 163.480  1.00  0.00    -0.077 C 
ATOM      3  C   UNL     1     146.683 143.510 163.726  1.00  0.00    -0.024 C 
ATOM      4  C   UNL     1     147.710 144.031 162.746  1.00  0.00     0.022 C 
ATOM      5  C   UNL     1     148.197 142.945 161.753  1.00  0.00     0.022 C 
ATOM      6  C   UNL     1     146.975 142.217 161.164  1.00  0.00     0.013 C 
ATOM      7  C   UNL     1     146.190 141.521 162.283  1.00  0.00     0.031 C 
ATOM      8  C   UNL     1     149.135 143.592 160.746  1.00  0.00    -0.074 C 
ATOM      9  C   UNL     1     148.972 143.519 159.412  1.00  0.00     0.008 C 
ATOM     10  C   UNL     1     150.313 144.339 161.324  1.00  0.00     0.031 C 
ATOM     11  C   UNL     1     149.833 145.391 162.332  1.00  0.00     0.009 C 
ATOM     12  C   UNL     1     148.871 144.835 163.420  1.00  0.00    -0.001 C 
ENDROOT
BRANCH  12  13
ATOM     13  C   UNL     1     149.637 144.195 164.645  1.00  0.00    -0.014 C 
ATOM     14  C   UNL     1     150.802 145.012 165.219  1.00  0.00     0.007 C 
ATOM     15  C   UNL     1     150.119 142.762 164.354  1.00  0.00     0.007 C 
ENDBRANCH  12  13
TORSDOF 1
ENDMDL
MODEL 8
REMARK VINA RESULT:    -5.864      6.277      8.218
REMARK INTER + INTRA:          -6.309
REMARK INTER:                  -6.396
REMARK INTRA:                   0.088
REMARK UNBOUND:                -0.102
REMARK SMILES C=C1CC[C@H](C(C)C)[C@@H]2C=C(C)CC[C@@H]12
REMARK SMILES IDX 12 1 11 2 10 3 9 4 15 5 14 6 13 7 2 8 1 9 3 10 4 11 5 12
REMARK SMILES IDX 6 13 7 14 8 15
REMARK H PARENT
REMARK Flexibility Score: inf
ROOT
ATOM      1  C   UNL     1     148.373 147.255 158.489  1.00  0.00     0.039 C 
ATOM      2  C   UNL     1     148.001 147.831 159.828  1.00  0.00    -0.077 C 
ATOM      3  C   UNL     1     147.774 146.993 160.861  1.00  0.00    -0.024 C 
ATOM      4  C   UNL     1     147.320 147.478 162.219  1.00  0.00     0.022 C 
ATOM      5  C   UNL     1     147.665 148.968 162.471  1.00  0.00     0.022 C 
ATOM      6  C   UNL     1     147.230 149.799 161.250  1.00  0.00     0.013 C 
ATOM      7  C   UNL     1     147.994 149.337 160.003  1.00  0.00     0.031 C 
ATOM      8  C   UNL     1     147.071 149.387 163.807  1.00  0.00    -0.074 C 
ATOM      9  C   UNL     1     146.247 150.439 163.967  1.00  0.00     0.008 C 
ATOM     10  C   UNL     1     147.466 148.549 164.999  1.00  0.00     0.031 C 
ATOM     11  C   UNL     1     147.155 147.069 164.736  1.00  0.00     0.009 C 
ATOM     12  C   UNL     1     147.728 146.529 163.395  1.00  0.00    -0.001 C 
ENDROOT
BRANCH  12  13
ATOM     13  C   UNL     1     149.231 146.060 163.515  1.00  0.00    -0.014 C 
ATOM     14  C   UNL     1     149.786 145.249 162.337  1.00  0.00     0.007 C 
ATOM     15  C   UNL     1     149.507 145.301 164.826  1.00  0.00     0.007 C 
ENDBRANCH  12  13
TORSDOF 1
ENDMDL
MODEL 9
REMARK VINA RESULT:    -5.862      1.623      4.639
REMARK INTER + INTRA:          -6.307
REMARK INTER:                  -6.300
REMARK INTRA:                  -0.007
REMARK UNBOUND:                -0.102
REMARK SMILES C=C1CC[C@H](C(C)C)[C@@H]2C=C(C)CC[C@@H]12
REMARK SMILES IDX 12 1 11 2 10 3 9 4 15 5 14 6 13 7 2 8 1 9 3 10 4 11 5 12
REMARK SMILES IDX 6 13 7 14 8 15
REMARK H PARENT
REMARK Flexibility Score: inf
ROOT
ATOM      1  C   UNL     1     142.376 143.396 158.626  1.00  0.00     0.039 C 
ATOM      2  C   UNL     1     142.754 142.967 160.017  1.00  0.00    -0.077 C 
ATOM      3  C   UNL     1     142.890 143.905 160.977  1.00  0.00    -0.024 C 
ATOM      4  C   UNL     1     143.342 143.574 162.382  1.00  0.00     0.022 C 
ATOM      5  C   UNL     1     143.102 142.089 162.755  1.00  0.00     0.022 C 
ATOM      6  C   UNL     1     143.630 141.192 161.621  1.00  0.00     0.013 C 
ATOM      7  C   UNL     1     142.868 141.486 160.323  1.00  0.00     0.031 C 
ATOM      8  C   UNL     1     143.689 141.833 164.135  1.00  0.00    -0.074 C 
ATOM      9  C   UNL     1     144.584 140.864 164.403  1.00  0.00     0.008 C 
ATOM     10  C   UNL     1     143.200 142.737 165.241  1.00  0.00     0.031 C 
ATOM     11  C   UNL     1     143.408 144.208 164.857  1.00  0.00     0.009 C 
ATOM     12  C   UNL     1     142.833 144.586 163.461  1.00  0.00    -0.001 C 
ENDROOT
BRANCH  12  13
ATOM     13  C   UNL     1     141.296 144.948 163.510  1.00  0.00    -0.014 C 
ATOM     14  C   UNL     1     140.758 145.783 162.341  1.00  0.00     0.007 C 
ATOM     15  C   UNL     1     140.890 145.615 164.837  1.00  0.00     0.007 C 
ENDBRANCH  12  13
TORSDOF 1
ENDMDL
