MODEL 1
REMARK VINA RESULT:    -4.111      0.000      0.000
REMARK INTER + INTRA:          -8.604
REMARK INTER:                  -7.476
REMARK INTRA:                  -1.128
REMARK UNBOUND:                -1.128
REMARK SMILES CCCCCCCCCCCCCC[C@@H](C)C(=O)[O-]
REMARK SMILES IDX 9 1 10 2 11 3 12 4 13 5 14 6 15 7 16 8 17 9 18 10 19 11 8 12
REMARK SMILES IDX 7 13 6 14 5 15 4 16 3 17 2 18 1 19
REMARK H PARENT
REMARK Flexibility Score: inf
ROOT
ATOM      1  C   UNL     1      -4.373   7.084  -6.323  1.00  0.00     0.000 C 
ENDROOT
BRANCH   1   2
ATOM      2  C   UNL     1      -3.391   7.959  -7.117  1.00  0.00     0.000 C 
BRANCH   2   3
ATOM      3  C   UNL     1      -3.725   7.937  -8.616  1.00  0.00     0.000 C 
BRANCH   3   4
ATOM      4  C   UNL     1      -4.694   9.060  -9.031  1.00  0.00     0.000 C 
BRANCH   4   5
ATOM      5  C   UNL     1      -6.031   8.576  -9.621  1.00  0.00     0.001 C 
BRANCH   5   6
ATOM      6  C   UNL     1      -6.264   7.067  -9.416  1.00  0.00     0.009 C 
BRANCH   6   7
ATOM      7  C   UNL     1      -7.506   6.770  -8.550  1.00  0.00     0.032 C 
ATOM      8  C   UNL     1      -8.811   6.878  -9.351  1.00  0.00     0.014 C 
BRANCH   7   9
ATOM      9  C   UNL     1      -7.393   5.393  -7.955  1.00  0.00     0.044 C 
ATOM     10  O   UNL     1      -6.382   4.681  -8.195  1.00  0.00    -0.550 OA
ATOM     11  O   UNL     1      -8.401   4.898  -7.137  1.00  0.00    -0.550 OA
ENDBRANCH   7   9
ENDBRANCH   6   7
ENDBRANCH   5   6
ENDBRANCH   4   5
ENDBRANCH   3   4
ENDBRANCH   2   3
ENDBRANCH   1   2
BRANCH   1  12
ATOM     12  C   UNL     1      -3.796   5.698  -5.983  1.00  0.00     0.000 C 
BRANCH  12  13
ATOM     13  C   UNL     1      -3.437   5.490  -4.498  1.00  0.00    -0.000 C 
BRANCH  13  14
ATOM     14  C   UNL     1      -2.554   4.261  -4.204  1.00  0.00    -0.000 C 
BRANCH  14  15
ATOM     15  C   UNL     1      -3.058   3.350  -3.069  1.00  0.00    -0.000 C 
BRANCH  15  16
ATOM     16  C   UNL     1      -2.154   2.127  -2.840  1.00  0.00    -0.000 C 
BRANCH  16  17
ATOM     17  C   UNL     1      -0.693   2.518  -2.568  1.00  0.00    -0.000 C 
BRANCH  17  18
ATOM     18  C   UNL     1      -0.472   3.021  -1.133  1.00  0.00    -0.003 C 
ATOM     19  C   UNL     1      -0.306   4.538  -1.102  1.00  0.00     0.004 C 
ENDBRANCH  17  18
ENDBRANCH  16  17
ENDBRANCH  15  16
ENDBRANCH  14  15
ENDBRANCH  13  14
ENDBRANCH  12  13
ENDBRANCH   1  12
TORSDOF 14
ENDMDL
MODEL 2
REMARK VINA RESULT:    -4.094      0.891      2.032
REMARK INTER + INTRA:          -8.572
REMARK INTER:                  -7.394
REMARK INTRA:                  -1.179
REMARK UNBOUND:                -1.128
REMARK SMILES CCCCCCCCCCCCCC[C@@H](C)C(=O)[O-]
REMARK SMILES IDX 9 1 10 2 11 3 12 4 13 5 14 6 15 7 16 8 17 9 18 10 19 11 8 12
REMARK SMILES IDX 7 13 6 14 5 15 4 16 3 17 2 18 1 19
REMARK H PARENT
REMARK Flexibility Score: inf
ROOT
ATOM      1  C   UNL     1      -3.587   7.909  -8.447  1.00  0.00     0.000 C 
ENDROOT
BRANCH   1   2
ATOM      2  C   UNL     1      -4.354   9.109  -9.022  1.00  0.00     0.000 C 
BRANCH   2   3
ATOM      3  C   UNL     1      -5.685   8.663  -9.646  1.00  0.00     0.000 C 
BRANCH   3   4
ATOM      4  C   UNL     1      -6.874   9.539  -9.212  1.00  0.00     0.000 C 
BRANCH   4   5
ATOM      5  C   UNL     1      -7.848   8.867  -8.226  1.00  0.00     0.001 C 
BRANCH   5   6
ATOM      6  C   UNL     1      -7.365   7.481  -7.761  1.00  0.00     0.009 C 
BRANCH   6   7
ATOM      7  C   UNL     1      -8.249   6.335  -8.296  1.00  0.00     0.032 C 
ATOM      8  C   UNL     1      -9.112   6.775  -9.486  1.00  0.00     0.014 C 
BRANCH   7   9
ATOM      9  C   UNL     1      -7.383   5.175  -8.705  1.00  0.00     0.044 C 
ATOM     10  O   UNL     1      -6.144   5.199  -8.479  1.00  0.00    -0.550 OA
ATOM     11  O   UNL     1      -7.942   4.069  -9.332  1.00  0.00    -0.550 OA
ENDBRANCH   7   9
ENDBRANCH   6   7
ENDBRANCH   5   6
ENDBRANCH   4   5
ENDBRANCH   3   4
ENDBRANCH   2   3
ENDBRANCH   1   2
BRANCH   1  12
ATOM     12  C   UNL     1      -3.427   7.980  -6.917  1.00  0.00     0.000 C 
BRANCH  12  13
ATOM     13  C   UNL     1      -4.329   7.014  -6.124  1.00  0.00    -0.000 C 
BRANCH  13  14
ATOM     14  C   UNL     1      -3.756   5.597  -5.925  1.00  0.00    -0.000 C 
BRANCH  14  15
ATOM     15  C   UNL     1      -3.378   5.241  -4.476  1.00  0.00    -0.000 C 
BRANCH  15  16
ATOM     16  C   UNL     1      -2.561   3.942  -4.374  1.00  0.00    -0.000 C 
BRANCH  16  17
ATOM     17  C   UNL     1      -2.691   3.271  -2.997  1.00  0.00    -0.000 C 
BRANCH  17  18
ATOM     18  C   UNL     1      -1.396   2.573  -2.554  1.00  0.00    -0.003 C 
ATOM     19  C   UNL     1      -0.738   3.320  -1.398  1.00  0.00     0.004 C 
ENDBRANCH  17  18
ENDBRANCH  16  17
ENDBRANCH  15  16
ENDBRANCH  14  15
ENDBRANCH  13  14
ENDBRANCH  12  13
ENDBRANCH   1  12
TORSDOF 14
ENDMDL
MODEL 3
REMARK VINA RESULT:    -4.061      1.112      1.626
REMARK INTER + INTRA:          -8.512
REMARK INTER:                  -7.483
REMARK INTRA:                  -1.029
REMARK UNBOUND:                -1.128
REMARK SMILES CCCCCCCCCCCCCC[C@@H](C)C(=O)[O-]
REMARK SMILES IDX 9 1 10 2 11 3 12 4 13 5 14 6 15 7 16 8 17 9 18 10 19 11 8 12
REMARK SMILES IDX 7 13 6 14 5 15 4 16 3 17 2 18 1 19
REMARK H PARENT
REMARK Flexibility Score: inf
ROOT
ATOM      1  C   UNL     1      -4.147   7.127  -6.381  1.00  0.00     0.000 C 
ENDROOT
BRANCH   1   2
ATOM      2  C   UNL     1      -3.408   7.566  -7.654  1.00  0.00     0.000 C 
BRANCH   2   3
ATOM      3  C   UNL     1      -3.932   8.920  -8.153  1.00  0.00     0.000 C 
BRANCH   3   4
ATOM      4  C   UNL     1      -4.528   8.848  -9.571  1.00  0.00     0.000 C 
BRANCH   4   5
ATOM      5  C   UNL     1      -4.958   7.440 -10.021  1.00  0.00     0.001 C 
BRANCH   5   6
ATOM      6  C   UNL     1      -6.487   7.286 -10.125  1.00  0.00     0.009 C 
BRANCH   6   7
ATOM      7  C   UNL     1      -7.128   6.826  -8.799  1.00  0.00     0.032 C 
ATOM      8  C   UNL     1      -8.558   7.358  -8.631  1.00  0.00     0.014 C 
BRANCH   7   9
ATOM      9  C   UNL     1      -7.139   5.323  -8.734  1.00  0.00     0.044 C 
ATOM     10  O   UNL     1      -6.313   4.715  -8.003  1.00  0.00    -0.550 OA
ATOM     11  O   UNL     1      -8.059   4.596  -9.479  1.00  0.00    -0.550 OA
ENDBRANCH   7   9
ENDBRANCH   6   7
ENDBRANCH   5   6
ENDBRANCH   4   5
ENDBRANCH   3   4
ENDBRANCH   2   3
ENDBRANCH   1   2
BRANCH   1  12
ATOM     12  C   UNL     1      -3.834   5.673  -5.980  1.00  0.00     0.000 C 
BRANCH  12  13
ATOM     13  C   UNL     1      -3.431   5.479  -4.505  1.00  0.00    -0.000 C 
BRANCH  13  14
ATOM     14  C   UNL     1      -2.549   4.246  -4.223  1.00  0.00    -0.000 C 
BRANCH  14  15
ATOM     15  C   UNL     1      -3.033   3.344  -3.074  1.00  0.00    -0.000 C 
BRANCH  15  16
ATOM     16  C   UNL     1      -1.875   2.693  -2.299  1.00  0.00    -0.000 C 
BRANCH  16  17
ATOM     17  C   UNL     1      -0.670   2.376  -3.199  1.00  0.00    -0.000 C 
BRANCH  17  18
ATOM     18  C   UNL     1      -0.441   0.866  -3.373  1.00  0.00    -0.003 C 
ATOM     19  C   UNL     1      -1.762   0.103  -3.330  1.00  0.00     0.004 C 
ENDBRANCH  17  18
ENDBRANCH  16  17
ENDBRANCH  15  16
ENDBRANCH  14  15
ENDBRANCH  13  14
ENDBRANCH  12  13
ENDBRANCH   1  12
TORSDOF 14
ENDMDL
MODEL 4
REMARK VINA RESULT:    -4.036      2.849      8.037
REMARK INTER + INTRA:          -8.467
REMARK INTER:                  -7.044
REMARK INTRA:                  -1.423
REMARK UNBOUND:                -1.128
REMARK SMILES CCCCCCCCCCCCCC[C@@H](C)C(=O)[O-]
REMARK SMILES IDX 9 1 10 2 11 3 12 4 13 5 14 6 15 7 16 8 17 9 18 10 19 11 8 12
REMARK SMILES IDX 7 13 6 14 5 15 4 16 3 17 2 18 1 19
REMARK H PARENT
REMARK Flexibility Score: inf
ROOT
ATOM      1  C   UNL     1      -3.890   7.513  -7.871  1.00  0.00     0.000 C 
ENDROOT
BRANCH   1   2
ATOM      2  C   UNL     1      -3.696   7.274  -6.366  1.00  0.00     0.000 C 
BRANCH   2   3
ATOM      3  C   UNL     1      -3.933   5.800  -6.009  1.00  0.00     0.000 C 
BRANCH   3   4
ATOM      4  C   UNL     1      -3.402   5.426  -4.613  1.00  0.00     0.000 C 
BRANCH   4   5
ATOM      5  C   UNL     1      -2.687   4.065  -4.535  1.00  0.00     0.001 C 
BRANCH   5   6
ATOM      6  C   UNL     1      -2.601   3.516  -3.099  1.00  0.00     0.009 C 
BRANCH   6   7
ATOM      7  C   UNL     1      -1.201   2.963  -2.758  1.00  0.00     0.032 C 
ATOM      8  C   UNL     1      -0.808   3.241  -1.300  1.00  0.00     0.014 C 
BRANCH   7   9
ATOM      9  C   UNL     1      -1.164   1.482  -3.015  1.00  0.00     0.044 C 
ATOM     10  O   UNL     1      -0.072   0.912  -3.278  1.00  0.00    -0.550 OA
ATOM     11  O   UNL     1      -2.333   0.732  -2.965  1.00  0.00    -0.550 OA
ENDBRANCH   7   9
ENDBRANCH   6   7
ENDBRANCH   5   6
ENDBRANCH   4   5
ENDBRANCH   3   4
ENDBRANCH   2   3
ENDBRANCH   1   2
BRANCH   1  12
ATOM     12  C   UNL     1      -3.730   8.992  -8.267  1.00  0.00     0.000 C 
BRANCH  12  13
ATOM     13  C   UNL     1      -4.389   9.382  -9.605  1.00  0.00    -0.000 C 
BRANCH  13  14
ATOM     14  C   UNL     1      -5.914   9.166  -9.672  1.00  0.00    -0.000 C 
BRANCH  14  15
ATOM     15  C   UNL     1      -6.719   9.829  -8.540  1.00  0.00    -0.000 C 
BRANCH  15  16
ATOM     16  C   UNL     1      -7.275   8.813  -7.528  1.00  0.00    -0.000 C 
BRANCH  16  17
ATOM     17  C   UNL     1      -7.682   7.486  -8.190  1.00  0.00    -0.000 C 
BRANCH  17  18
ATOM     18  C   UNL     1      -7.413   6.269  -7.292  1.00  0.00    -0.003 C 
ATOM     19  C   UNL     1      -6.879   5.094  -8.105  1.00  0.00     0.004 C 
ENDBRANCH  17  18
ENDBRANCH  16  17
ENDBRANCH  15  16
ENDBRANCH  14  15
ENDBRANCH  13  14
ENDBRANCH  12  13
ENDBRANCH   1  12
TORSDOF 14
ENDMDL
MODEL 5
REMARK VINA RESULT:    -4.022      1.185      2.143
REMARK INTER + INTRA:          -8.441
REMARK INTER:                  -7.445
REMARK INTRA:                  -0.996
REMARK UNBOUND:                -1.128
REMARK SMILES CCCCCCCCCCCCCC[C@@H](C)C(=O)[O-]
REMARK SMILES IDX 9 1 10 2 11 3 12 4 13 5 14 6 15 7 16 8 17 9 18 10 19 11 8 12
REMARK SMILES IDX 7 13 6 14 5 15 4 16 3 17 2 18 1 19
REMARK H PARENT
REMARK Flexibility Score: inf
ROOT
ATOM      1  C   UNL     1      -4.442   7.817  -7.371  1.00  0.00     0.000 C 
ENDROOT
BRANCH   1   2
ATOM      2  C   UNL     1      -5.862   7.962  -6.803  1.00  0.00     0.000 C 
BRANCH   2   3
ATOM      3  C   UNL     1      -6.605   9.128  -7.473  1.00  0.00     0.000 C 
BRANCH   3   4
ATOM      4  C   UNL     1      -7.684   8.661  -8.466  1.00  0.00     0.000 C 
BRANCH   4   5
ATOM      5  C   UNL     1      -7.151   7.887  -9.686  1.00  0.00     0.001 C 
BRANCH   5   6
ATOM      6  C   UNL     1      -7.857   6.535  -9.891  1.00  0.00     0.009 C 
BRANCH   6   7
ATOM      7  C   UNL     1      -8.728   6.129  -8.683  1.00  0.00     0.032 C 
ATOM      8  C   UNL     1     -10.088   5.563  -9.112  1.00  0.00     0.014 C 
BRANCH   7   9
ATOM      9  C   UNL     1      -7.998   5.111  -7.850  1.00  0.00     0.044 C 
ATOM     10  O   UNL     1      -8.570   4.568  -6.869  1.00  0.00    -0.550 OA
ATOM     11  O   UNL     1      -6.689   4.762  -8.158  1.00  0.00    -0.550 OA
ENDBRANCH   7   9
ENDBRANCH   6   7
ENDBRANCH   5   6
ENDBRANCH   4   5
ENDBRANCH   3   4
ENDBRANCH   2   3
ENDBRANCH   1   2
BRANCH   1  12
ATOM     12  C   UNL     1      -3.460   7.183  -6.369  1.00  0.00     0.000 C 
BRANCH  12  13
ATOM     13  C   UNL     1      -3.814   5.748  -5.932  1.00  0.00    -0.000 C 
BRANCH  13  14
ATOM     14  C   UNL     1      -3.414   5.386  -4.488  1.00  0.00    -0.000 C 
BRANCH  14  15
ATOM     15  C   UNL     1      -2.604   4.085  -4.340  1.00  0.00    -0.000 C 
BRANCH  15  16
ATOM     16  C   UNL     1      -2.867   3.367  -3.006  1.00  0.00    -0.000 C 
BRANCH  16  17
ATOM     17  C   UNL     1      -1.570   3.001  -2.268  1.00  0.00    -0.000 C 
BRANCH  17  18
ATOM     18  C   UNL     1      -0.689   2.028  -3.068  1.00  0.00    -0.003 C 
ATOM     19  C   UNL     1      -1.392   0.689  -3.268  1.00  0.00     0.004 C 
ENDBRANCH  17  18
ENDBRANCH  16  17
ENDBRANCH  15  16
ENDBRANCH  14  15
ENDBRANCH  13  14
ENDBRANCH  12  13
ENDBRANCH   1  12
TORSDOF 14
ENDMDL
MODEL 6
REMARK VINA RESULT:    -3.843      2.898      8.096
REMARK INTER + INTRA:          -8.115
REMARK INTER:                  -6.783
REMARK INTRA:                  -1.332
REMARK UNBOUND:                -1.128
REMARK SMILES CCCCCCCCCCCCCC[C@@H](C)C(=O)[O-]
REMARK SMILES IDX 9 1 10 2 11 3 12 4 13 5 14 6 15 7 16 8 17 9 18 10 19 11 8 12
REMARK SMILES IDX 7 13 6 14 5 15 4 16 3 17 2 18 1 19
REMARK H PARENT
REMARK Flexibility Score: inf
ROOT
ATOM      1  C   UNL     1      -4.333   7.946  -7.213  1.00  0.00     0.000 C 
ENDROOT
BRANCH   1   2
ATOM      2  C   UNL     1      -3.281   7.099  -6.481  1.00  0.00     0.000 C 
BRANCH   2   3
ATOM      3  C   UNL     1      -3.895   5.789  -5.964  1.00  0.00     0.000 C 
BRANCH   3   4
ATOM      4  C   UNL     1      -3.389   5.401  -4.563  1.00  0.00     0.000 C 
BRANCH   4   5
ATOM      5  C   UNL     1      -2.720   4.017  -4.476  1.00  0.00     0.001 C 
BRANCH   5   6
ATOM      6  C   UNL     1      -2.588   3.506  -3.029  1.00  0.00     0.009 C 
BRANCH   6   7
ATOM      7  C   UNL     1      -1.198   2.904  -2.737  1.00  0.00     0.032 C 
ATOM      8  C   UNL     1      -0.749   3.155  -1.291  1.00  0.00     0.014 C 
BRANCH   7   9
ATOM      9  C   UNL     1      -1.218   1.425  -3.009  1.00  0.00     0.044 C 
ATOM     10  O   UNL     1      -2.288   0.773  -2.887  1.00  0.00    -0.550 OA
ATOM     11  O   UNL     1      -0.056   0.768  -3.396  1.00  0.00    -0.550 OA
ENDBRANCH   7   9
ENDBRANCH   6   7
ENDBRANCH   5   6
ENDBRANCH   4   5
ENDBRANCH   3   4
ENDBRANCH   2   3
ENDBRANCH   1   2
BRANCH   1  12
ATOM     12  C   UNL     1      -5.659   8.053  -6.438  1.00  0.00     0.000 C 
BRANCH  12  13
ATOM     13  C   UNL     1      -6.782   8.809  -7.174  1.00  0.00    -0.000 C 
BRANCH  13  14
ATOM     14  C   UNL     1      -6.567   8.990  -8.689  1.00  0.00    -0.000 C 
BRANCH  14  15
ATOM     15  C   UNL     1      -7.672   8.399  -9.583  1.00  0.00    -0.000 C 
BRANCH  15  16
ATOM     16  C   UNL     1      -7.651   6.861  -9.619  1.00  0.00    -0.000 C 
BRANCH  16  17
ATOM     17  C   UNL     1      -8.767   6.236  -8.767  1.00  0.00    -0.000 C 
BRANCH  17  18
ATOM     18  C   UNL     1      -8.230   5.259  -7.711  1.00  0.00    -0.003 C 
ATOM     19  C   UNL     1      -6.744   4.983  -7.924  1.00  0.00     0.004 C 
ENDBRANCH  17  18
ENDBRANCH  16  17
ENDBRANCH  15  16
ENDBRANCH  14  15
ENDBRANCH  13  14
ENDBRANCH  12  13
ENDBRANCH   1  12
TORSDOF 14
ENDMDL
MODEL 7
REMARK VINA RESULT:    -3.749      1.223      2.163
REMARK INTER + INTRA:          -7.945
REMARK INTER:                  -6.907
REMARK INTRA:                  -1.038
REMARK UNBOUND:                -1.128
REMARK SMILES CCCCCCCCCCCCCC[C@@H](C)C(=O)[O-]
REMARK SMILES IDX 9 1 10 2 11 3 12 4 13 5 14 6 15 7 16 8 17 9 18 10 19 11 8 12
REMARK SMILES IDX 7 13 6 14 5 15 4 16 3 17 2 18 1 19
REMARK H PARENT
REMARK Flexibility Score: inf
ROOT
ATOM      1  C   UNL     1      -3.723   5.728  -6.004  1.00  0.00     0.000 C 
ENDROOT
BRANCH   1   2
ATOM      2  C   UNL     1      -4.285   7.141  -6.221  1.00  0.00     0.000 C 
BRANCH   2   3
ATOM      3  C   UNL     1      -3.705   7.773  -7.495  1.00  0.00     0.000 C 
BRANCH   3   4
ATOM      4  C   UNL     1      -4.731   8.625  -8.264  1.00  0.00     0.000 C 
BRANCH   4   5
ATOM      5  C   UNL     1      -5.001   8.168  -9.709  1.00  0.00     0.001 C 
BRANCH   5   6
ATOM      6  C   UNL     1      -6.021   7.018  -9.792  1.00  0.00     0.009 C 
BRANCH   6   7
ATOM      7  C   UNL     1      -7.093   7.094  -8.684  1.00  0.00     0.032 C 
ATOM      8  C   UNL     1      -8.469   7.492  -9.235  1.00  0.00     0.014 C 
BRANCH   7   9
ATOM      9  C   UNL     1      -7.195   5.767  -7.984  1.00  0.00     0.044 C 
ATOM     10  O   UNL     1      -6.365   4.853  -8.235  1.00  0.00    -0.550 OA
ATOM     11  O   UNL     1      -8.204   5.540  -7.056  1.00  0.00    -0.550 OA
ENDBRANCH   7   9
ENDBRANCH   6   7
ENDBRANCH   5   6
ENDBRANCH   4   5
ENDBRANCH   3   4
ENDBRANCH   2   3
ENDBRANCH   1   2
BRANCH   1  12
ATOM     12  C   UNL     1      -3.469   5.409  -4.519  1.00  0.00     0.000 C 
BRANCH  12  13
ATOM     13  C   UNL     1      -2.591   4.168  -4.263  1.00  0.00    -0.000 C 
BRANCH  13  14
ATOM     14  C   UNL     1      -2.936   3.372  -2.989  1.00  0.00    -0.000 C 
BRANCH  14  15
ATOM     15  C   UNL     1      -1.745   2.668  -2.314  1.00  0.00    -0.000 C 
BRANCH  15  16
ATOM     16  C   UNL     1      -0.675   2.211  -3.321  1.00  0.00    -0.000 C 
BRANCH  16  17
ATOM     17  C   UNL     1      -0.526   0.682  -3.369  1.00  0.00    -0.000 C 
BRANCH  17  18
ATOM     18  C   UNL     1      -1.880  -0.044  -3.395  1.00  0.00    -0.003 C 
ATOM     19  C   UNL     1      -1.817  -1.294  -4.268  1.00  0.00     0.004 C 
ENDBRANCH  17  18
ENDBRANCH  16  17
ENDBRANCH  15  16
ENDBRANCH  14  15
ENDBRANCH  13  14
ENDBRANCH  12  13
ENDBRANCH   1  12
TORSDOF 14
ENDMDL
MODEL 8
REMARK VINA RESULT:    -3.704      2.852      8.114
REMARK INTER + INTRA:          -7.863
REMARK INTER:                  -6.455
REMARK INTRA:                  -1.408
REMARK UNBOUND:                -1.128
REMARK SMILES CCCCCCCCCCCCCC[C@@H](C)C(=O)[O-]
REMARK SMILES IDX 9 1 10 2 11 3 12 4 13 5 14 6 15 7 16 8 17 9 18 10 19 11 8 12
REMARK SMILES IDX 7 13 6 14 5 15 4 16 3 17 2 18 1 19
REMARK H PARENT
REMARK Flexibility Score: inf
ROOT
ATOM      1  C   UNL     1      -5.720   5.893  -6.943  1.00  0.00     0.000 C 
ENDROOT
BRANCH   1   2
ATOM      2  C   UNL     1      -4.278   5.401  -6.754  1.00  0.00     0.000 C 
BRANCH   2   3
ATOM      3  C   UNL     1      -3.546   6.241  -5.697  1.00  0.00     0.000 C 
BRANCH   3   4
ATOM      4  C   UNL     1      -3.392   5.510  -4.350  1.00  0.00     0.000 C 
BRANCH   4   5
ATOM      5  C   UNL     1      -2.834   4.078  -4.451  1.00  0.00     0.001 C 
BRANCH   5   6
ATOM      6  C   UNL     1      -2.685   3.397  -3.078  1.00  0.00     0.009 C 
BRANCH   6   7
ATOM      7  C   UNL     1      -1.237   2.946  -2.793  1.00  0.00     0.032 C 
ATOM      8  C   UNL     1      -0.804   3.260  -1.354  1.00  0.00     0.014 C 
BRANCH   7   9
ATOM      9  C   UNL     1      -1.105   1.470  -3.048  1.00  0.00     0.044 C 
ATOM     10  O   UNL     1       0.024   0.967  -3.290  1.00  0.00    -0.550 OA
ATOM     11  O   UNL     1      -2.227   0.650  -3.019  1.00  0.00    -0.550 OA
ENDBRANCH   7   9
ENDBRANCH   6   7
ENDBRANCH   5   6
ENDBRANCH   4   5
ENDBRANCH   3   4
ENDBRANCH   2   3
ENDBRANCH   1   2
BRANCH   1  12
ATOM     12  C   UNL     1      -6.593   4.897  -7.729  1.00  0.00     0.000 C 
BRANCH  12  13
ATOM     13  C   UNL     1      -7.348   5.501  -8.930  1.00  0.00    -0.000 C 
BRANCH  13  14
ATOM     14  C   UNL     1      -8.503   6.454  -8.565  1.00  0.00    -0.000 C 
BRANCH  14  15
ATOM     15  C   UNL     1      -8.253   7.938  -8.887  1.00  0.00    -0.000 C 
BRANCH  15  16
ATOM     16  C   UNL     1      -7.102   8.146  -9.887  1.00  0.00    -0.000 C 
BRANCH  16  17
ATOM     17  C   UNL     1      -5.992   9.049  -9.327  1.00  0.00    -0.000 C 
BRANCH  17  18
ATOM     18  C   UNL     1      -4.610   8.378  -9.362  1.00  0.00    -0.003 C 
ATOM     19  C   UNL     1      -3.725   8.886  -8.227  1.00  0.00     0.004 C 
ENDBRANCH  17  18
ENDBRANCH  16  17
ENDBRANCH  15  16
ENDBRANCH  14  15
ENDBRANCH  13  14
ENDBRANCH  12  13
ENDBRANCH   1  12
TORSDOF 14
ENDMDL
MODEL 9
REMARK VINA RESULT:    -3.522      3.223      8.273
REMARK INTER + INTRA:          -7.533
REMARK INTER:                  -6.226
REMARK INTRA:                  -1.307
REMARK UNBOUND:                -1.128
REMARK SMILES CCCCCCCCCCCCCC[C@@H](C)C(=O)[O-]
REMARK SMILES IDX 9 1 10 2 11 3 12 4 13 5 14 6 15 7 16 8 17 9 18 10 19 11 8 12
REMARK SMILES IDX 7 13 6 14 5 15 4 16 3 17 2 18 1 19
REMARK H PARENT
REMARK Flexibility Score: inf
ROOT
ATOM      1  C   UNL     1      -4.834   7.676  -7.051  1.00  0.00     0.000 C 
ENDROOT
BRANCH   1   2
ATOM      2  C   UNL     1      -3.588   7.021  -6.437  1.00  0.00     0.000 C 
BRANCH   2   3
ATOM      3  C   UNL     1      -3.916   5.622  -5.893  1.00  0.00     0.000 C 
BRANCH   3   4
ATOM      4  C   UNL     1      -3.365   5.385  -4.475  1.00  0.00     0.000 C 
BRANCH   4   5
ATOM      5  C   UNL     1      -2.503   4.119  -4.318  1.00  0.00     0.001 C 
BRANCH   5   6
ATOM      6  C   UNL     1      -2.719   3.413  -2.967  1.00  0.00     0.009 C 
BRANCH   6   7
ATOM      7  C   UNL     1      -1.505   2.558  -2.544  1.00  0.00     0.032 C 
ATOM      8  C   UNL     1      -0.569   2.256  -3.722  1.00  0.00     0.014 C 
BRANCH   7   9
ATOM      9  C   UNL     1      -0.739   3.266  -1.461  1.00  0.00     0.044 C 
ATOM     10  O   UNL     1      -0.207   2.608  -0.527  1.00  0.00    -0.550 OA
ATOM     11  O   UNL     1      -0.611   4.650  -1.482  1.00  0.00    -0.550 OA
ENDBRANCH   7   9
ENDBRANCH   6   7
ENDBRANCH   5   6
ENDBRANCH   4   5
ENDBRANCH   3   4
ENDBRANCH   2   3
ENDBRANCH   1   2
BRANCH   1  12
ATOM     12  C   UNL     1      -4.489   8.734  -8.115  1.00  0.00     0.000 C 
BRANCH  12  13
ATOM     13  C   UNL     1      -5.686   9.569  -8.613  1.00  0.00    -0.000 C 
BRANCH  13  14
ATOM     14  C   UNL     1      -7.057   9.153  -8.043  1.00  0.00    -0.000 C 
BRANCH  14  15
ATOM     15  C   UNL     1      -8.127   8.815  -9.097  1.00  0.00    -0.000 C 
BRANCH  15  16
ATOM     16  C   UNL     1      -8.600   7.353  -9.018  1.00  0.00    -0.000 C 
BRANCH  16  17
ATOM     17  C   UNL     1      -7.582   6.372  -9.624  1.00  0.00    -0.000 C 
BRANCH  17  18
ATOM     18  C   UNL     1      -7.232   5.219  -8.670  1.00  0.00    -0.003 C 
ATOM     19  C   UNL     1      -7.808   5.464  -7.278  1.00  0.00     0.004 C 
ENDBRANCH  17  18
ENDBRANCH  16  17
ENDBRANCH  15  16
ENDBRANCH  14  15
ENDBRANCH  13  14
ENDBRANCH  12  13
ENDBRANCH   1  12
TORSDOF 14
ENDMDL
