MODEL 1
REMARK VINA RESULT:    -3.578      0.000      0.000
REMARK INTER + INTRA:          -5.163
REMARK INTER:                  -5.043
REMARK INTRA:                  -0.120
REMARK UNBOUND:                -0.120
REMARK SMILES CC1=CCC(=C(C)C)C(=O)CC(C)=CCC1
REMARK SMILES IDX 12 1 14 2 13 3 15 4 16 5 2 6 1 7 3 8 11 10 9 11 10 12 5 13
REMARK SMILES IDX 6 14 7 15 8 16 4 17
REMARK H PARENT
REMARK Flexibility Score: 60.00
ROOT
ATOM      1  C   UNL     1      15.583  31.146  29.795  1.00  0.00    -0.070 C 
ATOM      2  C   UNL     1      15.645  32.492  29.912  1.00  0.00    -0.027 C 
ATOM      3  C   UNL     1      14.249  30.475  30.002  1.00  0.00     0.039 C 
ENDROOT
BRANCH   2   4
ATOM      4  C   UNL     1      16.854  33.333  29.595  1.00  0.00     0.032 C 
BRANCH   4   5
ATOM      5  C   UNL     1      17.734  33.470  30.844  1.00  0.00     0.034 C 
BRANCH   5   6
ATOM      6  C   UNL     1      19.213  33.390  30.523  1.00  0.00    -0.077 C 
ATOM      7  C   UNL     1      19.846  34.520  29.750  1.00  0.00     0.039 C 
ATOM      8  C   UNL     1      19.991  32.322  30.829  1.00  0.00    -0.023 CG0
ATOM      9  G   UNL     1      19.602  31.102  31.644  1.00  0.00     0.000 G0
ENDBRANCH   5   6
ENDBRANCH   4   5
ENDBRANCH   2   4
BRANCH   1  10
ATOM     10  C   UNL     1      16.789  30.280  29.483  1.00  0.00     0.111 C 
BRANCH  10  11
ATOM     11  C   UNL     1      17.516  29.855  30.736  1.00  0.00     0.163 C 
ATOM     12  O   UNL     1      16.810  29.456  31.701  1.00  0.00    -0.294 OA
BRANCH  11  13
ATOM     13  C   UNL     1      19.008  29.906  30.893  1.00  0.00    -0.002 C 
ATOM     14  C   UNL     1      19.785  28.848  30.504  1.00  0.00    -0.069 C 
ATOM     15  C   UNL     1      21.253  28.760  30.854  1.00  0.00     0.039 C 
ATOM     16  C   UNL     1      19.226  27.727  29.657  1.00  0.00     0.039 C 
BRANCH  13  17
ATOM     17  C   UNL     1      19.603  31.083  31.657  1.00  0.00     0.066 CG0
ATOM     18  G   UNL     1      20.003  32.294  30.833  1.00  0.00     0.000 G0
ENDBRANCH  13  17
ENDBRANCH  11  13
ENDBRANCH  10  11
ENDBRANCH   1  10
TORSDOF 0
ENDMDL
MODEL 2
REMARK VINA RESULT:    -3.515      3.169      6.395
REMARK INTER + INTRA:          -5.073
REMARK INTER:                  -4.951
REMARK INTRA:                  -0.122
REMARK UNBOUND:                -0.120
REMARK SMILES CC1=CCC(=C(C)C)C(=O)CC(C)=CCC1
REMARK SMILES IDX 12 1 14 2 13 3 15 4 16 5 2 6 1 7 3 8 11 10 9 11 10 12 5 13
REMARK SMILES IDX 6 14 7 15 8 16 4 17
REMARK H PARENT
REMARK Flexibility Score: 60.00
ROOT
ATOM      1  C   UNL     1      19.669  27.773  28.816  1.00  0.00    -0.070 C 
ATOM      2  C   UNL     1      19.359  26.523  28.401  1.00  0.00    -0.027 C 
ATOM      3  C   UNL     1      21.066  28.030  29.318  1.00  0.00     0.039 C 
ENDROOT
BRANCH   2   4
ATOM      4  C   UNL     1      18.065  26.129  27.737  1.00  0.00     0.032 C 
BRANCH   4   5
ATOM      5  C   UNL     1      17.133  25.473  28.763  1.00  0.00     0.034 C 
BRANCH   5   6
ATOM      6  C   UNL     1      15.680  25.847  28.549  1.00  0.00    -0.077 C 
ATOM      7  C   UNL     1      14.905  25.141  27.466  1.00  0.00     0.039 C 
ATOM      8  C   UNL     1      15.051  26.838  29.230  1.00  0.00    -0.023 CG0
ATOM      9  G   UNL     1      15.597  27.646  30.394  1.00  0.00     0.000 G0
ENDBRANCH   5   6
ENDBRANCH   4   5
ENDBRANCH   2   4
BRANCH   1  10
ATOM     10  C   UNL     1      18.677  28.921  28.817  1.00  0.00     0.111 C 
BRANCH  10  11
ATOM     11  C   UNL     1      17.826  28.929  30.063  1.00  0.00     0.163 C 
ATOM     12  O   UNL     1      18.429  28.897  31.170  1.00  0.00    -0.294 OA
BRANCH  11  13
ATOM     13  C   UNL     1      16.325  28.949  30.049  1.00  0.00    -0.002 C 
ATOM     14  C   UNL     1      15.646  30.127  29.895  1.00  0.00    -0.069 C 
ATOM     15  C   UNL     1      14.152  30.225  30.106  1.00  0.00     0.039 C 
ATOM     16  C   UNL     1      16.349  31.391  29.454  1.00  0.00     0.039 C 
BRANCH  13  17
ATOM     17  C   UNL     1      15.593  27.656  30.391  1.00  0.00     0.066 CG0
ATOM     18  G   UNL     1      15.046  26.857  29.222  1.00  0.00     0.000 G0
ENDBRANCH  13  17
ENDBRANCH  11  13
ENDBRANCH  10  11
ENDBRANCH   1  10
TORSDOF 0
ENDMDL
MODEL 3
REMARK VINA RESULT:    -3.477      2.036      5.433
REMARK INTER + INTRA:          -5.020
REMARK INTER:                  -4.978
REMARK INTRA:                  -0.042
REMARK UNBOUND:                -0.120
REMARK SMILES CC1=CCC(=C(C)C)C(=O)CC(C)=CCC1
REMARK SMILES IDX 12 1 14 2 13 3 15 4 16 5 2 6 1 7 3 8 11 10 9 11 10 12 5 13
REMARK SMILES IDX 6 14 7 15 8 16 4 17
REMARK H PARENT
REMARK Flexibility Score: 60.00
ROOT
ATOM      1  C   UNL     1      21.469  30.135  29.794  1.00  0.00    -0.070 C 
ATOM      2  C   UNL     1      21.260  28.828  29.512  1.00  0.00    -0.027 C 
ATOM      3  C   UNL     1      22.707  30.505  30.570  1.00  0.00     0.039 C 
ENDROOT
BRANCH   2   4
ATOM      4  C   UNL     1      20.161  28.300  28.626  1.00  0.00     0.032 C 
BRANCH   4   5
ATOM      5  C   UNL     1      19.123  27.555  29.474  1.00  0.00     0.034 C 
BRANCH   5   6
ATOM      6  C   UNL     1      17.704  27.813  29.011  1.00  0.00    -0.077 C 
ATOM      7  C   UNL     1      17.107  26.900  27.969  1.00  0.00     0.039 C 
ATOM      8  C   UNL     1      16.957  28.866  29.428  1.00  0.00    -0.023 CG0
ATOM      9  G   UNL     1      17.312  29.880  30.501  1.00  0.00     0.000 G0
ENDBRANCH   5   6
ENDBRANCH   4   5
ENDBRANCH   2   4
BRANCH   1  10
ATOM     10  C   UNL     1      20.514  31.239  29.384  1.00  0.00     0.111 C 
BRANCH  10  11
ATOM     11  C   UNL     1      19.391  31.410  30.377  1.00  0.00     0.163 C 
ATOM     12  O   UNL     1      19.708  31.747  31.550  1.00  0.00    -0.294 OA
BRANCH  11  13
ATOM     13  C   UNL     1      17.944  31.179  30.050  1.00  0.00    -0.002 C 
ATOM     14  C   UNL     1      17.185  32.181  29.507  1.00  0.00    -0.069 C 
ATOM     15  C   UNL     1      15.683  32.069  29.378  1.00  0.00     0.039 C 
ATOM     16  C   UNL     1      17.817  33.440  28.958  1.00  0.00     0.039 C 
BRANCH  13  17
ATOM     17  C   UNL     1      17.311  29.869  30.505  1.00  0.00     0.066 CG0
ATOM     18  G   UNL     1      16.949  28.877  29.414  1.00  0.00     0.000 G0
ENDBRANCH  13  17
ENDBRANCH  11  13
ENDBRANCH  10  11
ENDBRANCH   1  10
TORSDOF 0
ENDMDL
MODEL 4
REMARK VINA RESULT:    -3.463      3.062      5.369
REMARK INTER + INTRA:          -5.001
REMARK INTER:                  -4.892
REMARK INTRA:                  -0.108
REMARK UNBOUND:                -0.120
REMARK SMILES CC1=CCC(=C(C)C)C(=O)CC(C)=CCC1
REMARK SMILES IDX 12 1 14 2 13 3 15 4 16 5 2 6 1 7 3 8 11 10 9 11 10 12 5 13
REMARK SMILES IDX 6 14 7 15 8 16 4 17
REMARK H PARENT
REMARK Flexibility Score: 60.00
ROOT
ATOM      1  C   UNL     1      19.400  25.372  27.407  1.00  0.00    -0.070 C 
ATOM      2  C   UNL     1      18.232  25.969  27.738  1.00  0.00    -0.027 C 
ATOM      3  C   UNL     1      19.394  23.886  27.156  1.00  0.00     0.039 C 
ENDROOT
BRANCH   2   4
ATOM      4  C   UNL     1      18.030  27.455  27.878  1.00  0.00     0.032 C 
BRANCH   4   5
ATOM      5  C   UNL     1      17.795  27.812  29.351  1.00  0.00     0.034 C 
BRANCH   5   6
ATOM      6  C   UNL     1      18.485  29.099  29.753  1.00  0.00    -0.077 C 
ATOM      7  C   UNL     1      17.728  30.397  29.618  1.00  0.00     0.039 C 
ATOM      8  C   UNL     1      19.777  29.163  30.163  1.00  0.00    -0.023 CG0
ATOM      9  G   UNL     1      20.717  28.002  30.430  1.00  0.00     0.000 G0
ENDBRANCH   5   6
ENDBRANCH   4   5
ENDBRANCH   2   4
BRANCH   1  10
ATOM     10  C   UNL     1      20.715  26.120  27.295  1.00  0.00     0.111 C 
BRANCH  10  11
ATOM     11  C   UNL     1      21.398  26.262  28.633  1.00  0.00     0.163 C 
ATOM     12  O   UNL     1      21.740  25.199  29.219  1.00  0.00    -0.294 OA
BRANCH  11  13
ATOM     13  C   UNL     1      21.666  27.581  29.299  1.00  0.00    -0.002 C 
ATOM     14  C   UNL     1      22.795  28.295  29.000  1.00  0.00    -0.069 C 
ATOM     15  C   UNL     1      23.217  29.502  29.807  1.00  0.00     0.039 C 
ATOM     16  C   UNL     1      23.659  27.944  27.810  1.00  0.00     0.039 C 
BRANCH  13  17
ATOM     17  C   UNL     1      20.742  28.005  30.436  1.00  0.00     0.066 CG0
ATOM     18  G   UNL     1      19.808  29.167  30.152  1.00  0.00     0.000 G0
ENDBRANCH  13  17
ENDBRANCH  11  13
ENDBRANCH  10  11
ENDBRANCH   1  10
TORSDOF 0
ENDMDL
MODEL 5
REMARK VINA RESULT:    -3.394      9.624     11.630
REMARK INTER + INTRA:          -4.904
REMARK INTER:                  -4.754
REMARK INTRA:                  -0.150
REMARK UNBOUND:                -0.120
REMARK SMILES CC1=CCC(=C(C)C)C(=O)CC(C)=CCC1
REMARK SMILES IDX 12 1 14 2 13 3 15 4 16 5 2 6 1 7 3 8 11 10 9 11 10 12 5 13
REMARK SMILES IDX 6 14 7 15 8 16 4 17
REMARK H PARENT
REMARK Flexibility Score: 60.00
ROOT
ATOM      1  C   UNL     1      27.862  30.701  28.393  1.00  0.00    -0.070 C 
ATOM      2  C   UNL     1      26.901  30.903  29.324  1.00  0.00    -0.027 C 
ATOM      3  C   UNL     1      27.748  29.489  27.505  1.00  0.00     0.039 C 
ENDROOT
BRANCH   2   4
ATOM      4  C   UNL     1      26.779  32.131  30.189  1.00  0.00     0.032 C 
BRANCH   4   5
ATOM      5  C   UNL     1      27.431  31.873  31.552  1.00  0.00     0.034 C 
BRANCH   5   6
ATOM      6  C   UNL     1      28.189  33.078  32.070  1.00  0.00    -0.077 C 
ATOM      7  C   UNL     1      27.406  34.234  32.640  1.00  0.00     0.039 C 
ATOM      8  C   UNL     1      29.537  33.211  31.986  1.00  0.00    -0.023 CG0
ATOM      9  G   UNL     1      30.537  32.173  31.510  1.00  0.00     0.000 G0
ENDBRANCH   5   6
ENDBRANCH   4   5
ENDBRANCH   2   4
BRANCH   1  10
ATOM     10  C   UNL     1      29.053  31.623  28.211  1.00  0.00     0.111 C 
BRANCH  10  11
ATOM     11  C   UNL     1      30.202  31.242  29.112  1.00  0.00     0.163 C 
ATOM     12  O   UNL     1      30.565  30.035  29.102  1.00  0.00    -0.294 OA
BRANCH  11  13
ATOM     13  C   UNL     1      30.906  32.209  30.021  1.00  0.00    -0.002 C 
ATOM     14  C   UNL     1      31.945  32.969  29.557  1.00  0.00    -0.069 C 
ATOM     15  C   UNL     1      32.825  33.776  30.485  1.00  0.00     0.039 C 
ATOM     16  C   UNL     1      32.241  33.084  28.079  1.00  0.00     0.039 C 
BRANCH  13  17
ATOM     17  C   UNL     1      30.548  32.181  31.503  1.00  0.00     0.066 CG0
ATOM     18  G   UNL     1      29.540  33.213  31.976  1.00  0.00     0.000 G0
ENDBRANCH  13  17
ENDBRANCH  11  13
ENDBRANCH  10  11
ENDBRANCH   1  10
TORSDOF 0
ENDMDL
MODEL 6
REMARK VINA RESULT:    -3.391      2.422      5.263
REMARK INTER + INTRA:          -4.898
REMARK INTER:                  -5.246
REMARK INTRA:                   0.348
REMARK UNBOUND:                -0.120
REMARK SMILES CC1=CCC(=C(C)C)C(=O)CC(C)=CCC1
REMARK SMILES IDX 12 1 14 2 13 3 15 4 16 5 2 6 1 7 3 8 11 10 9 11 10 12 5 13
REMARK SMILES IDX 6 14 7 15 8 16 4 17
REMARK H PARENT
REMARK Flexibility Score: 60.00
ROOT
ATOM      1  C   UNL     1      18.245  26.194  27.943  1.00  0.00    -0.070 C 
ATOM      2  C   UNL     1      19.269  25.337  27.727  1.00  0.00    -0.027 C 
ATOM      3  C   UNL     1      16.877  25.616  28.201  1.00  0.00     0.039 C 
ENDROOT
BRANCH   2   4
ATOM      4  C   UNL     1      20.717  25.735  27.600  1.00  0.00     0.032 C 
BRANCH   4   5
ATOM      5  C   UNL     1      21.274  26.115  28.977  1.00  0.00     0.034 C 
BRANCH   5   6
ATOM      6  C   UNL     1      22.035  27.426  28.954  1.00  0.00    -0.077 C 
ATOM      7  C   UNL     1      23.286  27.519  28.117  1.00  0.00     0.039 C 
ATOM      8  C   UNL     1      21.695  28.505  29.701  1.00  0.00    -0.023 CG0
ATOM      9  G   UNL     1      20.461  28.673  30.570  1.00  0.00     0.000 G0
ENDBRANCH   5   6
ENDBRANCH   4   5
ENDBRANCH   2   4
BRANCH   1  10
ATOM     10  C   UNL     1      18.402  27.703  27.920  1.00  0.00     0.111 C 
BRANCH  10  11
ATOM     11  C   UNL     1      18.234  28.307  29.293  1.00  0.00     0.163 C 
ATOM     12  O   UNL     1      17.195  27.995  29.934  1.00  0.00    -0.294 OA
BRANCH  11  13
ATOM     13  C   UNL     1      19.214  29.262  29.910  1.00  0.00    -0.002 C 
ATOM     14  C   UNL     1      19.078  30.612  29.730  1.00  0.00    -0.069 C 
ATOM     15  C   UNL     1      20.161  31.588  30.133  1.00  0.00     0.039 C 
ATOM     16  C   UNL     1      17.811  31.209  29.161  1.00  0.00     0.039 C 
BRANCH  13  17
ATOM     17  C   UNL     1      20.452  28.676  30.581  1.00  0.00     0.066 CG0
ATOM     18  G   UNL     1      21.682  28.510  29.707  1.00  0.00     0.000 G0
ENDBRANCH  13  17
ENDBRANCH  11  13
ENDBRANCH  10  11
ENDBRANCH   1  10
TORSDOF 0
ENDMDL
MODEL 7
REMARK VINA RESULT:    -3.302      2.810      5.411
REMARK INTER + INTRA:          -4.773
REMARK INTER:                  -4.805
REMARK INTRA:                   0.032
REMARK UNBOUND:                -0.120
REMARK SMILES CC1=CCC(=C(C)C)C(=O)CC(C)=CCC1
REMARK SMILES IDX 12 1 14 2 13 3 15 4 16 5 2 6 1 7 3 8 11 10 9 11 10 12 5 13
REMARK SMILES IDX 6 14 7 15 8 16 4 17
REMARK H PARENT
REMARK Flexibility Score: 60.00
ROOT
ATOM      1  C   UNL     1      21.053  25.957  28.349  1.00  0.00    -0.070 C 
ATOM      2  C   UNL     1      22.206  26.665  28.326  1.00  0.00    -0.027 C 
ATOM      3  C   UNL     1      20.917  24.790  27.405  1.00  0.00     0.039 C 
ENDROOT
BRANCH   2   4
ATOM      4  C   UNL     1      22.567  27.761  29.295  1.00  0.00     0.032 C 
BRANCH   4   5
ATOM      5  C   UNL     1      22.145  29.120  28.723  1.00  0.00     0.034 C 
BRANCH   5   6
ATOM      6  C   UNL     1      21.344  29.942  29.712  1.00  0.00    -0.077 C 
ATOM      7  C   UNL     1      22.067  30.584  30.870  1.00  0.00     0.039 C 
ATOM      8  C   UNL     1      19.996  30.076  29.659  1.00  0.00    -0.023 CG0
ATOM      9  G   UNL     1      19.062  29.577  28.571  1.00  0.00     0.000 G0
ENDBRANCH   5   6
ENDBRANCH   4   5
ENDBRANCH   2   4
BRANCH   1  10
ATOM     10  C   UNL     1      19.889  26.290  29.262  1.00  0.00     0.111 C 
BRANCH  10  11
ATOM     11  C   UNL     1      18.775  26.989  28.523  1.00  0.00     0.163 C 
ATOM     12  O   UNL     1      18.303  26.405  27.510  1.00  0.00    -0.294 OA
BRANCH  11  13
ATOM     13  C   UNL     1      18.227  28.331  28.913  1.00  0.00    -0.002 C 
ATOM     14  C   UNL     1      16.957  28.446  29.411  1.00  0.00    -0.069 C 
ATOM     15  C   UNL     1      16.287  29.788  29.597  1.00  0.00     0.039 C 
ATOM     16  C   UNL     1      16.169  27.233  29.851  1.00  0.00     0.039 C 
BRANCH  13  17
ATOM     17  C   UNL     1      19.054  29.565  28.571  1.00  0.00     0.066 CG0
ATOM     18  G   UNL     1      19.996  30.070  29.649  1.00  0.00     0.000 G0
ENDBRANCH  13  17
ENDBRANCH  11  13
ENDBRANCH  10  11
ENDBRANCH   1  10
TORSDOF 0
ENDMDL
MODEL 8
REMARK VINA RESULT:    -3.275      1.729      2.278
REMARK INTER + INTRA:          -4.735
REMARK INTER:                  -4.797
REMARK INTRA:                   0.062
REMARK UNBOUND:                -0.120
REMARK SMILES CC1=CCC(=C(C)C)C(=O)CC(C)=CCC1
REMARK SMILES IDX 12 1 14 2 13 3 15 4 16 5 2 6 1 7 3 8 11 10 9 11 10 12 5 13
REMARK SMILES IDX 6 14 7 15 8 16 4 17
REMARK H PARENT
REMARK Flexibility Score: 60.00
ROOT
ATOM      1  C   UNL     1      17.566  29.675  29.308  1.00  0.00    -0.070 C 
ATOM      2  C   UNL     1      16.984  30.808  29.764  1.00  0.00    -0.027 C 
ATOM      3  C   UNL     1      16.778  28.392  29.382  1.00  0.00     0.039 C 
ENDROOT
BRANCH   2   4
ATOM      4  C   UNL     1      17.565  32.192  29.632  1.00  0.00     0.032 C 
BRANCH   4   5
ATOM      5  C   UNL     1      18.514  32.472  30.803  1.00  0.00     0.034 C 
BRANCH   5   6
ATOM      6  C   UNL     1      19.852  33.019  30.348  1.00  0.00    -0.077 C 
ATOM      7  C   UNL     1      19.895  34.390  29.722  1.00  0.00     0.039 C 
ATOM      8  C   UNL     1      21.010  32.316  30.405  1.00  0.00    -0.023 CG0
ATOM      9  G   UNL     1      21.230  30.953  31.037  1.00  0.00     0.000 G0
ENDBRANCH   5   6
ENDBRANCH   4   5
ENDBRANCH   2   4
BRANCH   1  10
ATOM     10  C   UNL     1      18.973  29.630  28.744  1.00  0.00     0.111 C 
BRANCH  10  11
ATOM     11  C   UNL     1      19.964  29.089  29.745  1.00  0.00     0.163 C 
ATOM     12  O   UNL     1      19.654  28.022  30.341  1.00  0.00    -0.294 OA
BRANCH  11  13
ATOM     13  C   UNL     1      21.266  29.759  30.077  1.00  0.00    -0.002 C 
ATOM     14  C   UNL     1      22.452  29.221  29.658  1.00  0.00    -0.069 C 
ATOM     15  C   UNL     1      23.785  29.728  30.161  1.00  0.00     0.039 C 
ATOM     16  C   UNL     1      22.498  28.116  28.626  1.00  0.00     0.039 C 
BRANCH  13  17
ATOM     17  C   UNL     1      21.232  30.943  31.037  1.00  0.00     0.066 CG0
ATOM     18  G   UNL     1      21.022  32.313  30.417  1.00  0.00     0.000 G0
ENDBRANCH  13  17
ENDBRANCH  11  13
ENDBRANCH  10  11
ENDBRANCH   1  10
TORSDOF 0
ENDMDL
MODEL 9
REMARK VINA RESULT:    -3.120      1.602      4.083
REMARK INTER + INTRA:          -4.516
REMARK INTER:                  -4.781
REMARK INTRA:                   0.265
REMARK UNBOUND:                -0.120
REMARK SMILES CC1=CCC(=C(C)C)C(=O)CC(C)=CCC1
REMARK SMILES IDX 12 1 14 2 13 3 15 4 16 5 2 6 1 7 3 8 11 10 9 11 10 12 5 13
REMARK SMILES IDX 6 14 7 15 8 16 4 17
REMARK H PARENT
REMARK Flexibility Score: 60.00
ROOT
ATOM      1  C   UNL     1      19.060  28.713  28.591  1.00  0.00    -0.070 C 
ATOM      2  C   UNL     1      20.293  28.248  28.897  1.00  0.00    -0.027 C 
ATOM      3  C   UNL     1      17.981  27.710  28.274  1.00  0.00     0.039 C 
ENDROOT
BRANCH   2   4
ATOM      4  C   UNL     1      21.441  29.096  29.379  1.00  0.00     0.032 C 
BRANCH   4   5
ATOM      5  C   UNL     1      21.260  29.420  30.867  1.00  0.00     0.034 C 
BRANCH   5   6
ATOM      6  C   UNL     1      21.534  30.877  31.181  1.00  0.00    -0.077 C 
ATOM      7  C   UNL     1      22.945  31.391  31.047  1.00  0.00     0.039 C 
ATOM      8  C   UNL     1      20.592  31.734  31.648  1.00  0.00    -0.023 CG0
ATOM      9  G   UNL     1      19.106  31.470  31.813  1.00  0.00     0.000 G0
ENDBRANCH   5   6
ENDBRANCH   4   5
ENDBRANCH   2   4
BRANCH   1  10
ATOM     10  C   UNL     1      18.717  30.189  28.534  1.00  0.00     0.111 C 
BRANCH  10  11
ATOM     11  C   UNL     1      17.862  30.614  29.703  1.00  0.00     0.163 C 
ATOM     12  O   UNL     1      16.795  29.972  29.898  1.00  0.00    -0.294 OA
BRANCH  11  13
ATOM     13  C   UNL     1      18.203  31.759  30.614  1.00  0.00    -0.002 C 
ATOM     14  C   UNL     1      17.856  33.040  30.280  1.00  0.00    -0.069 C 
ATOM     15  C   UNL     1      18.377  34.236  31.044  1.00  0.00     0.039 C 
ATOM     16  C   UNL     1      16.888  33.329  29.155  1.00  0.00     0.039 C 
BRANCH  13  17
ATOM     17  C   UNL     1      19.095  31.470  31.815  1.00  0.00     0.066 CG0
ATOM     18  G   UNL     1      20.580  31.731  31.635  1.00  0.00     0.000 G0
ENDBRANCH  13  17
ENDBRANCH  11  13
ENDBRANCH  10  11
ENDBRANCH   1  10
TORSDOF 0
ENDMDL
