MODEL 1
REMARK VINA RESULT:    -6.415      0.000      0.000
REMARK INTER + INTRA:          -7.365
REMARK INTER:                  -7.165
REMARK INTRA:                  -0.200
REMARK UNBOUND:                -0.200
REMARK SMILES CC=C(C)C=CC=C(C)C
REMARK SMILES IDX 5 1 6 2 3 3 1 4 2 5 4 6 7 7 8 8 9 9 10 10
REMARK H PARENT
REMARK Flexibility Score: inf
ROOT
ATOM      1  C   UNL     1       2.994 -18.203  15.390  1.00  0.00     0.003 C 
ATOM      2  C   UNL     1       1.668 -18.136  15.565  1.00  0.00     0.000 C 
ENDROOT
BRANCH   1   3
ATOM      3  C   UNL     1       3.977 -17.954  16.477  1.00  0.00    -0.055 C 
ATOM      4  C   UNL     1       5.809 -16.491  17.387  1.00  0.00     0.036 C 
ATOM      5  C   UNL     1       4.807 -16.901  16.349  1.00  0.00    -0.027 C 
ATOM      6  C   UNL     1       3.987 -18.825  17.714  1.00  0.00     0.044 C 
ENDBRANCH   1   3
BRANCH   2   7
ATOM      7  C   UNL     1       0.745 -18.388  14.437  1.00  0.00    -0.001 C 
ATOM      8  C   UNL     1      -0.548 -18.007  14.429  1.00  0.00    -0.076 C 
ATOM      9  C   UNL     1      -1.175 -17.282  15.590  1.00  0.00     0.039 C 
ATOM     10  C   UNL     1      -1.411 -18.310  13.236  1.00  0.00     0.039 C 
ENDBRANCH   2   7
TORSDOF 2
ENDMDL
MODEL 2
REMARK VINA RESULT:    -5.977      1.409      5.749
REMARK INTER + INTRA:          -6.877
REMARK INTER:                  -6.679
REMARK INTRA:                  -0.197
REMARK UNBOUND:                -0.200
REMARK SMILES CC=C(C)C=CC=C(C)C
REMARK SMILES IDX 5 1 6 2 3 3 1 4 2 5 4 6 7 7 8 8 9 9 10 10
REMARK H PARENT
REMARK Flexibility Score: inf
ROOT
ATOM      1  C   UNL     1      -0.311 -17.650  15.506  1.00  0.00     0.003 C 
ATOM      2  C   UNL     1       0.936 -18.100  15.317  1.00  0.00     0.000 C 
ENDROOT
BRANCH   1   3
ATOM      3  C   UNL     1      -1.237 -17.310  14.394  1.00  0.00    -0.055 C 
ATOM      4  C   UNL     1      -2.733 -15.593  13.327  1.00  0.00     0.036 C 
ATOM      5  C   UNL     1      -1.823 -16.098  14.408  1.00  0.00    -0.027 C 
ATOM      6  C   UNL     1      -1.451 -18.282  13.254  1.00  0.00     0.044 C 
ENDBRANCH   1   3
BRANCH   2   7
ATOM      7  C   UNL     1       1.808 -18.411  16.470  1.00  0.00    -0.001 C 
ATOM      8  C   UNL     1       3.140 -18.589  16.374  1.00  0.00    -0.076 C 
ATOM      9  C   UNL     1       3.868 -18.487  15.059  1.00  0.00     0.039 C 
ATOM     10  C   UNL     1       3.946 -18.905  17.604  1.00  0.00     0.039 C 
ENDBRANCH   2   7
TORSDOF 2
ENDMDL
MODEL 3
REMARK VINA RESULT:    -5.973      4.320      7.816
REMARK INTER + INTRA:          -6.872
REMARK INTER:                  -6.636
REMARK INTRA:                  -0.236
REMARK UNBOUND:                -0.200
REMARK SMILES CC=C(C)C=CC=C(C)C
REMARK SMILES IDX 5 1 6 2 3 3 1 4 2 5 4 6 7 7 8 8 9 9 10 10
REMARK H PARENT
REMARK Flexibility Score: inf
ROOT
ATOM      1  C   UNL     1      -2.380 -14.975  11.667  1.00  0.00     0.003 C 
ATOM      2  C   UNL     1      -2.202 -16.166  12.254  1.00  0.00     0.000 C 
ENDROOT
BRANCH   1   3
ATOM      3  C   UNL     1      -2.499 -14.797  10.196  1.00  0.00    -0.055 C 
ATOM      4  C   UNL     1      -3.015 -15.841   7.967  1.00  0.00     0.036 C 
ATOM      5  C   UNL     1      -2.805 -15.877   9.452  1.00  0.00    -0.027 C 
ATOM      6  C   UNL     1      -2.345 -13.426   9.577  1.00  0.00     0.044 C 
ENDBRANCH   1   3
BRANCH   2   7
ATOM      7  C   UNL     1      -2.083 -16.271  13.724  1.00  0.00    -0.001 C 
ATOM      8  C   UNL     1      -1.408 -17.255  14.351  1.00  0.00    -0.076 C 
ATOM      9  C   UNL     1      -0.706 -18.351  13.595  1.00  0.00     0.039 C 
ATOM     10  C   UNL     1      -1.344 -17.280  15.854  1.00  0.00     0.039 C 
ENDBRANCH   2   7
TORSDOF 2
ENDMDL
MODEL 4
REMARK VINA RESULT:    -5.839      4.242      7.927
REMARK INTER + INTRA:          -6.722
REMARK INTER:                  -6.506
REMARK INTRA:                  -0.216
REMARK UNBOUND:                -0.200
REMARK SMILES CC=C(C)C=CC=C(C)C
REMARK SMILES IDX 5 1 6 2 3 3 1 4 2 5 4 6 7 7 8 8 9 9 10 10
REMARK H PARENT
REMARK Flexibility Score: inf
ROOT
ATOM      1  C   UNL     1      -3.202 -15.716  11.601  1.00  0.00     0.003 C 
ATOM      2  C   UNL     1      -2.154 -16.312  12.185  1.00  0.00     0.000 C 
ENDROOT
BRANCH   1   3
ATOM      3  C   UNL     1      -3.382 -15.634  10.128  1.00  0.00    -0.055 C 
ATOM      4  C   UNL     1      -2.529 -14.755   7.932  1.00  0.00     0.036 C 
ATOM      5  C   UNL     1      -2.510 -14.886   9.426  1.00  0.00    -0.027 C 
ATOM      6  C   UNL     1      -4.476 -16.426   9.446  1.00  0.00     0.044 C 
ENDBRANCH   1   3
BRANCH   2   7
ATOM      7  C   UNL     1      -2.033 -16.350  13.658  1.00  0.00    -0.001 C 
ATOM      8  C   UNL     1      -1.307 -17.269  14.325  1.00  0.00    -0.076 C 
ATOM      9  C   UNL     1      -0.544 -18.356  13.614  1.00  0.00     0.039 C 
ATOM     10  C   UNL     1      -1.244 -17.229  15.827  1.00  0.00     0.039 C 
ENDBRANCH   2   7
TORSDOF 2
ENDMDL
MODEL 5
REMARK VINA RESULT:    -5.794      2.649      4.949
REMARK INTER + INTRA:          -6.671
REMARK INTER:                  -6.472
REMARK INTRA:                  -0.200
REMARK UNBOUND:                -0.200
REMARK SMILES CC=C(C)C=CC=C(C)C
REMARK SMILES IDX 5 1 6 2 3 3 1 4 2 5 4 6 7 7 8 8 9 9 10 10
REMARK H PARENT
REMARK Flexibility Score: inf
ROOT
ATOM      1  C   UNL     1      -1.323 -17.923  13.297  1.00  0.00     0.003 C 
ATOM      2  C   UNL     1      -1.739 -16.799  12.698  1.00  0.00     0.000 C 
ENDROOT
BRANCH   1   3
ATOM      3  C   UNL     1      -0.439 -17.935  14.492  1.00  0.00    -0.055 C 
ATOM      4  C   UNL     1       1.849 -18.380  15.434  1.00  0.00     0.036 C 
ATOM      5  C   UNL     1       0.827 -18.365  14.336  1.00  0.00    -0.027 C 
ATOM      6  C   UNL     1      -0.943 -17.414  15.820  1.00  0.00     0.044 C 
ENDBRANCH   1   3
BRANCH   2   7
ATOM      7  C   UNL     1      -2.612 -16.858  11.506  1.00  0.00    -0.001 C 
ATOM      8  C   UNL     1      -2.863 -15.801  10.709  1.00  0.00    -0.076 C 
ATOM      9  C   UNL     1      -2.267 -14.443  10.970  1.00  0.00     0.039 C 
ATOM     10  C   UNL     1      -3.767 -15.958   9.517  1.00  0.00     0.039 C 
ENDBRANCH   2   7
TORSDOF 2
ENDMDL
MODEL 6
REMARK VINA RESULT:    -5.726      6.442      9.506
REMARK INTER + INTRA:          -6.596
REMARK INTER:                  -6.363
REMARK INTRA:                  -0.233
REMARK UNBOUND:                -0.200
REMARK SMILES CC=C(C)C=CC=C(C)C
REMARK SMILES IDX 5 1 6 2 3 3 1 4 2 5 4 6 7 7 8 8 9 9 10 10
REMARK H PARENT
REMARK Flexibility Score: inf
ROOT
ATOM      1  C   UNL     1      -3.502 -15.517   9.438  1.00  0.00     0.003 C 
ATOM      2  C   UNL     1      -3.059 -15.153   8.227  1.00  0.00     0.000 C 
ENDROOT
BRANCH   1   3
ATOM      3  C   UNL     1      -2.832 -15.125  10.706  1.00  0.00    -0.055 C 
ATOM      4  C   UNL     1      -2.304 -15.709  13.094  1.00  0.00     0.036 C 
ATOM      5  C   UNL     1      -2.967 -15.941  11.769  1.00  0.00    -0.027 C 
ATOM      6  C   UNL     1      -1.976 -13.880  10.766  1.00  0.00     0.044 C 
ENDBRANCH   1   3
BRANCH   2   7
ATOM      7  C   UNL     1      -3.768 -15.585   7.003  1.00  0.00    -0.001 C 
ATOM      8  C   UNL     1      -4.721 -14.853   6.394  1.00  0.00    -0.076 C 
ATOM      9  C   UNL     1      -5.155 -13.509   6.917  1.00  0.00     0.039 C 
ATOM     10  C   UNL     1      -5.390 -15.377   5.152  1.00  0.00     0.039 C 
ENDBRANCH   2   7
TORSDOF 2
ENDMDL
MODEL 7
REMARK VINA RESULT:    -5.709      4.684      7.626
REMARK INTER + INTRA:          -6.577
REMARK INTER:                  -6.309
REMARK INTRA:                  -0.268
REMARK UNBOUND:                -0.200
REMARK SMILES CC=C(C)C=CC=C(C)C
REMARK SMILES IDX 5 1 6 2 3 3 1 4 2 5 4 6 7 7 8 8 9 9 10 10
REMARK H PARENT
REMARK Flexibility Score: inf
ROOT
ATOM      1  C   UNL     1      -2.376 -15.873  10.976  1.00  0.00     0.003 C 
ATOM      2  C   UNL     1      -2.725 -16.828  10.105  1.00  0.00     0.000 C 
ENDROOT
BRANCH   1   3
ATOM      3  C   UNL     1      -2.213 -16.114  12.434  1.00  0.00    -0.055 C 
ATOM      4  C   UNL     1      -1.321 -17.605  14.251  1.00  0.00     0.036 C 
ATOM      5  C   UNL     1      -1.608 -17.252  12.822  1.00  0.00    -0.027 C 
ATOM      6  C   UNL     1      -2.659 -15.071  13.435  1.00  0.00     0.044 C 
ENDBRANCH   1   3
BRANCH   2   7
ATOM      7  C   UNL     1      -2.878 -16.519   8.667  1.00  0.00    -0.001 C 
ATOM      8  C   UNL     1      -4.070 -16.408   8.048  1.00  0.00    -0.076 C 
ATOM      9  C   UNL     1      -5.372 -16.597   8.781  1.00  0.00     0.039 C 
ATOM     10  C   UNL     1      -4.126 -16.092   6.578  1.00  0.00     0.039 C 
ENDBRANCH   2   7
TORSDOF 2
ENDMDL
MODEL 8
REMARK VINA RESULT:    -5.492      5.052      9.266
REMARK INTER + INTRA:          -6.335
REMARK INTER:                  -6.134
REMARK INTRA:                  -0.201
REMARK UNBOUND:                -0.200
REMARK SMILES CC=C(C)C=CC=C(C)C
REMARK SMILES IDX 5 1 6 2 3 3 1 4 2 5 4 6 7 7 8 8 9 9 10 10
REMARK H PARENT
REMARK Flexibility Score: inf
ROOT
ATOM      1  C   UNL     1      -2.793 -16.613   9.391  1.00  0.00     0.003 C 
ATOM      2  C   UNL     1      -2.818 -15.997  10.580  1.00  0.00     0.000 C 
ENDROOT
BRANCH   1   3
ATOM      3  C   UNL     1      -3.310 -15.998   8.139  1.00  0.00    -0.055 C 
ATOM      4  C   UNL     1      -5.247 -15.700   6.565  1.00  0.00     0.036 C 
ATOM      5  C   UNL     1      -4.571 -16.288   7.768  1.00  0.00    -0.027 C 
ATOM      6  C   UNL     1      -2.455 -15.028   7.355  1.00  0.00     0.044 C 
ENDBRANCH   1   3
BRANCH   2   7
ATOM      7  C   UNL     1      -2.295 -16.669  11.789  1.00  0.00    -0.001 C 
ATOM      8  C   UNL     1      -2.201 -16.075  12.994  1.00  0.00    -0.076 C 
ATOM      9  C   UNL     1      -2.626 -14.648  13.218  1.00  0.00     0.039 C 
ATOM     10  C   UNL     1      -1.652 -16.840  14.167  1.00  0.00     0.039 C 
ENDBRANCH   2   7
TORSDOF 2
ENDMDL
MODEL 9
REMARK VINA RESULT:    -5.481      6.700      9.310
REMARK INTER + INTRA:          -6.323
REMARK INTER:                  -6.107
REMARK INTRA:                  -0.215
REMARK UNBOUND:                -0.200
REMARK SMILES CC=C(C)C=CC=C(C)C
REMARK SMILES IDX 5 1 6 2 3 3 1 4 2 5 4 6 7 7 8 8 9 9 10 10
REMARK H PARENT
REMARK Flexibility Score: inf
ROOT
ATOM      1  C   UNL     1      -3.127 -15.839   9.319  1.00  0.00     0.003 C 
ATOM      2  C   UNL     1      -4.402 -16.024   8.951  1.00  0.00     0.000 C 
ENDROOT
BRANCH   1   3
ATOM      3  C   UNL     1      -2.697 -15.682  10.733  1.00  0.00    -0.055 C 
ATOM      4  C   UNL     1      -2.258 -14.123  12.657  1.00  0.00     0.036 C 
ATOM      5  C   UNL     1      -2.620 -14.435  11.235  1.00  0.00    -0.027 C 
ATOM      6  C   UNL     1      -2.423 -16.899  11.588  1.00  0.00     0.044 C 
ENDBRANCH   1   3
BRANCH   2   7
ATOM      7  C   UNL     1      -4.762 -16.164   7.524  1.00  0.00    -0.001 C 
ATOM      8  C   UNL     1      -5.000 -15.120   6.706  1.00  0.00    -0.076 C 
ATOM      9  C   UNL     1      -4.918 -13.694   7.184  1.00  0.00     0.039 C 
ATOM     10  C   UNL     1      -5.363 -15.362   5.266  1.00  0.00     0.039 C 
ENDBRANCH   2   7
TORSDOF 2
ENDMDL
