MODEL 1
REMARK VINA RESULT:    22.427      0.000      0.000
REMARK INTER + INTRA:          26.216
REMARK INTER:                  26.360
REMARK INTRA:                  -0.144
REMARK UNBOUND:                -0.144
REMARK SMILES O=c1c(O)c(-c2ccc(O)c(O)c2)oc2cc(O)ccc12
REMARK SMILES IDX 5 1 3 2 2 3 1 4 21 5 15 6 14 7 16 8 17 9 19 10 20 11 6 12
REMARK SMILES IDX 7 13 8 14 9 15 13 16 11 17 10 18 12 20 4 22 18 24
REMARK H PARENT 10 19 12 21 4 23 18 25
REMARK Flexibility Score: inf
ROOT
ATOM      1  C   UNL     1      -6.558  -7.905  15.776  1.00  0.00     0.180 A 
ATOM      2  C   UNL     1      -7.451  -8.196  14.724  1.00  0.00     0.208 A 
ATOM      3  C   UNL     1      -7.702  -9.539  14.402  1.00  0.00     0.235 A 
ATOM      4  O   UNL     1      -8.489  -9.825  13.457  1.00  0.00    -0.285 OA
ATOM      5  C   UNL     1      -7.079 -10.555  15.143  1.00  0.00     0.069 A 
ATOM      6  C   UNL     1      -6.217 -10.182  16.197  1.00  0.00     0.142 A 
ATOM      7  O   UNL     1      -5.999  -8.899  16.465  1.00  0.00    -0.452 OA
ATOM      8  C   UNL     1      -5.585 -11.165  16.966  1.00  0.00     0.094 A 
ATOM      9  C   UNL     1      -5.802 -12.523  16.693  1.00  0.00     0.119 A 
ATOM     10  C   UNL     1      -6.654 -12.895  15.648  1.00  0.00     0.047 A 
ATOM     11  C   UNL     1      -7.292 -11.920  14.875  1.00  0.00     0.020 A 
ENDROOT
BRANCH   1  12
ATOM     12  C   UNL     1      -6.226  -6.516  16.164  1.00  0.00     0.025 A 
ATOM     13  C   UNL     1      -4.919  -6.040  15.976  1.00  0.00     0.016 A 
ATOM     14  C   UNL     1      -4.589  -4.726  16.317  1.00  0.00     0.051 A 
ATOM     15  C   UNL     1      -5.563  -3.863  16.834  1.00  0.00     0.157 A 
ATOM     16  C   UNL     1      -7.208  -5.641  16.665  1.00  0.00     0.062 A 
ATOM     17  C   UNL     1      -6.879  -4.323  17.005  1.00  0.00     0.158 A 
BRANCH  15  18
ATOM     18  O   UNL     1      -5.230  -2.553  17.175  1.00  0.00    -0.504 OA
ATOM     19  H   UNL     1      -5.323  -1.793  16.512  1.00  0.00     0.293 HD
ENDBRANCH  15  18
BRANCH  17  20
ATOM     20  O   UNL     1      -7.876  -3.485  17.504  1.00  0.00    -0.504 OA
ATOM     21  H   UNL     1      -8.453  -2.914  16.898  1.00  0.00     0.293 HD
ENDBRANCH  17  20
ENDBRANCH   1  12
BRANCH   2  22
ATOM     22  O   UNL     1      -8.094  -7.165  14.036  1.00  0.00    -0.502 OA
ATOM     23  H   UNL     1      -7.951  -7.002  13.047  1.00  0.00     0.293 HD
ENDBRANCH   2  22
BRANCH   9  24
ATOM     24  O   UNL     1      -5.177 -13.509  17.452  1.00  0.00    -0.508 OA
ATOM     25  H   UNL     1      -4.634 -13.277  18.277  1.00  0.00     0.293 HD
ENDBRANCH   9  24
TORSDOF 5
ENDMDL
MODEL 2
REMARK VINA RESULT:    25.245      1.272      2.872
REMARK INTER + INTRA:          29.529
REMARK INTER:                  29.781
REMARK INTRA:                  -0.252
REMARK UNBOUND:                -0.144
REMARK SMILES O=c1c(O)c(-c2ccc(O)c(O)c2)oc2cc(O)ccc12
REMARK SMILES IDX 5 1 3 2 2 3 1 4 21 5 15 6 14 7 16 8 17 9 19 10 20 11 6 12
REMARK SMILES IDX 7 13 8 14 9 15 13 16 11 17 10 18 12 20 4 22 18 24
REMARK H PARENT 10 19 12 21 4 23 18 25
REMARK Flexibility Score: inf
ROOT
ATOM      1  C   UNL     1      -6.223  -7.462  16.438  1.00  0.00     0.180 A 
ATOM      2  C   UNL     1      -5.784  -8.402  17.394  1.00  0.00     0.208 A 
ATOM      3  C   UNL     1      -6.085  -9.759  17.196  1.00  0.00     0.235 A 
ATOM      4  O   UNL     1      -5.712 -10.619  18.042  1.00  0.00    -0.285 OA
ATOM      5  C   UNL     1      -6.793 -10.149  16.048  1.00  0.00     0.069 A 
ATOM      6  C   UNL     1      -7.177  -9.150  15.127  1.00  0.00     0.142 A 
ATOM      7  O   UNL     1      -6.881  -7.876  15.356  1.00  0.00    -0.452 OA
ATOM      8  C   UNL     1      -7.876  -9.499  13.967  1.00  0.00     0.094 A 
ATOM      9  C   UNL     1      -8.199 -10.840  13.714  1.00  0.00     0.119 A 
ATOM     10  C   UNL     1      -7.822 -11.831  14.626  1.00  0.00     0.047 A 
ATOM     11  C   UNL     1      -7.121 -11.492  15.788  1.00  0.00     0.020 A 
ENDROOT
BRANCH   1  12
ATOM     12  C   UNL     1      -5.963  -6.013  16.585  1.00  0.00     0.025 A 
ATOM     13  C   UNL     1      -4.683  -5.509  16.304  1.00  0.00     0.016 A 
ATOM     14  C   UNL     1      -4.421  -4.141  16.417  1.00  0.00     0.051 A 
ATOM     15  C   UNL     1      -5.437  -3.254  16.795  1.00  0.00     0.157 A 
ATOM     16  C   UNL     1      -6.987  -5.117  16.944  1.00  0.00     0.062 A 
ATOM     17  C   UNL     1      -6.727  -3.746  17.056  1.00  0.00     0.158 A 
BRANCH  15  18
ATOM     18  O   UNL     1      -5.172  -1.890  16.908  1.00  0.00    -0.504 OA
ATOM     19  H   UNL     1      -4.247  -1.515  16.739  1.00  0.00     0.293 HD
ENDBRANCH  15  18
BRANCH  17  20
ATOM     20  O   UNL     1      -7.764  -2.888  17.420  1.00  0.00    -0.504 OA
ATOM     21  H   UNL     1      -8.442  -3.135  18.132  1.00  0.00     0.293 HD
ENDBRANCH  17  20
ENDBRANCH   1  12
BRANCH   2  22
ATOM     22  O   UNL     1      -5.038  -7.991  18.500  1.00  0.00    -0.502 OA
ATOM     23  H   UNL     1      -4.709  -7.039  18.608  1.00  0.00     0.293 HD
ENDBRANCH   2  22
BRANCH   9  24
ATOM     24  O   UNL     1      -8.895 -11.197  12.562  1.00  0.00    -0.508 OA
ATOM     25  H   UNL     1      -9.649 -11.874  12.587  1.00  0.00     0.293 HD
ENDBRANCH   9  24
TORSDOF 5
ENDMDL
