MODEL 1
REMARK VINA RESULT:    -5.586      0.000      0.000
REMARK INTER + INTRA:          -6.869
REMARK INTER:                  -6.565
REMARK INTRA:                  -0.304
REMARK UNBOUND:                -0.304
REMARK SMILES O=c1cc(-c2ccc(O)c(O)c2)oc2cc(O)cc(O)c12
REMARK SMILES IDX 4 1 3 2 2 3 1 4 21 5 19 6 18 7 16 8 15 9 14 10 13 11 5 12
REMARK SMILES IDX 6 13 7 14 8 15 12 16 10 17 9 18 11 20 20 22 17 24
REMARK H PARENT 9 19 11 21 20 23 17 25
REMARK Flexibility Score: inf
ROOT
ATOM      1  C   UNL     1      69.665   8.938 356.558  1.00  0.00     0.138 A 
ATOM      2  C   UNL     1      68.324   9.230 356.257  1.00  0.00     0.100 A 
ATOM      3  C   UNL     1      67.714  10.338 356.850  1.00  0.00     0.197 A 
ATOM      4  O   UNL     1      66.511  10.593 356.575  1.00  0.00    -0.289 OA
ATOM      5  C   UNL     1      68.451  11.144 357.741  1.00  0.00     0.107 A 
ATOM      6  C   UNL     1      67.910  12.284 358.381  1.00  0.00     0.134 A 
ATOM      7  C   UNL     1      68.708  13.031 359.261  1.00  0.00     0.093 A 
ATOM      8  C   UNL     1      70.032  12.660 359.511  1.00  0.00     0.123 A 
ATOM      9  C   UNL     1      70.572  11.534 358.881  1.00  0.00     0.094 A 
ATOM     10  C   UNL     1      69.793  10.778 358.000  1.00  0.00     0.146 A 
ATOM     11  O   UNL     1      70.329   9.712 357.412  1.00  0.00    -0.456 OA
ENDROOT
BRANCH   1  12
ATOM     12  C   UNL     1      70.363   7.771 355.959  1.00  0.00     0.021 A 
ATOM     13  C   UNL     1      70.101   7.347 354.643  1.00  0.00     0.016 A 
ATOM     14  C   UNL     1      70.782   6.253 354.102  1.00  0.00     0.051 A 
ATOM     15  C   UNL     1      71.739   5.570 354.862  1.00  0.00     0.157 A 
ATOM     16  C   UNL     1      71.336   7.088 356.710  1.00  0.00     0.062 A 
ATOM     17  C   UNL     1      72.019   5.989 356.168  1.00  0.00     0.158 A 
BRANCH  15  18
ATOM     18  O   UNL     1      72.418   4.478 354.325  1.00  0.00    -0.504 OA
ATOM     19  H   UNL     1      73.411   4.515 354.130  1.00  0.00     0.293 HD
ENDBRANCH  15  18
BRANCH  17  20
ATOM     20  O   UNL     1      72.976   5.311 356.921  1.00  0.00    -0.504 OA
ATOM     21  H   UNL     1      73.145   4.320 356.795  1.00  0.00     0.293 HD
ENDBRANCH  17  20
ENDBRANCH   1  12
BRANCH   6  22
ATOM     22  O   UNL     1      66.591  12.678 358.152  1.00  0.00    -0.507 OA
ATOM     23  H   UNL     1      66.045  12.294 357.390  1.00  0.00     0.293 HD
ENDBRANCH   6  22
BRANCH   8  24
ATOM     24  O   UNL     1      70.803  13.419 360.388  1.00  0.00    -0.508 OA
ATOM     25  H   UNL     1      70.470  13.658 361.315  1.00  0.00     0.293 HD
ENDBRANCH   8  24
TORSDOF 5
ENDMDL
MODEL 2
REMARK VINA RESULT:    -5.322      6.944      8.302
REMARK INTER + INTRA:          -6.559
REMARK INTER:                  -6.281
REMARK INTRA:                  -0.278
REMARK UNBOUND:                -0.304
REMARK SMILES O=c1cc(-c2ccc(O)c(O)c2)oc2cc(O)cc(O)c12
REMARK SMILES IDX 4 1 3 2 2 3 1 4 21 5 19 6 18 7 16 8 15 9 14 10 13 11 5 12
REMARK SMILES IDX 6 13 7 14 8 15 12 16 10 17 9 18 11 20 20 22 17 24
REMARK H PARENT 9 19 11 21 20 23 17 25
REMARK Flexibility Score: inf
ROOT
ATOM      1  C   UNL     1      73.925  11.937 361.705  1.00  0.00     0.138 A 
ATOM      2  C   UNL     1      72.524  11.968 361.606  1.00  0.00     0.100 A 
ATOM      3  C   UNL     1      71.750  11.538 362.685  1.00  0.00     0.197 A 
ATOM      4  O   UNL     1      70.494  11.569 362.587  1.00  0.00    -0.289 OA
ATOM      5  C   UNL     1      72.384  11.078 363.856  1.00  0.00     0.107 A 
ATOM      6  C   UNL     1      71.675  10.627 364.995  1.00  0.00     0.134 A 
ATOM      7  C   UNL     1      72.382  10.178 366.121  1.00  0.00     0.093 A 
ATOM      8  C   UNL     1      73.779  10.171 366.129  1.00  0.00     0.123 A 
ATOM      9  C   UNL     1      74.485  10.615 365.007  1.00  0.00     0.094 A 
ATOM     10  C   UNL     1      73.800  11.068 363.876  1.00  0.00     0.146 A 
ATOM     11  O   UNL     1      74.493  11.486 362.821  1.00  0.00    -0.456 OA
ENDROOT
BRANCH   1  12
ATOM     12  C   UNL     1      74.799  12.380 360.588  1.00  0.00     0.021 A 
ATOM     13  C   UNL     1      75.943  11.653 360.210  1.00  0.00     0.016 A 
ATOM     14  C   UNL     1      76.740  12.088 359.148  1.00  0.00     0.051 A 
ATOM     15  C   UNL     1      76.404  13.249 358.442  1.00  0.00     0.157 A 
ATOM     16  C   UNL     1      74.461  13.538 359.865  1.00  0.00     0.062 A 
ATOM     17  C   UNL     1      75.262  13.975 358.799  1.00  0.00     0.158 A 
BRANCH  15  18
ATOM     18  O   UNL     1      77.199  13.686 357.383  1.00  0.00    -0.504 OA
ATOM     19  H   UNL     1      77.778  14.513 357.460  1.00  0.00     0.293 HD
ENDBRANCH  15  18
BRANCH  17  20
ATOM     20  O   UNL     1      74.928  15.129 358.092  1.00  0.00    -0.504 OA
ATOM     21  H   UNL     1      75.452  15.420 357.275  1.00  0.00     0.293 HD
ENDBRANCH  17  20
ENDBRANCH   1  12
BRANCH   6  22
ATOM     22  O   UNL     1      70.280  10.622 365.016  1.00  0.00    -0.507 OA
ATOM     23  H   UNL     1      69.756   9.828 365.367  1.00  0.00     0.293 HD
ENDBRANCH   6  22
BRANCH   8  24
ATOM     24  O   UNL     1      74.456   9.720 367.260  1.00  0.00    -0.508 OA
ATOM     25  H   UNL     1      74.264   8.811 367.665  1.00  0.00     0.293 HD
ENDBRANCH   8  24
TORSDOF 5
ENDMDL
MODEL 3
REMARK VINA RESULT:    -5.275      1.337      2.608
REMARK INTER + INTRA:          -6.504
REMARK INTER:                  -6.209
REMARK INTRA:                  -0.295
REMARK UNBOUND:                -0.304
REMARK SMILES O=c1cc(-c2ccc(O)c(O)c2)oc2cc(O)cc(O)c12
REMARK SMILES IDX 4 1 3 2 2 3 1 4 21 5 19 6 18 7 16 8 15 9 14 10 13 11 5 12
REMARK SMILES IDX 6 13 7 14 8 15 12 16 10 17 9 18 11 20 20 22 17 24
REMARK H PARENT 9 19 11 21 20 23 17 25
REMARK Flexibility Score: inf
ROOT
ATOM      1  C   UNL     1      69.904   9.079 356.751  1.00  0.00     0.138 A 
ATOM      2  C   UNL     1      70.292   9.478 358.041  1.00  0.00     0.100 A 
ATOM      3  C   UNL     1      69.706  10.607 358.615  1.00  0.00     0.197 A 
ATOM      4  O   UNL     1      70.061  10.958 359.773  1.00  0.00    -0.289 OA
ATOM      5  C   UNL     1      68.736  11.331 357.893  1.00  0.00     0.107 A 
ATOM      6  C   UNL     1      68.093  12.484 358.402  1.00  0.00     0.134 A 
ATOM      7  C   UNL     1      67.142  13.153 357.617  1.00  0.00     0.093 A 
ATOM      8  C   UNL     1      66.823  12.692 356.337  1.00  0.00     0.123 A 
ATOM      9  C   UNL     1      67.456  11.553 355.828  1.00  0.00     0.094 A 
ATOM     10  C   UNL     1      68.406  10.872 356.596  1.00  0.00     0.146 A 
ATOM     11  O   UNL     1      68.993   9.791 356.092  1.00  0.00    -0.456 OA
ENDROOT
BRANCH   1  12
ATOM     12  C   UNL     1      70.495   7.887 356.089  1.00  0.00     0.021 A 
ATOM     13  C   UNL     1      70.143   7.518 354.778  1.00  0.00     0.016 A 
ATOM     14  C   UNL     1      70.724   6.398 354.176  1.00  0.00     0.051 A 
ATOM     15  C   UNL     1      71.669   5.634 354.872  1.00  0.00     0.157 A 
ATOM     16  C   UNL     1      71.455   7.122 356.775  1.00  0.00     0.062 A 
ATOM     17  C   UNL     1      72.037   5.997 356.172  1.00  0.00     0.158 A 
BRANCH  15  18
ATOM     18  O   UNL     1      72.249   4.515 354.275  1.00  0.00    -0.504 OA
ATOM     19  H   UNL     1      72.152   4.334 353.283  1.00  0.00     0.293 HD
ENDBRANCH  15  18
BRANCH  17  20
ATOM     20  O   UNL     1      72.982   5.237 356.860  1.00  0.00    -0.504 OA
ATOM     21  H   UNL     1      73.736   5.672 357.380  1.00  0.00     0.293 HD
ENDBRANCH  17  20
ENDBRANCH   1  12
BRANCH   6  22
ATOM     22  O   UNL     1      68.390  12.969 359.677  1.00  0.00    -0.507 OA
ATOM     23  H   UNL     1      69.345  13.049 360.006  1.00  0.00     0.293 HD
ENDBRANCH   6  22
BRANCH   8  24
ATOM     24  O   UNL     1      65.875  13.375 355.578  1.00  0.00    -0.508 OA
ATOM     25  H   UNL     1      64.955  12.988 355.408  1.00  0.00     0.293 HD
ENDBRANCH   8  24
TORSDOF 5
ENDMDL
MODEL 4
REMARK VINA RESULT:    -5.183      6.244      8.778
REMARK INTER + INTRA:          -6.396
REMARK INTER:                  -6.101
REMARK INTRA:                  -0.294
REMARK UNBOUND:                -0.304
REMARK SMILES O=c1cc(-c2ccc(O)c(O)c2)oc2cc(O)cc(O)c12
REMARK SMILES IDX 4 1 3 2 2 3 1 4 21 5 19 6 18 7 16 8 15 9 14 10 13 11 5 12
REMARK SMILES IDX 6 13 7 14 8 15 12 16 10 17 9 18 11 20 20 22 17 24
REMARK H PARENT 9 19 11 21 20 23 17 25
REMARK Flexibility Score: inf
ROOT
ATOM      1  C   UNL     1      75.817  13.593 359.165  1.00  0.00     0.138 A 
ATOM      2  C   UNL     1      76.046  12.786 360.291  1.00  0.00     0.100 A 
ATOM      3  C   UNL     1      74.963  12.191 360.941  1.00  0.00     0.197 A 
ATOM      4  O   UNL     1      75.178  11.469 361.952  1.00  0.00    -0.289 OA
ATOM      5  C   UNL     1      73.657  12.410 360.459  1.00  0.00     0.107 A 
ATOM      6  C   UNL     1      72.506  11.844 361.057  1.00  0.00     0.134 A 
ATOM      7  C   UNL     1      71.238  12.116 360.520  1.00  0.00     0.093 A 
ATOM      8  C   UNL     1      71.102  12.941 359.400  1.00  0.00     0.123 A 
ATOM      9  C   UNL     1      72.235  13.504 358.806  1.00  0.00     0.094 A 
ATOM     10  C   UNL     1      73.507  13.243 359.325  1.00  0.00     0.146 A 
ATOM     11  O   UNL     1      74.570  13.788 358.742  1.00  0.00    -0.456 OA
ENDROOT
BRANCH   1  12
ATOM     12  C   UNL     1      76.930  14.252 358.435  1.00  0.00     0.021 A 
ATOM     13  C   UNL     1      76.710  14.985 357.254  1.00  0.00     0.016 A 
ATOM     14  C   UNL     1      77.776  15.604 356.595  1.00  0.00     0.051 A 
ATOM     15  C   UNL     1      79.075  15.509 357.108  1.00  0.00     0.157 A 
ATOM     16  C   UNL     1      78.237  14.173 358.951  1.00  0.00     0.062 A 
ATOM     17  C   UNL     1      79.306  14.794 358.289  1.00  0.00     0.158 A 
BRANCH  15  18
ATOM     18  O   UNL     1      80.140  16.124 356.452  1.00  0.00    -0.504 OA
ATOM     19  H   UNL     1      80.436  17.064 356.687  1.00  0.00     0.293 HD
ENDBRANCH  15  18
BRANCH  17  20
ATOM     20  O   UNL     1      80.600  14.705 358.800  1.00  0.00    -0.504 OA
ATOM     21  H   UNL     1      80.771  14.537 359.785  1.00  0.00     0.293 HD
ENDBRANCH  17  20
ENDBRANCH   1  12
BRANCH   6  22
ATOM     22  O   UNL     1      72.611  11.017 362.176  1.00  0.00    -0.507 OA
ATOM     23  H   UNL     1      71.804  10.545 362.567  1.00  0.00     0.293 HD
ENDBRANCH   6  22
BRANCH   8  24
ATOM     24  O   UNL     1      69.832  13.196 358.887  1.00  0.00    -0.508 OA
ATOM     25  H   UNL     1      69.045  12.594 359.099  1.00  0.00     0.293 HD
ENDBRANCH   8  24
TORSDOF 5
ENDMDL
MODEL 5
REMARK VINA RESULT:    -5.170      1.525      6.736
REMARK INTER + INTRA:          -6.380
REMARK INTER:                  -6.083
REMARK INTRA:                  -0.297
REMARK UNBOUND:                -0.304
REMARK SMILES O=c1cc(-c2ccc(O)c(O)c2)oc2cc(O)cc(O)c12
REMARK SMILES IDX 4 1 3 2 2 3 1 4 21 5 19 6 18 7 16 8 15 9 14 10 13 11 5 12
REMARK SMILES IDX 6 13 7 14 8 15 12 16 10 17 9 18 11 20 20 22 17 24
REMARK H PARENT 9 19 11 21 20 23 17 25
REMARK Flexibility Score: inf
ROOT
ATOM      1  C   UNL     1      69.510   9.312 356.892  1.00  0.00     0.138 A 
ATOM      2  C   UNL     1      68.482   9.085 355.962  1.00  0.00     0.100 A 
ATOM      3  C   UNL     1      68.595   8.027 355.058  1.00  0.00     0.197 A 
ATOM      4  O   UNL     1      67.668   7.831 354.227  1.00  0.00    -0.289 OA
ATOM      5  C   UNL     1      69.739   7.205 355.089  1.00  0.00     0.107 A 
ATOM      6  C   UNL     1      69.932   6.113 354.210  1.00  0.00     0.134 A 
ATOM      7  C   UNL     1      71.103   5.345 354.301  1.00  0.00     0.093 A 
ATOM      8  C   UNL     1      72.082   5.650 355.251  1.00  0.00     0.123 A 
ATOM      9  C   UNL     1      71.897   6.728 356.122  1.00  0.00     0.094 A 
ATOM     10  C   UNL     1      70.736   7.504 356.048  1.00  0.00     0.146 A 
ATOM     11  O   UNL     1      70.582   8.523 356.887  1.00  0.00    -0.456 OA
ENDROOT
BRANCH   1  12
ATOM     12  C   UNL     1      69.444  10.423 357.875  1.00  0.00     0.021 A 
ATOM     13  C   UNL     1      68.256  10.734 358.562  1.00  0.00     0.016 A 
ATOM     14  C   UNL     1      68.226  11.778 359.491  1.00  0.00     0.051 A 
ATOM     15  C   UNL     1      69.383  12.522 359.754  1.00  0.00     0.157 A 
ATOM     16  C   UNL     1      70.604  11.167 358.156  1.00  0.00     0.062 A 
ATOM     17  C   UNL     1      70.574  12.216 359.087  1.00  0.00     0.158 A 
BRANCH  15  18
ATOM     18  O   UNL     1      69.355  13.565 360.678  1.00  0.00    -0.504 OA
ATOM     19  H   UNL     1      68.492  14.036 360.920  1.00  0.00     0.293 HD
ENDBRANCH  15  18
BRANCH  17  20
ATOM     20  O   UNL     1      71.725  12.956 359.354  1.00  0.00    -0.504 OA
ATOM     21  H   UNL     1      72.311  13.313 358.608  1.00  0.00     0.293 HD
ENDBRANCH  17  20
ENDBRANCH   1  12
BRANCH   6  22
ATOM     22  O   UNL     1      68.973   5.785 353.251  1.00  0.00    -0.507 OA
ATOM     23  H   UNL     1      68.456   6.498 352.748  1.00  0.00     0.293 HD
ENDBRANCH   6  22
BRANCH   8  24
ATOM     24  O   UNL     1      73.236   4.872 355.320  1.00  0.00    -0.508 OA
ATOM     25  H   UNL     1      74.131   5.224 355.005  1.00  0.00     0.293 HD
ENDBRANCH   8  24
TORSDOF 5
ENDMDL
MODEL 6
REMARK VINA RESULT:    -5.137      7.201      9.008
REMARK INTER + INTRA:          -6.341
REMARK INTER:                  -6.023
REMARK INTRA:                  -0.318
REMARK UNBOUND:                -0.304
REMARK SMILES O=c1cc(-c2ccc(O)c(O)c2)oc2cc(O)cc(O)c12
REMARK SMILES IDX 4 1 3 2 2 3 1 4 21 5 19 6 18 7 16 8 15 9 14 10 13 11 5 12
REMARK SMILES IDX 6 13 7 14 8 15 12 16 10 17 9 18 11 20 20 22 17 24
REMARK H PARENT 9 19 11 21 20 23 17 25
REMARK Flexibility Score: inf
ROOT
ATOM      1  C   UNL     1      74.486  12.112 361.577  1.00  0.00     0.138 A 
ATOM      2  C   UNL     1      73.632  12.763 360.671  1.00  0.00     0.100 A 
ATOM      3  C   UNL     1      74.169  13.359 359.528  1.00  0.00     0.197 A 
ATOM      4  O   UNL     1      73.395  13.941 358.721  1.00  0.00    -0.289 OA
ATOM      5  C   UNL     1      75.559  13.302 359.302  1.00  0.00     0.107 A 
ATOM      6  C   UNL     1      76.183  13.877 358.170  1.00  0.00     0.134 A 
ATOM      7  C   UNL     1      77.575  13.783 358.021  1.00  0.00     0.093 A 
ATOM      8  C   UNL     1      78.351  13.125 358.979  1.00  0.00     0.123 A 
ATOM      9  C   UNL     1      77.740  12.555 360.099  1.00  0.00     0.094 A 
ATOM     10  C   UNL     1      76.354  12.637 360.266  1.00  0.00     0.146 A 
ATOM     11  O   UNL     1      75.795  12.086 361.339  1.00  0.00    -0.456 OA
ENDROOT
BRANCH   1  12
ATOM     12  C   UNL     1      73.971  11.463 362.809  1.00  0.00     0.021 A 
ATOM     13  C   UNL     1      72.612  11.531 363.169  1.00  0.00     0.016 A 
ATOM     14  C   UNL     1      72.153  10.901 364.329  1.00  0.00     0.051 A 
ATOM     15  C   UNL     1      73.041  10.187 365.143  1.00  0.00     0.157 A 
ATOM     16  C   UNL     1      74.852  10.732 363.626  1.00  0.00     0.062 A 
ATOM     17  C   UNL     1      74.392  10.100 364.791  1.00  0.00     0.158 A 
BRANCH  15  18
ATOM     18  O   UNL     1      72.586   9.559 366.302  1.00  0.00    -0.504 OA
ATOM     19  H   UNL     1      73.220   9.297 367.047  1.00  0.00     0.293 HD
ENDBRANCH  15  18
BRANCH  17  20
ATOM     20  O   UNL     1      75.273   9.385 365.601  1.00  0.00    -0.504 OA
ATOM     21  H   UNL     1      75.443   8.397 365.456  1.00  0.00     0.293 HD
ENDBRANCH  17  20
ENDBRANCH   1  12
BRANCH   6  22
ATOM     22  O   UNL     1      75.434  14.541 357.197  1.00  0.00    -0.507 OA
ATOM     23  H   UNL     1      75.238  14.119 356.297  1.00  0.00     0.293 HD
ENDBRANCH   6  22
BRANCH   8  24
ATOM     24  O   UNL     1      79.731  13.045 358.806  1.00  0.00    -0.508 OA
ATOM     25  H   UNL     1      80.373  13.293 359.550  1.00  0.00     0.293 HD
ENDBRANCH   8  24
TORSDOF 5
ENDMDL
MODEL 7
REMARK VINA RESULT:    -5.047      2.483      3.392
REMARK INTER + INTRA:          -6.235
REMARK INTER:                  -5.966
REMARK INTRA:                  -0.269
REMARK UNBOUND:                -0.304
REMARK SMILES O=c1cc(-c2ccc(O)c(O)c2)oc2cc(O)cc(O)c12
REMARK SMILES IDX 4 1 3 2 2 3 1 4 21 5 19 6 18 7 16 8 15 9 14 10 13 11 5 12
REMARK SMILES IDX 6 13 7 14 8 15 12 16 10 17 9 18 11 20 20 22 17 24
REMARK H PARENT 9 19 11 21 20 23 17 25
REMARK Flexibility Score: inf
ROOT
ATOM      1  C   UNL     1      69.547  10.108 356.532  1.00  0.00     0.138 A 
ATOM      2  C   UNL     1      69.363  11.412 356.044  1.00  0.00     0.100 A 
ATOM      3  C   UNL     1      70.016  12.476 356.668  1.00  0.00     0.197 A 
ATOM      4  O   UNL     1      69.844  13.644 356.224  1.00  0.00    -0.289 OA
ATOM      5  C   UNL     1      70.848  12.228 357.778  1.00  0.00     0.107 A 
ATOM      6  C   UNL     1      71.547  13.248 358.466  1.00  0.00     0.134 A 
ATOM      7  C   UNL     1      72.351  12.919 359.568  1.00  0.00     0.093 A 
ATOM      8  C   UNL     1      72.469  11.593 359.992  1.00  0.00     0.123 A 
ATOM      9  C   UNL     1      71.780  10.580 359.317  1.00  0.00     0.094 A 
ATOM     10  C   UNL     1      70.975  10.888 358.216  1.00  0.00     0.146 A 
ATOM     11  O   UNL     1      70.331   9.908 357.589  1.00  0.00    -0.456 OA
ENDROOT
BRANCH   1  12
ATOM     12  C   UNL     1      68.876   8.938 355.909  1.00  0.00     0.021 A 
ATOM     13  C   UNL     1      67.486   8.742 356.010  1.00  0.00     0.016 A 
ATOM     14  C   UNL     1      66.880   7.637 355.404  1.00  0.00     0.051 A 
ATOM     15  C   UNL     1      67.650   6.716 354.684  1.00  0.00     0.157 A 
ATOM     16  C   UNL     1      69.640   8.015 355.173  1.00  0.00     0.062 A 
ATOM     17  C   UNL     1      69.032   6.905 354.566  1.00  0.00     0.158 A 
BRANCH  15  18
ATOM     18  O   UNL     1      67.049   5.613 354.080  1.00  0.00    -0.504 OA
ATOM     19  H   UNL     1      66.051   5.580 353.911  1.00  0.00     0.293 HD
ENDBRANCH  15  18
BRANCH  17  20
ATOM     20  O   UNL     1      69.795   5.989 353.845  1.00  0.00    -0.504 OA
ATOM     21  H   UNL     1      70.019   6.138 352.868  1.00  0.00     0.293 HD
ENDBRANCH  17  20
ENDBRANCH   1  12
BRANCH   6  22
ATOM     22  O   UNL     1      71.448  14.582 358.066  1.00  0.00    -0.507 OA
ATOM     23  H   UNL     1      72.230  15.221 358.148  1.00  0.00     0.293 HD
ENDBRANCH   6  22
BRANCH   8  24
ATOM     24  O   UNL     1      73.274  11.293 361.089  1.00  0.00    -0.508 OA
ATOM     25  H   UNL     1      73.408  10.339 361.403  1.00  0.00     0.293 HD
ENDBRANCH   8  24
TORSDOF 5
ENDMDL
MODEL 8
REMARK VINA RESULT:    -4.907      4.303      6.408
REMARK INTER + INTRA:          -6.071
REMARK INTER:                  -5.781
REMARK INTRA:                  -0.290
REMARK UNBOUND:                -0.304
REMARK SMILES O=c1cc(-c2ccc(O)c(O)c2)oc2cc(O)cc(O)c12
REMARK SMILES IDX 4 1 3 2 2 3 1 4 21 5 19 6 18 7 16 8 15 9 14 10 13 11 5 12
REMARK SMILES IDX 6 13 7 14 8 15 12 16 10 17 9 18 11 20 20 22 17 24
REMARK H PARENT 9 19 11 21 20 23 17 25
REMARK Flexibility Score: inf
ROOT
ATOM      1  C   UNL     1      70.403  10.835 359.845  1.00  0.00     0.138 A 
ATOM      2  C   UNL     1      71.447  11.397 360.599  1.00  0.00     0.100 A 
ATOM      3  C   UNL     1      71.700  10.918 361.885  1.00  0.00     0.197 A 
ATOM      4  O   UNL     1      72.639  11.429 362.554  1.00  0.00    -0.289 OA
ATOM      5  C   UNL     1      70.905   9.880 362.410  1.00  0.00     0.107 A 
ATOM      6  C   UNL     1      71.096   9.335 363.702  1.00  0.00     0.134 A 
ATOM      7  C   UNL     1      70.257   8.306 364.154  1.00  0.00     0.093 A 
ATOM      8  C   UNL     1      69.233   7.812 363.340  1.00  0.00     0.123 A 
ATOM      9  C   UNL     1      69.040   8.346 362.062  1.00  0.00     0.094 A 
ATOM     10  C   UNL     1      69.867   9.372 361.593  1.00  0.00     0.146 A 
ATOM     11  O   UNL     1      69.664   9.863 360.374  1.00  0.00    -0.456 OA
ENDROOT
BRANCH   1  12
ATOM     12  C   UNL     1      70.087  11.306 358.473  1.00  0.00     0.021 A 
ATOM     13  C   UNL     1      68.827  11.085 357.886  1.00  0.00     0.016 A 
ATOM     14  C   UNL     1      68.553  11.550 356.596  1.00  0.00     0.051 A 
ATOM     15  C   UNL     1      69.530  12.249 355.876  1.00  0.00     0.157 A 
ATOM     16  C   UNL     1      71.056  12.021 357.747  1.00  0.00     0.062 A 
ATOM     17  C   UNL     1      70.783  12.487 356.453  1.00  0.00     0.158 A 
BRANCH  15  18
ATOM     18  O   UNL     1      69.260  12.712 354.590  1.00  0.00    -0.504 OA
ATOM     19  H   UNL     1      69.201  13.702 354.384  1.00  0.00     0.293 HD
ENDBRANCH  15  18
BRANCH  17  20
ATOM     20  O   UNL     1      71.751  13.187 355.735  1.00  0.00    -0.504 OA
ATOM     21  H   UNL     1      72.693  12.830 355.628  1.00  0.00     0.293 HD
ENDBRANCH  17  20
ENDBRANCH   1  12
BRANCH   6  22
ATOM     22  O   UNL     1      72.109   9.808 364.538  1.00  0.00    -0.507 OA
ATOM     23  H   UNL     1      72.204  10.793 364.754  1.00  0.00     0.293 HD
ENDBRANCH   6  22
BRANCH   8  24
ATOM     24  O   UNL     1      68.414   6.789 363.813  1.00  0.00    -0.508 OA
ATOM     25  H   UNL     1      67.418   6.781 363.628  1.00  0.00     0.293 HD
ENDBRANCH   8  24
TORSDOF 5
ENDMDL
MODEL 9
REMARK VINA RESULT:    -4.776      5.513      7.639
REMARK INTER + INTRA:          -5.917
REMARK INTER:                  -5.599
REMARK INTRA:                  -0.318
REMARK UNBOUND:                -0.304
REMARK SMILES O=c1cc(-c2ccc(O)c(O)c2)oc2cc(O)cc(O)c12
REMARK SMILES IDX 4 1 3 2 2 3 1 4 21 5 19 6 18 7 16 8 15 9 14 10 13 11 5 12
REMARK SMILES IDX 6 13 7 14 8 15 12 16 10 17 9 18 11 20 20 22 17 24
REMARK H PARENT 9 19 11 21 20 23 17 25
REMARK Flexibility Score: inf
ROOT
ATOM      1  C   UNL     1      68.122  12.111 353.555  1.00  0.00     0.138 A 
ATOM      2  C   UNL     1      67.269  11.121 353.039  1.00  0.00     0.100 A 
ATOM      3  C   UNL     1      66.820  11.222 351.721  1.00  0.00     0.197 A 
ATOM      4  O   UNL     1      66.054  10.329 351.266  1.00  0.00    -0.289 OA
ATOM      5  C   UNL     1      67.226  12.314 350.929  1.00  0.00     0.107 A 
ATOM      6  C   UNL     1      66.820  12.490 349.585  1.00  0.00     0.134 A 
ATOM      7  C   UNL     1      67.264  13.609 348.865  1.00  0.00     0.093 A 
ATOM      8  C   UNL     1      68.105  14.552 349.462  1.00  0.00     0.123 A 
ATOM      9  C   UNL     1      68.510  14.384 350.790  1.00  0.00     0.094 A 
ATOM     10  C   UNL     1      68.079  13.274 351.524  1.00  0.00     0.146 A 
ATOM     11  O   UNL     1      68.478  13.135 352.784  1.00  0.00    -0.456 OA
ENDROOT
BRANCH   1  12
ATOM     12  C   UNL     1      68.628  12.057 354.950  1.00  0.00     0.021 A 
ATOM     13  C   UNL     1      68.334  10.977 355.803  1.00  0.00     0.016 A 
ATOM     14  C   UNL     1      68.834  10.947 357.108  1.00  0.00     0.051 A 
ATOM     15  C   UNL     1      69.640  11.990 357.579  1.00  0.00     0.157 A 
ATOM     16  C   UNL     1      69.450  13.094 355.428  1.00  0.00     0.062 A 
ATOM     17  C   UNL     1      69.951  13.065 356.738  1.00  0.00     0.158 A 
BRANCH  15  18
ATOM     18  O   UNL     1      70.138  11.964 358.881  1.00  0.00    -0.504 OA
ATOM     19  H   UNL     1      70.198  12.805 359.443  1.00  0.00     0.293 HD
ENDBRANCH  15  18
BRANCH  17  20
ATOM     20  O   UNL     1      70.757  14.100 357.209  1.00  0.00    -0.504 OA
ATOM     21  H   UNL     1      71.734  13.951 357.432  1.00  0.00     0.293 HD
ENDBRANCH  17  20
ENDBRANCH   1  12
BRANCH   6  22
ATOM     22  O   UNL     1      65.980  11.565 348.962  1.00  0.00    -0.507 OA
ATOM     23  H   UNL     1      65.803  10.651 349.363  1.00  0.00     0.293 HD
ENDBRANCH   6  22
BRANCH   8  24
ATOM     24  O   UNL     1      68.532  15.655 348.725  1.00  0.00    -0.508 OA
ATOM     25  H   UNL     1      68.406  16.600 349.065  1.00  0.00     0.293 HD
ENDBRANCH   8  24
TORSDOF 5
ENDMDL
