MODEL 1
REMARK VINA RESULT:    -7.630      0.000      0.000
REMARK INTER + INTRA:          -9.498
REMARK INTER:                  -9.191
REMARK INTRA:                  -0.307
REMARK UNBOUND:                -0.307
REMARK SMILES O=c1c(O)c(-c2ccc(O)c(O)c2)oc2cc(O)cc(O)c12
REMARK SMILES IDX 5 1 3 2 2 3 1 4 22 5 20 6 19 7 17 8 16 9 15 10 14 11 6 12
REMARK SMILES IDX 7 13 8 14 9 15 13 16 11 17 10 18 12 20 4 22 21 24 18 26
REMARK H PARENT 10 19 12 21 4 23 21 25 18 27
REMARK Flexibility Score: inf
ROOT
ATOM      1  C   UNL     1      26.050  37.479  26.292  1.00  0.00     0.180 A 
ATOM      2  C   UNL     1      26.026  38.705  26.978  1.00  0.00     0.208 A 
ATOM      3  C   UNL     1      24.797  39.202  27.443  1.00  0.00     0.238 A 
ATOM      4  O   UNL     1      24.790  40.272  28.103  1.00  0.00    -0.285 OA
ATOM      5  C   UNL     1      23.607  38.474  27.201  1.00  0.00     0.111 A 
ATOM      6  C   UNL     1      22.302  38.903  27.590  1.00  0.00     0.134 A 
ATOM      7  C   UNL     1      21.212  38.043  27.416  1.00  0.00     0.093 A 
ATOM      8  C   UNL     1      21.369  36.796  26.805  1.00  0.00     0.123 A 
ATOM      9  C   UNL     1      22.628  36.394  26.368  1.00  0.00     0.094 A 
ATOM     10  C   UNL     1      23.741  37.215  26.561  1.00  0.00     0.146 A 
ATOM     11  O   UNL     1      24.926  36.789  26.138  1.00  0.00    -0.452 OA
ENDROOT
BRANCH   1  12
ATOM     12  C   UNL     1      27.302  36.902  25.751  1.00  0.00     0.025 A 
ATOM     13  C   UNL     1      27.858  37.361  24.543  1.00  0.00     0.016 A 
ATOM     14  C   UNL     1      29.027  36.787  24.040  1.00  0.00     0.051 A 
ATOM     15  C   UNL     1      29.651  35.735  24.726  1.00  0.00     0.157 A 
ATOM     16  C   UNL     1      27.919  35.834  26.423  1.00  0.00     0.062 A 
ATOM     17  C   UNL     1      29.091  35.257  25.922  1.00  0.00     0.158 A 
BRANCH  15  18
ATOM     18  O   UNL     1      30.818  35.165  24.222  1.00  0.00    -0.504 OA
ATOM     19  H   UNL     1      31.717  35.314  24.666  1.00  0.00     0.293 HD
ENDBRANCH  15  18
BRANCH  17  20
ATOM     20  O   UNL     1      29.684  34.207  26.625  1.00  0.00    -0.504 OA
ATOM     21  H   UNL     1      29.340  33.256  26.562  1.00  0.00     0.293 HD
ENDBRANCH  17  20
ENDBRANCH   1  12
BRANCH   2  22
ATOM     22  O   UNL     1      27.216  39.395  27.225  1.00  0.00    -0.502 OA
ATOM     23  H   UNL     1      27.889  39.599  26.495  1.00  0.00     0.293 HD
ENDBRANCH   2  22
BRANCH   6  24
ATOM     24  O   UNL     1      22.023  40.166  28.124  1.00  0.00    -0.507 OA
ATOM     25  H   UNL     1      21.271  40.765  27.819  1.00  0.00     0.293 HD
ENDBRANCH   6  24
BRANCH   8  26
ATOM     26  O   UNL     1      20.275  35.953  26.620  1.00  0.00    -0.508 OA
ATOM     27  H   UNL     1      20.271  35.241  25.899  1.00  0.00     0.293 HD
ENDBRANCH   8  26
TORSDOF 6
ENDMDL
MODEL 2
REMARK VINA RESULT:    -7.271      3.956      6.796
REMARK INTER + INTRA:          -9.066
REMARK INTER:                  -8.735
REMARK INTRA:                  -0.331
REMARK UNBOUND:                -0.307
REMARK SMILES O=c1c(O)c(-c2ccc(O)c(O)c2)oc2cc(O)cc(O)c12
REMARK SMILES IDX 5 1 3 2 2 3 1 4 22 5 20 6 19 7 17 8 16 9 15 10 14 11 6 12
REMARK SMILES IDX 7 13 8 14 9 15 13 16 11 17 10 18 12 20 4 22 21 24 18 26
REMARK H PARENT 10 19 12 21 4 23 21 25 18 27
REMARK Flexibility Score: inf
ROOT
ATOM      1  C   UNL     1      28.179  40.265  27.803  1.00  0.00     0.180 A 
ATOM      2  C   UNL     1      28.733  39.818  29.015  1.00  0.00     0.208 A 
ATOM      3  C   UNL     1      28.879  38.437  29.229  1.00  0.00     0.238 A 
ATOM      4  O   UNL     1      29.426  38.046  30.292  1.00  0.00    -0.285 OA
ATOM      5  C   UNL     1      28.454  37.522  28.235  1.00  0.00     0.111 A 
ATOM      6  C   UNL     1      28.516  36.102  28.363  1.00  0.00     0.134 A 
ATOM      7  C   UNL     1      28.189  35.295  27.267  1.00  0.00     0.093 A 
ATOM      8  C   UNL     1      27.738  35.856  26.069  1.00  0.00     0.123 A 
ATOM      9  C   UNL     1      27.617  37.239  25.955  1.00  0.00     0.094 A 
ATOM     10  C   UNL     1      27.971  38.071  27.020  1.00  0.00     0.146 A 
ATOM     11  O   UNL     1      27.850  39.384  26.865  1.00  0.00    -0.452 OA
ENDROOT
BRANCH   1  12
ATOM     12  C   UNL     1      27.971  41.703  27.514  1.00  0.00     0.025 A 
ATOM     13  C   UNL     1      26.767  42.349  27.848  1.00  0.00     0.016 A 
ATOM     14  C   UNL     1      26.584  43.700  27.544  1.00  0.00     0.051 A 
ATOM     15  C   UNL     1      27.593  44.422  26.891  1.00  0.00     0.157 A 
ATOM     16  C   UNL     1      28.969  42.425  26.841  1.00  0.00     0.062 A 
ATOM     17  C   UNL     1      28.790  43.779  26.537  1.00  0.00     0.158 A 
BRANCH  15  18
ATOM     18  O   UNL     1      27.407  45.770  26.592  1.00  0.00    -0.504 OA
ATOM     19  H   UNL     1      27.497  46.490  27.300  1.00  0.00     0.293 HD
ENDBRANCH  15  18
BRANCH  17  20
ATOM     20  O   UNL     1      29.810  44.467  25.880  1.00  0.00    -0.504 OA
ATOM     21  H   UNL     1      29.639  45.014  25.044  1.00  0.00     0.293 HD
ENDBRANCH  17  20
ENDBRANCH   1  12
BRANCH   2  22
ATOM     22  O   UNL     1      29.167  40.739  29.971  1.00  0.00    -0.502 OA
ATOM     23  H   UNL     1      28.524  41.287  30.531  1.00  0.00     0.293 HD
ENDBRANCH   2  22
BRANCH   6  24
ATOM     24  O   UNL     1      28.865  35.439  29.544  1.00  0.00    -0.507 OA
ATOM     25  H   UNL     1      28.311  35.437  30.387  1.00  0.00     0.293 HD
ENDBRANCH   6  24
BRANCH   8  26
ATOM     26  O   UNL     1      27.399  35.045  24.988  1.00  0.00    -0.508 OA
ATOM     27  H   UNL     1      28.048  34.876  24.228  1.00  0.00     0.293 HD
ENDBRANCH   8  26
TORSDOF 6
ENDMDL
MODEL 3
REMARK VINA RESULT:    -7.237      2.126      3.741
REMARK INTER + INTRA:          -9.025
REMARK INTER:                  -8.702
REMARK INTRA:                  -0.323
REMARK UNBOUND:                -0.307
REMARK SMILES O=c1c(O)c(-c2ccc(O)c(O)c2)oc2cc(O)cc(O)c12
REMARK SMILES IDX 5 1 3 2 2 3 1 4 22 5 20 6 19 7 17 8 16 9 15 10 14 11 6 12
REMARK SMILES IDX 7 13 8 14 9 15 13 16 11 17 10 18 12 20 4 22 21 24 18 26
REMARK H PARENT 10 19 12 21 4 23 21 25 18 27
REMARK Flexibility Score: inf
ROOT
ATOM      1  C   UNL     1      25.606  38.232  26.822  1.00  0.00     0.180 A 
ATOM      2  C   UNL     1      24.311  37.967  27.299  1.00  0.00     0.208 A 
ATOM      3  C   UNL     1      23.390  39.023  27.393  1.00  0.00     0.238 A 
ATOM      4  O   UNL     1      22.217  38.770  27.769  1.00  0.00    -0.285 OA
ATOM      5  C   UNL     1      23.781  40.333  27.023  1.00  0.00     0.111 A 
ATOM      6  C   UNL     1      22.943  41.485  27.116  1.00  0.00     0.134 A 
ATOM      7  C   UNL     1      23.390  42.707  26.600  1.00  0.00     0.093 A 
ATOM      8  C   UNL     1      24.670  42.834  26.056  1.00  0.00     0.123 A 
ATOM      9  C   UNL     1      25.518  41.729  26.015  1.00  0.00     0.094 A 
ATOM     10  C   UNL     1      25.086  40.488  26.489  1.00  0.00     0.146 A 
ATOM     11  O   UNL     1      25.922  39.458  26.422  1.00  0.00    -0.452 OA
ENDROOT
BRANCH   1  12
ATOM     12  C   UNL     1      26.639  37.176  26.718  1.00  0.00     0.025 A 
ATOM     13  C   UNL     1      26.772  36.395  25.555  1.00  0.00     0.016 A 
ATOM     14  C   UNL     1      27.739  35.388  25.488  1.00  0.00     0.051 A 
ATOM     15  C   UNL     1      28.576  35.136  26.584  1.00  0.00     0.157 A 
ATOM     16  C   UNL     1      27.466  36.905  27.820  1.00  0.00     0.062 A 
ATOM     17  C   UNL     1      28.435  35.899  27.756  1.00  0.00     0.158 A 
BRANCH  15  18
ATOM     18  O   UNL     1      29.539  34.133  26.513  1.00  0.00    -0.504 OA
ATOM     19  H   UNL     1      30.323  34.102  27.156  1.00  0.00     0.293 HD
ENDBRANCH  15  18
BRANCH  17  20
ATOM     20  O   UNL     1      29.248  35.669  28.866  1.00  0.00    -0.504 OA
ATOM     21  H   UNL     1      30.259  35.702  28.809  1.00  0.00     0.293 HD
ENDBRANCH  17  20
ENDBRANCH   1  12
BRANCH   2  22
ATOM     22  O   UNL     1      23.939  36.663  27.636  1.00  0.00    -0.502 OA
ATOM     23  H   UNL     1      23.897  36.340  28.596  1.00  0.00     0.293 HD
ENDBRANCH   2  22
BRANCH   6  24
ATOM     24  O   UNL     1      21.684  41.487  27.724  1.00  0.00    -0.507 OA
ATOM     25  H   UNL     1      21.057  42.277  27.745  1.00  0.00     0.293 HD
ENDBRANCH   6  24
BRANCH   8  26
ATOM     26  O   UNL     1      25.114  44.058  25.560  1.00  0.00    -0.508 OA
ATOM     27  H   UNL     1      25.844  44.113  24.858  1.00  0.00     0.293 HD
ENDBRANCH   8  26
TORSDOF 6
ENDMDL
MODEL 4
REMARK VINA RESULT:    -7.148      3.203      3.649
REMARK INTER + INTRA:          -8.917
REMARK INTER:                  -8.691
REMARK INTRA:                  -0.227
REMARK UNBOUND:                -0.307
REMARK SMILES O=c1c(O)c(-c2ccc(O)c(O)c2)oc2cc(O)cc(O)c12
REMARK SMILES IDX 5 1 3 2 2 3 1 4 22 5 20 6 19 7 17 8 16 9 15 10 14 11 6 12
REMARK SMILES IDX 7 13 8 14 9 15 13 16 11 17 10 18 12 20 4 22 21 24 18 26
REMARK H PARENT 10 19 12 21 4 23 21 25 18 27
REMARK Flexibility Score: inf
ROOT
ATOM      1  C   UNL     1      26.804  39.271  26.842  1.00  0.00     0.180 A 
ATOM      2  C   UNL     1      27.002  40.230  27.850  1.00  0.00     0.208 A 
ATOM      3  C   UNL     1      26.286  41.438  27.791  1.00  0.00     0.238 A 
ATOM      4  O   UNL     1      26.427  42.269  28.725  1.00  0.00    -0.285 OA
ATOM      5  C   UNL     1      25.396  41.677  26.717  1.00  0.00     0.111 A 
ATOM      6  C   UNL     1      24.651  42.881  26.534  1.00  0.00     0.134 A 
ATOM      7  C   UNL     1      23.703  42.958  25.508  1.00  0.00     0.093 A 
ATOM      8  C   UNL     1      23.520  41.898  24.616  1.00  0.00     0.123 A 
ATOM      9  C   UNL     1      24.284  40.741  24.750  1.00  0.00     0.094 A 
ATOM     10  C   UNL     1      25.212  40.622  25.786  1.00  0.00     0.146 A 
ATOM     11  O   UNL     1      25.913  39.498  25.884  1.00  0.00    -0.452 OA
ENDROOT
BRANCH   1  12
ATOM     12  C   UNL     1      27.538  37.985  26.823  1.00  0.00     0.025 A 
ATOM     13  C   UNL     1      28.525  37.721  25.856  1.00  0.00     0.016 A 
ATOM     14  C   UNL     1      29.189  36.492  25.843  1.00  0.00     0.051 A 
ATOM     15  C   UNL     1      28.867  35.503  26.783  1.00  0.00     0.157 A 
ATOM     16  C   UNL     1      27.205  36.984  27.749  1.00  0.00     0.062 A 
ATOM     17  C   UNL     1      27.868  35.752  27.738  1.00  0.00     0.158 A 
BRANCH  15  18
ATOM     18  O   UNL     1      29.532  34.279  26.767  1.00  0.00    -0.504 OA
ATOM     19  H   UNL     1      29.737  33.774  27.622  1.00  0.00     0.293 HD
ENDBRANCH  15  18
BRANCH  17  20
ATOM     20  O   UNL     1      27.519  34.786  28.683  1.00  0.00    -0.504 OA
ATOM     21  H   UNL     1      26.958  33.977  28.444  1.00  0.00     0.293 HD
ENDBRANCH  17  20
ENDBRANCH   1  12
BRANCH   2  22
ATOM     22  O   UNL     1      27.868  39.964  28.914  1.00  0.00    -0.502 OA
ATOM     23  H   UNL     1      28.396  40.692  29.381  1.00  0.00     0.293 HD
ENDBRANCH   2  22
BRANCH   6  24
ATOM     24  O   UNL     1      24.824  44.031  27.312  1.00  0.00    -0.507 OA
ATOM     25  H   UNL     1      25.575  44.694  27.198  1.00  0.00     0.293 HD
ENDBRANCH   6  24
BRANCH   8  26
ATOM     26  O   UNL     1      22.585  41.988  23.587  1.00  0.00    -0.508 OA
ATOM     27  H   UNL     1      22.729  42.601  22.792  1.00  0.00     0.293 HD
ENDBRANCH   8  26
TORSDOF 6
ENDMDL
MODEL 5
REMARK VINA RESULT:    -7.035      3.026      4.597
REMARK INTER + INTRA:          -8.782
REMARK INTER:                  -8.520
REMARK INTRA:                  -0.262
REMARK UNBOUND:                -0.307
REMARK SMILES O=c1c(O)c(-c2ccc(O)c(O)c2)oc2cc(O)cc(O)c12
REMARK SMILES IDX 5 1 3 2 2 3 1 4 22 5 20 6 19 7 17 8 16 9 15 10 14 11 6 12
REMARK SMILES IDX 7 13 8 14 9 15 13 16 11 17 10 18 12 20 4 22 21 24 18 26
REMARK H PARENT 10 19 12 21 4 23 21 25 18 27
REMARK Flexibility Score: inf
ROOT
ATOM      1  C   UNL     1      26.587  38.129  27.532  1.00  0.00     0.180 A 
ATOM      2  C   UNL     1      25.999  37.539  26.401  1.00  0.00     0.208 A 
ATOM      3  C   UNL     1      25.167  38.320  25.581  1.00  0.00     0.238 A 
ATOM      4  O   UNL     1      24.688  37.801  24.540  1.00  0.00    -0.285 OA
ATOM      5  C   UNL     1      24.922  39.674  25.912  1.00  0.00     0.111 A 
ATOM      6  C   UNL     1      24.064  40.546  25.176  1.00  0.00     0.134 A 
ATOM      7  C   UNL     1      23.998  41.901  25.520  1.00  0.00     0.093 A 
ATOM      8  C   UNL     1      24.707  42.403  26.614  1.00  0.00     0.123 A 
ATOM      9  C   UNL     1      25.500  41.547  27.375  1.00  0.00     0.094 A 
ATOM     10  C   UNL     1      25.615  40.198  27.034  1.00  0.00     0.146 A 
ATOM     11  O   UNL     1      26.390  39.419  27.780  1.00  0.00    -0.452 OA
ENDROOT
BRANCH   1  12
ATOM     12  C   UNL     1      27.456  37.366  28.458  1.00  0.00     0.025 A 
ATOM     13  C   UNL     1      27.000  36.967  29.727  1.00  0.00     0.016 A 
ATOM     14  C   UNL     1      27.845  36.268  30.593  1.00  0.00     0.051 A 
ATOM     15  C   UNL     1      29.160  35.970  30.211  1.00  0.00     0.157 A 
ATOM     16  C   UNL     1      28.781  37.083  28.089  1.00  0.00     0.062 A 
ATOM     17  C   UNL     1      29.629  36.383  28.953  1.00  0.00     0.158 A 
BRANCH  15  18
ATOM     18  O   UNL     1      29.999  35.271  31.076  1.00  0.00    -0.504 OA
ATOM     19  H   UNL     1      29.891  35.327  32.083  1.00  0.00     0.293 HD
ENDBRANCH  15  18
BRANCH  17  20
ATOM     20  O   UNL     1      30.935  36.108  28.546  1.00  0.00    -0.504 OA
ATOM     21  H   UNL     1      31.494  35.385  28.984  1.00  0.00     0.293 HD
ENDBRANCH  17  20
ENDBRANCH   1  12
BRANCH   2  22
ATOM     22  O   UNL     1      26.273  36.207  26.080  1.00  0.00    -0.502 OA
ATOM     23  H   UNL     1      27.053  35.939  25.491  1.00  0.00     0.293 HD
ENDBRANCH   2  22
BRANCH   6  24
ATOM     24  O   UNL     1      23.243  40.127  24.124  1.00  0.00    -0.507 OA
ATOM     25  H   UNL     1      23.554  39.979  23.176  1.00  0.00     0.293 HD
ENDBRANCH   6  24
BRANCH   8  26
ATOM     26  O   UNL     1      24.622  43.750  26.959  1.00  0.00    -0.508 OA
ATOM     27  H   UNL     1      25.350  44.409  26.705  1.00  0.00     0.293 HD
ENDBRANCH   8  26
TORSDOF 6
ENDMDL
MODEL 6
REMARK VINA RESULT:    -6.971      3.309      4.351
REMARK INTER + INTRA:          -8.704
REMARK INTER:                  -8.450
REMARK INTRA:                  -0.255
REMARK UNBOUND:                -0.307
REMARK SMILES O=c1c(O)c(-c2ccc(O)c(O)c2)oc2cc(O)cc(O)c12
REMARK SMILES IDX 5 1 3 2 2 3 1 4 22 5 20 6 19 7 17 8 16 9 15 10 14 11 6 12
REMARK SMILES IDX 7 13 8 14 9 15 13 16 11 17 10 18 12 20 4 22 21 24 18 26
REMARK H PARENT 10 19 12 21 4 23 21 25 18 27
REMARK Flexibility Score: inf
ROOT
ATOM      1  C   UNL     1      26.638  38.706  26.734  1.00  0.00     0.180 A 
ATOM      2  C   UNL     1      26.773  38.515  25.348  1.00  0.00     0.208 A 
ATOM      3  C   UNL     1      25.974  39.272  24.475  1.00  0.00     0.238 A 
ATOM      4  O   UNL     1      26.139  39.136  23.235  1.00  0.00    -0.285 OA
ATOM      5  C   UNL     1      25.040  40.198  25.000  1.00  0.00     0.111 A 
ATOM      6  C   UNL     1      24.151  40.987  24.209  1.00  0.00     0.134 A 
ATOM      7  C   UNL     1      23.361  41.964  24.827  1.00  0.00     0.093 A 
ATOM      8  C   UNL     1      23.378  42.134  26.213  1.00  0.00     0.123 A 
ATOM      9  C   UNL     1      24.199  41.328  26.999  1.00  0.00     0.094 A 
ATOM     10  C   UNL     1      25.025  40.369  26.408  1.00  0.00     0.146 A 
ATOM     11  O   UNL     1      25.799  39.628  27.192  1.00  0.00    -0.452 OA
ENDROOT
BRANCH   1  12
ATOM     12  C   UNL     1      27.427  37.929  27.718  1.00  0.00     0.025 A 
ATOM     13  C   UNL     1      28.523  38.499  28.390  1.00  0.00     0.016 A 
ATOM     14  C   UNL     1      29.267  37.740  29.297  1.00  0.00     0.051 A 
ATOM     15  C   UNL     1      28.938  36.398  29.533  1.00  0.00     0.157 A 
ATOM     16  C   UNL     1      27.115  36.579  27.943  1.00  0.00     0.062 A 
ATOM     17  C   UNL     1      27.858  35.816  28.850  1.00  0.00     0.158 A 
BRANCH  15  18
ATOM     18  O   UNL     1      29.682  35.644  30.439  1.00  0.00    -0.504 OA
ATOM     19  H   UNL     1      30.482  36.035  30.925  1.00  0.00     0.293 HD
ENDBRANCH  15  18
BRANCH  17  20
ATOM     20  O   UNL     1      27.510  34.481  29.058  1.00  0.00    -0.504 OA
ATOM     21  H   UNL     1      27.692  34.008  29.935  1.00  0.00     0.293 HD
ENDBRANCH  17  20
ENDBRANCH   1  12
BRANCH   2  22
ATOM     22  O   UNL     1      27.718  37.613  24.852  1.00  0.00    -0.502 OA
ATOM     23  H   UNL     1      28.346  37.096  25.456  1.00  0.00     0.293 HD
ENDBRANCH   2  22
BRANCH   6  24
ATOM     24  O   UNL     1      23.989  40.834  22.829  1.00  0.00    -0.507 OA
ATOM     25  H   UNL     1      24.718  40.549  22.193  1.00  0.00     0.293 HD
ENDBRANCH   6  24
BRANCH   8  26
ATOM     26  O   UNL     1      22.577  43.098  26.822  1.00  0.00    -0.508 OA
ATOM     27  H   UNL     1      22.632  43.282  27.817  1.00  0.00     0.293 HD
ENDBRANCH   8  26
TORSDOF 6
ENDMDL
MODEL 7
REMARK VINA RESULT:    -6.968      4.778      6.699
REMARK INTER + INTRA:          -8.700
REMARK INTER:                  -8.446
REMARK INTRA:                  -0.254
REMARK UNBOUND:                -0.307
REMARK SMILES O=c1c(O)c(-c2ccc(O)c(O)c2)oc2cc(O)cc(O)c12
REMARK SMILES IDX 5 1 3 2 2 3 1 4 22 5 20 6 19 7 17 8 16 9 15 10 14 11 6 12
REMARK SMILES IDX 7 13 8 14 9 15 13 16 11 17 10 18 12 20 4 22 21 24 18 26
REMARK H PARENT 10 19 12 21 4 23 21 25 18 27
REMARK Flexibility Score: inf
ROOT
ATOM      1  C   UNL     1      29.165  38.794  26.738  1.00  0.00     0.180 A 
ATOM      2  C   UNL     1      28.660  38.338  25.509  1.00  0.00     0.208 A 
ATOM      3  C   UNL     1      28.444  39.264  24.475  1.00  0.00     0.238 A 
ATOM      4  O   UNL     1      28.044  38.842  23.359  1.00  0.00    -0.285 OA
ATOM      5  C   UNL     1      28.721  40.636  24.690  1.00  0.00     0.111 A 
ATOM      6  C   UNL     1      28.501  41.667  23.728  1.00  0.00     0.134 A 
ATOM      7  C   UNL     1      28.932  42.970  24.002  1.00  0.00     0.093 A 
ATOM      8  C   UNL     1      29.514  43.293  25.230  1.00  0.00     0.123 A 
ATOM      9  C   UNL     1      29.679  42.306  26.198  1.00  0.00     0.094 A 
ATOM     10  C   UNL     1      29.292  40.989  25.940  1.00  0.00     0.146 A 
ATOM     11  O   UNL     1      29.475  40.076  26.887  1.00  0.00    -0.452 OA
ENDROOT
BRANCH   1  12
ATOM     12  C   UNL     1      29.396  37.882  27.882  1.00  0.00     0.025 A 
ATOM     13  C   UNL     1      30.479  36.985  27.896  1.00  0.00     0.016 A 
ATOM     14  C   UNL     1      30.664  36.117  28.975  1.00  0.00     0.051 A 
ATOM     15  C   UNL     1      29.763  36.122  30.049  1.00  0.00     0.157 A 
ATOM     16  C   UNL     1      28.485  37.868  28.950  1.00  0.00     0.062 A 
ATOM     17  C   UNL     1      28.667  37.001  30.033  1.00  0.00     0.158 A 
BRANCH  15  18
ATOM     18  O   UNL     1      29.951  35.257  31.125  1.00  0.00    -0.504 OA
ATOM     19  H   UNL     1      29.229  34.608  31.418  1.00  0.00     0.293 HD
ENDBRANCH  15  18
BRANCH  17  20
ATOM     20  O   UNL     1      27.749  37.025  31.083  1.00  0.00    -0.504 OA
ATOM     21  H   UNL     1      27.658  37.824  31.700  1.00  0.00     0.293 HD
ENDBRANCH  17  20
ENDBRANCH   1  12
BRANCH   2  22
ATOM     22  O   UNL     1      28.416  36.976  25.310  1.00  0.00    -0.502 OA
ATOM     23  H   UNL     1      27.799  36.634  24.582  1.00  0.00     0.293 HD
ENDBRANCH   2  22
BRANCH   6  24
ATOM     24  O   UNL     1      27.845  41.470  22.508  1.00  0.00    -0.507 OA
ATOM     25  H   UNL     1      28.028  41.994  21.666  1.00  0.00     0.293 HD
ENDBRANCH   6  24
BRANCH   8  26
ATOM     26  O   UNL     1      29.926  44.596  25.501  1.00  0.00    -0.508 OA
ATOM     27  H   UNL     1      30.116  45.258  24.757  1.00  0.00     0.293 HD
ENDBRANCH   8  26
TORSDOF 6
ENDMDL
MODEL 8
REMARK VINA RESULT:    -6.803      3.970      4.349
REMARK INTER + INTRA:          -8.502
REMARK INTER:                  -8.289
REMARK INTRA:                  -0.213
REMARK UNBOUND:                -0.307
REMARK SMILES O=c1c(O)c(-c2ccc(O)c(O)c2)oc2cc(O)cc(O)c12
REMARK SMILES IDX 5 1 3 2 2 3 1 4 22 5 20 6 19 7 17 8 16 9 15 10 14 11 6 12
REMARK SMILES IDX 7 13 8 14 9 15 13 16 11 17 10 18 12 20 4 22 21 24 18 26
REMARK H PARENT 10 19 12 21 4 23 21 25 18 27
REMARK Flexibility Score: inf
ROOT
ATOM      1  C   UNL     1      26.605  39.458  27.367  1.00  0.00     0.180 A 
ATOM      2  C   UNL     1      26.333  40.753  27.840  1.00  0.00     0.208 A 
ATOM      3  C   UNL     1      25.650  41.654  27.005  1.00  0.00     0.238 A 
ATOM      4  O   UNL     1      25.362  42.793  27.453  1.00  0.00    -0.285 OA
ATOM      5  C   UNL     1      25.264  41.252  25.703  1.00  0.00     0.111 A 
ATOM      6  C   UNL     1      24.605  42.094  24.758  1.00  0.00     0.134 A 
ATOM      7  C   UNL     1      24.154  41.554  23.548  1.00  0.00     0.093 A 
ATOM      8  C   UNL     1      24.397  40.218  23.221  1.00  0.00     0.123 A 
ATOM      9  C   UNL     1      25.092  39.403  24.112  1.00  0.00     0.094 A 
ATOM     10  C   UNL     1      25.522  39.905  25.342  1.00  0.00     0.146 A 
ATOM     11  O   UNL     1      26.173  39.091  26.166  1.00  0.00    -0.452 OA
ENDROOT
BRANCH   1  12
ATOM     12  C   UNL     1      27.341  38.461  28.179  1.00  0.00     0.025 A 
ATOM     13  C   UNL     1      28.697  38.640  28.504  1.00  0.00     0.016 A 
ATOM     14  C   UNL     1      29.377  37.676  29.251  1.00  0.00     0.051 A 
ATOM     15  C   UNL     1      28.719  36.512  29.671  1.00  0.00     0.157 A 
ATOM     16  C   UNL     1      26.692  37.284  28.584  1.00  0.00     0.062 A 
ATOM     17  C   UNL     1      27.369  36.316  29.333  1.00  0.00     0.158 A 
BRANCH  15  18
ATOM     18  O   UNL     1      29.400  35.552  30.417  1.00  0.00    -0.504 OA
ATOM     19  H   UNL     1      30.412  35.490  30.407  1.00  0.00     0.293 HD
ENDBRANCH  15  18
BRANCH  17  20
ATOM     20  O   UNL     1      26.687  35.166  29.730  1.00  0.00    -0.504 OA
ATOM     21  H   UNL     1      26.656  34.866  30.697  1.00  0.00     0.293 HD
ENDBRANCH  17  20
ENDBRANCH   1  12
BRANCH   2  22
ATOM     22  O   UNL     1      26.703  41.121  29.136  1.00  0.00    -0.502 OA
ATOM     23  H   UNL     1      27.358  41.871  29.323  1.00  0.00     0.293 HD
ENDBRANCH   2  22
BRANCH   6  24
ATOM     24  O   UNL     1      24.395  43.464  24.946  1.00  0.00    -0.507 OA
ATOM     25  H   UNL     1      23.618  43.862  25.452  1.00  0.00     0.293 HD
ENDBRANCH   6  24
BRANCH   8  26
ATOM     26  O   UNL     1      23.958  39.691  22.008  1.00  0.00    -0.508 OA
ATOM     27  H   UNL     1      22.996  39.403  21.872  1.00  0.00     0.293 HD
ENDBRANCH   8  26
TORSDOF 6
ENDMDL
MODEL 9
REMARK VINA RESULT:    -6.707      3.034      7.265
REMARK INTER + INTRA:          -8.387
REMARK INTER:                  -8.120
REMARK INTRA:                  -0.267
REMARK UNBOUND:                -0.307
REMARK SMILES O=c1c(O)c(-c2ccc(O)c(O)c2)oc2cc(O)cc(O)c12
REMARK SMILES IDX 5 1 3 2 2 3 1 4 22 5 20 6 19 7 17 8 16 9 15 10 14 11 6 12
REMARK SMILES IDX 7 13 8 14 9 15 13 16 11 17 10 18 12 20 4 22 21 24 18 26
REMARK H PARENT 10 19 12 21 4 23 21 25 18 27
REMARK Flexibility Score: inf
ROOT
ATOM      1  C   UNL     1      26.818  39.439  26.990  1.00  0.00     0.180 A 
ATOM      2  C   UNL     1      27.579  39.161  25.842  1.00  0.00     0.208 A 
ATOM      3  C   UNL     1      28.682  38.297  25.948  1.00  0.00     0.238 A 
ATOM      4  O   UNL     1      29.325  38.009  24.906  1.00  0.00    -0.285 OA
ATOM      5  C   UNL     1      29.017  37.735  27.204  1.00  0.00     0.111 A 
ATOM      6  C   UNL     1      30.137  36.880  27.435  1.00  0.00     0.134 A 
ATOM      7  C   UNL     1      30.298  36.279  28.689  1.00  0.00     0.093 A 
ATOM      8  C   UNL     1      29.419  36.554  29.738  1.00  0.00     0.123 A 
ATOM      9  C   UNL     1      28.357  37.434  29.539  1.00  0.00     0.094 A 
ATOM     10  C   UNL     1      28.150  38.021  28.289  1.00  0.00     0.146 A 
ATOM     11  O   UNL     1      27.120  38.846  28.139  1.00  0.00    -0.452 OA
ENDROOT
BRANCH   1  12
ATOM     12  C   UNL     1      25.657  40.359  26.963  1.00  0.00     0.025 A 
ATOM     13  C   UNL     1      24.338  39.871  26.951  1.00  0.00     0.016 A 
ATOM     14  C   UNL     1      23.259  40.757  26.902  1.00  0.00     0.051 A 
ATOM     15  C   UNL     1      23.480  42.140  26.848  1.00  0.00     0.157 A 
ATOM     16  C   UNL     1      25.874  41.744  26.887  1.00  0.00     0.062 A 
ATOM     17  C   UNL     1      24.795  42.634  26.837  1.00  0.00     0.158 A 
BRANCH  15  18
ATOM     18  O   UNL     1      22.401  43.020  26.800  1.00  0.00    -0.504 OA
ATOM     19  H   UNL     1      22.096  43.440  25.929  1.00  0.00     0.293 HD
ENDBRANCH  15  18
BRANCH  17  20
ATOM     20  O   UNL     1      25.049  44.004  26.777  1.00  0.00    -0.504 OA
ATOM     21  H   UNL     1      25.894  44.377  26.360  1.00  0.00     0.293 HD
ENDBRANCH  17  20
ENDBRANCH   1  12
BRANCH   2  22
ATOM     22  O   UNL     1      27.216  39.708  24.608  1.00  0.00    -0.502 OA
ATOM     23  H   UNL     1      26.273  39.644  24.241  1.00  0.00     0.293 HD
ENDBRANCH   2  22
BRANCH   6  24
ATOM     24  O   UNL     1      31.125  36.613  26.482  1.00  0.00    -0.507 OA
ATOM     25  H   UNL     1      31.979  36.110  26.666  1.00  0.00     0.293 HD
ENDBRANCH   6  24
BRANCH   8  26
ATOM     26  O   UNL     1      29.596  35.963  30.988  1.00  0.00    -0.508 OA
ATOM     27  H   UNL     1      29.929  35.010  31.081  1.00  0.00     0.293 HD
ENDBRANCH   8  26
TORSDOF 6
ENDMDL
