MODEL 1
REMARK VINA RESULT:    -3.832      0.000      0.000
REMARK INTER + INTRA:          -9.503
REMARK INTER:                  -7.415
REMARK INTRA:                  -2.088
REMARK UNBOUND:                -2.088
REMARK SMILES CCCCCCCCCCCCCCCCCC(=O)[O-]
REMARK SMILES IDX 10 1 11 2 12 3 13 4 14 5 15 6 16 7 17 8 18 9 19 10 20 11
REMARK SMILES IDX 9 12 8 13 7 14 6 15 5 16 4 17 3 18 2 19 1 20
REMARK H PARENT
REMARK Flexibility Score: inf
ROOT
ATOM      1  C   UNL     1       0.931  -7.473   4.806  1.00  0.00     0.000 C 
ENDROOT
BRANCH   1   2
ATOM      2  C   UNL     1       1.157  -7.480   6.329  1.00  0.00     0.000 C 
BRANCH   2   3
ATOM      3  C   UNL     1       1.606  -6.118   6.877  1.00  0.00     0.000 C 
BRANCH   3   4
ATOM      4  C   UNL     1       2.279  -5.279   5.781  1.00  0.00     0.000 C 
BRANCH   4   5
ATOM      5  C   UNL     1       3.814  -5.407   5.783  1.00  0.00     0.000 C 
BRANCH   5   6
ATOM      6  C   UNL     1       4.535  -4.559   6.847  1.00  0.00     0.000 C 
BRANCH   6   7
ATOM      7  C   UNL     1       5.662  -3.694   6.259  1.00  0.00     0.006 C 
BRANCH   7   8
ATOM      8  C   UNL     1       5.450  -3.402   4.768  1.00  0.00     0.053 C 
BRANCH   8   9
ATOM      9  C   UNL     1       5.102  -1.965   4.528  1.00  0.00     0.041 C 
ATOM     10  O   UNL     1       3.897  -1.608   4.452  1.00  0.00    -0.550 OA
ATOM     11  O   UNL     1       6.108  -1.013   4.424  1.00  0.00    -0.550 OA
ENDBRANCH   8   9
ENDBRANCH   7   8
ENDBRANCH   6   7
ENDBRANCH   5   6
ENDBRANCH   4   5
ENDBRANCH   3   4
ENDBRANCH   2   3
ENDBRANCH   1   2
BRANCH   1  12
ATOM     12  C   UNL     1       1.572  -8.646   4.042  1.00  0.00     0.000 C 
BRANCH  12  13
ATOM     13  C   UNL     1       3.024  -8.919   4.470  1.00  0.00    -0.000 C 
BRANCH  13  14
ATOM     14  C   UNL     1       3.915  -9.392   3.305  1.00  0.00    -0.000 C 
BRANCH  14  15
ATOM     15  C   UNL     1       5.367  -8.882   3.344  1.00  0.00    -0.000 C 
BRANCH  15  16
ATOM     16  C   UNL     1       5.682  -8.065   4.610  1.00  0.00    -0.000 C 
BRANCH  16  17
ATOM     17  C   UNL     1       6.876  -7.117   4.419  1.00  0.00    -0.000 C 
BRANCH  17  18
ATOM     18  C   UNL     1       6.895  -6.464   3.029  1.00  0.00    -0.000 C 
BRANCH  18  19
ATOM     19  C   UNL     1       8.177  -5.651   2.821  1.00  0.00    -0.003 C 
ATOM     20  C   UNL     1       9.206  -5.956   3.907  1.00  0.00     0.004 C 
ENDBRANCH  18  19
ENDBRANCH  17  18
ENDBRANCH  16  17
ENDBRANCH  15  16
ENDBRANCH  14  15
ENDBRANCH  13  14
ENDBRANCH  12  13
ENDBRANCH   1  12
TORSDOF 16
ENDMDL
MODEL 2
REMARK VINA RESULT:    -3.747      1.349      2.149
REMARK INTER + INTRA:          -9.339
REMARK INTER:                  -7.728
REMARK INTRA:                  -1.611
REMARK UNBOUND:                -2.088
REMARK SMILES CCCCCCCCCCCCCCCCCC(=O)[O-]
REMARK SMILES IDX 10 1 11 2 12 3 13 4 14 5 15 6 16 7 17 8 18 9 19 10 20 11
REMARK SMILES IDX 9 12 8 13 7 14 6 15 5 16 4 17 3 18 2 19 1 20
REMARK H PARENT
REMARK Flexibility Score: inf
ROOT
ATOM      1  C   UNL     1       1.671  -6.439   5.369  1.00  0.00     0.000 C 
ENDROOT
BRANCH   1   2
ATOM      2  C   UNL     1       1.036  -5.099   5.786  1.00  0.00     0.000 C 
BRANCH   2   3
ATOM      3  C   UNL     1       2.064  -3.974   5.960  1.00  0.00     0.000 C 
BRANCH   3   4
ATOM      4  C   UNL     1       3.490  -4.539   6.036  1.00  0.00     0.000 C 
BRANCH   4   5
ATOM      5  C   UNL     1       4.550  -3.578   5.465  1.00  0.00     0.000 C 
BRANCH   5   6
ATOM      6  C   UNL     1       4.021  -2.185   5.077  1.00  0.00     0.000 C 
BRANCH   6   7
ATOM      7  C   UNL     1       4.495  -1.077   6.032  1.00  0.00     0.006 C 
BRANCH   7   8
ATOM      8  C   UNL     1       6.000  -1.165   6.317  1.00  0.00     0.053 C 
BRANCH   8   9
ATOM      9  C   UNL     1       6.788  -0.261   5.419  1.00  0.00     0.041 C 
ATOM     10  O   UNL     1       6.311   0.848   5.060  1.00  0.00    -0.550 OA
ATOM     11  O   UNL     1       8.063  -0.626   5.008  1.00  0.00    -0.550 OA
ENDBRANCH   8   9
ENDBRANCH   7   8
ENDBRANCH   6   7
ENDBRANCH   5   6
ENDBRANCH   4   5
ENDBRANCH   3   4
ENDBRANCH   2   3
ENDBRANCH   1   2
BRANCH   1  12
ATOM     12  C   UNL     1       0.700  -7.462   4.752  1.00  0.00     0.000 C 
BRANCH  12  13
ATOM     13  C   UNL     1       1.420  -8.642   4.078  1.00  0.00    -0.000 C 
BRANCH  13  14
ATOM     14  C   UNL     1       2.888  -8.785   4.526  1.00  0.00    -0.000 C 
BRANCH  14  15
ATOM     15  C   UNL     1       3.832  -9.409   3.483  1.00  0.00    -0.000 C 
BRANCH  15  16
ATOM     16  C   UNL     1       5.222  -8.749   3.461  1.00  0.00    -0.000 C 
BRANCH  16  17
ATOM     17  C   UNL     1       5.309  -7.524   4.384  1.00  0.00    -0.000 C 
BRANCH  17  18
ATOM     18  C   UNL     1       6.757  -7.081   4.641  1.00  0.00    -0.000 C 
BRANCH  18  19
ATOM     19  C   UNL     1       7.318  -6.313   3.440  1.00  0.00    -0.003 C 
ATOM     20  C   UNL     1       7.434  -4.821   3.742  1.00  0.00     0.004 C 
ENDBRANCH  18  19
ENDBRANCH  17  18
ENDBRANCH  16  17
ENDBRANCH  15  16
ENDBRANCH  14  15
ENDBRANCH  13  14
ENDBRANCH  12  13
ENDBRANCH   1  12
TORSDOF 16
ENDMDL
MODEL 3
REMARK VINA RESULT:    -3.732      0.883      4.299
REMARK INTER + INTRA:          -9.310
REMARK INTER:                  -7.305
REMARK INTRA:                  -2.005
REMARK UNBOUND:                -2.088
REMARK SMILES CCCCCCCCCCCCCCCCCC(=O)[O-]
REMARK SMILES IDX 10 1 11 2 12 3 13 4 14 5 15 6 16 7 17 8 18 9 19 10 20 11
REMARK SMILES IDX 9 12 8 13 7 14 6 15 5 16 4 17 3 18 2 19 1 20
REMARK H PARENT
REMARK Flexibility Score: inf
ROOT
ATOM      1  C   UNL     1       5.286  -8.656   3.390  1.00  0.00     0.000 C 
ENDROOT
BRANCH   1   2
ATOM      2  C   UNL     1       5.473  -7.752   4.622  1.00  0.00     0.000 C 
BRANCH   2   3
ATOM      3  C   UNL     1       6.834  -7.043   4.647  1.00  0.00     0.000 C 
BRANCH   3   4
ATOM      4  C   UNL     1       7.121  -6.356   3.303  1.00  0.00     0.000 C 
BRANCH   4   5
ATOM      5  C   UNL     1       7.614  -4.906   3.462  1.00  0.00     0.000 C 
BRANCH   5   6
ATOM      6  C   UNL     1       7.896  -4.471   4.912  1.00  0.00     0.000 C 
BRANCH   6   7
ATOM      7  C   UNL     1       7.273  -3.109   5.261  1.00  0.00     0.006 C 
BRANCH   7   8
ATOM      8  C   UNL     1       5.747  -3.115   5.106  1.00  0.00     0.053 C 
BRANCH   8   9
ATOM      9  C   UNL     1       5.234  -1.795   4.618  1.00  0.00     0.041 C 
ATOM     10  O   UNL     1       4.064  -1.700   4.161  1.00  0.00    -0.550 OA
ATOM     11  O   UNL     1       6.033  -0.663   4.702  1.00  0.00    -0.550 OA
ENDBRANCH   8   9
ENDBRANCH   7   8
ENDBRANCH   6   7
ENDBRANCH   5   6
ENDBRANCH   4   5
ENDBRANCH   3   4
ENDBRANCH   2   3
ENDBRANCH   1   2
BRANCH   1  12
ATOM     12  C   UNL     1       3.922  -9.364   3.296  1.00  0.00     0.000 C 
BRANCH  12  13
ATOM     13  C   UNL     1       2.947  -8.936   4.407  1.00  0.00    -0.000 C 
BRANCH  13  14
ATOM     14  C   UNL     1       1.475  -8.954   3.954  1.00  0.00    -0.000 C 
BRANCH  14  15
ATOM     15  C   UNL     1       0.585  -7.863   4.576  1.00  0.00    -0.000 C 
BRANCH  15  16
ATOM     16  C   UNL     1       0.595  -7.886   6.115  1.00  0.00    -0.000 C 
BRANCH  16  17
ATOM     17  C   UNL     1       1.002  -6.535   6.724  1.00  0.00    -0.000 C 
BRANCH  17  18
ATOM     18  C   UNL     1       1.472  -5.527   5.664  1.00  0.00    -0.000 C 
BRANCH  18  19
ATOM     19  C   UNL     1       2.986  -5.306   5.751  1.00  0.00    -0.003 C 
ATOM     20  C   UNL     1       3.543  -5.812   7.079  1.00  0.00     0.004 C 
ENDBRANCH  18  19
ENDBRANCH  17  18
ENDBRANCH  16  17
ENDBRANCH  15  16
ENDBRANCH  14  15
ENDBRANCH  13  14
ENDBRANCH  12  13
ENDBRANCH   1  12
TORSDOF 16
ENDMDL
MODEL 4
REMARK VINA RESULT:    -3.714      2.264      5.849
REMARK INTER + INTRA:          -9.276
REMARK INTER:                  -6.975
REMARK INTRA:                  -2.302
REMARK UNBOUND:                -2.088
REMARK SMILES CCCCCCCCCCCCCCCCCC(=O)[O-]
REMARK SMILES IDX 10 1 11 2 12 3 13 4 14 5 15 6 16 7 17 8 18 9 19 10 20 11
REMARK SMILES IDX 9 12 8 13 7 14 6 15 5 16 4 17 3 18 2 19 1 20
REMARK H PARENT
REMARK Flexibility Score: inf
ROOT
ATOM      1  C   UNL     1       2.510  -7.440   4.870  1.00  0.00     0.000 C 
ENDROOT
BRANCH   1   2
ATOM      2  C   UNL     1       2.130  -8.811   4.279  1.00  0.00     0.000 C 
BRANCH   2   3
ATOM      3  C   UNL     1       3.184  -9.360   3.307  1.00  0.00     0.000 C 
BRANCH   3   4
ATOM      4  C   UNL     1       4.528  -9.576   4.018  1.00  0.00     0.000 C 
BRANCH   4   5
ATOM      5  C   UNL     1       5.602  -8.556   3.596  1.00  0.00     0.000 C 
BRANCH   5   6
ATOM      6  C   UNL     1       6.234  -7.762   4.754  1.00  0.00     0.000 C 
BRANCH   6   7
ATOM      7  C   UNL     1       6.509  -6.293   4.393  1.00  0.00     0.006 C 
BRANCH   7   8
ATOM      8  C   UNL     1       8.004  -6.017   4.192  1.00  0.00     0.053 C 
BRANCH   8   9
ATOM      9  C   UNL     1       8.277  -5.374   2.867  1.00  0.00     0.041 C 
ATOM     10  O   UNL     1       7.816  -5.880   1.810  1.00  0.00    -0.550 OA
ATOM     11  O   UNL     1       9.009  -4.196   2.802  1.00  0.00    -0.550 OA
ENDBRANCH   8   9
ENDBRANCH   7   8
ENDBRANCH   6   7
ENDBRANCH   5   6
ENDBRANCH   4   5
ENDBRANCH   3   4
ENDBRANCH   2   3
ENDBRANCH   1   2
BRANCH   1  12
ATOM     12  C   UNL     1       2.744  -7.423   6.391  1.00  0.00     0.000 C 
BRANCH  12  13
ATOM     13  C   UNL     1       3.336  -6.095   6.892  1.00  0.00    -0.000 C 
BRANCH  13  14
ATOM     14  C   UNL     1       3.423  -5.022   5.790  1.00  0.00    -0.000 C 
BRANCH  14  15
ATOM     15  C   UNL     1       2.579  -3.759   6.037  1.00  0.00    -0.000 C 
BRANCH  15  16
ATOM     16  C   UNL     1       1.145  -3.881   5.491  1.00  0.00    -0.000 C 
BRANCH  16  17
ATOM     17  C   UNL     1       0.079  -3.593   6.560  1.00  0.00    -0.000 C 
BRANCH  17  18
ATOM     18  C   UNL     1      -1.094  -4.583   6.506  1.00  0.00    -0.000 C 
BRANCH  18  19
ATOM     19  C   UNL     1      -0.637  -5.995   6.887  1.00  0.00    -0.003 C 
ATOM     20  C   UNL     1      -1.104  -7.023   5.860  1.00  0.00     0.004 C 
ENDBRANCH  18  19
ENDBRANCH  17  18
ENDBRANCH  16  17
ENDBRANCH  15  16
ENDBRANCH  14  15
ENDBRANCH  13  14
ENDBRANCH  12  13
ENDBRANCH   1  12
TORSDOF 16
ENDMDL
MODEL 5
REMARK VINA RESULT:    -3.689      3.280      5.754
REMARK INTER + INTRA:          -9.228
REMARK INTER:                  -7.422
REMARK INTRA:                  -1.805
REMARK UNBOUND:                -2.088
REMARK SMILES CCCCCCCCCCCCCCCCCC(=O)[O-]
REMARK SMILES IDX 10 1 11 2 12 3 13 4 14 5 15 6 16 7 17 8 18 9 19 10 20 11
REMARK SMILES IDX 9 12 8 13 7 14 6 15 5 16 4 17 3 18 2 19 1 20
REMARK H PARENT
REMARK Flexibility Score: inf
ROOT
ATOM      1  C   UNL     1       1.826  -4.051   6.328  1.00  0.00     0.000 C 
ENDROOT
BRANCH   1   2
ATOM      2  C   UNL     1       2.888  -5.048   5.830  1.00  0.00     0.000 C 
BRANCH   2   3
ATOM      3  C   UNL     1       3.203  -6.152   6.849  1.00  0.00     0.000 C 
BRANCH   3   4
ATOM      4  C   UNL     1       3.543  -7.472   6.143  1.00  0.00     0.000 C 
BRANCH   4   5
ATOM      5  C   UNL     1       3.323  -7.414   4.620  1.00  0.00     0.000 C 
BRANCH   5   6
ATOM      6  C   UNL     1       2.502  -8.578   4.037  1.00  0.00     0.000 C 
BRANCH   6   7
ATOM      7  C   UNL     1       1.135  -8.748   4.720  1.00  0.00     0.006 C 
BRANCH   7   8
ATOM      8  C   UNL     1       0.304  -7.460   4.678  1.00  0.00     0.053 C 
BRANCH   8   9
ATOM      9  C   UNL     1      -1.166  -7.747   4.677  1.00  0.00     0.041 C 
ATOM     10  O   UNL     1      -1.798  -7.826   5.764  1.00  0.00    -0.550 OA
ATOM     11  O   UNL     1      -1.847  -7.892   3.475  1.00  0.00    -0.550 OA
ENDBRANCH   8   9
ENDBRANCH   7   8
ENDBRANCH   6   7
ENDBRANCH   5   6
ENDBRANCH   4   5
ENDBRANCH   3   4
ENDBRANCH   2   3
ENDBRANCH   1   2
BRANCH   1  12
ATOM     12  C   UNL     1       2.382  -2.765   6.966  1.00  0.00     0.000 C 
BRANCH  12  13
ATOM     13  C   UNL     1       3.862  -2.518   6.626  1.00  0.00    -0.000 C 
BRANCH  13  14
ATOM     14  C   UNL     1       4.053  -1.654   5.365  1.00  0.00    -0.000 C 
BRANCH  14  15
ATOM     15  C   UNL     1       5.117  -2.164   4.377  1.00  0.00    -0.000 C 
BRANCH  15  16
ATOM     16  C   UNL     1       6.235  -2.970   5.062  1.00  0.00    -0.000 C 
BRANCH  16  17
ATOM     17  C   UNL     1       6.310  -4.421   4.562  1.00  0.00    -0.000 C 
BRANCH  17  18
ATOM     18  C   UNL     1       7.467  -4.647   3.577  1.00  0.00    -0.000 C 
BRANCH  18  19
ATOM     19  C   UNL     1       7.901  -6.116   3.568  1.00  0.00    -0.003 C 
ATOM     20  C   UNL     1       6.708  -7.045   3.775  1.00  0.00     0.004 C 
ENDBRANCH  18  19
ENDBRANCH  17  18
ENDBRANCH  16  17
ENDBRANCH  15  16
ENDBRANCH  14  15
ENDBRANCH  13  14
ENDBRANCH  12  13
ENDBRANCH   1  12
TORSDOF 16
ENDMDL
MODEL 6
REMARK VINA RESULT:    -3.665      2.006      4.520
REMARK INTER + INTRA:          -9.181
REMARK INTER:                  -7.005
REMARK INTRA:                  -2.176
REMARK UNBOUND:                -2.088
REMARK SMILES CCCCCCCCCCCCCCCCCC(=O)[O-]
REMARK SMILES IDX 10 1 11 2 12 3 13 4 14 5 15 6 16 7 17 8 18 9 19 10 20 11
REMARK SMILES IDX 9 12 8 13 7 14 6 15 5 16 4 17 3 18 2 19 1 20
REMARK H PARENT
REMARK Flexibility Score: inf
ROOT
ATOM      1  C   UNL     1       2.912  -9.717   4.240  1.00  0.00     0.000 C 
ENDROOT
BRANCH   1   2
ATOM      2  C   UNL     1       3.718 -10.055   2.973  1.00  0.00     0.000 C 
BRANCH   2   3
ATOM      3  C   UNL     1       5.138  -9.473   2.990  1.00  0.00     0.000 C 
BRANCH   3   4
ATOM      4  C   UNL     1       5.213  -8.233   3.893  1.00  0.00     0.000 C 
BRANCH   4   5
ATOM      5  C   UNL     1       6.255  -8.370   5.018  1.00  0.00     0.000 C 
BRANCH   5   6
ATOM      6  C   UNL     1       6.801  -7.038   5.565  1.00  0.00     0.000 C 
BRANCH   6   7
ATOM      7  C   UNL     1       6.378  -5.826   4.720  1.00  0.00     0.006 C 
BRANCH   7   8
ATOM      8  C   UNL     1       7.517  -4.813   4.551  1.00  0.00     0.053 C 
BRANCH   8   9
ATOM      9  C   UNL     1       8.159  -4.919   3.202  1.00  0.00     0.041 C 
ATOM     10  O   UNL     1       9.054  -4.101   2.860  1.00  0.00    -0.550 OA
ATOM     11  O   UNL     1       7.795  -5.941   2.336  1.00  0.00    -0.550 OA
ENDBRANCH   8   9
ENDBRANCH   7   8
ENDBRANCH   6   7
ENDBRANCH   5   6
ENDBRANCH   4   5
ENDBRANCH   3   4
ENDBRANCH   2   3
ENDBRANCH   1   2
BRANCH   1  12
ATOM     12  C   UNL     1       1.596  -8.956   3.997  1.00  0.00     0.000 C 
BRANCH  12  13
ATOM     13  C   UNL     1       1.235  -7.999   5.146  1.00  0.00    -0.000 C 
BRANCH  13  14
ATOM     14  C   UNL     1       2.077  -6.710   5.142  1.00  0.00    -0.000 C 
BRANCH  14  15
ATOM     15  C   UNL     1       3.075  -6.576   6.306  1.00  0.00    -0.000 C 
BRANCH  15  16
ATOM     16  C   UNL     1       3.206  -5.132   6.821  1.00  0.00    -0.000 C 
BRANCH  16  17
ATOM     17  C   UNL     1       2.428  -4.124   5.961  1.00  0.00    -0.000 C 
BRANCH  17  18
ATOM     18  C   UNL     1       3.106  -2.747   5.907  1.00  0.00    -0.000 C 
BRANCH  18  19
ATOM     19  C   UNL     1       4.613  -2.886   5.668  1.00  0.00    -0.003 C 
ATOM     20  C   UNL     1       5.069  -2.025   4.494  1.00  0.00     0.004 C 
ENDBRANCH  18  19
ENDBRANCH  17  18
ENDBRANCH  16  17
ENDBRANCH  15  16
ENDBRANCH  14  15
ENDBRANCH  13  14
ENDBRANCH  12  13
ENDBRANCH   1  12
TORSDOF 16
ENDMDL
MODEL 7
REMARK VINA RESULT:    -3.642      1.417      5.013
REMARK INTER + INTRA:          -9.137
REMARK INTER:                  -6.809
REMARK INTRA:                  -2.328
REMARK UNBOUND:                -2.088
REMARK SMILES CCCCCCCCCCCCCCCCCC(=O)[O-]
REMARK SMILES IDX 10 1 11 2 12 3 13 4 14 5 15 6 16 7 17 8 18 9 19 10 20 11
REMARK SMILES IDX 9 12 8 13 7 14 6 15 5 16 4 17 3 18 2 19 1 20
REMARK H PARENT
REMARK Flexibility Score: inf
ROOT
ATOM      1  C   UNL     1       8.000  -4.313   3.987  1.00  0.00     0.000 C 
ENDROOT
BRANCH   1   2
ATOM      2  C   UNL     1       9.071  -4.140   5.080  1.00  0.00     0.000 C 
BRANCH   2   3
ATOM      3  C   UNL     1       8.654  -4.734   6.432  1.00  0.00     0.000 C 
BRANCH   3   4
ATOM      4  C   UNL     1       7.343  -4.106   6.928  1.00  0.00     0.000 C 
BRANCH   4   5
ATOM      5  C   UNL     1       6.242  -5.147   7.200  1.00  0.00     0.000 C 
BRANCH   5   6
ATOM      6  C   UNL     1       4.809  -4.673   6.894  1.00  0.00     0.000 C 
BRANCH   6   7
ATOM      7  C   UNL     1       4.658  -4.102   5.475  1.00  0.00     0.006 C 
BRANCH   7   8
ATOM      8  C   UNL     1       3.820  -2.817   5.455  1.00  0.00     0.053 C 
BRANCH   8   9
ATOM      9  C   UNL     1       4.662  -1.610   5.172  1.00  0.00     0.041 C 
ATOM     10  O   UNL     1       5.784  -1.737   4.615  1.00  0.00    -0.550 OA
ATOM     11  O   UNL     1       4.192  -0.343   5.489  1.00  0.00    -0.550 OA
ENDBRANCH   8   9
ENDBRANCH   7   8
ENDBRANCH   6   7
ENDBRANCH   5   6
ENDBRANCH   4   5
ENDBRANCH   3   4
ENDBRANCH   2   3
ENDBRANCH   1   2
BRANCH   1  12
ATOM     12  C   UNL     1       8.310  -5.387   2.929  1.00  0.00     0.000 C 
BRANCH  12  13
ATOM     13  C   UNL     1       7.137  -6.354   2.694  1.00  0.00    -0.000 C 
BRANCH  13  14
ATOM     14  C   UNL     1       6.617  -6.995   3.995  1.00  0.00    -0.000 C 
BRANCH  14  15
ATOM     15  C   UNL     1       5.606  -8.139   3.802  1.00  0.00    -0.000 C 
BRANCH  15  16
ATOM     16  C   UNL     1       4.385  -8.024   4.733  1.00  0.00    -0.000 C 
BRANCH  16  17
ATOM     17  C   UNL     1       3.109  -8.611   4.110  1.00  0.00    -0.000 C 
BRANCH  17  18
ATOM     18  C   UNL     1       1.830  -7.970   4.669  1.00  0.00    -0.000 C 
BRANCH  18  19
ATOM     19  C   UNL     1       2.097  -6.537   5.141  1.00  0.00    -0.003 C 
ATOM     20  C   UNL     1       0.821  -5.880   5.661  1.00  0.00     0.004 C 
ENDBRANCH  18  19
ENDBRANCH  17  18
ENDBRANCH  16  17
ENDBRANCH  15  16
ENDBRANCH  14  15
ENDBRANCH  13  14
ENDBRANCH  12  13
ENDBRANCH   1  12
TORSDOF 16
ENDMDL
MODEL 8
REMARK VINA RESULT:    -3.638      3.382      4.934
REMARK INTER + INTRA:          -9.129
REMARK INTER:                  -7.624
REMARK INTRA:                  -1.505
REMARK UNBOUND:                -2.088
REMARK SMILES CCCCCCCCCCCCCCCCCC(=O)[O-]
REMARK SMILES IDX 10 1 11 2 12 3 13 4 14 5 15 6 16 7 17 8 18 9 19 10 20 11
REMARK SMILES IDX 9 12 8 13 7 14 6 15 5 16 4 17 3 18 2 19 1 20
REMARK H PARENT
REMARK Flexibility Score: inf
ROOT
ATOM      1  C   UNL     1       1.552  -8.230   4.374  1.00  0.00     0.000 C 
ENDROOT
BRANCH   1   2
ATOM      2  C   UNL     1       1.193  -6.909   5.079  1.00  0.00     0.000 C 
BRANCH   2   3
ATOM      3  C   UNL     1       2.100  -6.600   6.278  1.00  0.00     0.000 C 
BRANCH   3   4
ATOM      4  C   UNL     1       2.252  -5.085   6.477  1.00  0.00     0.000 C 
BRANCH   4   5
ATOM      5  C   UNL     1       1.286  -4.264   5.602  1.00  0.00     0.000 C 
BRANCH   5   6
ATOM      6  C   UNL     1       0.226  -3.463   6.381  1.00  0.00     0.000 C 
BRANCH   6   7
ATOM      7  C   UNL     1      -1.065  -4.259   6.628  1.00  0.00     0.006 C 
BRANCH   7   8
ATOM      8  C   UNL     1      -2.222  -3.359   7.079  1.00  0.00     0.053 C 
BRANCH   8   9
ATOM      9  C   UNL     1      -3.499  -3.700   6.373  1.00  0.00     0.041 C 
ATOM     10  O   UNL     1      -3.472  -4.351   5.296  1.00  0.00    -0.550 OA
ATOM     11  O   UNL     1      -4.719  -3.331   6.923  1.00  0.00    -0.550 OA
ENDBRANCH   8   9
ENDBRANCH   7   8
ENDBRANCH   6   7
ENDBRANCH   5   6
ENDBRANCH   4   5
ENDBRANCH   3   4
ENDBRANCH   2   3
ENDBRANCH   1   2
BRANCH   1  12
ATOM     12  C   UNL     1       2.950  -8.787   4.698  1.00  0.00     0.000 C 
BRANCH  12  13
ATOM     13  C   UNL     1       3.725  -9.227   3.444  1.00  0.00    -0.000 C 
BRANCH  13  14
ATOM     14  C   UNL     1       5.214  -8.832   3.488  1.00  0.00    -0.000 C 
BRANCH  14  15
ATOM     15  C   UNL     1       5.569  -7.737   4.509  1.00  0.00    -0.000 C 
BRANCH  15  16
ATOM     16  C   UNL     1       6.571  -6.706   3.958  1.00  0.00    -0.000 C 
BRANCH  16  17
ATOM     17  C   UNL     1       6.795  -5.528   4.919  1.00  0.00    -0.000 C 
BRANCH  17  18
ATOM     18  C   UNL     1       5.572  -4.604   5.016  1.00  0.00    -0.000 C 
BRANCH  18  19
ATOM     19  C   UNL     1       5.959  -3.149   4.733  1.00  0.00    -0.003 C 
ATOM     20  C   UNL     1       4.736  -2.237   4.754  1.00  0.00     0.004 C 
ENDBRANCH  18  19
ENDBRANCH  17  18
ENDBRANCH  16  17
ENDBRANCH  15  16
ENDBRANCH  14  15
ENDBRANCH  13  14
ENDBRANCH  12  13
ENDBRANCH   1  12
TORSDOF 16
ENDMDL
MODEL 9
REMARK VINA RESULT:    -3.623      1.163      4.567
REMARK INTER + INTRA:          -9.100
REMARK INTER:                  -7.072
REMARK INTRA:                  -2.028
REMARK UNBOUND:                -2.088
REMARK SMILES CCCCCCCCCCCCCCCCCC(=O)[O-]
REMARK SMILES IDX 10 1 11 2 12 3 13 4 14 5 15 6 16 7 17 8 18 9 19 10 20 11
REMARK SMILES IDX 9 12 8 13 7 14 6 15 5 16 4 17 3 18 2 19 1 20
REMARK H PARENT
REMARK Flexibility Score: inf
ROOT
ATOM      1  C   UNL     1       6.704  -6.678   3.353  1.00  0.00     0.000 C 
ENDROOT
BRANCH   1   2
ATOM      2  C   UNL     1       7.960  -5.809   3.152  1.00  0.00     0.000 C 
BRANCH   2   3
ATOM      3  C   UNL     1       8.545  -5.283   4.470  1.00  0.00     0.000 C 
BRANCH   3   4
ATOM      4  C   UNL     1       8.393  -3.758   4.569  1.00  0.00     0.000 C 
BRANCH   4   5
ATOM      5  C   UNL     1       7.465  -3.320   5.718  1.00  0.00     0.000 C 
BRANCH   5   6
ATOM      6  C   UNL     1       6.175  -4.149   5.863  1.00  0.00     0.000 C 
BRANCH   6   7
ATOM      7  C   UNL     1       5.063  -3.400   6.614  1.00  0.00     0.006 C 
BRANCH   7   8
ATOM      8  C   UNL     1       3.965  -2.897   5.668  1.00  0.00     0.053 C 
BRANCH   8   9
ATOM      9  C   UNL     1       4.364  -1.628   4.979  1.00  0.00     0.041 C 
ATOM     10  O   UNL     1       4.204  -0.518   5.552  1.00  0.00    -0.550 OA
ATOM     11  O   UNL     1       4.946  -1.673   3.719  1.00  0.00    -0.550 OA
ENDBRANCH   8   9
ENDBRANCH   7   8
ENDBRANCH   6   7
ENDBRANCH   5   6
ENDBRANCH   4   5
ENDBRANCH   3   4
ENDBRANCH   2   3
ENDBRANCH   1   2
BRANCH   1  12
ATOM     12  C   UNL     1       6.760  -7.644   4.550  1.00  0.00     0.000 C 
BRANCH  12  13
ATOM     13  C   UNL     1       5.546  -8.587   4.616  1.00  0.00    -0.000 C 
BRANCH  13  14
ATOM     14  C   UNL     1       5.191  -9.207   3.251  1.00  0.00    -0.000 C 
BRANCH  14  15
ATOM     15  C   UNL     1       3.767  -9.780   3.143  1.00  0.00    -0.000 C 
BRANCH  15  16
ATOM     16  C   UNL     1       2.899  -9.465   4.374  1.00  0.00    -0.000 C 
BRANCH  16  17
ATOM     17  C   UNL     1       1.651  -8.640   4.023  1.00  0.00    -0.000 C 
BRANCH  17  18
ATOM     18  C   UNL     1       1.427  -7.468   4.990  1.00  0.00    -0.000 C 
BRANCH  18  19
ATOM     19  C   UNL     1       2.704  -6.635   5.148  1.00  0.00    -0.003 C 
ATOM     20  C   UNL     1       3.110  -6.520   6.614  1.00  0.00     0.004 C 
ENDBRANCH  18  19
ENDBRANCH  17  18
ENDBRANCH  16  17
ENDBRANCH  15  16
ENDBRANCH  14  15
ENDBRANCH  13  14
ENDBRANCH  12  13
ENDBRANCH   1  12
TORSDOF 16
ENDMDL
