MODEL 1
REMARK VINA RESULT:    -6.291      0.000      0.000
REMARK INTER + INTRA:          -6.659
REMARK INTER:                  -6.659
REMARK INTRA:                   0.000
REMARK UNBOUND:                 0.000
REMARK SMILES O=c1ccc2cc(O)c(O)cc2o1
REMARK SMILES IDX 4 1 3 2 2 3 1 4 13 5 12 6 11 7 9 8 7 9 6 10 5 11 8 12 10 14
REMARK H PARENT 8 13 10 15
REMARK Flexibility Score: inf
ROOT
ATOM      1  C   UNL     1       5.397 -45.738  -9.302  1.00  0.00     0.019 A 
ATOM      2  C   UNL     1       6.149 -44.565  -9.256  1.00  0.00     0.094 A 
ATOM      3  C   UNL     1       6.991 -44.341  -8.161  1.00  0.00     0.336 A 
ATOM      4  O   UNL     1       7.678 -43.288  -8.102  1.00  0.00    -0.246 OA
ATOM      5  O   UNL     1       7.069 -45.235  -7.179  1.00  0.00    -0.423 OA
ATOM      6  C   UNL     1       6.369 -46.367  -7.184  1.00  0.00     0.142 A 
ATOM      7  C   UNL     1       6.493 -47.270  -6.124  1.00  0.00     0.098 A 
ATOM      8  C   UNL     1       5.758 -48.465  -6.124  1.00  0.00     0.161 A 
ATOM      9  C   UNL     1       4.894 -48.755  -7.189  1.00  0.00     0.158 A 
ATOM     10  C   UNL     1       4.765 -47.854  -8.256  1.00  0.00     0.062 A 
ATOM     11  C   UNL     1       5.500 -46.660  -8.257  1.00  0.00     0.022 A 
ENDROOT
BRANCH   9  12
ATOM     12  O   UNL     1       4.166 -49.945  -7.182  1.00  0.00    -0.504 OA
ATOM     13  H   UNL     1       3.156 -49.950  -7.258  1.00  0.00     0.293 HD
ENDBRANCH   9  12
BRANCH   8  14
ATOM     14  O   UNL     1       5.880 -49.367  -5.068  1.00  0.00    -0.504 OA
ATOM     15  H   UNL     1       5.408 -50.263  -5.079  1.00  0.00     0.293 HD
ENDBRANCH   8  14
TORSDOF 2
ENDMDL
MODEL 2
REMARK VINA RESULT:    -6.088      1.146      4.736
REMARK INTER + INTRA:          -6.444
REMARK INTER:                  -6.444
REMARK INTRA:                   0.000
REMARK UNBOUND:                 0.000
REMARK SMILES O=c1ccc2cc(O)c(O)cc2o1
REMARK SMILES IDX 4 1 3 2 2 3 1 4 13 5 12 6 11 7 9 8 7 9 6 10 5 11 8 12 10 14
REMARK H PARENT 8 13 10 15
REMARK Flexibility Score: inf
ROOT
ATOM      1  C   UNL     1       5.031 -46.940  -8.799  1.00  0.00     0.019 A 
ATOM      2  C   UNL     1       5.014 -47.949  -7.836  1.00  0.00     0.094 A 
ATOM      3  C   UNL     1       5.775 -47.789  -6.673  1.00  0.00     0.336 A 
ATOM      4  O   UNL     1       5.771 -48.689  -5.792  1.00  0.00    -0.246 OA
ATOM      5  O   UNL     1       6.504 -46.691  -6.491  1.00  0.00    -0.423 OA
ATOM      6  C   UNL     1       6.548 -45.706  -7.383  1.00  0.00     0.142 A 
ATOM      7  C   UNL     1       7.332 -44.574  -7.137  1.00  0.00     0.098 A 
ATOM      8  C   UNL     1       7.383 -43.532  -8.075  1.00  0.00     0.161 A 
ATOM      9  C   UNL     1       6.646 -43.623  -9.265  1.00  0.00     0.158 A 
ATOM     10  C   UNL     1       5.857 -44.755  -9.517  1.00  0.00     0.062 A 
ATOM     11  C   UNL     1       5.806 -45.797  -8.581  1.00  0.00     0.022 A 
ENDROOT
BRANCH   9  12
ATOM     12  O   UNL     1       6.702 -42.583 -10.192  1.00  0.00    -0.504 OA
ATOM     13  H   UNL     1       7.550 -42.372 -10.702  1.00  0.00     0.293 HD
ENDBRANCH   9  12
BRANCH   8  14
ATOM     14  O   UNL     1       8.164 -42.403  -7.832  1.00  0.00    -0.504 OA
ATOM     15  H   UNL     1       9.174 -42.435  -7.892  1.00  0.00     0.293 HD
ENDBRANCH   8  14
TORSDOF 2
ENDMDL
MODEL 3
REMARK VINA RESULT:    -6.038      1.097      2.240
REMARK INTER + INTRA:          -6.391
REMARK INTER:                  -6.391
REMARK INTRA:                   0.000
REMARK UNBOUND:                 0.000
REMARK SMILES O=c1ccc2cc(O)c(O)cc2o1
REMARK SMILES IDX 4 1 3 2 2 3 1 4 13 5 12 6 11 7 9 8 7 9 6 10 5 11 8 12 10 14
REMARK H PARENT 8 13 10 15
REMARK Flexibility Score: inf
ROOT
ATOM      1  C   UNL     1       7.267 -45.172  -7.145  1.00  0.00     0.019 A 
ATOM      2  C   UNL     1       7.165 -44.254  -8.189  1.00  0.00     0.094 A 
ATOM      3  C   UNL     1       6.245 -44.493  -9.216  1.00  0.00     0.336 A 
ATOM      4  O   UNL     1       6.138 -43.674 -10.166  1.00  0.00    -0.246 OA
ATOM      5  O   UNL     1       5.480 -45.582  -9.194  1.00  0.00    -0.423 OA
ATOM      6  C   UNL     1       5.546 -46.483  -8.217  1.00  0.00     0.142 A 
ATOM      7  C   UNL     1       4.717 -47.608  -8.248  1.00  0.00     0.098 A 
ATOM      8  C   UNL     1       4.782 -48.562  -7.220  1.00  0.00     0.161 A 
ATOM      9  C   UNL     1       5.682 -48.388  -6.159  1.00  0.00     0.158 A 
ATOM     10  C   UNL     1       6.516 -47.260  -6.122  1.00  0.00     0.062 A 
ATOM     11  C   UNL     1       6.451 -46.307  -7.148  1.00  0.00     0.022 A 
ENDROOT
BRANCH   9  12
ATOM     12  O   UNL     1       5.741 -49.339  -5.141  1.00  0.00    -0.504 OA
ATOM     13  H   UNL     1       5.592 -50.324  -5.326  1.00  0.00     0.293 HD
ENDBRANCH   9  12
BRANCH   8  14
ATOM     14  O   UNL     1       3.957 -49.685  -7.248  1.00  0.00    -0.504 OA
ATOM     15  H   UNL     1       4.084 -50.453  -6.601  1.00  0.00     0.293 HD
ENDBRANCH   8  14
TORSDOF 2
ENDMDL
MODEL 4
REMARK VINA RESULT:    -5.953      1.492      5.236
REMARK INTER + INTRA:          -6.301
REMARK INTER:                  -6.301
REMARK INTRA:                   0.000
REMARK UNBOUND:                 0.000
REMARK SMILES O=c1ccc2cc(O)c(O)cc2o1
REMARK SMILES IDX 4 1 3 2 2 3 1 4 13 5 12 6 11 7 9 8 7 9 6 10 5 11 8 12 10 14
REMARK H PARENT 8 13 10 15
REMARK Flexibility Score: inf
ROOT
ATOM      1  C   UNL     1       6.569 -46.576  -6.305  1.00  0.00     0.019 A 
ATOM      2  C   UNL     1       5.803 -47.718  -6.533  1.00  0.00     0.094 A 
ATOM      3  C   UNL     1       5.115 -47.844  -7.745  1.00  0.00     0.336 A 
ATOM      4  O   UNL     1       4.419 -48.869  -7.969  1.00  0.00    -0.246 OA
ATOM      5  O   UNL     1       5.192 -46.885  -8.664  1.00  0.00    -0.423 OA
ATOM      6  C   UNL     1       5.911 -45.779  -8.487  1.00  0.00     0.142 A 
ATOM      7  C   UNL     1       5.954 -44.806  -9.489  1.00  0.00     0.098 A 
ATOM      8  C   UNL     1       6.710 -43.638  -9.308  1.00  0.00     0.161 A 
ATOM      9  C   UNL     1       7.425 -43.444  -8.118  1.00  0.00     0.158 A 
ATOM     10  C   UNL     1       7.387 -44.418  -7.108  1.00  0.00     0.062 A 
ATOM     11  C   UNL     1       6.632 -45.585  -7.289  1.00  0.00     0.022 A 
ENDROOT
BRANCH   9  12
ATOM     12  O   UNL     1       8.175 -42.281  -7.945  1.00  0.00    -0.504 OA
ATOM     13  H   UNL     1       9.168 -42.256  -8.140  1.00  0.00     0.293 HD
ENDBRANCH   9  12
BRANCH   8  14
ATOM     14  O   UNL     1       6.755 -42.666 -10.306  1.00  0.00    -0.504 OA
ATOM     15  H   UNL     1       6.779 -42.914 -11.288  1.00  0.00     0.293 HD
ENDBRANCH   8  14
TORSDOF 2
ENDMDL
MODEL 5
REMARK VINA RESULT:    -5.857      2.005      4.842
REMARK INTER + INTRA:          -6.200
REMARK INTER:                  -6.200
REMARK INTRA:                   0.000
REMARK UNBOUND:                 0.000
REMARK SMILES O=c1ccc2cc(O)c(O)cc2o1
REMARK SMILES IDX 4 1 3 2 2 3 1 4 13 5 12 6 11 7 9 8 7 9 6 10 5 11 8 12 10 14
REMARK H PARENT 8 13 10 15
REMARK Flexibility Score: inf
ROOT
ATOM      1  C   UNL     1       5.637 -47.328  -6.669  1.00  0.00     0.019 A 
ATOM      2  C   UNL     1       4.771 -47.966  -7.556  1.00  0.00     0.094 A 
ATOM      3  C   UNL     1       4.577 -47.418  -8.829  1.00  0.00     0.336 A 
ATOM      4  O   UNL     1       3.800 -47.981  -9.643  1.00  0.00    -0.246 OA
ATOM      5  O   UNL     1       5.211 -46.303  -9.185  1.00  0.00    -0.423 OA
ATOM      6  C   UNL     1       6.045 -45.663  -8.370  1.00  0.00     0.142 A 
ATOM      7  C   UNL     1       6.682 -44.495  -8.800  1.00  0.00     0.098 A 
ATOM      8  C   UNL     1       7.563 -43.816  -7.945  1.00  0.00     0.161 A 
ATOM      9  C   UNL     1       7.805 -44.307  -6.654  1.00  0.00     0.158 A 
ATOM     10  C   UNL     1       7.169 -45.478  -6.217  1.00  0.00     0.062 A 
ATOM     11  C   UNL     1       6.290 -46.158  -7.071  1.00  0.00     0.022 A 
ENDROOT
BRANCH   9  12
ATOM     12  O   UNL     1       8.682 -43.626  -5.810  1.00  0.00    -0.504 OA
ATOM     13  H   UNL     1       9.100 -44.076  -5.005  1.00  0.00     0.293 HD
ENDBRANCH   9  12
BRANCH   8  14
ATOM     14  O   UNL     1       8.200 -42.651  -8.371  1.00  0.00    -0.504 OA
ATOM     15  H   UNL     1       7.761 -41.743  -8.280  1.00  0.00     0.293 HD
ENDBRANCH   8  14
TORSDOF 2
ENDMDL
MODEL 6
REMARK VINA RESULT:    -5.607      2.096      4.396
REMARK INTER + INTRA:          -5.935
REMARK INTER:                  -5.935
REMARK INTRA:                   0.000
REMARK UNBOUND:                 0.000
REMARK SMILES O=c1ccc2cc(O)c(O)cc2o1
REMARK SMILES IDX 4 1 3 2 2 3 1 4 13 5 12 6 11 7 9 8 7 9 6 10 5 11 8 12 10 14
REMARK H PARENT 8 13 10 15
REMARK Flexibility Score: inf
ROOT
ATOM      1  C   UNL     1       3.067 -46.673  -9.138  1.00  0.00     0.019 A 
ATOM      2  C   UNL     1       2.119 -47.430  -9.825  1.00  0.00     0.094 A 
ATOM      3  C   UNL     1       1.992 -48.791  -9.526  1.00  0.00     0.336 A 
ATOM      4  O   UNL     1       1.141 -49.491 -10.135  1.00  0.00    -0.246 OA
ATOM      5  O   UNL     1       2.766 -49.352  -8.600  1.00  0.00    -0.423 OA
ATOM      6  C   UNL     1       3.682 -48.666  -7.922  1.00  0.00     0.142 A 
ATOM      7  C   UNL     1       4.466 -49.310  -6.960  1.00  0.00     0.098 A 
ATOM      8  C   UNL     1       5.434 -48.592  -6.241  1.00  0.00     0.161 A 
ATOM      9  C   UNL     1       5.617 -47.224  -6.488  1.00  0.00     0.158 A 
ATOM     10  C   UNL     1       4.833 -46.572  -7.452  1.00  0.00     0.062 A 
ATOM     11  C   UNL     1       3.866 -47.289  -8.169  1.00  0.00     0.022 A 
ENDROOT
BRANCH   9  12
ATOM     12  O   UNL     1       6.581 -46.516  -5.770  1.00  0.00    -0.504 OA
ATOM     13  H   UNL     1       7.565 -46.743  -5.837  1.00  0.00     0.293 HD
ENDBRANCH   9  12
BRANCH   8  14
ATOM     14  O   UNL     1       6.217 -49.231  -5.281  1.00  0.00    -0.504 OA
ATOM     15  H   UNL     1       6.536 -48.749  -4.450  1.00  0.00     0.293 HD
ENDBRANCH   8  14
TORSDOF 2
ENDMDL
MODEL 7
REMARK VINA RESULT:    -5.415      2.402      3.648
REMARK INTER + INTRA:          -5.732
REMARK INTER:                  -5.732
REMARK INTRA:                   0.000
REMARK UNBOUND:                 0.000
REMARK SMILES O=c1ccc2cc(O)c(O)cc2o1
REMARK SMILES IDX 4 1 3 2 2 3 1 4 13 5 12 6 11 7 9 8 7 9 6 10 5 11 8 12 10 14
REMARK H PARENT 8 13 10 15
REMARK Flexibility Score: inf
ROOT
ATOM      1  C   UNL     1       3.692 -49.533  -9.338  1.00  0.00     0.019 A 
ATOM      2  C   UNL     1       3.326 -48.881 -10.515  1.00  0.00     0.094 A 
ATOM      3  C   UNL     1       3.679 -47.537 -10.684  1.00  0.00     0.336 A 
ATOM      4  O   UNL     1       3.358 -46.932 -11.740  1.00  0.00    -0.246 OA
ATOM      5  O   UNL     1       4.353 -46.894  -9.733  1.00  0.00    -0.423 OA
ATOM      6  C   UNL     1       4.722 -47.478  -8.597  1.00  0.00     0.142 A 
ATOM      7  C   UNL     1       5.429 -46.752  -7.634  1.00  0.00     0.098 A 
ATOM      8  C   UNL     1       5.820 -47.363  -6.434  1.00  0.00     0.161 A 
ATOM      9  C   UNL     1       5.501 -48.707  -6.195  1.00  0.00     0.158 A 
ATOM     10  C   UNL     1       4.791 -49.442  -7.157  1.00  0.00     0.062 A 
ATOM     11  C   UNL     1       4.401 -48.832  -8.357  1.00  0.00     0.022 A 
ENDROOT
BRANCH   9  12
ATOM     12  O   UNL     1       5.893 -49.308  -5.000  1.00  0.00    -0.504 OA
ATOM     13  H   UNL     1       5.257 -49.884  -4.461  1.00  0.00     0.293 HD
ENDBRANCH   9  12
BRANCH   8  14
ATOM     14  O   UNL     1       6.526 -46.640  -5.473  1.00  0.00    -0.504 OA
ATOM     15  H   UNL     1       7.518 -46.779  -5.328  1.00  0.00     0.293 HD
ENDBRANCH   8  14
TORSDOF 2
ENDMDL
MODEL 8
REMARK VINA RESULT:    -5.395     13.680     15.436
REMARK INTER + INTRA:          -5.711
REMARK INTER:                  -5.711
REMARK INTRA:                   0.000
REMARK UNBOUND:                 0.000
REMARK SMILES O=c1ccc2cc(O)c(O)cc2o1
REMARK SMILES IDX 4 1 3 2 2 3 1 4 13 5 12 6 11 7 9 8 7 9 6 10 5 11 8 12 10 14
REMARK H PARENT 8 13 10 15
REMARK Flexibility Score: inf
ROOT
ATOM      1  C   UNL     1       4.289 -29.978  -4.358  1.00  0.00     0.019 A 
ATOM      2  C   UNL     1       5.496 -30.140  -3.679  1.00  0.00     0.094 A 
ATOM      3  C   UNL     1       6.043 -31.423  -3.563  1.00  0.00     0.336 A 
ATOM      4  O   UNL     1       7.132 -31.588  -2.954  1.00  0.00    -0.246 OA
ATOM      5  O   UNL     1       5.418 -32.471  -4.093  1.00  0.00    -0.423 OA
ATOM      6  C   UNL     1       4.265 -32.361  -4.749  1.00  0.00     0.142 A 
ATOM      7  C   UNL     1       3.655 -33.499  -5.285  1.00  0.00     0.098 A 
ATOM      8  C   UNL     1       2.439 -33.389  -5.977  1.00  0.00     0.161 A 
ATOM      9  C   UNL     1       1.832 -32.134  -6.132  1.00  0.00     0.158 A 
ATOM     10  C   UNL     1       2.440 -30.989  -5.596  1.00  0.00     0.062 A 
ATOM     11  C   UNL     1       3.655 -31.098  -4.906  1.00  0.00     0.022 A 
ENDROOT
BRANCH   9  12
ATOM     12  O   UNL     1       0.625 -32.032  -6.821  1.00  0.00    -0.504 OA
ATOM     13  H   UNL     1      -0.237 -31.788  -6.349  1.00  0.00     0.293 HD
ENDBRANCH   9  12
BRANCH   8  14
ATOM     14  O   UNL     1       1.829 -34.521  -6.513  1.00  0.00    -0.504 OA
ATOM     15  H   UNL     1       0.846 -34.715  -6.363  1.00  0.00     0.293 HD
ENDBRANCH   8  14
TORSDOF 2
ENDMDL
MODEL 9
REMARK VINA RESULT:    -5.186      3.589      4.991
REMARK INTER + INTRA:          -5.489
REMARK INTER:                  -5.489
REMARK INTRA:                   0.000
REMARK UNBOUND:                 0.000
REMARK SMILES O=c1ccc2cc(O)c(O)cc2o1
REMARK SMILES IDX 4 1 3 2 2 3 1 4 13 5 12 6 11 7 9 8 7 9 6 10 5 11 8 12 10 14
REMARK H PARENT 8 13 10 15
REMARK Flexibility Score: inf
ROOT
ATOM      1  C   UNL     1       4.402 -50.103 -10.771  1.00  0.00     0.019 A 
ATOM      2  C   UNL     1       3.652 -49.820 -11.912  1.00  0.00     0.094 A 
ATOM      3  C   UNL     1       2.600 -48.901 -11.823  1.00  0.00     0.336 A 
ATOM      4  O   UNL     1       1.912 -48.633 -12.842  1.00  0.00    -0.246 OA
ATOM      5  O   UNL     1       2.322 -48.308 -10.664  1.00  0.00    -0.423 OA
ATOM      6  C   UNL     1       3.012 -48.549  -9.553  1.00  0.00     0.142 A 
ATOM      7  C   UNL     1       2.674 -47.895  -8.364  1.00  0.00     0.098 A 
ATOM      8  C   UNL     1       3.398 -48.145  -7.189  1.00  0.00     0.161 A 
ATOM      9  C   UNL     1       4.465 -49.055  -7.204  1.00  0.00     0.158 A 
ATOM     10  C   UNL     1       4.810 -49.714  -8.394  1.00  0.00     0.062 A 
ATOM     11  C   UNL     1       4.087 -49.464  -9.568  1.00  0.00     0.022 A 
ENDROOT
BRANCH   9  12
ATOM     12  O   UNL     1       5.181 -49.298  -6.032  1.00  0.00    -0.504 OA
ATOM     13  H   UNL     1       4.719 -49.587  -5.179  1.00  0.00     0.293 HD
ENDBRANCH   9  12
BRANCH   8  14
ATOM     14  O   UNL     1       3.063 -47.494  -6.003  1.00  0.00    -0.504 OA
ATOM     15  H   UNL     1       2.587 -47.976  -5.250  1.00  0.00     0.293 HD
ENDBRANCH   8  14
TORSDOF 2
ENDMDL
