MODEL 1
REMARK VINA RESULT:    43.268      0.000      0.000
REMARK INTER + INTRA:          59.497
REMARK INTER:                  54.650
REMARK INTRA:                   4.847
REMARK UNBOUND:                 4.847
REMARK SMILES CC(C)[C@H](C)C=C[C@@H](C)[C@H]1CC[C@H]2C3=CC=C4C[C@H](O)CC[C@@]4(C)[C@H]3CC[C@@]12C
REMARK SMILES IDX 8 1 9 2 7 3 6 4 4 5 5 6 2 7 1 8 3 9 10 10 11 11 28 12 12 13
REMARK SMILES IDX 13 14 27 15 29 16 14 17 26 18 25 19 15 20 23 21 16 22 17 23
REMARK SMILES IDX 22 24 24 25 18 26 21 27 19 28 20 29
REMARK H PARENT 20 30
REMARK Flexibility Score: inf
ROOT
ATOM      1  C   UNL     1     -37.787  20.421   6.336  1.00  0.00     0.012 C 
ATOM      2  C   UNL     1     -37.666  19.659   4.988  1.00  0.00     0.012 C 
ENDROOT
BRANCH   1   3
ATOM      3  C   UNL     1     -38.105  21.890   5.980  1.00  0.00    -0.028 C 
ATOM      4  C   UNL     1     -37.809  22.987   6.718  1.00  0.00    -0.028 C 
BRANCH   4   5
ATOM      5  C   UNL     1     -38.118  24.397   6.222  1.00  0.00     0.011 C 
ATOM      6  C   UNL     1     -37.147  25.389   6.885  1.00  0.00     0.012 C 
BRANCH   5   7
ATOM      7  C   UNL     1     -38.103  24.501   4.665  1.00  0.00    -0.011 C 
ATOM      8  C   UNL     1     -37.244  23.394   4.026  1.00  0.00     0.008 C 
ATOM      9  C   UNL     1     -37.583  25.873   4.193  1.00  0.00     0.008 C 
ENDBRANCH   5   7
ENDBRANCH   4   5
ENDBRANCH   1   3
BRANCH   1  10
ATOM     10  C   UNL     1     -36.538  20.243   7.295  1.00  0.00     0.002 C 
ATOM     11  C   UNL     1     -35.663  19.053   6.828  1.00  0.00     0.005 C 
ATOM     12  C   UNL     1     -35.509  21.437   7.580  1.00  0.00    -0.023 C 
ATOM     13  C   UNL     1     -34.348  19.633   6.387  1.00  0.00     0.009 C 
ATOM     14  C   UNL     1     -34.092  20.794   7.335  1.00  0.00     0.021 C 
ATOM     15  C   UNL     1     -35.656  22.713   6.676  1.00  0.00     0.008 C 
ATOM     16  C   UNL     1     -35.695  21.887   9.064  1.00  0.00     0.012 C 
ATOM     17  C   UNL     1     -33.045  21.781   6.815  1.00  0.00    -0.063 C 
ATOM     18  C   UNL     1     -34.485  23.752   6.793  1.00  0.00     0.009 C 
ATOM     19  C   UNL     1     -33.162  23.185   7.358  1.00  0.00     0.025 C 
ATOM     20  C   UNL     1     -32.237  21.536   5.766  1.00  0.00    -0.000 C 
ATOM     21  C   UNL     1     -31.871  24.053   7.080  1.00  0.00    -0.005 C 
ATOM     22  C   UNL     1     -31.496  22.628   5.100  1.00  0.00    -0.000 C 
ATOM     23  C   UNL     1     -31.413  23.857   5.638  1.00  0.00    -0.061 C 
ATOM     24  C   UNL     1     -32.123  25.562   7.412  1.00  0.00     0.014 C 
ATOM     25  C   UNL     1     -30.727  23.547   8.006  1.00  0.00     0.017 C 
ATOM     26  C   UNL     1     -30.573  24.903   4.940  1.00  0.00     0.063 C 
ATOM     27  C   UNL     1     -31.052  26.497   6.839  1.00  0.00     0.033 C 
ATOM     28  C   UNL     1     -30.973  26.335   5.314  1.00  0.00     0.118 C 
BRANCH  28  29
ATOM     29  O   UNL     1     -30.022  27.231   4.787  1.00  0.00    -0.393 OA
ATOM     30  H   UNL     1     -29.542  26.737   4.067  1.00  0.00     0.210 HD
ENDBRANCH  28  29
ENDBRANCH   1  10
TORSDOF 5
ENDMDL
