MODEL 1
REMARK VINA RESULT:    -1.152      0.000      0.000
REMARK INTER + INTRA:          -1.996
REMARK INTER:                  -1.624
REMARK INTRA:                  -0.372
REMARK UNBOUND:                -0.372
REMARK SMILES CCCCCCCCC(=O)[O-]
REMARK SMILES IDX 6 1 7 2 8 3 9 4 10 5 11 6 5 7 4 8 3 9 2 10 1 11
REMARK H PARENT
REMARK Flexibility Score: inf
ROOT
ATOM      1  C   UNL     1     -15.662  23.071 -20.232  1.00  0.00     0.000 C 
ENDROOT
BRANCH   1   2
ATOM      2  C   UNL     1     -15.095  23.874 -21.409  1.00  0.00     0.006 C 
BRANCH   2   3
ATOM      3  C   UNL     1     -14.383  22.955 -22.408  1.00  0.00     0.053 C 
BRANCH   3   4
ATOM      4  C   UNL     1     -13.117  23.590 -22.891  1.00  0.00     0.041 C 
ATOM      5  O   UNL     1     -12.079  22.895 -23.046  1.00  0.00    -0.550 OA
ATOM      6  O   UNL     1     -13.072  24.959 -23.125  1.00  0.00    -0.550 OA
ENDBRANCH   3   4
ENDBRANCH   2   3
ENDBRANCH   1   2
BRANCH   1   7
ATOM      7  C   UNL     1     -16.751  23.867 -19.498  1.00  0.00     0.000 C 
BRANCH   7   8
ATOM      8  C   UNL     1     -16.287  24.402 -18.130  1.00  0.00    -0.000 C 
BRANCH   8   9
ATOM      9  C   UNL     1     -16.805  25.806 -17.773  1.00  0.00    -0.000 C 
BRANCH   9  10
ATOM     10  C   UNL     1     -17.336  26.576 -18.990  1.00  0.00    -0.003 C 
ATOM     11  C   UNL     1     -16.427  27.752 -19.337  1.00  0.00     0.004 C 
ENDBRANCH   9  10
ENDBRANCH   8   9
ENDBRANCH   7   8
ENDBRANCH   1   7
TORSDOF 7
ENDMDL
MODEL 2
REMARK VINA RESULT:    -0.311      0.860      1.005
REMARK INTER + INTRA:          -0.810
REMARK INTER:                  -0.746
REMARK INTRA:                  -0.064
REMARK UNBOUND:                -0.372
REMARK SMILES CCCCCCCCC(=O)[O-]
REMARK SMILES IDX 6 1 7 2 8 3 9 4 10 5 11 6 5 7 4 8 3 9 2 10 1 11
REMARK H PARENT
REMARK Flexibility Score: inf
ROOT
ATOM      1  C   UNL     1     -16.101  24.017 -20.271  1.00  0.00     0.000 C 
ENDROOT
BRANCH   1   2
ATOM      2  C   UNL     1     -15.331  22.881 -20.956  1.00  0.00     0.006 C 
BRANCH   2   3
ATOM      3  C   UNL     1     -14.910  23.281 -22.374  1.00  0.00     0.053 C 
BRANCH   3   4
ATOM      4  C   UNL     1     -13.447  23.590 -22.418  1.00  0.00     0.041 C 
ATOM      5  O   UNL     1     -12.630  22.876 -21.780  1.00  0.00    -0.550 OA
ATOM      6  O   UNL     1     -12.991  24.695 -23.124  1.00  0.00    -0.550 OA
ENDBRANCH   3   4
ENDBRANCH   2   3
ENDBRANCH   1   2
BRANCH   1   7
ATOM      7  C   UNL     1     -15.926  23.957 -18.746  1.00  0.00     0.000 C 
BRANCH   7   8
ATOM      8  C   UNL     1     -17.108  24.581 -17.981  1.00  0.00    -0.000 C 
BRANCH   8   9
ATOM      9  C   UNL     1     -16.998  26.098 -17.742  1.00  0.00    -0.000 C 
BRANCH   9  10
ATOM     10  C   UNL     1     -16.942  26.906 -19.045  1.00  0.00    -0.003 C 
ATOM     11  C   UNL     1     -18.323  27.437 -19.423  1.00  0.00     0.004 C 
ENDBRANCH   9  10
ENDBRANCH   8   9
ENDBRANCH   7   8
ENDBRANCH   1   7
TORSDOF 7
ENDMDL
MODEL 3
REMARK VINA RESULT:    -0.114      2.824      5.399
REMARK INTER + INTRA:          -0.533
REMARK INTER:                  -0.527
REMARK INTRA:                  -0.006
REMARK UNBOUND:                -0.372
REMARK SMILES CCCCCCCCC(=O)[O-]
REMARK SMILES IDX 6 1 7 2 8 3 9 4 10 5 11 6 5 7 4 8 3 9 2 10 1 11
REMARK H PARENT
REMARK Flexibility Score: inf
ROOT
ATOM      1  C   UNL     1     -16.378  24.521 -19.648  1.00  0.00     0.000 C 
ENDROOT
BRANCH   1   2
ATOM      2  C   UNL     1     -16.317  24.757 -18.134  1.00  0.00     0.006 C 
BRANCH   2   3
ATOM      3  C   UNL     1     -17.141  25.986 -17.737  1.00  0.00     0.053 C 
BRANCH   3   4
ATOM      4  C   UNL     1     -17.194  26.966 -18.865  1.00  0.00     0.041 C 
ATOM      5  O   UNL     1     -16.136  27.497 -19.294  1.00  0.00    -0.550 OA
ATOM      6  O   UNL     1     -18.418  27.330 -19.413  1.00  0.00    -0.550 OA
ENDBRANCH   3   4
ENDBRANCH   2   3
ENDBRANCH   1   2
BRANCH   1   7
ATOM      7  C   UNL     1     -16.100  23.048 -19.986  1.00  0.00     0.000 C 
BRANCH   7   8
ATOM      8  C   UNL     1     -15.186  22.875 -21.213  1.00  0.00    -0.000 C 
BRANCH   8   9
ATOM      9  C   UNL     1     -14.722  24.189 -21.867  1.00  0.00    -0.000 C 
BRANCH   9  10
ATOM     10  C   UNL     1     -13.817  23.965 -23.086  1.00  0.00    -0.003 C 
ATOM     11  C   UNL     1     -12.653  23.038 -22.745  1.00  0.00     0.004 C 
ENDBRANCH   9  10
ENDBRANCH   8   9
ENDBRANCH   7   8
ENDBRANCH   1   7
TORSDOF 7
ENDMDL
MODEL 4
REMARK VINA RESULT:     1.624      2.917      5.448
REMARK INTER + INTRA:           1.917
REMARK INTER:                   2.126
REMARK INTRA:                  -0.210
REMARK UNBOUND:                -0.372
REMARK SMILES CCCCCCCCC(=O)[O-]
REMARK SMILES IDX 6 1 7 2 8 3 9 4 10 5 11 6 5 7 4 8 3 9 2 10 1 11
REMARK H PARENT
REMARK Flexibility Score: inf
ROOT
ATOM      1  C   UNL     1     -16.563  24.325 -18.056  1.00  0.00     0.000 C 
ENDROOT
BRANCH   1   2
ATOM      2  C   UNL     1     -16.755  25.761 -17.551  1.00  0.00     0.006 C 
BRANCH   2   3
ATOM      3  C   UNL     1     -18.000  26.400 -18.175  1.00  0.00     0.053 C 
BRANCH   3   4
ATOM      4  C   UNL     1     -17.608  27.395 -19.220  1.00  0.00     0.041 C 
ATOM      5  O   UNL     1     -18.469  27.842 -20.023  1.00  0.00    -0.550 OA
ATOM      6  O   UNL     1     -16.283  27.794 -19.339  1.00  0.00    -0.550 OA
ENDBRANCH   3   4
ENDBRANCH   2   3
ENDBRANCH   1   2
BRANCH   1   7
ATOM      7  C   UNL     1     -15.999  24.316 -19.484  1.00  0.00     0.000 C 
BRANCH   7   8
ATOM      8  C   UNL     1     -16.034  22.921 -20.136  1.00  0.00    -0.000 C 
BRANCH   8   9
ATOM      9  C   UNL     1     -15.551  22.875 -21.597  1.00  0.00    -0.000 C 
BRANCH   9  10
ATOM     10  C   UNL     1     -14.024  22.971 -21.725  1.00  0.00    -0.003 C 
ATOM     11  C   UNL     1     -13.625  23.779 -22.957  1.00  0.00     0.004 C 
ENDBRANCH   9  10
ENDBRANCH   8   9
ENDBRANCH   7   8
ENDBRANCH   1   7
TORSDOF 7
ENDMDL
