MODEL 1
REMARK VINA RESULT:    -2.118      0.000      0.000
REMARK INTER + INTRA:          -5.575
REMARK INTER:                  -4.595
REMARK INTRA:                  -0.981
REMARK UNBOUND:                -0.981
REMARK SMILES CCCCCCCCCCCCCCCCCCCCCC(=O)[O-]
REMARK SMILES IDX 12 1 11 2 10 3 9 4 8 5 7 6 6 7 5 8 4 9 3 10 2 11 1 12 13 13
REMARK SMILES IDX 14 14 15 15 16 16 17 17 18 18 19 19 20 20 21 21 22 22 23 23
REMARK SMILES IDX 24 24
REMARK H PARENT
REMARK Flexibility Score: inf
ROOT
ATOM      1  C   UNL     1       2.196 -21.699 -15.900  1.00  0.00     0.000 C 
ENDROOT
BRANCH   1   2
ATOM      2  C   UNL     1       0.947 -22.496 -16.327  1.00  0.00     0.000 C 
BRANCH   2   3
ATOM      3  C   UNL     1      -0.393 -21.957 -15.786  1.00  0.00     0.000 C 
BRANCH   3   4
ATOM      4  C   UNL     1      -1.255 -22.991 -15.038  1.00  0.00    -0.000 C 
BRANCH   4   5
ATOM      5  C   UNL     1      -2.610 -22.424 -14.590  1.00  0.00    -0.000 C 
BRANCH   5   6
ATOM      6  C   UNL     1      -3.730 -22.863 -15.546  1.00  0.00    -0.000 C 
BRANCH   6   7
ATOM      7  C   UNL     1      -4.328 -21.689 -16.336  1.00  0.00    -0.000 C 
BRANCH   7   8
ATOM      8  C   UNL     1      -5.652 -22.051 -17.025  1.00  0.00    -0.000 C 
BRANCH   8   9
ATOM      9  C   UNL     1      -6.721 -20.987 -16.752  1.00  0.00    -0.000 C 
BRANCH   9  10
ATOM     10  C   UNL     1      -8.027 -21.630 -16.262  1.00  0.00    -0.000 C 
BRANCH  10  11
ATOM     11  C   UNL     1      -8.421 -21.165 -14.852  1.00  0.00    -0.003 C 
ATOM     12  C   UNL     1      -7.603 -21.847 -13.755  1.00  0.00     0.004 C 
ENDBRANCH  10  11
ENDBRANCH   9  10
ENDBRANCH   8   9
ENDBRANCH   7   8
ENDBRANCH   6   7
ENDBRANCH   5   6
ENDBRANCH   4   5
ENDBRANCH   3   4
ENDBRANCH   2   3
ENDBRANCH   1   2
BRANCH   1  13
ATOM     13  C   UNL     1       3.434 -22.555 -15.576  1.00  0.00     0.000 C 
BRANCH  13  14
ATOM     14  C   UNL     1       4.709 -22.041 -16.269  1.00  0.00     0.000 C 
BRANCH  14  15
ATOM     15  C   UNL     1       5.321 -20.827 -15.551  1.00  0.00     0.000 C 
BRANCH  15  16
ATOM     16  C   UNL     1       6.720 -20.473 -16.082  1.00  0.00     0.000 C 
BRANCH  16  17
ATOM     17  C   UNL     1       7.215 -21.449 -17.165  1.00  0.00     0.000 C 
BRANCH  17  18
ATOM     18  C   UNL     1       8.618 -22.037 -16.927  1.00  0.00     0.000 C 
BRANCH  18  19
ATOM     19  C   UNL     1       9.194 -22.736 -18.170  1.00  0.00     0.000 C 
BRANCH  19  20
ATOM     20  C   UNL     1       9.507 -21.752 -19.308  1.00  0.00     0.006 C 
BRANCH  20  21
ATOM     21  C   UNL     1       8.844 -22.151 -20.633  1.00  0.00     0.053 C 
BRANCH  21  22
ATOM     22  C   UNL     1       9.159 -21.148 -21.696  1.00  0.00     0.041 C 
ATOM     23  O   UNL     1       8.419 -21.045 -22.710  1.00  0.00    -0.550 OA
ATOM     24  O   UNL     1      10.242 -20.291 -21.544  1.00  0.00    -0.550 OA
ENDBRANCH  21  22
ENDBRANCH  20  21
ENDBRANCH  19  20
ENDBRANCH  18  19
ENDBRANCH  17  18
ENDBRANCH  16  17
ENDBRANCH  15  16
ENDBRANCH  14  15
ENDBRANCH  13  14
ENDBRANCH   1  13
TORSDOF 20
ENDMDL
MODEL 2
REMARK VINA RESULT:    -2.105      1.031      1.730
REMARK INTER + INTRA:          -5.548
REMARK INTER:                  -4.850
REMARK INTRA:                  -0.698
REMARK UNBOUND:                -0.981
REMARK SMILES CCCCCCCCCCCCCCCCCCCCCC(=O)[O-]
REMARK SMILES IDX 12 1 11 2 10 3 9 4 8 5 7 6 6 7 5 8 4 9 3 10 2 11 1 12 13 13
REMARK SMILES IDX 14 14 15 15 16 16 17 17 18 18 19 19 20 20 21 21 22 22 23 23
REMARK SMILES IDX 24 24
REMARK H PARENT
REMARK Flexibility Score: inf
ROOT
ATOM      1  C   UNL     1       3.229 -21.827 -15.983  1.00  0.00     0.000 C 
ENDROOT
BRANCH   1   2
ATOM      2  C   UNL     1       2.025 -22.790 -15.982  1.00  0.00     0.000 C 
BRANCH   2   3
ATOM      3  C   UNL     1       0.650 -22.124 -15.776  1.00  0.00     0.000 C 
BRANCH   3   4
ATOM      4  C   UNL     1      -0.527 -23.101 -15.606  1.00  0.00    -0.000 C 
BRANCH   4   5
ATOM      5  C   UNL     1      -1.690 -22.500 -14.802  1.00  0.00    -0.000 C 
BRANCH   5   6
ATOM      6  C   UNL     1      -3.028 -23.125 -15.224  1.00  0.00    -0.000 C 
BRANCH   6   7
ATOM      7  C   UNL     1      -4.166 -22.810 -14.242  1.00  0.00    -0.000 C 
BRANCH   7   8
ATOM      8  C   UNL     1      -5.529 -22.674 -14.938  1.00  0.00    -0.000 C 
BRANCH   8   9
ATOM      9  C   UNL     1      -5.380 -22.012 -16.312  1.00  0.00    -0.000 C 
BRANCH   9  10
ATOM     10  C   UNL     1      -6.623 -21.181 -16.662  1.00  0.00    -0.000 C 
BRANCH  10  11
ATOM     11  C   UNL     1      -7.891 -21.693 -15.962  1.00  0.00    -0.003 C 
ATOM     12  C   UNL     1      -8.390 -20.743 -14.874  1.00  0.00     0.004 C 
ENDBRANCH  10  11
ENDBRANCH   9  10
ENDBRANCH   8   9
ENDBRANCH   7   8
ENDBRANCH   6   7
ENDBRANCH   5   6
ENDBRANCH   4   5
ENDBRANCH   3   4
ENDBRANCH   2   3
ENDBRANCH   1   2
BRANCH   1  13
ATOM     13  C   UNL     1       4.576 -22.467 -16.365  1.00  0.00     0.000 C 
BRANCH  13  14
ATOM     14  C   UNL     1       5.783 -21.621 -15.924  1.00  0.00     0.000 C 
BRANCH  14  15
ATOM     15  C   UNL     1       6.695 -21.239 -17.102  1.00  0.00     0.000 C 
BRANCH  15  16
ATOM     16  C   UNL     1       8.162 -21.634 -16.862  1.00  0.00     0.000 C 
BRANCH  16  17
ATOM     17  C   UNL     1       8.610 -22.828 -17.726  1.00  0.00     0.000 C 
BRANCH  17  18
ATOM     18  C   UNL     1       9.148 -22.462 -19.121  1.00  0.00     0.000 C 
BRANCH  18  19
ATOM     19  C   UNL     1      10.487 -21.706 -19.068  1.00  0.00     0.000 C 
BRANCH  19  20
ATOM     20  C   UNL     1      10.952 -21.232 -20.455  1.00  0.00     0.006 C 
BRANCH  20  21
ATOM     21  C   UNL     1       9.843 -20.514 -21.235  1.00  0.00     0.053 C 
BRANCH  21  22
ATOM     22  C   UNL     1       9.467 -21.302 -22.449  1.00  0.00     0.041 C 
ATOM     23  O   UNL     1      10.310 -21.498 -23.364  1.00  0.00    -0.550 OA
ATOM     24  O   UNL     1       8.200 -21.863 -22.549  1.00  0.00    -0.550 OA
ENDBRANCH  21  22
ENDBRANCH  20  21
ENDBRANCH  19  20
ENDBRANCH  18  19
ENDBRANCH  17  18
ENDBRANCH  16  17
ENDBRANCH  15  16
ENDBRANCH  14  15
ENDBRANCH  13  14
ENDBRANCH   1  13
TORSDOF 20
ENDMDL
MODEL 3
REMARK VINA RESULT:    -1.988      1.125      2.751
REMARK INTER + INTRA:          -5.294
REMARK INTER:                  -4.035
REMARK INTRA:                  -1.259
REMARK UNBOUND:                -0.981
REMARK SMILES CCCCCCCCCCCCCCCCCCCCCC(=O)[O-]
REMARK SMILES IDX 12 1 11 2 10 3 9 4 8 5 7 6 6 7 5 8 4 9 3 10 2 11 1 12 13 13
REMARK SMILES IDX 14 14 15 15 16 16 17 17 18 18 19 19 20 20 21 21 22 22 23 23
REMARK SMILES IDX 24 24
REMARK H PARENT
REMARK Flexibility Score: inf
ROOT
ATOM      1  C   UNL     1      -0.738 -23.033 -15.579  1.00  0.00     0.000 C 
ENDROOT
BRANCH   1   2
ATOM      2  C   UNL     1      -1.342 -22.618 -14.223  1.00  0.00     0.000 C 
BRANCH   2   3
ATOM      3  C   UNL     1      -2.883 -22.593 -14.171  1.00  0.00     0.000 C 
BRANCH   3   4
ATOM      4  C   UNL     1      -3.583 -22.787 -15.529  1.00  0.00    -0.000 C 
BRANCH   4   5
ATOM      5  C   UNL     1      -5.072 -22.416 -15.490  1.00  0.00    -0.000 C 
BRANCH   5   6
ATOM      6  C   UNL     1      -5.523 -21.823 -16.834  1.00  0.00    -0.000 C 
BRANCH   6   7
ATOM      7  C   UNL     1      -6.856 -21.067 -16.731  1.00  0.00    -0.000 C 
BRANCH   7   8
ATOM      8  C   UNL     1      -7.910 -21.831 -15.914  1.00  0.00    -0.000 C 
BRANCH   8   9
ATOM      9  C   UNL     1      -8.611 -20.901 -14.918  1.00  0.00    -0.000 C 
BRANCH   9  10
ATOM     10  C   UNL     1      -8.019 -21.055 -13.509  1.00  0.00    -0.000 C 
BRANCH  10  11
ATOM     11  C   UNL     1      -7.793 -22.525 -13.122  1.00  0.00    -0.003 C 
ATOM     12  C   UNL     1      -6.644 -22.704 -12.130  1.00  0.00     0.004 C 
ENDBRANCH  10  11
ENDBRANCH   9  10
ENDBRANCH   8   9
ENDBRANCH   7   8
ENDBRANCH   6   7
ENDBRANCH   5   6
ENDBRANCH   4   5
ENDBRANCH   3   4
ENDBRANCH   2   3
ENDBRANCH   1   2
BRANCH   1  13
ATOM     13  C   UNL     1       0.123 -21.957 -16.266  1.00  0.00     0.000 C 
BRANCH  13  14
ATOM     14  C   UNL     1       1.410 -21.637 -15.485  1.00  0.00     0.000 C 
BRANCH  14  15
ATOM     15  C   UNL     1       2.601 -22.499 -15.935  1.00  0.00     0.000 C 
BRANCH  15  16
ATOM     16  C   UNL     1       3.956 -21.863 -15.580  1.00  0.00     0.000 C 
BRANCH  16  17
ATOM     17  C   UNL     1       5.088 -22.295 -16.530  1.00  0.00     0.000 C 
BRANCH  17  18
ATOM     18  C   UNL     1       6.301 -21.348 -16.578  1.00  0.00     0.000 C 
BRANCH  18  19
ATOM     19  C   UNL     1       7.581 -21.983 -16.009  1.00  0.00     0.000 C 
BRANCH  19  20
ATOM     20  C   UNL     1       8.768 -21.891 -16.981  1.00  0.00     0.006 C 
BRANCH  20  21
ATOM     21  C   UNL     1       8.354 -22.127 -18.440  1.00  0.00     0.053 C 
BRANCH  21  22
ATOM     22  C   UNL     1       9.462 -21.734 -19.365  1.00  0.00     0.041 C 
ATOM     23  O   UNL     1       9.242 -20.939 -20.316  1.00  0.00    -0.550 OA
ATOM     24  O   UNL     1      10.750 -22.208 -19.147  1.00  0.00    -0.550 OA
ENDBRANCH  21  22
ENDBRANCH  20  21
ENDBRANCH  19  20
ENDBRANCH  18  19
ENDBRANCH  17  18
ENDBRANCH  16  17
ENDBRANCH  15  16
ENDBRANCH  14  15
ENDBRANCH  13  14
ENDBRANCH   1  13
TORSDOF 20
ENDMDL
MODEL 4
REMARK VINA RESULT:    -1.988      1.212      2.926
REMARK INTER + INTRA:          -5.293
REMARK INTER:                  -4.394
REMARK INTRA:                  -0.899
REMARK UNBOUND:                -0.981
REMARK SMILES CCCCCCCCCCCCCCCCCCCCCC(=O)[O-]
REMARK SMILES IDX 12 1 11 2 10 3 9 4 8 5 7 6 6 7 5 8 4 9 3 10 2 11 1 12 13 13
REMARK SMILES IDX 14 14 15 15 16 16 17 17 18 18 19 19 20 20 21 21 22 22 23 23
REMARK SMILES IDX 24 24
REMARK H PARENT
REMARK Flexibility Score: inf
ROOT
ATOM      1  C   UNL     1       5.020 -21.026 -15.602  1.00  0.00     0.000 C 
ENDROOT
BRANCH   1   2
ATOM      2  C   UNL     1       3.922 -21.983 -16.107  1.00  0.00     0.000 C 
BRANCH   2   3
ATOM      3  C   UNL     1       2.588 -21.917 -15.338  1.00  0.00     0.000 C 
BRANCH   3   4
ATOM      4  C   UNL     1       1.455 -22.778 -15.926  1.00  0.00    -0.000 C 
BRANCH   4   5
ATOM      5  C   UNL     1       0.120 -22.024 -16.021  1.00  0.00    -0.000 C 
BRANCH   5   6
ATOM      6  C   UNL     1      -1.034 -22.885 -15.487  1.00  0.00    -0.000 C 
BRANCH   6   7
ATOM      7  C   UNL     1      -1.727 -22.257 -14.269  1.00  0.00    -0.000 C 
BRANCH   7   8
ATOM      8  C   UNL     1      -3.199 -22.680 -14.140  1.00  0.00    -0.000 C 
BRANCH   8   9
ATOM      9  C   UNL     1      -3.763 -23.120 -15.495  1.00  0.00    -0.000 C 
BRANCH   9  10
ATOM     10  C   UNL     1      -4.366 -21.929 -16.254  1.00  0.00    -0.000 C 
BRANCH  10  11
ATOM     11  C   UNL     1      -5.888 -21.824 -16.076  1.00  0.00    -0.003 C 
ATOM     12  C   UNL     1      -6.590 -21.263 -17.312  1.00  0.00     0.004 C 
ENDBRANCH  10  11
ENDBRANCH   9  10
ENDBRANCH   8   9
ENDBRANCH   7   8
ENDBRANCH   6   7
ENDBRANCH   5   6
ENDBRANCH   4   5
ENDBRANCH   3   4
ENDBRANCH   2   3
ENDBRANCH   1   2
BRANCH   1  13
ATOM     13  C   UNL     1       6.355 -21.104 -16.365  1.00  0.00     0.000 C 
BRANCH  13  14
ATOM     14  C   UNL     1       7.519 -20.456 -15.595  1.00  0.00     0.000 C 
BRANCH  14  15
ATOM     15  C   UNL     1       8.792 -21.318 -15.619  1.00  0.00     0.000 C 
BRANCH  15  16
ATOM     16  C   UNL     1       8.980 -22.053 -16.958  1.00  0.00     0.000 C 
BRANCH  16  17
ATOM     17  C   UNL     1      10.374 -21.828 -17.574  1.00  0.00     0.000 C 
BRANCH  17  18
ATOM     18  C   UNL     1      10.411 -21.791 -19.113  1.00  0.00     0.000 C 
BRANCH  18  19
ATOM     19  C   UNL     1       9.601 -22.927 -19.760  1.00  0.00     0.000 C 
BRANCH  19  20
ATOM     20  C   UNL     1       8.288 -22.431 -20.387  1.00  0.00     0.006 C 
BRANCH  20  21
ATOM     21  C   UNL     1       8.216 -22.703 -21.895  1.00  0.00     0.053 C 
BRANCH  21  22
ATOM     22  C   UNL     1       9.091 -21.746 -22.639  1.00  0.00     0.041 C 
ATOM     23  O   UNL     1       9.856 -22.162 -23.549  1.00  0.00    -0.550 OA
ATOM     24  O   UNL     1       9.028 -20.386 -22.361  1.00  0.00    -0.550 OA
ENDBRANCH  21  22
ENDBRANCH  20  21
ENDBRANCH  19  20
ENDBRANCH  18  19
ENDBRANCH  17  18
ENDBRANCH  16  17
ENDBRANCH  15  16
ENDBRANCH  14  15
ENDBRANCH  13  14
ENDBRANCH   1  13
TORSDOF 20
ENDMDL
MODEL 5
REMARK VINA RESULT:    -1.967      5.616     13.646
REMARK INTER + INTRA:          -5.248
REMARK INTER:                  -4.389
REMARK INTRA:                  -0.859
REMARK UNBOUND:                -0.981
REMARK SMILES CCCCCCCCCCCCCCCCCCCCCC(=O)[O-]
REMARK SMILES IDX 12 1 11 2 10 3 9 4 8 5 7 6 6 7 5 8 4 9 3 10 2 11 1 12 13 13
REMARK SMILES IDX 14 14 15 15 16 16 17 17 18 18 19 19 20 20 21 21 22 22 23 23
REMARK SMILES IDX 24 24
REMARK H PARENT
REMARK Flexibility Score: inf
ROOT
ATOM      1  C   UNL     1       0.960 -21.817 -15.963  1.00  0.00     0.000 C 
ENDROOT
BRANCH   1   2
ATOM      2  C   UNL     1       1.751 -23.106 -15.667  1.00  0.00     0.000 C 
BRANCH   2   3
ATOM      3  C   UNL     1       3.198 -23.125 -16.198  1.00  0.00     0.000 C 
BRANCH   3   4
ATOM      4  C   UNL     1       4.029 -21.872 -15.866  1.00  0.00    -0.000 C 
BRANCH   4   5
ATOM      5  C   UNL     1       5.507 -22.014 -16.259  1.00  0.00    -0.000 C 
BRANCH   5   6
ATOM      6  C   UNL     1       6.247 -20.678 -16.098  1.00  0.00    -0.000 C 
BRANCH   6   7
ATOM      7  C   UNL     1       7.688 -20.855 -15.596  1.00  0.00    -0.000 C 
BRANCH   7   8
ATOM      8  C   UNL     1       8.470 -21.907 -16.397  1.00  0.00    -0.000 C 
BRANCH   8   9
ATOM      9  C   UNL     1       8.594 -21.496 -17.869  1.00  0.00    -0.000 C 
BRANCH   9  10
ATOM     10  C   UNL     1       9.805 -22.170 -18.529  1.00  0.00    -0.000 C 
BRANCH  10  11
ATOM     11  C   UNL     1       9.882 -21.896 -20.039  1.00  0.00    -0.003 C 
ATOM     12  C   UNL     1       8.607 -22.299 -20.779  1.00  0.00     0.004 C 
ENDBRANCH  10  11
ENDBRANCH   9  10
ENDBRANCH   8   9
ENDBRANCH   7   8
ENDBRANCH   6   7
ENDBRANCH   5   6
ENDBRANCH   4   5
ENDBRANCH   3   4
ENDBRANCH   2   3
ENDBRANCH   1   2
BRANCH   1  13
ATOM     13  C   UNL     1      -0.566 -21.997 -16.060  1.00  0.00     0.000 C 
BRANCH  13  14
ATOM     14  C   UNL     1      -1.104 -23.056 -15.081  1.00  0.00     0.000 C 
BRANCH  14  15
ATOM     15  C   UNL     1      -2.611 -22.902 -14.816  1.00  0.00     0.000 C 
BRANCH  15  16
ATOM     16  C   UNL     1      -3.311 -22.041 -15.881  1.00  0.00     0.000 C 
BRANCH  16  17
ATOM     17  C   UNL     1      -4.780 -22.442 -16.105  1.00  0.00     0.000 C 
BRANCH  17  18
ATOM     18  C   UNL     1      -5.703 -21.310 -16.591  1.00  0.00     0.000 C 
BRANCH  18  19
ATOM     19  C   UNL     1      -7.190 -21.701 -16.580  1.00  0.00     0.000 C 
BRANCH  19  20
ATOM     20  C   UNL     1      -7.978 -20.994 -15.465  1.00  0.00     0.006 C 
BRANCH  20  21
ATOM     21  C   UNL     1      -8.632 -21.980 -14.488  1.00  0.00     0.053 C 
BRANCH  21  22
ATOM     22  C   UNL     1      -8.060 -21.811 -13.117  1.00  0.00     0.041 C 
ATOM     23  O   UNL     1      -6.813 -21.809 -12.945  1.00  0.00    -0.550 OA
ATOM     24  O   UNL     1      -8.905 -21.605 -12.032  1.00  0.00    -0.550 OA
ENDBRANCH  21  22
ENDBRANCH  20  21
ENDBRANCH  19  20
ENDBRANCH  18  19
ENDBRANCH  17  18
ENDBRANCH  16  17
ENDBRANCH  15  16
ENDBRANCH  14  15
ENDBRANCH  13  14
ENDBRANCH   1  13
TORSDOF 20
ENDMDL
MODEL 6
REMARK VINA RESULT:    -1.894      5.538     13.297
REMARK INTER + INTRA:          -5.089
REMARK INTER:                  -4.143
REMARK INTRA:                  -0.946
REMARK UNBOUND:                -0.981
REMARK SMILES CCCCCCCCCCCCCCCCCCCCCC(=O)[O-]
REMARK SMILES IDX 12 1 11 2 10 3 9 4 8 5 7 6 6 7 5 8 4 9 3 10 2 11 1 12 13 13
REMARK SMILES IDX 14 14 15 15 16 16 17 17 18 18 19 19 20 20 21 21 22 22 23 23
REMARK SMILES IDX 24 24
REMARK H PARENT
REMARK Flexibility Score: inf
ROOT
ATOM      1  C   UNL     1       3.458 -21.895 -15.601  1.00  0.00     0.000 C 
ENDROOT
BRANCH   1   2
ATOM      2  C   UNL     1       4.105 -23.057 -16.382  1.00  0.00     0.000 C 
BRANCH   2   3
ATOM      3  C   UNL     1       5.646 -23.047 -16.416  1.00  0.00     0.000 C 
BRANCH   3   4
ATOM      4  C   UNL     1       6.276 -21.756 -16.971  1.00  0.00    -0.000 C 
BRANCH   4   5
ATOM      5  C   UNL     1       7.143 -21.023 -15.937  1.00  0.00    -0.000 C 
BRANCH   5   6
ATOM      6  C   UNL     1       8.625 -21.388 -16.109  1.00  0.00    -0.000 C 
BRANCH   6   7
ATOM      7  C   UNL     1       8.911 -22.093 -17.443  1.00  0.00    -0.000 C 
BRANCH   7   8
ATOM      8  C   UNL     1      10.397 -22.048 -17.832  1.00  0.00    -0.000 C 
BRANCH   8   9
ATOM      9  C   UNL     1      10.576 -22.252 -19.341  1.00  0.00    -0.000 C 
BRANCH   9  10
ATOM     10  C   UNL     1       9.567 -21.409 -20.134  1.00  0.00    -0.000 C 
BRANCH  10  11
ATOM     11  C   UNL     1       8.845 -22.220 -21.220  1.00  0.00    -0.003 C 
ATOM     12  C   UNL     1       8.405 -21.360 -22.405  1.00  0.00     0.004 C 
ENDBRANCH  10  11
ENDBRANCH   9  10
ENDBRANCH   8   9
ENDBRANCH   7   8
ENDBRANCH   6   7
ENDBRANCH   5   6
ENDBRANCH   4   5
ENDBRANCH   3   4
ENDBRANCH   2   3
ENDBRANCH   1   2
BRANCH   1  13
ATOM     13  C   UNL     1       1.952 -21.700 -15.853  1.00  0.00     0.000 C 
BRANCH  13  14
ATOM     14  C   UNL     1       1.194 -23.032 -15.988  1.00  0.00     0.000 C 
BRANCH  14  15
ATOM     15  C   UNL     1      -0.038 -23.104 -15.070  1.00  0.00     0.000 C 
BRANCH  15  16
ATOM     16  C   UNL     1      -1.203 -22.240 -15.580  1.00  0.00     0.000 C 
BRANCH  16  17
ATOM     17  C   UNL     1      -2.549 -22.602 -14.925  1.00  0.00     0.000 C 
BRANCH  17  18
ATOM     18  C   UNL     1      -3.675 -22.979 -15.905  1.00  0.00     0.000 C 
BRANCH  18  19
ATOM     19  C   UNL     1      -4.981 -22.211 -15.640  1.00  0.00     0.000 C 
BRANCH  19  20
ATOM     20  C   UNL     1      -5.781 -21.947 -16.927  1.00  0.00     0.006 C 
BRANCH  20  21
ATOM     21  C   UNL     1      -6.884 -20.899 -16.731  1.00  0.00     0.053 C 
BRANCH  21  22
ATOM     22  C   UNL     1      -7.892 -21.384 -15.739  1.00  0.00     0.041 C 
ATOM     23  O   UNL     1      -8.000 -20.822 -14.618  1.00  0.00    -0.550 OA
ATOM     24  O   UNL     1      -8.749 -22.427 -16.072  1.00  0.00    -0.550 OA
ENDBRANCH  21  22
ENDBRANCH  20  21
ENDBRANCH  19  20
ENDBRANCH  18  19
ENDBRANCH  17  18
ENDBRANCH  16  17
ENDBRANCH  15  16
ENDBRANCH  14  15
ENDBRANCH  13  14
ENDBRANCH   1  13
TORSDOF 20
ENDMDL
MODEL 7
REMARK VINA RESULT:    -1.755      1.203      1.741
REMARK INTER + INTRA:          -4.788
REMARK INTER:                  -3.967
REMARK INTRA:                  -0.821
REMARK UNBOUND:                -0.981
REMARK SMILES CCCCCCCCCCCCCCCCCCCCCC(=O)[O-]
REMARK SMILES IDX 12 1 11 2 10 3 9 4 8 5 7 6 6 7 5 8 4 9 3 10 2 11 1 12 13 13
REMARK SMILES IDX 14 14 15 15 16 16 17 17 18 18 19 19 20 20 21 21 22 22 23 23
REMARK SMILES IDX 24 24
REMARK H PARENT
REMARK Flexibility Score: inf
ROOT
ATOM      1  C   UNL     1       2.126 -22.591 -16.036  1.00  0.00     0.000 C 
ENDROOT
BRANCH   1   2
ATOM      2  C   UNL     1       0.928 -23.027 -15.169  1.00  0.00     0.000 C 
BRANCH   2   3
ATOM      3  C   UNL     1      -0.457 -22.623 -15.713  1.00  0.00     0.000 C 
BRANCH   3   4
ATOM      4  C   UNL     1      -1.634 -22.890 -14.757  1.00  0.00    -0.000 C 
BRANCH   4   5
ATOM      5  C   UNL     1      -2.984 -22.433 -15.330  1.00  0.00    -0.000 C 
BRANCH   5   6
ATOM      6  C   UNL     1      -4.148 -23.125 -14.605  1.00  0.00    -0.000 C 
BRANCH   6   7
ATOM      7  C   UNL     1      -5.481 -22.382 -14.780  1.00  0.00    -0.000 C 
BRANCH   7   8
ATOM      8  C   UNL     1      -6.577 -22.898 -13.835  1.00  0.00    -0.000 C 
BRANCH   8   9
ATOM      9  C   UNL     1      -7.965 -22.449 -14.308  1.00  0.00    -0.000 C 
BRANCH   9  10
ATOM     10  C   UNL     1      -8.720 -21.720 -13.188  1.00  0.00    -0.000 C 
BRANCH  10  11
ATOM     11  C   UNL     1      -7.912 -20.556 -12.592  1.00  0.00    -0.003 C 
ATOM     12  C   UNL     1      -8.738 -19.279 -12.444  1.00  0.00     0.004 C 
ENDBRANCH  10  11
ENDBRANCH   9  10
ENDBRANCH   8   9
ENDBRANCH   7   8
ENDBRANCH   6   7
ENDBRANCH   5   6
ENDBRANCH   4   5
ENDBRANCH   3   4
ENDBRANCH   2   3
ENDBRANCH   1   2
BRANCH   1  13
ATOM     13  C   UNL     1       3.033 -21.521 -15.401  1.00  0.00     0.000 C 
BRANCH  13  14
ATOM     14  C   UNL     1       4.508 -21.671 -15.815  1.00  0.00     0.000 C 
BRANCH  14  15
ATOM     15  C   UNL     1       4.752 -22.916 -16.684  1.00  0.00     0.000 C 
BRANCH  15  16
ATOM     16  C   UNL     1       6.185 -22.976 -17.238  1.00  0.00     0.000 C 
BRANCH  16  17
ATOM     17  C   UNL     1       6.950 -21.650 -17.068  1.00  0.00     0.000 C 
BRANCH  17  18
ATOM     18  C   UNL     1       8.483 -21.760 -17.157  1.00  0.00     0.000 C 
BRANCH  18  19
ATOM     19  C   UNL     1       8.956 -22.540 -18.395  1.00  0.00     0.000 C 
BRANCH  19  20
ATOM     20  C   UNL     1       9.345 -21.615 -19.560  1.00  0.00     0.006 C 
BRANCH  20  21
ATOM     21  C   UNL     1       9.043 -22.234 -20.931  1.00  0.00     0.053 C 
BRANCH  21  22
ATOM     22  C   UNL     1       9.170 -21.204 -22.007  1.00  0.00     0.041 C 
ATOM     23  O   UNL     1       8.166 -20.875 -22.692  1.00  0.00    -0.550 OA
ATOM     24  O   UNL     1      10.388 -20.570 -22.222  1.00  0.00    -0.550 OA
ENDBRANCH  21  22
ENDBRANCH  20  21
ENDBRANCH  19  20
ENDBRANCH  18  19
ENDBRANCH  17  18
ENDBRANCH  16  17
ENDBRANCH  15  16
ENDBRANCH  14  15
ENDBRANCH  13  14
ENDBRANCH   1  13
TORSDOF 20
ENDMDL
MODEL 8
REMARK VINA RESULT:    -1.721      5.822     13.646
REMARK INTER + INTRA:          -4.713
REMARK INTER:                  -4.010
REMARK INTRA:                  -0.703
REMARK UNBOUND:                -0.981
REMARK SMILES CCCCCCCCCCCCCCCCCCCCCC(=O)[O-]
REMARK SMILES IDX 12 1 11 2 10 3 9 4 8 5 7 6 6 7 5 8 4 9 3 10 2 11 1 12 13 13
REMARK SMILES IDX 14 14 15 15 16 16 17 17 18 18 19 19 20 20 21 21 22 22 23 23
REMARK SMILES IDX 24 24
REMARK H PARENT
REMARK Flexibility Score: inf
ROOT
ATOM      1  C   UNL     1       4.264 -21.016 -15.688  1.00  0.00     0.000 C 
ENDROOT
BRANCH   1   2
ATOM      2  C   UNL     1       5.634 -21.642 -16.015  1.00  0.00     0.000 C 
BRANCH   2   3
ATOM      3  C   UNL     1       6.762 -20.635 -16.315  1.00  0.00     0.000 C 
BRANCH   3   4
ATOM      4  C   UNL     1       7.900 -20.606 -15.278  1.00  0.00    -0.000 C 
BRANCH   4   5
ATOM      5  C   UNL     1       9.193 -21.255 -15.794  1.00  0.00    -0.000 C 
BRANCH   5   6
ATOM      6  C   UNL     1       8.950 -21.971 -17.131  1.00  0.00    -0.000 C 
BRANCH   6   7
ATOM      7  C   UNL     1      10.254 -22.302 -17.873  1.00  0.00    -0.000 C 
BRANCH   7   8
ATOM      8  C   UNL     1      10.016 -22.728 -19.330  1.00  0.00    -0.000 C 
BRANCH   8   9
ATOM      9  C   UNL     1       8.887 -21.908 -19.963  1.00  0.00    -0.000 C 
BRANCH   9  10
ATOM     10  C   UNL     1       8.860 -22.093 -21.487  1.00  0.00    -0.000 C 
BRANCH  10  11
ATOM     11  C   UNL     1       9.373 -20.857 -22.241  1.00  0.00    -0.003 C 
ATOM     12  C   UNL     1      10.710 -21.103 -22.939  1.00  0.00     0.004 C 
ENDBRANCH  10  11
ENDBRANCH   9  10
ENDBRANCH   8   9
ENDBRANCH   7   8
ENDBRANCH   6   7
ENDBRANCH   5   6
ENDBRANCH   4   5
ENDBRANCH   3   4
ENDBRANCH   2   3
ENDBRANCH   1   2
BRANCH   1  13
ATOM     13  C   UNL     1       3.145 -22.024 -15.370  1.00  0.00     0.000 C 
BRANCH  13  14
ATOM     14  C   UNL     1       1.780 -21.598 -15.938  1.00  0.00     0.000 C 
BRANCH  14  15
ATOM     15  C   UNL     1       0.755 -22.744 -15.929  1.00  0.00     0.000 C 
BRANCH  15  16
ATOM     16  C   UNL     1      -0.693 -22.238 -15.805  1.00  0.00     0.000 C 
BRANCH  16  17
ATOM     17  C   UNL     1      -1.553 -23.106 -14.869  1.00  0.00     0.000 C 
BRANCH  17  18
ATOM     18  C   UNL     1      -3.060 -22.790 -14.882  1.00  0.00     0.000 C 
BRANCH  18  19
ATOM     19  C   UNL     1      -3.753 -23.118 -13.549  1.00  0.00     0.000 C 
BRANCH  19  20
ATOM     20  C   UNL     1      -4.929 -22.174 -13.248  1.00  0.00     0.006 C 
BRANCH  20  21
ATOM     21  C   UNL     1      -6.193 -22.927 -12.814  1.00  0.00     0.053 C 
BRANCH  21  22
ATOM     22  C   UNL     1      -7.368 -22.003 -12.793  1.00  0.00     0.041 C 
ATOM     23  O   UNL     1      -8.089 -21.871 -13.816  1.00  0.00    -0.550 OA
ATOM     24  O   UNL     1      -7.698 -21.325 -11.626  1.00  0.00    -0.550 OA
ENDBRANCH  21  22
ENDBRANCH  20  21
ENDBRANCH  19  20
ENDBRANCH  18  19
ENDBRANCH  17  18
ENDBRANCH  16  17
ENDBRANCH  15  16
ENDBRANCH  14  15
ENDBRANCH  13  14
ENDBRANCH   1  13
TORSDOF 20
ENDMDL
MODEL 9
REMARK VINA RESULT:    -1.668      1.942      3.678
REMARK INTER + INTRA:          -4.599
REMARK INTER:                  -3.540
REMARK INTRA:                  -1.059
REMARK UNBOUND:                -0.981
REMARK SMILES CCCCCCCCCCCCCCCCCCCCCC(=O)[O-]
REMARK SMILES IDX 12 1 11 2 10 3 9 4 8 5 7 6 6 7 5 8 4 9 3 10 2 11 1 12 13 13
REMARK SMILES IDX 14 14 15 15 16 16 17 17 18 18 19 19 20 20 21 21 22 22 23 23
REMARK SMILES IDX 24 24
REMARK H PARENT
REMARK Flexibility Score: inf
ROOT
ATOM      1  C   UNL     1      -1.338 -21.777 -16.006  1.00  0.00     0.000 C 
ENDROOT
BRANCH   1   2
ATOM      2  C   UNL     1      -2.832 -22.050 -15.742  1.00  0.00     0.000 C 
BRANCH   2   3
ATOM      3  C   UNL     1      -3.125 -23.123 -14.675  1.00  0.00     0.000 C 
BRANCH   3   4
ATOM      4  C   UNL     1      -4.025 -22.658 -13.515  1.00  0.00    -0.000 C 
BRANCH   4   5
ATOM      5  C   UNL     1      -5.484 -23.111 -13.675  1.00  0.00    -0.000 C 
BRANCH   5   6
ATOM      6  C   UNL     1      -6.439 -22.141 -12.961  1.00  0.00    -0.000 C 
BRANCH   6   7
ATOM      7  C   UNL     1      -7.853 -22.717 -12.793  1.00  0.00    -0.000 C 
BRANCH   7   8
ATOM      8  C   UNL     1      -8.948 -21.743 -13.253  1.00  0.00    -0.000 C 
BRANCH   8   9
ATOM      9  C   UNL     1      -8.546 -21.039 -14.554  1.00  0.00    -0.000 C 
BRANCH   9  10
ATOM     10  C   UNL     1      -8.773 -21.952 -15.767  1.00  0.00    -0.000 C 
BRANCH  10  11
ATOM     11  C   UNL     1      -7.910 -21.556 -16.975  1.00  0.00    -0.003 C 
ATOM     12  C   UNL     1      -6.425 -21.450 -16.631  1.00  0.00     0.004 C 
ENDBRANCH  10  11
ENDBRANCH   9  10
ENDBRANCH   8   9
ENDBRANCH   7   8
ENDBRANCH   6   7
ENDBRANCH   5   6
ENDBRANCH   4   5
ENDBRANCH   3   4
ENDBRANCH   2   3
ENDBRANCH   1   2
BRANCH   1  13
ATOM     13  C   UNL     1      -0.367 -22.470 -15.033  1.00  0.00     0.000 C 
BRANCH  13  14
ATOM     14  C   UNL     1       0.889 -23.015 -15.735  1.00  0.00     0.000 C 
BRANCH  14  15
ATOM     15  C   UNL     1       1.884 -21.904 -16.107  1.00  0.00     0.000 C 
BRANCH  15  16
ATOM     16  C   UNL     1       3.267 -22.113 -15.466  1.00  0.00     0.000 C 
BRANCH  16  17
ATOM     17  C   UNL     1       4.416 -22.055 -16.490  1.00  0.00     0.000 C 
BRANCH  17  18
ATOM     18  C   UNL     1       5.831 -22.183 -15.895  1.00  0.00     0.000 C 
BRANCH  18  19
ATOM     19  C   UNL     1       6.817 -21.151 -16.468  1.00  0.00     0.000 C 
BRANCH  19  20
ATOM     20  C   UNL     1       7.315 -21.528 -17.873  1.00  0.00     0.006 C 
BRANCH  20  21
ATOM     21  C   UNL     1       8.330 -22.678 -17.850  1.00  0.00     0.053 C 
BRANCH  21  22
ATOM     22  C   UNL     1       9.693 -22.161 -17.515  1.00  0.00     0.041 C 
ATOM     23  O   UNL     1       9.858 -21.401 -16.525  1.00  0.00    -0.550 OA
ATOM     24  O   UNL     1      10.791 -22.560 -18.268  1.00  0.00    -0.550 OA
ENDBRANCH  21  22
ENDBRANCH  20  21
ENDBRANCH  19  20
ENDBRANCH  18  19
ENDBRANCH  17  18
ENDBRANCH  16  17
ENDBRANCH  15  16
ENDBRANCH  14  15
ENDBRANCH  13  14
ENDBRANCH   1  13
TORSDOF 20
ENDMDL
