MODEL 1
REMARK VINA RESULT:    18.465      0.000      0.000
REMARK INTER + INTRA:          20.421
REMARK INTER:                  20.623
REMARK INTRA:                  -0.202
REMARK UNBOUND:                -0.202
REMARK SMILES CC(C)c1ccc(C(=O)[O-])cc1
REMARK SMILES IDX 7 1 6 2 11 3 5 4 12 5 4 6 8 7 9 8 10 9 2 10 1 11 3 12
REMARK H PARENT
REMARK Flexibility Score: inf
ROOT
ATOM      1  C   UNL     1     -13.974  -7.351 -22.604  1.00  0.00    -0.003 A 
ATOM      2  C   UNL     1     -13.083  -8.435 -22.549  1.00  0.00     0.010 A 
ATOM      3  C   UNL     1     -14.280  -6.659 -21.420  1.00  0.00     0.010 A 
ATOM      4  C   UNL     1     -12.507  -8.819 -21.334  1.00  0.00     0.004 A 
ATOM      5  C   UNL     1     -13.705  -7.043 -20.205  1.00  0.00     0.004 A 
ATOM      6  C   UNL     1     -12.813  -8.128 -20.148  1.00  0.00    -0.045 A 
ENDROOT
BRANCH   1   7
ATOM      7  C   UNL     1     -14.581  -6.947 -23.893  1.00  0.00     0.071 C 
ATOM      8  O   UNL     1     -15.539  -7.602 -24.382  1.00  0.00    -0.545 OA
ATOM      9  O   UNL     1     -14.101  -5.838 -24.580  1.00  0.00    -0.545 OA
ENDBRANCH   1   7
BRANCH   6  10
ATOM     10  C   UNL     1     -12.196  -8.534 -18.823  1.00  0.00     0.013 C 
ATOM     11  C   UNL     1     -11.586  -7.325 -18.103  1.00  0.00     0.012 C 
ATOM     12  C   UNL     1     -13.219  -9.248 -17.931  1.00  0.00     0.012 C 
ENDBRANCH   6  10
TORSDOF 2
ENDMDL
MODEL 2
REMARK VINA RESULT:    18.495      3.014      5.308
REMARK INTER + INTRA:          20.455
REMARK INTER:                  20.654
REMARK INTRA:                  -0.200
REMARK UNBOUND:                -0.202
REMARK SMILES CC(C)c1ccc(C(=O)[O-])cc1
REMARK SMILES IDX 7 1 6 2 11 3 5 4 12 5 4 6 8 7 9 8 10 9 2 10 1 11 3 12
REMARK H PARENT
REMARK Flexibility Score: inf
ROOT
ATOM      1  C   UNL     1     -12.932  -8.090 -19.972  1.00  0.00    -0.003 A 
ATOM      2  C   UNL     1     -13.872  -7.069 -20.180  1.00  0.00     0.010 A 
ATOM      3  C   UNL     1     -12.434  -8.795 -21.081  1.00  0.00     0.010 A 
ATOM      4  C   UNL     1     -14.306  -6.756 -21.471  1.00  0.00     0.004 A 
ATOM      5  C   UNL     1     -12.868  -8.483 -22.373  1.00  0.00     0.004 A 
ATOM      6  C   UNL     1     -13.810  -7.461 -22.582  1.00  0.00    -0.045 A 
ENDROOT
BRANCH   1   7
ATOM      7  C   UNL     1     -12.474  -8.418 -18.602  1.00  0.00     0.071 C 
ATOM      8  O   UNL     1     -11.735  -7.621 -17.966  1.00  0.00    -0.545 OA
ATOM      9  O   UNL     1     -12.854  -9.612 -18.000  1.00  0.00    -0.545 OA
ENDBRANCH   1   7
BRANCH   6  10
ATOM     10  C   UNL     1     -14.272  -7.133 -23.990  1.00  0.00     0.013 C 
ATOM     11  C   UNL     1     -15.771  -7.412 -24.158  1.00  0.00     0.012 C 
ATOM     12  C   UNL     1     -13.936  -5.683 -24.359  1.00  0.00     0.012 C 
ENDBRANCH   6  10
TORSDOF 2
ENDMDL
MODEL 3
REMARK VINA RESULT:    18.535      0.051      1.398
REMARK INTER + INTRA:          20.500
REMARK INTER:                  20.700
REMARK INTRA:                  -0.200
REMARK UNBOUND:                -0.202
REMARK SMILES CC(C)c1ccc(C(=O)[O-])cc1
REMARK SMILES IDX 7 1 6 2 11 3 5 4 12 5 4 6 8 7 9 8 10 9 2 10 1 11 3 12
REMARK H PARENT
REMARK Flexibility Score: inf
ROOT
ATOM      1  C   UNL     1     -13.995  -7.353 -22.643  1.00  0.00    -0.003 A 
ATOM      2  C   UNL     1     -14.279  -6.639 -21.468  1.00  0.00     0.010 A 
ATOM      3  C   UNL     1     -13.117  -8.448 -22.579  1.00  0.00     0.010 A 
ATOM      4  C   UNL     1     -13.699  -7.011 -20.253  1.00  0.00     0.004 A 
ATOM      5  C   UNL     1     -12.535  -8.821 -21.363  1.00  0.00     0.004 A 
ATOM      6  C   UNL     1     -12.819  -8.106 -20.187  1.00  0.00    -0.045 A 
ENDROOT
BRANCH   1   7
ATOM      7  C   UNL     1     -14.612  -6.956 -23.929  1.00  0.00     0.071 C 
ATOM      8  O   UNL     1     -15.570  -7.617 -24.411  1.00  0.00    -0.545 OA
ATOM      9  O   UNL     1     -14.142  -5.847 -24.622  1.00  0.00    -0.545 OA
ENDBRANCH   1   7
BRANCH   6  10
ATOM     10  C   UNL     1     -12.181  -8.521 -18.874  1.00  0.00     0.013 C 
ATOM     11  C   UNL     1     -11.555  -7.318 -18.159  1.00  0.00     0.012 C 
ATOM     12  C   UNL     1     -13.192  -9.236 -17.969  1.00  0.00     0.012 C 
ENDBRANCH   6  10
TORSDOF 2
ENDMDL
