MODEL 1
REMARK VINA RESULT:    -3.110      0.000      0.000
REMARK INTER + INTRA:          -3.968
REMARK INTER:                  -3.746
REMARK INTRA:                  -0.222
REMARK UNBOUND:                -0.222
REMARK SMILES OCC(O)CO
REMARK SMILES IDX 3 1 5 2 6 3 2 5 1 6 4 8
REMARK H PARENT 6 4 1 7 4 9
REMARK Flexibility Score: inf
ROOT
ATOM      1  C   UNL     1     -52.185  18.154 -30.789  1.00  0.00     0.165 C 
ENDROOT
BRANCH   1   2
ATOM      2  C   UNL     1     -52.689  18.126 -29.339  1.00  0.00     0.190 C 
BRANCH   2   3
ATOM      3  O   UNL     1     -51.599  18.155 -28.459  1.00  0.00    -0.394 OA
ATOM      4  H   UNL     1     -50.890  17.602 -28.880  1.00  0.00     0.210 HD
ENDBRANCH   2   3
ENDBRANCH   1   2
BRANCH   1   5
ATOM      5  C   UNL     1     -51.336  16.916 -31.129  1.00  0.00     0.190 C 
BRANCH   5   6
ATOM      6  O   UNL     1     -50.034  17.055 -30.625  1.00  0.00    -0.394 OA
ATOM      7  H   UNL     1     -49.496  17.496 -31.334  1.00  0.00     0.210 HD
ENDBRANCH   5   6
ENDBRANCH   1   5
BRANCH   1   8
ATOM      8  O   UNL     1     -51.449  19.328 -31.032  1.00  0.00    -0.388 OA
ATOM      9  H   UNL     1     -50.926  19.529 -30.212  1.00  0.00     0.211 HD
ENDBRANCH   1   8
TORSDOF 5
ENDMDL
MODEL 2
REMARK VINA RESULT:    -3.093      0.610      2.483
REMARK INTER + INTRA:          -3.948
REMARK INTER:                  -3.748
REMARK INTRA:                  -0.200
REMARK UNBOUND:                -0.222
REMARK SMILES OCC(O)CO
REMARK SMILES IDX 3 1 5 2 6 3 2 5 1 6 4 8
REMARK H PARENT 6 4 1 7 4 9
REMARK Flexibility Score: inf
ROOT
ATOM      1  C   UNL     1     -52.251  17.616 -30.074  1.00  0.00     0.165 C 
ENDROOT
BRANCH   1   2
ATOM      2  C   UNL     1     -51.408  16.605 -30.865  1.00  0.00     0.190 C 
BRANCH   2   3
ATOM      3  O   UNL     1     -50.050  16.932 -30.751  1.00  0.00    -0.394 OA
ATOM      4  H   UNL     1     -49.553  16.213 -31.223  1.00  0.00     0.210 HD
ENDBRANCH   2   3
ENDBRANCH   1   2
BRANCH   1   5
ATOM      5  C   UNL     1     -52.636  18.838 -30.926  1.00  0.00     0.190 C 
BRANCH   5   6
ATOM      6  O   UNL     1     -51.511  19.636 -31.184  1.00  0.00    -0.394 OA
ATOM      7  H   UNL     1     -51.846  20.505 -31.527  1.00  0.00     0.210 HD
ENDBRANCH   5   6
ENDBRANCH   1   5
BRANCH   1   8
ATOM      8  O   UNL     1     -51.568  18.028 -28.916  1.00  0.00    -0.388 OA
ATOM      9  H   UNL     1     -50.607  18.116 -29.149  1.00  0.00     0.211 HD
ENDBRANCH   1   8
TORSDOF 5
ENDMDL
MODEL 3
REMARK VINA RESULT:    -3.029      1.503      2.259
REMARK INTER + INTRA:          -3.871
REMARK INTER:                  -3.647
REMARK INTRA:                  -0.224
REMARK UNBOUND:                -0.222
REMARK SMILES OCC(O)CO
REMARK SMILES IDX 3 1 5 2 6 3 2 5 1 6 4 8
REMARK H PARENT 6 4 1 7 4 9
REMARK Flexibility Score: inf
ROOT
ATOM      1  C   UNL     1     -51.244  16.643 -31.039  1.00  0.00     0.165 C 
ENDROOT
BRANCH   1   2
ATOM      2  C   UNL     1     -51.280  18.076 -30.490  1.00  0.00     0.190 C 
BRANCH   2   3
ATOM      3  O   UNL     1     -51.405  18.045 -29.095  1.00  0.00    -0.394 OA
ATOM      4  H   UNL     1     -52.379  18.071 -28.905  1.00  0.00     0.210 HD
ENDBRANCH   2   3
ENDBRANCH   1   2
BRANCH   1   5
ATOM      5  C   UNL     1     -52.209  15.712 -30.285  1.00  0.00     0.190 C 
BRANCH   5   6
ATOM      6  O   UNL     1     -51.568  15.117 -29.188  1.00  0.00    -0.394 OA
ATOM      7  H   UNL     1     -51.718  14.139 -29.261  1.00  0.00     0.210 HD
ENDBRANCH   5   6
ENDBRANCH   1   5
BRANCH   1   8
ATOM      8  O   UNL     1     -49.936  16.128 -30.989  1.00  0.00    -0.388 OA
ATOM      9  H   UNL     1     -49.322  16.840 -31.308  1.00  0.00     0.211 HD
ENDBRANCH   1   8
TORSDOF 5
ENDMDL
MODEL 4
REMARK VINA RESULT:    -2.993      1.473      2.021
REMARK INTER + INTRA:          -3.827
REMARK INTER:                  -3.617
REMARK INTRA:                  -0.210
REMARK UNBOUND:                -0.222
REMARK SMILES OCC(O)CO
REMARK SMILES IDX 3 1 5 2 6 3 2 5 1 6 4 8
REMARK H PARENT 6 4 1 7 4 9
REMARK Flexibility Score: inf
ROOT
ATOM      1  C   UNL     1     -52.401  18.646 -31.025  1.00  0.00     0.165 C 
ENDROOT
BRANCH   1   2
ATOM      2  C   UNL     1     -53.826  19.126 -30.713  1.00  0.00     0.190 C 
BRANCH   2   3
ATOM      3  O   UNL     1     -53.781  20.153 -29.760  1.00  0.00    -0.394 OA
ATOM      4  H   UNL     1     -53.179  20.849 -30.134  1.00  0.00     0.210 HD
ENDBRANCH   2   3
ENDBRANCH   1   2
BRANCH   1   5
ATOM      5  C   UNL     1     -51.896  17.627 -29.989  1.00  0.00     0.190 C 
BRANCH   5   6
ATOM      6  O   UNL     1     -51.573  18.266 -28.782  1.00  0.00    -0.394 OA
ATOM      7  H   UNL     1     -52.424  18.597 -28.394  1.00  0.00     0.210 HD
ENDBRANCH   5   6
ENDBRANCH   1   5
BRANCH   1   8
ATOM      8  O   UNL     1     -51.519  19.739 -31.101  1.00  0.00    -0.388 OA
ATOM      9  H   UNL     1     -50.596  19.376 -31.161  1.00  0.00     0.211 HD
ENDBRANCH   1   8
TORSDOF 5
ENDMDL
MODEL 5
REMARK VINA RESULT:    -2.973      1.337      3.029
REMARK INTER + INTRA:          -3.804
REMARK INTER:                  -3.580
REMARK INTRA:                  -0.224
REMARK UNBOUND:                -0.222
REMARK SMILES OCC(O)CO
REMARK SMILES IDX 3 1 5 2 6 3 2 5 1 6 4 8
REMARK H PARENT 6 4 1 7 4 9
REMARK Flexibility Score: inf
ROOT
ATOM      1  C   UNL     1     -52.342  17.802 -29.663  1.00  0.00     0.165 C 
ENDROOT
BRANCH   1   2
ATOM      2  C   UNL     1     -51.594  18.183 -30.949  1.00  0.00     0.190 C 
BRANCH   2   3
ATOM      3  O   UNL     1     -51.571  19.577 -31.086  1.00  0.00    -0.394 OA
ATOM      4  H   UNL     1     -52.438  19.828 -31.500  1.00  0.00     0.210 HD
ENDBRANCH   2   3
ENDBRANCH   1   2
BRANCH   1   5
ATOM      5  C   UNL     1     -53.762  18.393 -29.626  1.00  0.00     0.190 C 
BRANCH   5   6
ATOM      6  O   UNL     1     -53.744  19.693 -29.098  1.00  0.00    -0.394 OA
ATOM      7  H   UNL     1     -53.218  20.253 -29.727  1.00  0.00     0.210 HD
ENDBRANCH   5   6
ENDBRANCH   1   5
BRANCH   1   8
ATOM      8  O   UNL     1     -51.617  18.212 -28.531  1.00  0.00    -0.388 OA
ATOM      9  H   UNL     1     -51.866  17.612 -27.780  1.00  0.00     0.211 HD
ENDBRANCH   1   8
TORSDOF 5
ENDMDL
MODEL 6
REMARK VINA RESULT:    -2.969     12.004     12.588
REMARK INTER + INTRA:          -3.798
REMARK INTER:                  -3.575
REMARK INTRA:                  -0.224
REMARK UNBOUND:                -0.222
REMARK SMILES OCC(O)CO
REMARK SMILES IDX 3 1 5 2 6 3 2 5 1 6 4 8
REMARK H PARENT 6 4 1 7 4 9
REMARK Flexibility Score: inf
ROOT
ATOM      1  C   UNL     1     -39.087  20.144 -29.475  1.00  0.00     0.165 C 
ENDROOT
BRANCH   1   2
ATOM      2  C   UNL     1     -39.302  21.610 -29.074  1.00  0.00     0.190 C 
BRANCH   2   3
ATOM      3  O   UNL     1     -40.584  22.023 -29.460  1.00  0.00    -0.394 OA
ATOM      4  H   UNL     1     -41.218  21.556 -28.856  1.00  0.00     0.210 HD
ENDBRANCH   2   3
ENDBRANCH   1   2
BRANCH   1   5
ATOM      5  C   UNL     1     -39.521  19.172 -28.364  1.00  0.00     0.190 C 
BRANCH   5   6
ATOM      6  O   UNL     1     -40.676  19.640 -27.719  1.00  0.00    -0.394 OA
ATOM      7  H   UNL     1     -41.403  19.642 -28.395  1.00  0.00     0.210 HD
ENDBRANCH   5   6
ENDBRANCH   1   5
BRANCH   1   8
ATOM      8  O   UNL     1     -37.743  19.918 -29.819  1.00  0.00    -0.388 OA
ATOM      9  H   UNL     1     -37.182  20.487 -29.229  1.00  0.00     0.211 HD
ENDBRANCH   1   8
TORSDOF 5
ENDMDL
MODEL 7
REMARK VINA RESULT:    -2.929      1.444      2.329
REMARK INTER + INTRA:          -3.750
REMARK INTER:                  -3.526
REMARK INTRA:                  -0.224
REMARK UNBOUND:                -0.222
REMARK SMILES OCC(O)CO
REMARK SMILES IDX 3 1 5 2 6 3 2 5 1 6 4 8
REMARK H PARENT 6 4 1 7 4 9
REMARK Flexibility Score: inf
ROOT
ATOM      1  C   UNL     1     -52.098  17.871 -29.348  1.00  0.00     0.165 C 
ENDROOT
BRANCH   1   2
ATOM      2  C   UNL     1     -53.586  18.244 -29.413  1.00  0.00     0.190 C 
BRANCH   2   3
ATOM      3  O   UNL     1     -53.741  19.612 -29.154  1.00  0.00    -0.394 OA
ATOM      4  H   UNL     1     -54.346  19.677 -28.369  1.00  0.00     0.210 HD
ENDBRANCH   2   3
ENDBRANCH   1   2
BRANCH   1   5
ATOM      5  C   UNL     1     -51.376  18.142 -30.679  1.00  0.00     0.190 C 
BRANCH   5   6
ATOM      6  O   UNL     1     -51.528  19.484 -31.060  1.00  0.00    -0.394 OA
ATOM      7  H   UNL     1     -52.435  19.573 -31.452  1.00  0.00     0.210 HD
ENDBRANCH   5   6
ENDBRANCH   1   5
BRANCH   1   8
ATOM      8  O   UNL     1     -51.943  16.523 -28.979  1.00  0.00    -0.388 OA
ATOM      9  H   UNL     1     -52.802  16.219 -28.584  1.00  0.00     0.211 HD
ENDBRANCH   1   8
TORSDOF 5
ENDMDL
MODEL 8
REMARK VINA RESULT:    -2.926     11.990     12.562
REMARK INTER + INTRA:          -3.748
REMARK INTER:                  -3.540
REMARK INTRA:                  -0.208
REMARK UNBOUND:                -0.222
REMARK SMILES OCC(O)CO
REMARK SMILES IDX 3 1 5 2 6 3 2 5 1 6 4 8
REMARK H PARENT 6 4 1 7 4 9
REMARK Flexibility Score: inf
ROOT
ATOM      1  C   UNL     1     -38.897  20.289 -29.159  1.00  0.00     0.165 C 
ENDROOT
BRANCH   1   2
ATOM      2  C   UNL     1     -39.610  19.161 -28.400  1.00  0.00     0.190 C 
BRANCH   2   3
ATOM      3  O   UNL     1     -40.691  19.686 -27.679  1.00  0.00    -0.394 OA
ATOM      4  H   UNL     1     -41.494  19.186 -27.983  1.00  0.00     0.210 HD
ENDBRANCH   2   3
ENDBRANCH   1   2
BRANCH   1   5
ATOM      5  C   UNL     1     -39.855  21.440 -29.515  1.00  0.00     0.190 C 
BRANCH   5   6
ATOM      6  O   UNL     1     -39.758  22.475 -28.572  1.00  0.00    -0.394 OA
ATOM      7  H   UNL     1     -40.650  22.909 -28.528  1.00  0.00     0.210 HD
ENDBRANCH   5   6
ENDBRANCH   1   5
BRANCH   1   8
ATOM      8  O   UNL     1     -38.285  19.791 -30.323  1.00  0.00    -0.388 OA
ATOM      9  H   UNL     1     -37.354  19.538 -30.087  1.00  0.00     0.211 HD
ENDBRANCH   1   8
TORSDOF 5
ENDMDL
MODEL 9
REMARK VINA RESULT:    -2.919      2.896      4.186
REMARK INTER + INTRA:          -3.738
REMARK INTER:                  -3.516
REMARK INTRA:                  -0.222
REMARK UNBOUND:                -0.222
REMARK SMILES OCC(O)CO
REMARK SMILES IDX 3 1 5 2 6 3 2 5 1 6 4 8
REMARK H PARENT 6 4 1 7 4 9
REMARK Flexibility Score: inf
ROOT
ATOM      1  C   UNL     1     -50.821  14.331 -30.647  1.00  0.00     0.165 C 
ENDROOT
BRANCH   1   2
ATOM      2  C   UNL     1     -49.618  13.404 -30.418  1.00  0.00     0.190 C 
BRANCH   2   3
ATOM      3  O   UNL     1     -48.440  14.161 -30.376  1.00  0.00    -0.394 OA
ATOM      4  H   UNL     1     -47.717  13.563 -30.700  1.00  0.00     0.210 HD
ENDBRANCH   2   3
ENDBRANCH   1   2
BRANCH   1   5
ATOM      5  C   UNL     1     -50.476  15.502 -31.584  1.00  0.00     0.190 C 
BRANCH   5   6
ATOM      6  O   UNL     1     -50.059  16.620 -30.846  1.00  0.00    -0.394 OA
ATOM      7  H   UNL     1     -50.610  17.388 -31.150  1.00  0.00     0.210 HD
ENDBRANCH   5   6
ENDBRANCH   1   5
BRANCH   1   8
ATOM      8  O   UNL     1     -51.310  14.818 -29.422  1.00  0.00    -0.388 OA
ATOM      9  H   UNL     1     -51.690  15.719 -29.588  1.00  0.00     0.211 HD
ENDBRANCH   1   8
TORSDOF 5
ENDMDL
