MODEL 1
REMARK VINA RESULT:    -5.817      0.000      0.000
REMARK INTER + INTRA:          -9.342
REMARK INTER:                  -8.707
REMARK INTRA:                  -0.635
REMARK UNBOUND:                -0.635
REMARK SMILES C=C(CC[C@@H](C(=O)[O-])[C@@H]1[C@H](O)C[C@]2(C)C3=C(CC[C@]12C)[C@@]1(C)CC[C@H](OC(C)=O)C(C)(C)[C@H]1CC3)C(C)C
REMARK SMILES IDX 4 1 5 2 6 3 7 4 8 5 9 6 10 7 19 8 12 9 13 10 18 11 20 12
REMARK SMILES IDX 14 13 15 14 17 15 16 16 35 17 21 18 34 19 33 20 23 21 22 22
REMARK SMILES IDX 30 23 24 24 25 25 31 26 32 27 11 28 26 30 27 31 29 32 28 33
REMARK SMILES IDX 3 34 2 35 1 36 36 37 37 38 38 39
REMARK H PARENT 11 29
REMARK Flexibility Score: inf
ROOT
ATOM      1  C   UNL     1      -6.970   0.996  -6.453  1.00  0.00     0.014 C 
ENDROOT
BRANCH   1   2
ATOM      2  C   UNL     1      -5.536   0.452  -6.243  1.00  0.00     0.042 C 
BRANCH   2   3
ATOM      3  C   UNL     1      -4.597   1.569  -5.857  1.00  0.00     0.045 C 
ATOM      4  O   UNL     1      -4.880   2.372  -4.931  1.00  0.00    -0.550 OA
ATOM      5  O   UNL     1      -3.402   1.732  -6.550  1.00  0.00    -0.550 OA
ENDBRANCH   2   3
BRANCH   2   6
ATOM      6  C   UNL     1      -5.492  -0.835  -5.324  1.00  0.00     0.033 C 
ATOM      7  C   UNL     1      -4.762  -0.792  -3.967  1.00  0.00     0.119 C 
ATOM      8  C   UNL     1      -4.991  -2.148  -5.995  1.00  0.00    -0.017 C 
ATOM      9  C   UNL     1      -4.583  -2.271  -3.550  1.00  0.00     0.043 C 
ATOM     10  C   UNL     1      -4.972  -3.162  -4.775  1.00  0.00    -0.003 C 
ATOM     11  C   UNL     1      -3.558  -1.954  -6.638  1.00  0.00     0.012 C 
ATOM     12  C   UNL     1      -5.964  -2.583  -7.125  1.00  0.00     0.013 C 
ATOM     13  C   UNL     1      -6.394  -3.745  -4.487  1.00  0.00     0.017 C 
ATOM     14  C   UNL     1      -3.935  -4.311  -4.988  1.00  0.00    -0.064 C 
ATOM     15  C   UNL     1      -2.411  -2.596  -5.864  1.00  0.00     0.032 C 
ATOM     16  C   UNL     1      -2.726  -4.046  -5.559  1.00  0.00    -0.064 C 
ATOM     17  C   UNL     1      -4.238  -5.752  -4.615  1.00  0.00     0.032 C 
ATOM     18  C   UNL     1      -1.622  -5.141  -5.760  1.00  0.00    -0.008 C 
ATOM     19  C   UNL     1      -3.757  -6.662  -5.727  1.00  0.00     0.009 C 
ATOM     20  C   UNL     1      -2.214  -6.620  -5.910  1.00  0.00     0.009 C 
ATOM     21  C   UNL     1      -0.618  -5.012  -4.565  1.00  0.00     0.015 C 
ATOM     22  C   UNL     1      -0.827  -4.828  -7.066  1.00  0.00     0.016 C 
ATOM     23  C   UNL     1      -1.406  -7.738  -5.123  1.00  0.00     0.005 C 
ATOM     24  C   UNL     1      -0.963  -5.860  -3.334  1.00  0.00     0.047 C 
ATOM     25  C   UNL     1      -1.246  -7.356  -3.614  1.00  0.00     0.182 C 
ATOM     26  C   UNL     1      -0.015  -7.965  -5.796  1.00  0.00     0.015 C 
ATOM     27  C   UNL     1      -2.120  -9.119  -5.218  1.00  0.00     0.015 C 
BRANCH   7  28
ATOM     28  O   UNL     1      -3.506  -0.172  -4.084  1.00  0.00    -0.393 OA
ATOM     29  H   UNL     1      -2.833  -0.903  -4.146  1.00  0.00     0.210 HD
ENDBRANCH   7  28
BRANCH  25  30
ATOM     30  O   UNL     1      -0.220  -8.148  -2.997  1.00  0.00    -0.462 OA
BRANCH  30  31
ATOM     31  C   UNL     1       0.345  -7.877  -1.743  1.00  0.00     0.302 C 
ATOM     32  O   UNL     1       0.986  -6.813  -1.536  1.00  0.00    -0.253 OA
ATOM     33  C   UNL     1       0.262  -8.903  -0.662  1.00  0.00     0.139 C 
ENDBRANCH  30  31
ENDBRANCH  25  30
ENDBRANCH   2   6
ENDBRANCH   1   2
BRANCH   1  34
ATOM     34  C   UNL     1      -7.943   0.721  -5.286  1.00  0.00     0.031 C 
BRANCH  34  35
ATOM     35  C   UNL     1      -9.008   1.797  -5.150  1.00  0.00    -0.075 C 
ATOM     36  C   UNL     1     -10.309   1.461  -5.210  1.00  0.00     0.008 C 
BRANCH  35  37
ATOM     37  C   UNL     1      -8.589   3.258  -5.012  1.00  0.00     0.008 C 
ATOM     38  C   UNL     1      -8.945   4.064  -6.267  1.00  0.00     0.012 C 
ATOM     39  C   UNL     1      -9.178   3.910  -3.755  1.00  0.00     0.012 C 
ENDBRANCH  35  37
ENDBRANCH  34  35
ENDBRANCH   1  34
TORSDOF 9
ENDMDL
MODEL 2
REMARK VINA RESULT:    -5.638      1.612      2.256
REMARK INTER + INTRA:          -9.074
REMARK INTER:                  -8.930
REMARK INTRA:                  -0.145
REMARK UNBOUND:                -0.635
REMARK SMILES C=C(CC[C@@H](C(=O)[O-])[C@@H]1[C@H](O)C[C@]2(C)C3=C(CC[C@]12C)[C@@]1(C)CC[C@H](OC(C)=O)C(C)(C)[C@H]1CC3)C(C)C
REMARK SMILES IDX 4 1 5 2 6 3 7 4 8 5 9 6 10 7 19 8 12 9 13 10 18 11 20 12
REMARK SMILES IDX 14 13 15 14 17 15 16 16 35 17 21 18 34 19 33 20 23 21 22 22
REMARK SMILES IDX 30 23 24 24 25 25 31 26 32 27 11 28 26 30 27 31 29 32 28 33
REMARK SMILES IDX 3 34 2 35 1 36 36 37 37 38 38 39
REMARK H PARENT 11 29
REMARK Flexibility Score: inf
ROOT
ATOM      1  C   UNL     1      -8.352   2.616  -4.765  1.00  0.00     0.014 C 
ENDROOT
BRANCH   1   2
ATOM      2  C   UNL     1      -7.319   1.732  -5.507  1.00  0.00     0.042 C 
BRANCH   2   3
ATOM      3  C   UNL     1      -6.007   2.462  -5.657  1.00  0.00     0.045 C 
ATOM      4  O   UNL     1      -5.356   2.423  -6.732  1.00  0.00    -0.550 OA
ATOM      5  O   UNL     1      -5.492   3.179  -4.582  1.00  0.00    -0.550 OA
ENDBRANCH   2   3
BRANCH   2   6
ATOM      6  C   UNL     1      -7.229   0.264  -4.923  1.00  0.00     0.033 C 
ATOM      7  C   UNL     1      -6.610   0.022  -3.532  1.00  0.00     0.119 C 
ATOM      8  C   UNL     1      -6.566  -0.806  -5.838  1.00  0.00    -0.017 C 
ATOM      9  C   UNL     1      -6.332  -1.498  -3.466  1.00  0.00     0.043 C 
ATOM     10  C   UNL     1      -6.548  -2.086  -4.899  1.00  0.00    -0.003 C 
ATOM     11  C   UNL     1      -5.112  -0.364  -6.279  1.00  0.00     0.012 C 
ATOM     12  C   UNL     1      -7.410  -1.015  -7.125  1.00  0.00     0.013 C 
ATOM     13  C   UNL     1      -7.931  -2.816  -4.893  1.00  0.00     0.017 C 
ATOM     14  C   UNL     1      -5.401  -3.074  -5.282  1.00  0.00    -0.064 C 
ATOM     15  C   UNL     1      -3.973  -1.097  -5.577  1.00  0.00     0.032 C 
ATOM     16  C   UNL     1      -4.180  -2.595  -5.657  1.00  0.00    -0.064 C 
ATOM     17  C   UNL     1      -5.602  -4.579  -5.295  1.00  0.00     0.032 C 
ATOM     18  C   UNL     1      -2.972  -3.531  -6.011  1.00  0.00    -0.008 C 
ATOM     19  C   UNL     1      -4.961  -5.154  -6.543  1.00  0.00     0.009 C 
ATOM     20  C   UNL     1      -3.419  -4.964  -6.565  1.00  0.00     0.009 C 
ATOM     21  C   UNL     1      -2.075  -3.631  -4.731  1.00  0.00     0.015 C 
ATOM     22  C   UNL     1      -2.113  -2.853  -7.124  1.00  0.00     0.016 C 
ATOM     23  C   UNL     1      -2.575  -6.184  -5.995  1.00  0.00     0.005 C 
ATOM     24  C   UNL     1      -2.435  -4.777  -3.776  1.00  0.00     0.047 C 
ATOM     25  C   UNL     1      -2.562  -6.174  -4.431  1.00  0.00     0.182 C 
ATOM     26  C   UNL     1      -1.124  -6.143  -6.570  1.00  0.00     0.015 C 
ATOM     27  C   UNL     1      -3.155  -7.543  -6.484  1.00  0.00     0.015 C 
BRANCH   7  28
ATOM     28  O   UNL     1      -5.407   0.735  -3.379  1.00  0.00    -0.393 OA
ATOM     29  H   UNL     1      -4.674   0.112  -3.631  1.00  0.00     0.210 HD
ENDBRANCH   7  28
BRANCH  25  30
ATOM     30  O   UNL     1      -1.519  -7.022  -3.928  1.00  0.00    -0.462 OA
BRANCH  30  31
ATOM     31  C   UNL     1      -0.663  -6.684  -2.872  1.00  0.00     0.302 C 
ATOM     32  O   UNL     1      -1.061  -6.713  -1.677  1.00  0.00    -0.253 OA
ATOM     33  C   UNL     1       0.716  -6.196  -3.170  1.00  0.00     0.139 C 
ENDBRANCH  30  31
ENDBRANCH  25  30
ENDBRANCH   2   6
ENDBRANCH   1   2
BRANCH   1  34
ATOM     34  C   UNL     1      -9.793   2.518  -5.309  1.00  0.00     0.031 C 
BRANCH  34  35
ATOM     35  C   UNL     1     -10.270   3.820  -5.933  1.00  0.00    -0.075 C 
ATOM     36  C   UNL     1     -11.009   3.791  -7.057  1.00  0.00     0.008 C 
BRANCH  35  37
ATOM     37  C   UNL     1      -9.850   5.149  -5.315  1.00  0.00     0.008 C 
ATOM     38  C   UNL     1      -9.708   6.243  -6.380  1.00  0.00     0.012 C 
ATOM     39  C   UNL     1     -10.801   5.592  -4.197  1.00  0.00     0.012 C 
ENDBRANCH  35  37
ENDBRANCH  34  35
ENDBRANCH   1  34
TORSDOF 9
ENDMDL
MODEL 3
REMARK VINA RESULT:    -5.276      2.127      3.470
REMARK INTER + INTRA:          -8.532
REMARK INTER:                  -8.590
REMARK INTRA:                   0.058
REMARK UNBOUND:                -0.635
REMARK SMILES C=C(CC[C@@H](C(=O)[O-])[C@@H]1[C@H](O)C[C@]2(C)C3=C(CC[C@]12C)[C@@]1(C)CC[C@H](OC(C)=O)C(C)(C)[C@H]1CC3)C(C)C
REMARK SMILES IDX 4 1 5 2 6 3 7 4 8 5 9 6 10 7 19 8 12 9 13 10 18 11 20 12
REMARK SMILES IDX 14 13 15 14 17 15 16 16 35 17 21 18 34 19 33 20 23 21 22 22
REMARK SMILES IDX 30 23 24 24 25 25 31 26 32 27 11 28 26 30 27 31 29 32 28 33
REMARK SMILES IDX 3 34 2 35 1 36 36 37 37 38 38 39
REMARK H PARENT 11 29
REMARK Flexibility Score: inf
ROOT
ATOM      1  C   UNL     1      -7.508   2.635  -6.294  1.00  0.00     0.014 C 
ENDROOT
BRANCH   1   2
ATOM      2  C   UNL     1      -8.455   2.080  -5.201  1.00  0.00     0.042 C 
BRANCH   2   3
ATOM      3  C   UNL     1      -9.895   2.348  -5.561  1.00  0.00     0.045 C 
ATOM      4  O   UNL     1     -10.654   2.991  -4.791  1.00  0.00    -0.550 OA
ATOM      5  O   UNL     1     -10.407   1.860  -6.760  1.00  0.00    -0.550 OA
ENDBRANCH   2   3
BRANCH   2   6
ATOM      6  C   UNL     1      -8.113   0.592  -4.785  1.00  0.00     0.033 C 
ATOM      7  C   UNL     1      -7.485   0.299  -3.408  1.00  0.00     0.119 C 
ATOM      8  C   UNL     1      -7.251  -0.228  -5.789  1.00  0.00    -0.017 C 
ATOM      9  C   UNL     1      -6.939  -1.145  -3.505  1.00  0.00     0.043 C 
ATOM     10  C   UNL     1      -7.020  -1.587  -5.003  1.00  0.00    -0.003 C 
ATOM     11  C   UNL     1      -5.892   0.514  -6.120  1.00  0.00     0.012 C 
ATOM     12  C   UNL     1      -8.020  -0.428  -7.124  1.00  0.00     0.013 C 
ATOM     13  C   UNL     1      -8.248  -2.546  -5.134  1.00  0.00     0.017 C 
ATOM     14  C   UNL     1      -5.706  -2.304  -5.450  1.00  0.00    -0.064 C 
ATOM     15  C   UNL     1      -4.653  -0.085  -5.462  1.00  0.00     0.032 C 
ATOM     16  C   UNL     1      -4.586  -1.576  -5.721  1.00  0.00    -0.064 C 
ATOM     17  C   UNL     1      -5.633  -3.808  -5.642  1.00  0.00     0.032 C 
ATOM     18  C   UNL     1      -3.222  -2.234  -6.130  1.00  0.00    -0.008 C 
ATOM     19  C   UNL     1      -4.876  -4.108  -6.921  1.00  0.00     0.009 C 
ATOM     20  C   UNL     1      -3.393  -3.647  -6.861  1.00  0.00     0.009 C 
ATOM     21  C   UNL     1      -2.346  -2.326  -4.836  1.00  0.00     0.015 C 
ATOM     22  C   UNL     1      -2.479  -1.288  -7.124  1.00  0.00     0.016 C 
ATOM     23  C   UNL     1      -2.354  -4.758  -6.401  1.00  0.00     0.005 C 
ATOM     24  C   UNL     1      -2.510  -3.623  -4.033  1.00  0.00     0.047 C 
ATOM     25  C   UNL     1      -2.372  -4.933  -4.847  1.00  0.00     0.182 C 
ATOM     26  C   UNL     1      -0.924  -4.393  -6.910  1.00  0.00     0.015 C 
ATOM     27  C   UNL     1      -2.671  -6.130  -7.065  1.00  0.00     0.015 C 
BRANCH   7  28
ATOM     28  O   UNL     1      -6.434   1.190  -3.128  1.00  0.00    -0.393 OA
ATOM     29  H   UNL     1      -6.845   2.089  -3.018  1.00  0.00     0.210 HD
ENDBRANCH   7  28
BRANCH  25  30
ATOM     30  O   UNL     1      -1.202  -5.636  -4.403  1.00  0.00    -0.462 OA
BRANCH  30  31
ATOM     31  C   UNL     1      -1.140  -6.420  -3.243  1.00  0.00     0.302 C 
ATOM     32  O   UNL     1      -0.973  -5.893  -2.111  1.00  0.00    -0.253 OA
ATOM     33  C   UNL     1      -1.185  -7.908  -3.358  1.00  0.00     0.139 C 
ENDBRANCH  30  31
ENDBRANCH  25  30
ENDBRANCH   2   6
ENDBRANCH   1   2
BRANCH   1  34
ATOM     34  C   UNL     1      -7.611   4.158  -6.524  1.00  0.00     0.031 C 
BRANCH  34  35
ATOM     35  C   UNL     1      -7.410   4.955  -5.245  1.00  0.00    -0.075 C 
ATOM     36  C   UNL     1      -6.630   4.463  -4.266  1.00  0.00     0.008 C 
BRANCH  35  37
ATOM     37  C   UNL     1      -8.147   6.278  -5.059  1.00  0.00     0.008 C 
ATOM     38  C   UNL     1      -8.191   7.084  -6.362  1.00  0.00     0.012 C 
ATOM     39  C   UNL     1      -9.557   6.076  -4.491  1.00  0.00     0.012 C 
ENDBRANCH  35  37
ENDBRANCH  34  35
ENDBRANCH   1  34
TORSDOF 9
ENDMDL
MODEL 4
REMARK VINA RESULT:    -4.579      1.825      9.667
REMARK INTER + INTRA:          -7.489
REMARK INTER:                  -8.287
REMARK INTRA:                   0.797
REMARK UNBOUND:                -0.635
REMARK SMILES C=C(CC[C@@H](C(=O)[O-])[C@@H]1[C@H](O)C[C@]2(C)C3=C(CC[C@]12C)[C@@]1(C)CC[C@H](OC(C)=O)C(C)(C)[C@H]1CC3)C(C)C
REMARK SMILES IDX 4 1 5 2 6 3 7 4 8 5 9 6 10 7 19 8 12 9 13 10 18 11 20 12
REMARK SMILES IDX 14 13 15 14 17 15 16 16 35 17 21 18 34 19 33 20 23 21 22 22
REMARK SMILES IDX 30 23 24 24 25 25 31 26 32 27 11 28 26 30 27 31 29 32 28 33
REMARK SMILES IDX 3 34 2 35 1 36 36 37 37 38 38 39
REMARK H PARENT 11 29
REMARK Flexibility Score: inf
ROOT
ATOM      1  C   UNL     1      -1.068  -6.582  -3.144  1.00  0.00     0.014 C 
ENDROOT
BRANCH   1   2
ATOM      2  C   UNL     1      -0.408  -5.986  -4.411  1.00  0.00     0.042 C 
BRANCH   2   3
ATOM      3  C   UNL     1       0.672  -6.904  -4.929  1.00  0.00     0.045 C 
ATOM      4  O   UNL     1       0.673  -8.132  -4.658  1.00  0.00    -0.550 OA
ATOM      5  O   UNL     1       1.702  -6.383  -5.706  1.00  0.00    -0.550 OA
ENDBRANCH   2   3
BRANCH   2   6
ATOM      6  C   UNL     1      -1.463  -5.489  -5.481  1.00  0.00     0.033 C 
ATOM      7  C   UNL     1      -1.099  -4.349  -6.454  1.00  0.00     0.119 C 
ATOM      8  C   UNL     1      -2.871  -5.105  -4.940  1.00  0.00    -0.017 C 
ATOM      9  C   UNL     1      -2.444  -3.876  -7.053  1.00  0.00     0.043 C 
ATOM     10  C   UNL     1      -3.594  -4.559  -6.242  1.00  0.00    -0.003 C 
ATOM     11  C   UNL     1      -2.770  -4.008  -3.803  1.00  0.00     0.012 C 
ATOM     12  C   UNL     1      -3.576  -6.351  -4.337  1.00  0.00     0.013 C 
ATOM     13  C   UNL     1      -4.151  -5.723  -7.125  1.00  0.00     0.017 C 
ATOM     14  C   UNL     1      -4.723  -3.537  -5.897  1.00  0.00    -0.064 C 
ATOM     15  C   UNL     1      -3.187  -2.602  -4.224  1.00  0.00     0.032 C 
ATOM     16  C   UNL     1      -4.546  -2.632  -4.893  1.00  0.00    -0.064 C 
ATOM     17  C   UNL     1      -6.059  -3.533  -6.621  1.00  0.00     0.032 C 
ATOM     18  C   UNL     1      -5.619  -1.549  -4.523  1.00  0.00    -0.008 C 
ATOM     19  C   UNL     1      -7.171  -3.363  -5.606  1.00  0.00     0.009 C 
ATOM     20  C   UNL     1      -7.115  -1.990  -4.880  1.00  0.00     0.009 C 
ATOM     21  C   UNL     1      -5.196  -0.219  -5.233  1.00  0.00     0.015 C 
ATOM     22  C   UNL     1      -5.569  -1.288  -2.986  1.00  0.00     0.016 C 
ATOM     23  C   UNL     1      -8.005  -0.843  -5.525  1.00  0.00     0.005 C 
ATOM     24  C   UNL     1      -5.768  -0.027  -6.644  1.00  0.00     0.047 C 
ATOM     25  C   UNL     1      -7.298  -0.221  -6.775  1.00  0.00     0.182 C 
ATOM     26  C   UNL     1      -8.322   0.250  -4.456  1.00  0.00     0.015 C 
ATOM     27  C   UNL     1      -9.398  -1.390  -5.956  1.00  0.00     0.015 C 
BRANCH   7  28
ATOM     28  O   UNL     1      -0.475  -3.285  -5.780  1.00  0.00    -0.393 OA
ATOM     29  H   UNL     1      -1.174  -2.855  -5.219  1.00  0.00     0.210 HD
ENDBRANCH   7  28
BRANCH  25  30
ATOM     30  O   UNL     1      -7.900   1.035  -7.123  1.00  0.00    -0.462 OA
BRANCH  30  31
ATOM     31  C   UNL     1      -7.411   2.286  -6.723  1.00  0.00     0.302 C 
ATOM     32  O   UNL     1      -6.205   2.601  -6.904  1.00  0.00    -0.253 OA
ATOM     33  C   UNL     1      -8.311   3.226  -5.992  1.00  0.00     0.139 C 
ENDBRANCH  30  31
ENDBRANCH  25  30
ENDBRANCH   2   6
ENDBRANCH   1   2
BRANCH   1  34
ATOM     34  C   UNL     1      -0.262  -6.383  -1.842  1.00  0.00     0.031 C 
BRANCH  34  35
ATOM     35  C   UNL     1       0.303  -7.686  -1.301  1.00  0.00    -0.075 C 
ATOM     36  C   UNL     1      -0.440  -8.807  -1.345  1.00  0.00     0.008 C 
BRANCH  35  37
ATOM     37  C   UNL     1       1.684  -7.696  -0.654  1.00  0.00     0.008 C 
ATOM     38  C   UNL     1       2.351  -9.072  -0.775  1.00  0.00     0.012 C 
ATOM     39  C   UNL     1       2.592  -6.595  -1.215  1.00  0.00     0.012 C 
ENDBRANCH  35  37
ENDBRANCH  34  35
ENDBRANCH   1  34
TORSDOF 9
ENDMDL
MODEL 5
REMARK VINA RESULT:    -3.899      1.770      9.705
REMARK INTER + INTRA:          -6.472
REMARK INTER:                  -6.457
REMARK INTRA:                  -0.016
REMARK UNBOUND:                -0.635
REMARK SMILES C=C(CC[C@@H](C(=O)[O-])[C@@H]1[C@H](O)C[C@]2(C)C3=C(CC[C@]12C)[C@@]1(C)CC[C@H](OC(C)=O)C(C)(C)[C@H]1CC3)C(C)C
REMARK SMILES IDX 4 1 5 2 6 3 7 4 8 5 9 6 10 7 19 8 12 9 13 10 18 11 20 12
REMARK SMILES IDX 14 13 15 14 17 15 16 16 35 17 21 18 34 19 33 20 23 21 22 22
REMARK SMILES IDX 30 23 24 24 25 25 31 26 32 27 11 28 26 30 27 31 29 32 28 33
REMARK SMILES IDX 3 34 2 35 1 36 36 37 37 38 38 39
REMARK H PARENT 11 29
REMARK Flexibility Score: inf
ROOT
ATOM      1  C   UNL     1      -0.450  -8.829  -4.145  1.00  0.00     0.014 C 
ENDROOT
BRANCH   1   2
ATOM      2  C   UNL     1      -1.071  -7.919  -5.231  1.00  0.00     0.042 C 
BRANCH   2   3
ATOM      3  C   UNL     1      -2.355  -8.515  -5.753  1.00  0.00     0.045 C 
ATOM      4  O   UNL     1      -2.577  -8.616  -6.986  1.00  0.00    -0.550 OA
ATOM      5  O   UNL     1      -3.328  -8.945  -4.855  1.00  0.00    -0.550 OA
ENDBRANCH   2   3
BRANCH   2   6
ATOM      6  C   UNL     1      -1.141  -6.398  -4.798  1.00  0.00     0.033 C 
ATOM      7  C   UNL     1      -1.710  -6.013  -3.417  1.00  0.00     0.119 C 
ATOM      8  C   UNL     1      -1.839  -5.426  -5.793  1.00  0.00    -0.017 C 
ATOM      9  C   UNL     1      -1.987  -4.494  -3.498  1.00  0.00     0.043 C 
ATOM     10  C   UNL     1      -1.824  -4.057  -4.990  1.00  0.00    -0.003 C 
ATOM     11  C   UNL     1      -3.307  -5.907  -6.133  1.00  0.00     0.012 C 
ATOM     12  C   UNL     1      -1.042  -5.352  -7.124  1.00  0.00     0.013 C 
ATOM     13  C   UNL     1      -0.443  -3.333  -5.109  1.00  0.00     0.017 C 
ATOM     14  C   UNL     1      -2.986  -3.110  -5.430  1.00  0.00    -0.064 C 
ATOM     15  C   UNL     1      -4.421  -5.103  -5.468  1.00  0.00     0.032 C 
ATOM     16  C   UNL     1      -4.219  -3.622  -5.710  1.00  0.00    -0.064 C 
ATOM     17  C   UNL     1      -2.787  -1.615  -5.604  1.00  0.00     0.032 C 
ATOM     18  C   UNL     1      -5.440  -2.725  -6.112  1.00  0.00    -0.008 C 
ATOM     19  C   UNL     1      -3.475  -1.169  -6.880  1.00  0.00     0.009 C 
ATOM     20  C   UNL     1      -5.016  -1.357  -6.826  1.00  0.00     0.009 C 
ATOM     21  C   UNL     1      -6.290  -2.491  -4.818  1.00  0.00     0.015 C 
ATOM     22  C   UNL     1      -6.338  -3.510  -7.118  1.00  0.00     0.016 C 
ATOM     23  C   UNL     1      -5.840  -0.083  -6.354  1.00  0.00     0.005 C 
ATOM     24  C   UNL     1      -5.897  -1.255  -3.999  1.00  0.00     0.047 C 
ATOM     25  C   UNL     1      -5.795   0.068  -4.797  1.00  0.00     0.182 C 
ATOM     26  C   UNL     1      -7.311  -0.178  -6.868  1.00  0.00     0.015 C 
ATOM     27  C   UNL     1      -5.280   1.218  -7.001  1.00  0.00     0.015 C 
BRANCH   7  28
ATOM     28  O   UNL     1      -2.905  -6.704  -3.149  1.00  0.00    -0.393 OA
ATOM     29  H   UNL     1      -2.647  -7.636  -2.915  1.00  0.00     0.210 HD
ENDBRANCH   7  28
BRANCH  25  30
ATOM     30  O   UNL     1      -6.821   0.965  -4.346  1.00  0.00    -0.462 OA
BRANCH  30  31
ATOM     31  C   UNL     1      -6.810   2.351  -4.553  1.00  0.00     0.302 C 
ATOM     32  O   UNL     1      -5.748   3.018  -4.431  1.00  0.00    -0.253 OA
ATOM     33  C   UNL     1      -8.091   3.062  -4.838  1.00  0.00     0.139 C 
ENDBRANCH  30  31
ENDBRANCH  25  30
ENDBRANCH   2   6
ENDBRANCH   1   2
BRANCH   1  34
ATOM     34  C   UNL     1       1.069  -9.065  -4.290  1.00  0.00     0.031 C 
BRANCH  34  35
ATOM     35  C   UNL     1       1.891  -8.106  -3.443  1.00  0.00    -0.075 C 
ATOM     36  C   UNL     1       3.008  -7.556  -3.951  1.00  0.00     0.008 C 
BRANCH  35  37
ATOM     37  C   UNL     1       1.476  -7.830  -2.002  1.00  0.00     0.008 C 
ATOM     38  C   UNL     1       2.421  -8.511  -1.005  1.00  0.00     0.012 C 
ATOM     39  C   UNL     1       1.362  -6.328  -1.712  1.00  0.00     0.012 C 
ENDBRANCH  35  37
ENDBRANCH  34  35
ENDBRANCH   1  34
TORSDOF 9
ENDMDL
MODEL 6
REMARK VINA RESULT:    -3.363      2.093      9.860
REMARK INTER + INTRA:          -5.669
REMARK INTER:                  -6.985
REMARK INTRA:                   1.315
REMARK UNBOUND:                -0.635
REMARK SMILES C=C(CC[C@@H](C(=O)[O-])[C@@H]1[C@H](O)C[C@]2(C)C3=C(CC[C@]12C)[C@@]1(C)CC[C@H](OC(C)=O)C(C)(C)[C@H]1CC3)C(C)C
REMARK SMILES IDX 4 1 5 2 6 3 7 4 8 5 9 6 10 7 19 8 12 9 13 10 18 11 20 12
REMARK SMILES IDX 14 13 15 14 17 15 16 16 35 17 21 18 34 19 33 20 23 21 22 22
REMARK SMILES IDX 30 23 24 24 25 25 31 26 32 27 11 28 26 30 27 31 29 32 28 33
REMARK SMILES IDX 3 34 2 35 1 36 36 37 37 38 38 39
REMARK H PARENT 11 29
REMARK Flexibility Score: inf
ROOT
ATOM      1  C   UNL     1      -1.233  -5.202  -3.540  1.00  0.00     0.014 C 
ENDROOT
BRANCH   1   2
ATOM      2  C   UNL     1      -1.152  -4.437  -4.883  1.00  0.00     0.042 C 
BRANCH   2   3
ATOM      3  C   UNL     1      -0.084  -5.032  -5.768  1.00  0.00     0.045 C 
ATOM      4  O   UNL     1       1.132  -4.762  -5.598  1.00  0.00    -0.550 OA
ATOM      5  O   UNL     1      -0.448  -5.883  -6.808  1.00  0.00    -0.550 OA
ENDBRANCH   2   3
BRANCH   2   6
ATOM      6  C   UNL     1      -2.567  -4.221  -5.558  1.00  0.00     0.033 C 
ATOM      7  C   UNL     1      -2.666  -3.596  -6.964  1.00  0.00     0.119 C 
ATOM      8  C   UNL     1      -3.627  -3.456  -4.714  1.00  0.00    -0.017 C 
ATOM      9  C   UNL     1      -4.148  -3.183  -7.125  1.00  0.00     0.043 C 
ATOM     10  C   UNL     1      -4.840  -3.332  -5.730  1.00  0.00    -0.003 C 
ATOM     11  C   UNL     1      -3.084  -2.043  -4.252  1.00  0.00     0.012 C 
ATOM     12  C   UNL     1      -3.991  -4.265  -3.439  1.00  0.00     0.013 C 
ATOM     13  C   UNL     1      -5.691  -4.643  -5.777  1.00  0.00     0.017 C 
ATOM     14  C   UNL     1      -5.742  -2.097  -5.414  1.00  0.00    -0.064 C 
ATOM     15  C   UNL     1      -3.666  -0.850  -5.003  1.00  0.00     0.032 C 
ATOM     16  C   UNL     1      -5.179  -0.921  -5.015  1.00  0.00    -0.064 C 
ATOM     17  C   UNL     1      -7.257  -2.161  -5.494  1.00  0.00     0.032 C 
ATOM     18  C   UNL     1      -6.021   0.370  -4.725  1.00  0.00    -0.008 C 
ATOM     19  C   UNL     1      -7.847  -1.459  -4.288  1.00  0.00     0.009 C 
ATOM     20  C   UNL     1      -7.520   0.060  -4.260  1.00  0.00     0.009 C 
ATOM     21  C   UNL     1      -5.961   1.260  -6.012  1.00  0.00     0.015 C 
ATOM     22  C   UNL     1      -5.339   1.175  -3.576  1.00  0.00     0.016 C 
ATOM     23  C   UNL     1      -8.621   1.004  -4.907  1.00  0.00     0.005 C 
ATOM     24  C   UNL     1      -7.074   0.996  -7.035  1.00  0.00     0.047 C 
ATOM     25  C   UNL     1      -8.514   1.001  -6.469  1.00  0.00     0.182 C 
ATOM     26  C   UNL     1      -8.485   2.451  -4.337  1.00  0.00     0.015 C 
ATOM     27  C   UNL     1     -10.055   0.553  -4.502  1.00  0.00     0.015 C 
BRANCH   7  28
ATOM     28  O   UNL     1      -1.839  -2.464  -7.076  1.00  0.00    -0.393 OA
ATOM     29  H   UNL     1      -1.312  -2.580  -7.912  1.00  0.00     0.210 HD
ENDBRANCH   7  28
BRANCH  25  30
ATOM     30  O   UNL     1      -9.232   2.112  -7.027  1.00  0.00    -0.462 OA
BRANCH  30  31
ATOM     31  C   UNL     1      -8.891   3.456  -6.828  1.00  0.00     0.302 C 
ATOM     32  O   UNL     1      -7.743   3.886  -7.117  1.00  0.00    -0.253 OA
ATOM     33  C   UNL     1      -9.874   4.375  -6.181  1.00  0.00     0.139 C 
ENDBRANCH  30  31
ENDBRANCH  25  30
ENDBRANCH   2   6
ENDBRANCH   1   2
BRANCH   1  34
ATOM     34  C   UNL     1      -1.021  -6.727  -3.651  1.00  0.00     0.031 C 
BRANCH  34  35
ATOM     35  C   UNL     1       0.057  -7.235  -2.706  1.00  0.00    -0.075 C 
ATOM     36  C   UNL     1      -0.265  -8.103  -1.729  1.00  0.00     0.008 C 
BRANCH  35  37
ATOM     37  C   UNL     1       1.481  -6.705  -2.834  1.00  0.00     0.008 C 
ATOM     38  C   UNL     1       2.229  -6.775  -1.497  1.00  0.00     0.012 C 
ATOM     39  C   UNL     1       2.266  -7.422  -3.940  1.00  0.00     0.012 C 
ENDBRANCH  35  37
ENDBRANCH  34  35
ENDBRANCH   1  34
TORSDOF 9
ENDMDL
MODEL 7
REMARK VINA RESULT:    -3.007      1.114      1.736
REMARK INTER + INTRA:          -5.137
REMARK INTER:                  -4.018
REMARK INTRA:                  -1.119
REMARK UNBOUND:                -0.635
REMARK SMILES C=C(CC[C@@H](C(=O)[O-])[C@@H]1[C@H](O)C[C@]2(C)C3=C(CC[C@]12C)[C@@]1(C)CC[C@H](OC(C)=O)C(C)(C)[C@H]1CC3)C(C)C
REMARK SMILES IDX 4 1 5 2 6 3 7 4 8 5 9 6 10 7 19 8 12 9 13 10 18 11 20 12
REMARK SMILES IDX 14 13 15 14 17 15 16 16 35 17 21 18 34 19 33 20 23 21 22 22
REMARK SMILES IDX 30 23 24 24 25 25 31 26 32 27 11 28 26 30 27 31 29 32 28 33
REMARK SMILES IDX 3 34 2 35 1 36 36 37 37 38 38 39
REMARK H PARENT 11 29
REMARK Flexibility Score: inf
ROOT
ATOM      1  C   UNL     1      -7.266   1.188  -6.192  1.00  0.00     0.014 C 
ENDROOT
BRANCH   1   2
ATOM      2  C   UNL     1      -5.844   0.583  -6.096  1.00  0.00     0.042 C 
BRANCH   2   3
ATOM      3  C   UNL     1      -4.840   1.645  -5.721  1.00  0.00     0.045 C 
ATOM      4  O   UNL     1      -3.804   1.839  -6.409  1.00  0.00    -0.550 OA
ATOM      5  O   UNL     1      -5.047   2.417  -4.583  1.00  0.00    -0.550 OA
ENDBRANCH   2   3
BRANCH   2   6
ATOM      6  C   UNL     1      -5.795  -0.746  -5.239  1.00  0.00     0.033 C 
ATOM      7  C   UNL     1      -5.079  -0.760  -3.873  1.00  0.00     0.119 C 
ATOM      8  C   UNL     1      -5.273  -2.020  -5.966  1.00  0.00    -0.017 C 
ATOM      9  C   UNL     1      -4.888  -2.255  -3.526  1.00  0.00     0.043 C 
ATOM     10  C   UNL     1      -5.255  -3.091  -4.795  1.00  0.00    -0.003 C 
ATOM     11  C   UNL     1      -3.836  -1.782  -6.584  1.00  0.00     0.012 C 
ATOM     12  C   UNL     1      -6.231  -2.411  -7.125  1.00  0.00     0.013 C 
ATOM     13  C   UNL     1      -6.674  -3.702  -4.549  1.00  0.00     0.017 C 
ATOM     14  C   UNL     1      -4.204  -4.218  -5.051  1.00  0.00    -0.064 C 
ATOM     15  C   UNL     1      -2.690  -2.448  -5.829  1.00  0.00     0.032 C 
ATOM     16  C   UNL     1      -2.992  -3.913  -5.596  1.00  0.00    -0.064 C 
ATOM     17  C   UNL     1      -4.495  -5.678  -4.751  1.00  0.00     0.032 C 
ATOM     18  C   UNL     1      -1.874  -4.987  -5.838  1.00  0.00    -0.008 C 
ATOM     19  C   UNL     1      -3.993  -6.529  -5.900  1.00  0.00     0.009 C 
ATOM     20  C   UNL     1      -2.450  -6.463  -6.064  1.00  0.00     0.009 C 
ATOM     21  C   UNL     1      -0.884  -4.904  -4.628  1.00  0.00     0.015 C 
ATOM     22  C   UNL     1      -1.070  -4.604  -7.119  1.00  0.00     0.016 C 
ATOM     23  C   UNL     1      -1.637  -7.609  -5.322  1.00  0.00     0.005 C 
ATOM     24  C   UNL     1      -1.232  -5.814  -3.442  1.00  0.00     0.047 C 
ATOM     25  C   UNL     1      -1.496  -7.297  -3.795  1.00  0.00     0.182 C 
ATOM     26  C   UNL     1      -0.237  -7.789  -5.991  1.00  0.00     0.015 C 
ATOM     27  C   UNL     1      -2.335  -8.990  -5.491  1.00  0.00     0.015 C 
BRANCH   7  28
ATOM     28  O   UNL     1      -3.828  -0.123  -3.948  1.00  0.00    -0.393 OA
ATOM     29  H   UNL     1      -3.211  -0.640  -3.364  1.00  0.00     0.210 HD
ENDBRANCH   7  28
BRANCH  25  30
ATOM     30  O   UNL     1      -0.467  -8.107  -3.206  1.00  0.00    -0.462 OA
BRANCH  30  31
ATOM     31  C   UNL     1       0.300  -7.730  -2.097  1.00  0.00     0.302 C 
ATOM     32  O   UNL     1      -0.241  -7.252  -1.064  1.00  0.00    -0.253 OA
ATOM     33  C   UNL     1       1.789  -7.811  -2.171  1.00  0.00     0.139 C 
ENDBRANCH  30  31
ENDBRANCH  25  30
ENDBRANCH   2   6
ENDBRANCH   1   2
BRANCH   1  34
ATOM     34  C   UNL     1      -8.243   0.401  -7.091  1.00  0.00     0.031 C 
BRANCH  34  35
ATOM     35  C   UNL     1      -9.682   0.491  -6.606  1.00  0.00    -0.075 C 
ATOM     36  C   UNL     1     -10.347   1.657  -6.700  1.00  0.00     0.008 C 
BRANCH  35  37
ATOM     37  C   UNL     1     -10.335  -0.725  -5.957  1.00  0.00     0.008 C 
ATOM     38  C   UNL     1     -10.208  -1.970  -6.843  1.00  0.00     0.012 C 
ATOM     39  C   UNL     1      -9.785  -0.994  -4.551  1.00  0.00     0.012 C 
ENDBRANCH  35  37
ENDBRANCH  34  35
ENDBRANCH   1  34
TORSDOF 9
ENDMDL
