MODEL 1
REMARK VINA RESULT:    -4.100      0.000      0.000
REMARK INTER + INTRA:          -4.438
REMARK INTER:                  -4.339
REMARK INTRA:                  -0.098
REMARK UNBOUND:                -0.098
REMARK SMILES C=C(C)[C@H]1CC=C(C)C(=O)C1
REMARK SMILES IDX 8 1 7 2 6 3 5 4 4 5 11 6 9 7 10 8 2 9 1 10 3 11
REMARK H PARENT
REMARK Flexibility Score: inf
ROOT
ATOM      1  C   UNL     1      18.577  25.559  28.144  1.00  0.00     0.048 C 
ATOM      2  C   UNL     1      19.916  26.109  28.549  1.00  0.00    -0.012 C 
ATOM      3  C   UNL     1      21.042  25.514  28.120  1.00  0.00    -0.019 C 
ATOM      4  C   UNL     1      22.408  26.012  28.510  1.00  0.00     0.036 C 
ATOM      5  C   UNL     1      22.410  27.541  28.689  1.00  0.00     0.025 C 
ATOM      6  C   UNL     1      21.325  27.963  29.697  1.00  0.00     0.089 C 
ATOM      7  C   UNL     1      19.994  27.377  29.317  1.00  0.00     0.158 C 
ATOM      8  O   UNL     1      18.938  27.957  29.690  1.00  0.00    -0.295 OA
ENDROOT
BRANCH   5   9
ATOM      9  C   UNL     1      23.783  28.053  29.102  1.00  0.00    -0.077 C 
ATOM     10  C   UNL     1      23.893  29.175  29.831  1.00  0.00     0.008 C 
ATOM     11  C   UNL     1      25.045  27.322  28.712  1.00  0.00     0.039 C 
ENDBRANCH   5   9
TORSDOF 1
ENDMDL
MODEL 2
REMARK VINA RESULT:    -4.077      2.381      3.771
REMARK INTER + INTRA:          -4.413
REMARK INTER:                  -4.317
REMARK INTRA:                  -0.097
REMARK UNBOUND:                -0.098
REMARK SMILES C=C(C)[C@H]1CC=C(C)C(=O)C1
REMARK SMILES IDX 8 1 7 2 6 3 5 4 4 5 11 6 9 7 10 8 2 9 1 10 3 11
REMARK H PARENT
REMARK Flexibility Score: inf
ROOT
ATOM      1  C   UNL     1      20.526  24.007  27.067  1.00  0.00     0.048 C 
ATOM      2  C   UNL     1      20.248  25.380  27.614  1.00  0.00    -0.012 C 
ATOM      3  C   UNL     1      19.028  25.924  27.466  1.00  0.00    -0.019 C 
ATOM      4  C   UNL     1      18.701  27.302  27.978  1.00  0.00     0.036 C 
ATOM      5  C   UNL     1      19.495  27.620  29.258  1.00  0.00     0.025 C 
ATOM      6  C   UNL     1      21.004  27.433  29.011  1.00  0.00     0.089 C 
ATOM      7  C   UNL     1      21.279  26.076  28.423  1.00  0.00     0.158 C 
ATOM      8  O   UNL     1      22.411  25.551  28.594  1.00  0.00    -0.295 OA
ENDROOT
BRANCH   5   9
ATOM      9  C   UNL     1      19.185  29.018  29.773  1.00  0.00    -0.077 C 
ATOM     10  C   UNL     1      19.116  30.052  28.919  1.00  0.00     0.008 C 
ATOM     11  C   UNL     1      18.949  29.281  31.241  1.00  0.00     0.039 C 
ENDBRANCH   5   9
TORSDOF 1
ENDMDL
MODEL 3
REMARK VINA RESULT:    -4.045      1.944      4.574
REMARK INTER + INTRA:          -4.380
REMARK INTER:                  -4.284
REMARK INTRA:                  -0.096
REMARK UNBOUND:                -0.098
REMARK SMILES C=C(C)[C@H]1CC=C(C)C(=O)C1
REMARK SMILES IDX 8 1 7 2 6 3 5 4 4 5 11 6 9 7 10 8 2 9 1 10 3 11
REMARK H PARENT
REMARK Flexibility Score: inf
ROOT
ATOM      1  C   UNL     1      23.627  29.308  30.032  1.00  0.00     0.048 C 
ATOM      2  C   UNL     1      22.715  28.197  29.591  1.00  0.00    -0.012 C 
ATOM      3  C   UNL     1      21.392  28.294  29.805  1.00  0.00    -0.019 C 
ATOM      4  C   UNL     1      20.435  27.204  29.399  1.00  0.00     0.036 C 
ATOM      5  C   UNL     1      20.921  26.484  28.128  1.00  0.00     0.025 C 
ATOM      6  C   UNL     1      22.355  25.958  28.327  1.00  0.00     0.089 C 
ATOM      7  C   UNL     1      23.259  27.058  28.811  1.00  0.00     0.158 C 
ATOM      8  O   UNL     1      24.496  26.983  28.578  1.00  0.00    -0.295 OA
ENDROOT
BRANCH   5   9
ATOM      9  C   UNL     1      19.970  25.368  27.721  1.00  0.00    -0.077 C 
ATOM     10  C   UNL     1      18.652  25.488  27.949  1.00  0.00     0.008 C 
ATOM     11  C   UNL     1      20.474  24.109  27.057  1.00  0.00     0.039 C 
ENDBRANCH   5   9
TORSDOF 1
ENDMDL
MODEL 4
REMARK VINA RESULT:    -4.015      2.015      4.919
REMARK INTER + INTRA:          -4.348
REMARK INTER:                  -4.250
REMARK INTRA:                  -0.098
REMARK UNBOUND:                -0.098
REMARK SMILES C=C(C)[C@H]1CC=C(C)C(=O)C1
REMARK SMILES IDX 8 1 7 2 6 3 5 4 4 5 11 6 9 7 10 8 2 9 1 10 3 11
REMARK H PARENT
REMARK Flexibility Score: inf
ROOT
ATOM      1  C   UNL     1      23.316  26.671  28.501  1.00  0.00     0.048 C 
ATOM      2  C   UNL     1      21.818  26.659  28.621  1.00  0.00    -0.012 C 
ATOM      3  C   UNL     1      21.168  27.772  29.001  1.00  0.00    -0.019 C 
ATOM      4  C   UNL     1      19.670  27.809  29.154  1.00  0.00     0.036 C 
ATOM      5  C   UNL     1      18.986  26.870  28.145  1.00  0.00     0.025 C 
ATOM      6  C   UNL     1      19.550  25.443  28.276  1.00  0.00     0.089 C 
ATOM      7  C   UNL     1      21.052  25.459  28.201  1.00  0.00     0.158 C 
ATOM      8  O   UNL     1      21.658  24.425  27.809  1.00  0.00    -0.295 OA
ENDROOT
BRANCH   5   9
ATOM      9  C   UNL     1      17.472  26.886  28.305  1.00  0.00    -0.077 C 
ATOM     10  C   UNL     1      16.869  27.922  28.910  1.00  0.00     0.008 C 
ATOM     11  C   UNL     1      16.615  25.753  27.794  1.00  0.00     0.039 C 
ENDBRANCH   5   9
TORSDOF 1
ENDMDL
MODEL 5
REMARK VINA RESULT:    -4.015      2.392      5.056
REMARK INTER + INTRA:          -4.347
REMARK INTER:                  -4.250
REMARK INTRA:                  -0.097
REMARK UNBOUND:                -0.098
REMARK SMILES C=C(C)[C@H]1CC=C(C)C(=O)C1
REMARK SMILES IDX 8 1 7 2 6 3 5 4 4 5 11 6 9 7 10 8 2 9 1 10 3 11
REMARK H PARENT
REMARK Flexibility Score: inf
ROOT
ATOM      1  C   UNL     1      25.765  30.172  29.605  1.00  0.00     0.048 C 
ATOM      2  C   UNL     1      24.623  29.194  29.555  1.00  0.00    -0.012 C 
ATOM      3  C   UNL     1      23.482  29.465  30.209  1.00  0.00    -0.019 C 
ATOM      4  C   UNL     1      22.315  28.513  30.207  1.00  0.00     0.036 C 
ATOM      5  C   UNL     1      22.232  27.740  28.878  1.00  0.00     0.025 C 
ATOM      6  C   UNL     1      23.567  27.028  28.590  1.00  0.00     0.089 C 
ATOM      7  C   UNL     1      24.714  27.996  28.683  1.00  0.00     0.158 C 
ATOM      8  O   UNL     1      25.771  27.759  28.040  1.00  0.00    -0.295 OA
ENDROOT
BRANCH   5   9
ATOM      9  C   UNL     1      21.066  26.762  28.874  1.00  0.00    -0.077 C 
ATOM     10  C   UNL     1      21.240  25.505  29.313  1.00  0.00     0.008 C 
ATOM     11  C   UNL     1      19.699  27.170  28.382  1.00  0.00     0.039 C 
ENDBRANCH   5   9
TORSDOF 1
ENDMDL
MODEL 6
REMARK VINA RESULT:    -4.003      4.019      5.450
REMARK INTER + INTRA:          -4.335
REMARK INTER:                  -4.236
REMARK INTRA:                  -0.099
REMARK UNBOUND:                -0.098
REMARK SMILES C=C(C)[C@H]1CC=C(C)C(=O)C1
REMARK SMILES IDX 8 1 7 2 6 3 5 4 4 5 11 6 9 7 10 8 2 9 1 10 3 11
REMARK H PARENT
REMARK Flexibility Score: inf
ROOT
ATOM      1  C   UNL     1      16.309  33.014  29.755  1.00  0.00     0.048 C 
ATOM      2  C   UNL     1      17.222  31.825  29.635  1.00  0.00    -0.012 C 
ATOM      3  C   UNL     1      16.702  30.587  29.578  1.00  0.00    -0.019 C 
ATOM      4  C   UNL     1      17.571  29.360  29.476  1.00  0.00     0.036 C 
ATOM      5  C   UNL     1      18.854  29.654  28.678  1.00  0.00     0.025 C 
ATOM      6  C   UNL     1      19.604  30.851  29.294  1.00  0.00     0.089 C 
ATOM      7  C   UNL     1      18.681  32.027  29.455  1.00  0.00     0.158 C 
ATOM      8  O   UNL     1      19.166  33.190  29.472  1.00  0.00    -0.295 OA
ENDROOT
BRANCH   5   9
ATOM      9  C   UNL     1      19.747  28.426  28.586  1.00  0.00    -0.077 C 
ATOM     10  C   UNL     1      21.059  28.525  28.854  1.00  0.00     0.008 C 
ATOM     11  C   UNL     1      19.192  27.077  28.197  1.00  0.00     0.039 C 
ENDBRANCH   5   9
TORSDOF 1
ENDMDL
MODEL 7
REMARK VINA RESULT:    -3.996      1.813      2.610
REMARK INTER + INTRA:          -4.328
REMARK INTER:                  -4.230
REMARK INTRA:                  -0.098
REMARK UNBOUND:                -0.098
REMARK SMILES C=C(C)[C@H]1CC=C(C)C(=O)C1
REMARK SMILES IDX 8 1 7 2 6 3 5 4 4 5 11 6 9 7 10 8 2 9 1 10 3 11
REMARK H PARENT
REMARK Flexibility Score: inf
ROOT
ATOM      1  C   UNL     1      20.163  23.912  26.747  1.00  0.00     0.048 C 
ATOM      2  C   UNL     1      20.379  25.122  27.613  1.00  0.00    -0.012 C 
ATOM      3  C   UNL     1      21.623  25.457  27.994  1.00  0.00    -0.019 C 
ATOM      4  C   UNL     1      21.895  26.648  28.876  1.00  0.00     0.036 C 
ATOM      5  C   UNL     1      20.880  27.775  28.613  1.00  0.00     0.025 C 
ATOM      6  C   UNL     1      19.442  27.248  28.771  1.00  0.00     0.089 C 
ATOM      7  C   UNL     1      19.237  26.012  27.939  1.00  0.00     0.158 C 
ATOM      8  O   UNL     1      18.074  25.718  27.551  1.00  0.00    -0.295 OA
ENDROOT
BRANCH   5   9
ATOM      9  C   UNL     1      21.134  28.976  29.512  1.00  0.00    -0.077 C 
ATOM     10  C   UNL     1      21.970  28.870  30.558  1.00  0.00     0.008 C 
ATOM     11  C   UNL     1      20.465  30.305  29.258  1.00  0.00     0.039 C 
ENDBRANCH   5   9
TORSDOF 1
ENDMDL
MODEL 8
REMARK VINA RESULT:    -3.914      3.007      5.122
REMARK INTER + INTRA:          -4.241
REMARK INTER:                  -4.145
REMARK INTRA:                  -0.097
REMARK UNBOUND:                -0.098
REMARK SMILES C=C(C)[C@H]1CC=C(C)C(=O)C1
REMARK SMILES IDX 8 1 7 2 6 3 5 4 4 5 11 6 9 7 10 8 2 9 1 10 3 11
REMARK H PARENT
REMARK Flexibility Score: inf
ROOT
ATOM      1  C   UNL     1      18.363  31.774  29.681  1.00  0.00     0.048 C 
ATOM      2  C   UNL     1      18.415  30.307  29.357  1.00  0.00    -0.012 C 
ATOM      3  C   UNL     1      17.280  29.589  29.326  1.00  0.00    -0.019 C 
ATOM      4  C   UNL     1      17.277  28.113  29.026  1.00  0.00     0.036 C 
ATOM      5  C   UNL     1      18.405  27.744  28.045  1.00  0.00     0.025 C 
ATOM      6  C   UNL     1      19.763  28.227  28.586  1.00  0.00     0.089 C 
ATOM      7  C   UNL     1      19.700  29.684  28.951  1.00  0.00     0.158 C 
ATOM      8  O   UNL     1      20.760  30.365  28.945  1.00  0.00    -0.295 OA
ENDROOT
BRANCH   5   9
ATOM      9  C   UNL     1      18.422  26.251  27.749  1.00  0.00    -0.077 C 
ATOM     10  C   UNL     1      17.283  25.542  27.796  1.00  0.00     0.008 C 
ATOM     11  C   UNL     1      19.703  25.534  27.399  1.00  0.00     0.039 C 
ENDBRANCH   5   9
TORSDOF 1
ENDMDL
MODEL 9
REMARK VINA RESULT:    -3.907      2.115      3.256
REMARK INTER + INTRA:          -4.234
REMARK INTER:                  -4.141
REMARK INTRA:                  -0.093
REMARK UNBOUND:                -0.098
REMARK SMILES C=C(C)[C@H]1CC=C(C)C(=O)C1
REMARK SMILES IDX 8 1 7 2 6 3 5 4 4 5 11 6 9 7 10 8 2 9 1 10 3 11
REMARK H PARENT
REMARK Flexibility Score: inf
ROOT
ATOM      1  C   UNL     1      20.809  24.037  27.068  1.00  0.00     0.048 C 
ATOM      2  C   UNL     1      20.550  25.322  27.803  1.00  0.00    -0.012 C 
ATOM      3  C   UNL     1      21.583  26.055  28.252  1.00  0.00    -0.019 C 
ATOM      4  C   UNL     1      21.380  27.341  29.010  1.00  0.00     0.036 C 
ATOM      5  C   UNL     1      20.116  28.075  28.528  1.00  0.00     0.025 C 
ATOM      6  C   UNL     1      18.891  27.145  28.618  1.00  0.00     0.089 C 
ATOM      7  C   UNL     1      19.165  25.841  27.921  1.00  0.00     0.158 C 
ATOM      8  O   UNL     1      18.197  25.172  27.467  1.00  0.00    -0.295 OA
ENDROOT
BRANCH   5   9
ATOM      9  C   UNL     1      19.891  29.366  29.301  1.00  0.00    -0.077 C 
ATOM     10  C   UNL     1      19.033  30.289  28.838  1.00  0.00     0.008 C 
ATOM     11  C   UNL     1      20.617  29.644  30.595  1.00  0.00     0.039 C 
ENDBRANCH   5   9
TORSDOF 1
ENDMDL
