MODEL 1
REMARK VINA RESULT:    -5.134      0.000      0.000
REMARK INTER + INTRA:          -5.775
REMARK INTER:                  -5.735
REMARK INTRA:                  -0.041
REMARK UNBOUND:                -0.041
REMARK SMILES O=C([O-])c1ccc(O)c(O)c1
REMARK SMILES IDX 4 1 11 2 5 3 9 4 6 5 7 6 2 7 1 8 3 9 10 10 8 12
REMARK H PARENT 10 11 8 13
REMARK Flexibility Score: inf
ROOT
ATOM      1  C   UNL     1     109.589 121.238 121.718  1.00  0.00     0.001 A 
ATOM      2  C   UNL     1     110.834 120.587 121.751  1.00  0.00     0.060 A 
ATOM      3  C   UNL     1     108.747 121.038 120.612  1.00  0.00     0.014 A 
ATOM      4  C   UNL     1     111.238 119.749 120.704  1.00  0.00     0.158 A 
ATOM      5  C   UNL     1     109.142 120.205 119.564  1.00  0.00     0.051 A 
ATOM      6  C   UNL     1     110.380 119.555 119.595  1.00  0.00     0.157 A 
ENDROOT
BRANCH   1   7
ATOM      7  C   UNL     1     109.175 122.120 122.831  1.00  0.00     0.072 C 
ATOM      8  O   UNL     1     110.009 122.882 123.390  1.00  0.00    -0.545 OA
ATOM      9  O   UNL     1     107.858 122.119 123.278  1.00  0.00    -0.545 OA
ENDBRANCH   1   7
BRANCH   4  10
ATOM     10  O   UNL     1     112.488 119.135 120.806  1.00  0.00    -0.504 OA
ATOM     11  H   UNL     1     113.208 119.422 121.453  1.00  0.00     0.293 HD
ENDBRANCH   4  10
BRANCH   6  12
ATOM     12  O   UNL     1     110.715 118.736 118.516  1.00  0.00    -0.504 OA
ATOM     13  H   UNL     1     110.757 117.728 118.564  1.00  0.00     0.293 HD
ENDBRANCH   6  12
TORSDOF 3
ENDMDL
MODEL 2
REMARK VINA RESULT:    -4.933      1.585      2.825
REMARK INTER + INTRA:          -5.551
REMARK INTER:                  -5.511
REMARK INTRA:                  -0.040
REMARK UNBOUND:                -0.041
REMARK SMILES O=C([O-])c1ccc(O)c(O)c1
REMARK SMILES IDX 4 1 11 2 5 3 9 4 6 5 7 6 2 7 1 8 3 9 10 10 8 12
REMARK H PARENT 10 11 8 13
REMARK Flexibility Score: inf
ROOT
ATOM      1  C   UNL     1     108.564 120.953 120.493  1.00  0.00     0.001 A 
ATOM      2  C   UNL     1     109.077 120.139 119.469  1.00  0.00     0.060 A 
ATOM      3  C   UNL     1     109.341 121.169 121.643  1.00  0.00     0.014 A 
ATOM      4  C   UNL     1     110.341 119.547 119.583  1.00  0.00     0.158 A 
ATOM      5  C   UNL     1     110.602 120.582 121.764  1.00  0.00     0.051 A 
ATOM      6  C   UNL     1     111.114 119.772 120.746  1.00  0.00     0.157 A 
ENDROOT
BRANCH   1   7
ATOM      7  C   UNL     1     107.227 121.572 120.359  1.00  0.00     0.072 C 
ATOM      8  O   UNL     1     106.420 121.572 121.326  1.00  0.00    -0.545 OA
ATOM      9  O   UNL     1     106.842 122.164 119.160  1.00  0.00    -0.545 OA
ENDBRANCH   1   7
BRANCH   4  10
ATOM     10  O   UNL     1     110.785 118.751 118.525  1.00  0.00    -0.504 OA
ATOM     11  H   UNL     1     110.210 118.072 118.048  1.00  0.00     0.293 HD
ENDBRANCH   4  10
BRANCH   6  12
ATOM     12  O   UNL     1     112.381 119.216 120.929  1.00  0.00    -0.504 OA
ATOM     13  H   UNL     1     112.567 118.412 121.512  1.00  0.00     0.293 HD
ENDBRANCH   6  12
TORSDOF 3
ENDMDL
MODEL 3
REMARK VINA RESULT:    -4.897      0.940      2.092
REMARK INTER + INTRA:          -5.511
REMARK INTER:                  -5.469
REMARK INTRA:                  -0.042
REMARK UNBOUND:                -0.041
REMARK SMILES O=C([O-])c1ccc(O)c(O)c1
REMARK SMILES IDX 4 1 11 2 5 3 9 4 6 5 7 6 2 7 1 8 3 9 10 10 8 12
REMARK H PARENT 10 11 8 13
REMARK Flexibility Score: inf
ROOT
ATOM      1  C   UNL     1     109.912 121.286 121.776  1.00  0.00     0.001 A 
ATOM      2  C   UNL     1     108.907 120.996 120.838  1.00  0.00     0.060 A 
ATOM      3  C   UNL     1     111.160 120.653 121.654  1.00  0.00     0.014 A 
ATOM      4  C   UNL     1     109.135 120.091 119.794  1.00  0.00     0.158 A 
ATOM      5  C   UNL     1     111.395 119.749 120.616  1.00  0.00     0.051 A 
ATOM      6  C   UNL     1     110.396 119.459 119.681  1.00  0.00     0.157 A 
ENDROOT
BRANCH   1   7
ATOM      7  C   UNL     1     109.657 122.245 122.874  1.00  0.00     0.072 C 
ATOM      8  O   UNL     1     110.588 122.962 123.328  1.00  0.00    -0.545 OA
ATOM      9  O   UNL     1     108.384 122.367 123.421  1.00  0.00    -0.545 OA
ENDBRANCH   1   7
BRANCH   4  10
ATOM     10  O   UNL     1     108.090 119.851 118.899  1.00  0.00    -0.504 OA
ATOM     11  H   UNL     1     107.764 118.931 118.644  1.00  0.00     0.293 HD
ENDBRANCH   4  10
BRANCH   6  12
ATOM     12  O   UNL     1     110.695 118.547 118.667  1.00  0.00    -0.504 OA
ATOM     13  H   UNL     1     110.940 118.811 117.724  1.00  0.00     0.293 HD
ENDBRANCH   6  12
TORSDOF 3
ENDMDL
MODEL 4
REMARK VINA RESULT:    -4.771      2.271      3.143
REMARK INTER + INTRA:          -5.370
REMARK INTER:                  -5.332
REMARK INTRA:                  -0.038
REMARK UNBOUND:                -0.041
REMARK SMILES O=C([O-])c1ccc(O)c(O)c1
REMARK SMILES IDX 4 1 11 2 5 3 9 4 6 5 7 6 2 7 1 8 3 9 10 10 8 12
REMARK H PARENT 10 11 8 13
REMARK Flexibility Score: inf
ROOT
ATOM      1  C   UNL     1     108.550 120.742 119.547  1.00  0.00     0.001 A 
ATOM      2  C   UNL     1     109.244 121.321 120.623  1.00  0.00     0.060 A 
ATOM      3  C   UNL     1     109.112 119.633 118.894  1.00  0.00     0.014 A 
ATOM      4  C   UNL     1     110.477 120.807 121.046  1.00  0.00     0.158 A 
ATOM      5  C   UNL     1     110.340 119.116 119.308  1.00  0.00     0.051 A 
ATOM      6  C   UNL     1     111.033 119.690 120.380  1.00  0.00     0.157 A 
ENDROOT
BRANCH   1   7
ATOM      7  C   UNL     1     107.249 121.294 119.112  1.00  0.00     0.072 C 
ATOM      8  O   UNL     1     107.146 122.503 118.771  1.00  0.00    -0.545 OA
ATOM      9  O   UNL     1     106.117 120.485 119.073  1.00  0.00    -0.545 OA
ENDBRANCH   1   7
BRANCH   4  10
ATOM     10  O   UNL     1     111.109 121.434 122.122  1.00  0.00    -0.504 OA
ATOM     11  H   UNL     1     110.621 121.921 122.860  1.00  0.00     0.293 HD
ENDBRANCH   4  10
BRANCH   6  12
ATOM     12  O   UNL     1     112.256 119.125 120.745  1.00  0.00    -0.504 OA
ATOM     13  H   UNL     1     112.630 119.145 121.683  1.00  0.00     0.293 HD
ENDBRANCH   6  12
TORSDOF 3
ENDMDL
MODEL 5
REMARK VINA RESULT:    -4.549      1.605      4.520
REMARK INTER + INTRA:          -5.121
REMARK INTER:                  -5.080
REMARK INTRA:                  -0.042
REMARK UNBOUND:                -0.041
REMARK SMILES O=C([O-])c1ccc(O)c(O)c1
REMARK SMILES IDX 4 1 11 2 5 3 9 4 6 5 7 6 2 7 1 8 3 9 10 10 8 12
REMARK H PARENT 10 11 8 13
REMARK Flexibility Score: inf
ROOT
ATOM      1  C   UNL     1     109.763 120.133 120.682  1.00  0.00     0.001 A 
ATOM      2  C   UNL     1     108.732 120.759 119.962  1.00  0.00     0.060 A 
ATOM      3  C   UNL     1     109.653 120.031 122.079  1.00  0.00     0.014 A 
ATOM      4  C   UNL     1     107.607 121.278 120.617  1.00  0.00     0.158 A 
ATOM      5  C   UNL     1     108.536 120.546 122.739  1.00  0.00     0.051 A 
ATOM      6  C   UNL     1     107.508 121.169 122.024  1.00  0.00     0.157 A 
ENDROOT
BRANCH   1   7
ATOM      7  C   UNL     1     110.945 119.589 119.978  1.00  0.00     0.072 C 
ATOM      8  O   UNL     1     112.079 119.597 120.526  1.00  0.00    -0.545 OA
ATOM      9  O   UNL     1     110.820 119.062 118.696  1.00  0.00    -0.545 OA
ENDBRANCH   1   7
BRANCH   4  10
ATOM     10  O   UNL     1     106.622 121.887 119.837  1.00  0.00    -0.504 OA
ATOM     11  H   UNL     1     106.581 121.827 118.830  1.00  0.00     0.293 HD
ENDBRANCH   4  10
BRANCH   6  12
ATOM     12  O   UNL     1     106.418 121.662 122.744  1.00  0.00    -0.504 OA
ATOM     13  H   UNL     1     105.793 122.378 122.403  1.00  0.00     0.293 HD
ENDBRANCH   6  12
TORSDOF 3
ENDMDL
MODEL 6
REMARK VINA RESULT:    -4.445      1.157      4.620
REMARK INTER + INTRA:          -5.006
REMARK INTER:                  -4.962
REMARK INTRA:                  -0.044
REMARK UNBOUND:                -0.041
REMARK SMILES O=C([O-])c1ccc(O)c(O)c1
REMARK SMILES IDX 4 1 11 2 5 3 9 4 6 5 7 6 2 7 1 8 3 9 10 10 8 12
REMARK H PARENT 10 11 8 13
REMARK Flexibility Score: inf
ROOT
ATOM      1  C   UNL     1     109.827 120.471 121.018  1.00  0.00     0.001 A 
ATOM      2  C   UNL     1     108.461 120.475 121.349  1.00  0.00     0.060 A 
ATOM      3  C   UNL     1     110.697 121.328 121.712  1.00  0.00     0.014 A 
ATOM      4  C   UNL     1     107.965 121.316 122.353  1.00  0.00     0.158 A 
ATOM      5  C   UNL     1     110.210 122.170 122.713  1.00  0.00     0.051 A 
ATOM      6  C   UNL     1     108.851 122.175 123.045  1.00  0.00     0.157 A 
ENDROOT
BRANCH   1   7
ATOM      7  C   UNL     1     110.337 119.577 119.956  1.00  0.00     0.072 C 
ATOM      8  O   UNL     1     111.568 119.320 119.870  1.00  0.00    -0.545 OA
ATOM      9  O   UNL     1     109.464 119.006 119.036  1.00  0.00    -0.545 OA
ENDBRANCH   1   7
BRANCH   4  10
ATOM     10  O   UNL     1     106.597 121.267 122.627  1.00  0.00    -0.504 OA
ATOM     11  H   UNL     1     105.896 121.769 122.102  1.00  0.00     0.293 HD
ENDBRANCH   4  10
BRANCH   6  12
ATOM     12  O   UNL     1     108.429 123.040 124.056  1.00  0.00    -0.504 OA
ATOM     13  H   UNL     1     107.505 123.444 124.104  1.00  0.00     0.293 HD
ENDBRANCH   6  12
TORSDOF 3
ENDMDL
MODEL 7
REMARK VINA RESULT:    -4.415      4.314      5.798
REMARK INTER + INTRA:          -4.972
REMARK INTER:                  -4.929
REMARK INTRA:                  -0.043
REMARK UNBOUND:                -0.041
REMARK SMILES O=C([O-])c1ccc(O)c(O)c1
REMARK SMILES IDX 4 1 11 2 5 3 9 4 6 5 7 6 2 7 1 8 3 9 10 10 8 12
REMARK H PARENT 10 11 8 13
REMARK Flexibility Score: inf
ROOT
ATOM      1  C   UNL     1     107.422 122.057 119.109  1.00  0.00     0.001 A 
ATOM      2  C   UNL     1     107.834 123.154 118.334  1.00  0.00     0.060 A 
ATOM      3  C   UNL     1     106.064 121.934 119.445  1.00  0.00     0.014 A 
ATOM      4  C   UNL     1     106.913 124.116 117.898  1.00  0.00     0.158 A 
ATOM      5  C   UNL     1     105.140 122.887 119.015  1.00  0.00     0.051 A 
ATOM      6  C   UNL     1     105.547 123.980 118.243  1.00  0.00     0.157 A 
ENDROOT
BRANCH   1   7
ATOM      7  C   UNL     1     108.406 121.050 119.561  1.00  0.00     0.072 C 
ATOM      8  O   UNL     1     108.037 119.884 119.866  1.00  0.00    -0.545 OA
ATOM      9  O   UNL     1     109.755 121.376 119.658  1.00  0.00    -0.545 OA
ENDBRANCH   1   7
BRANCH   4  10
ATOM     10  O   UNL     1     107.394 125.179 117.131  1.00  0.00    -0.504 OA
ATOM     11  H   UNL     1     108.352 125.497 117.143  1.00  0.00     0.293 HD
ENDBRANCH   4  10
BRANCH   6  12
ATOM     12  O   UNL     1     104.574 124.898 117.845  1.00  0.00    -0.504 OA
ATOM     13  H   UNL     1     104.243 124.994 116.896  1.00  0.00     0.293 HD
ENDBRANCH   6  12
TORSDOF 3
ENDMDL
MODEL 8
REMARK VINA RESULT:    -4.332      2.557      3.418
REMARK INTER + INTRA:          -4.879
REMARK INTER:                  -4.838
REMARK INTRA:                  -0.041
REMARK UNBOUND:                -0.041
REMARK SMILES O=C([O-])c1ccc(O)c(O)c1
REMARK SMILES IDX 4 1 11 2 5 3 9 4 6 5 7 6 2 7 1 8 3 9 10 10 8 12
REMARK H PARENT 10 11 8 13
REMARK Flexibility Score: inf
ROOT
ATOM      1  C   UNL     1     108.414 121.361 120.236  1.00  0.00     0.001 A 
ATOM      2  C   UNL     1     109.756 120.951 120.158  1.00  0.00     0.060 A 
ATOM      3  C   UNL     1     107.673 121.049 121.388  1.00  0.00     0.014 A 
ATOM      4  C   UNL     1     110.355 120.242 121.208  1.00  0.00     0.158 A 
ATOM      5  C   UNL     1     108.263 120.343 122.437  1.00  0.00     0.051 A 
ATOM      6  C   UNL     1     109.598 119.934 122.363  1.00  0.00     0.157 A 
ENDROOT
BRANCH   1   7
ATOM      7  C   UNL     1     107.795 122.109 119.120  1.00  0.00     0.072 C 
ATOM      8  O   UNL     1     106.584 121.928 118.820  1.00  0.00    -0.545 OA
ATOM      9  O   UNL     1     108.541 123.023 118.384  1.00  0.00    -0.545 OA
ENDBRANCH   1   7
BRANCH   4  10
ATOM     10  O   UNL     1     111.692 119.867 121.061  1.00  0.00    -0.504 OA
ATOM     11  H   UNL     1     112.300 120.214 120.334  1.00  0.00     0.293 HD
ENDBRANCH   4  10
BRANCH   6  12
ATOM     12  O   UNL     1     110.128 119.232 123.447  1.00  0.00    -0.504 OA
ATOM     13  H   UNL     1     110.818 118.500 123.363  1.00  0.00     0.293 HD
ENDBRANCH   6  12
TORSDOF 3
ENDMDL
MODEL 9
REMARK VINA RESULT:    -4.314      1.485      1.945
REMARK INTER + INTRA:          -4.859
REMARK INTER:                  -4.823
REMARK INTRA:                  -0.036
REMARK UNBOUND:                -0.041
REMARK SMILES O=C([O-])c1ccc(O)c(O)c1
REMARK SMILES IDX 4 1 11 2 5 3 9 4 6 5 7 6 2 7 1 8 3 9 10 10 8 12
REMARK H PARENT 10 11 8 13
REMARK Flexibility Score: inf
ROOT
ATOM      1  C   UNL     1     108.219 120.162 121.327  1.00  0.00     0.001 A 
ATOM      2  C   UNL     1     109.572 120.125 121.702  1.00  0.00     0.060 A 
ATOM      3  C   UNL     1     107.872 119.852 120.002  1.00  0.00     0.014 A 
ATOM      4  C   UNL     1     110.568 119.783 120.778  1.00  0.00     0.158 A 
ATOM      5  C   UNL     1     108.858 119.511 119.074  1.00  0.00     0.051 A 
ATOM      6  C   UNL     1     110.206 119.472 119.446  1.00  0.00     0.157 A 
ENDROOT
BRANCH   1   7
ATOM      7  C   UNL     1     107.178 120.524 122.314  1.00  0.00     0.072 C 
ATOM      8  O   UNL     1     106.445 119.637 122.827  1.00  0.00    -0.545 OA
ATOM      9  O   UNL     1     106.994 121.851 122.690  1.00  0.00    -0.545 OA
ENDBRANCH   1   7
BRANCH   4  10
ATOM     10  O   UNL     1     111.892 119.766 121.222  1.00  0.00    -0.504 OA
ATOM     11  H   UNL     1     112.545 119.022 121.024  1.00  0.00     0.293 HD
ENDBRANCH   4  10
BRANCH   6  12
ATOM     12  O   UNL     1     111.142 119.124 118.471  1.00  0.00    -0.504 OA
ATOM     13  H   UNL     1     111.518 119.770 117.793  1.00  0.00     0.293 HD
ENDBRANCH   6  12
TORSDOF 3
ENDMDL
