MODEL 1
REMARK VINA RESULT:    -3.445      0.000      0.000
REMARK INTER + INTRA:          -4.174
REMARK INTER:                  -4.049
REMARK INTRA:                  -0.124
REMARK UNBOUND:                -0.124
REMARK SMILES CCCCC(=O)[O-]
REMARK SMILES IDX 4 1 5 2 6 3 7 4 3 5 2 6 1 7
REMARK H PARENT
REMARK Flexibility Score: inf
ROOT
ATOM      1  C   UNL     1      15.873 -38.629  27.667  1.00  0.00     0.053 C 
ENDROOT
BRANCH   1   2
ATOM      2  C   UNL     1      16.946 -38.032  26.811  1.00  0.00     0.041 C 
ATOM      3  O   UNL     1      16.898 -36.815  26.492  1.00  0.00    -0.550 OA
ATOM      4  O   UNL     1      18.025 -38.808  26.406  1.00  0.00    -0.550 OA
ENDBRANCH   1   2
BRANCH   1   5
ATOM      5  C   UNL     1      16.461 -39.125  28.993  1.00  0.00     0.006 C 
BRANCH   5   6
ATOM      6  C   UNL     1      17.159 -38.008  29.784  1.00  0.00    -0.003 C 
ATOM      7  C   UNL     1      18.523 -38.432  30.327  1.00  0.00     0.004 C 
ENDBRANCH   5   6
ENDBRANCH   1   5
TORSDOF 3
ENDMDL
MODEL 2
REMARK VINA RESULT:    -3.384      2.200      3.391
REMARK INTER + INTRA:          -4.101
REMARK INTER:                  -4.029
REMARK INTRA:                  -0.073
REMARK UNBOUND:                -0.124
REMARK SMILES CCCCC(=O)[O-]
REMARK SMILES IDX 4 1 5 2 6 3 7 4 3 5 2 6 1 7
REMARK H PARENT
REMARK Flexibility Score: inf
ROOT
ATOM      1  C   UNL     1      17.496 -37.917  29.567  1.00  0.00     0.053 C 
ENDROOT
BRANCH   1   2
ATOM      2  C   UNL     1      18.886 -38.384  29.863  1.00  0.00     0.041 C 
ATOM      3  O   UNL     1      19.175 -38.832  31.003  1.00  0.00    -0.550 OA
ATOM      4  O   UNL     1      19.852 -38.370  28.864  1.00  0.00    -0.550 OA
ENDBRANCH   1   2
BRANCH   1   5
ATOM      5  C   UNL     1      16.533 -39.109  29.502  1.00  0.00     0.006 C 
BRANCH   5   6
ATOM      6  C   UNL     1      15.700 -39.125  28.210  1.00  0.00    -0.003 C 
ATOM      7  C   UNL     1      16.382 -38.387  27.059  1.00  0.00     0.004 C 
ENDBRANCH   5   6
ENDBRANCH   1   5
TORSDOF 3
ENDMDL
MODEL 3
REMARK VINA RESULT:    -3.136      9.056     10.109
REMARK INTER + INTRA:          -3.810
REMARK INTER:                  -3.788
REMARK INTRA:                  -0.023
REMARK UNBOUND:                -0.124
REMARK SMILES CCCCC(=O)[O-]
REMARK SMILES IDX 4 1 5 2 6 3 7 4 3 5 2 6 1 7
REMARK H PARENT
REMARK Flexibility Score: inf
ROOT
ATOM      1  C   UNL     1      12.922 -30.478  22.933  1.00  0.00     0.053 C 
ENDROOT
BRANCH   1   2
ATOM      2  C   UNL     1      13.498 -31.859  22.973  1.00  0.00     0.041 C 
ATOM      3  O   UNL     1      13.799 -32.452  21.905  1.00  0.00    -0.550 OA
ATOM      4  O   UNL     1      13.749 -32.471  24.195  1.00  0.00    -0.550 OA
ENDBRANCH   1   2
BRANCH   1   5
ATOM      5  C   UNL     1      13.162 -29.759  24.265  1.00  0.00     0.006 C 
BRANCH   5   6
ATOM      6  C   UNL     1      12.212 -28.569  24.473  1.00  0.00    -0.003 C 
ATOM      7  C   UNL     1      12.819 -27.474  25.350  1.00  0.00     0.004 C 
ENDBRANCH   5   6
ENDBRANCH   1   5
TORSDOF 3
ENDMDL
MODEL 4
REMARK VINA RESULT:    -3.121      9.263     10.514
REMARK INTER + INTRA:          -3.793
REMARK INTER:                  -3.757
REMARK INTRA:                  -0.036
REMARK UNBOUND:                -0.124
REMARK SMILES CCCCC(=O)[O-]
REMARK SMILES IDX 4 1 5 2 6 3 7 4 3 5 2 6 1 7
REMARK H PARENT
REMARK Flexibility Score: inf
ROOT
ATOM      1  C   UNL     1      13.319 -29.802  24.286  1.00  0.00     0.053 C 
ENDROOT
BRANCH   1   2
ATOM      2  C   UNL     1      12.339 -28.685  24.455  1.00  0.00     0.041 C 
ATOM      3  O   UNL     1      11.287 -28.654  23.764  1.00  0.00    -0.550 OA
ATOM      4  O   UNL     1      12.563 -27.702  25.412  1.00  0.00    -0.550 OA
ENDBRANCH   1   2
BRANCH   1   5
ATOM      5  C   UNL     1      12.967 -30.641  23.052  1.00  0.00     0.006 C 
BRANCH   5   6
ATOM      6  C   UNL     1      13.760 -31.956  22.986  1.00  0.00    -0.003 C 
ATOM      7  C   UNL     1      14.002 -32.569  24.365  1.00  0.00     0.004 C 
ENDBRANCH   5   6
ENDBRANCH   1   5
TORSDOF 3
ENDMDL
MODEL 5
REMARK VINA RESULT:    -3.104     14.459     15.579
REMARK INTER + INTRA:          -3.773
REMARK INTER:                  -3.668
REMARK INTRA:                  -0.105
REMARK UNBOUND:                -0.124
REMARK SMILES CCCCC(=O)[O-]
REMARK SMILES IDX 4 1 5 2 6 3 7 4 3 5 2 6 1 7
REMARK H PARENT
REMARK Flexibility Score: inf
ROOT
ATOM      1  C   UNL     1      22.087 -25.306  20.762  1.00  0.00     0.053 C 
ENDROOT
BRANCH   1   2
ATOM      2  C   UNL     1      23.197 -25.264  19.760  1.00  0.00     0.041 C 
ATOM      3  O   UNL     1      23.396 -26.241  18.992  1.00  0.00    -0.550 OA
ATOM      4  O   UNL     1      23.983 -24.124  19.641  1.00  0.00    -0.550 OA
ENDBRANCH   1   2
BRANCH   1   5
ATOM      5  C   UNL     1      20.821 -25.901  20.133  1.00  0.00     0.006 C 
BRANCH   5   6
ATOM      6  C   UNL     1      20.212 -27.026  20.985  1.00  0.00    -0.003 C 
ATOM      7  C   UNL     1      21.068 -28.292  20.990  1.00  0.00     0.004 C 
ENDBRANCH   5   6
ENDBRANCH   1   5
TORSDOF 3
ENDMDL
MODEL 6
REMARK VINA RESULT:    -3.035     14.556     15.671
REMARK INTER + INTRA:          -3.692
REMARK INTER:                  -3.623
REMARK INTRA:                  -0.068
REMARK UNBOUND:                -0.124
REMARK SMILES CCCCC(=O)[O-]
REMARK SMILES IDX 4 1 5 2 6 3 7 4 3 5 2 6 1 7
REMARK H PARENT
REMARK Flexibility Score: inf
ROOT
ATOM      1  C   UNL     1      22.535 -26.064  19.898  1.00  0.00     0.053 C 
ENDROOT
BRANCH   1   2
ATOM      2  C   UNL     1      23.267 -24.821  20.296  1.00  0.00     0.041 C 
ATOM      3  O   UNL     1      23.248 -24.431  21.493  1.00  0.00    -0.550 OA
ATOM      4  O   UNL     1      24.011 -24.121  19.355  1.00  0.00    -0.550 OA
ENDBRANCH   1   2
BRANCH   1   5
ATOM      5  C   UNL     1      21.032 -25.907  20.159  1.00  0.00     0.006 C 
BRANCH   5   6
ATOM      6  C   UNL     1      20.452 -27.067  20.982  1.00  0.00    -0.003 C 
ATOM      7  C   UNL     1      21.362 -28.295  20.996  1.00  0.00     0.004 C 
ENDBRANCH   5   6
ENDBRANCH   1   5
TORSDOF 3
ENDMDL
MODEL 7
REMARK VINA RESULT:    -2.974      2.127      3.207
REMARK INTER + INTRA:          -3.619
REMARK INTER:                  -3.495
REMARK INTRA:                  -0.124
REMARK UNBOUND:                -0.124
REMARK SMILES CCCCC(=O)[O-]
REMARK SMILES IDX 4 1 5 2 6 3 7 4 3 5 2 6 1 7
REMARK H PARENT
REMARK Flexibility Score: inf
ROOT
ATOM      1  C   UNL     1      16.241 -38.742  27.318  1.00  0.00     0.053 C 
ENDROOT
BRANCH   1   2
ATOM      2  C   UNL     1      16.308 -38.318  28.751  1.00  0.00     0.041 C 
ATOM      3  O   UNL     1      15.750 -37.253  29.124  1.00  0.00    -0.550 OA
ATOM      4  O   UNL     1      16.945 -39.125  29.686  1.00  0.00    -0.550 OA
ENDBRANCH   1   2
BRANCH   1   5
ATOM      5  C   UNL     1      17.633 -38.684  26.677  1.00  0.00     0.006 C 
BRANCH   5   6
ATOM      6  C   UNL     1      18.149 -37.246  26.516  1.00  0.00    -0.003 C 
ATOM      7  C   UNL     1      17.241 -36.388  25.634  1.00  0.00     0.004 C 
ENDBRANCH   5   6
ENDBRANCH   1   5
TORSDOF 3
ENDMDL
