MODEL 1
REMARK VINA RESULT:    -3.980      0.000      0.000
REMARK INTER + INTRA:          -4.097
REMARK INTER:                  -4.097
REMARK INTRA:                   0.000
REMARK UNBOUND:                 0.000
REMARK SMILES Nc1ncnc2nc[nH]c12
REMARK SMILES IDX 8 1 7 2 6 3 5 4 4 5 3 6 2 7 10 8 9 9 1 11
REMARK H PARENT 9 10 1 12 1 13
REMARK Flexibility Score: inf
ROOT
ATOM      1  C   UNL     1      13.122  41.311  26.510  1.00  0.00     0.199 A 
ATOM      2  N   UNL     1      13.546  42.593  26.341  1.00  0.00    -0.217 NA
ATOM      3  C   UNL     1      13.137  43.181  27.477  1.00  0.00     0.182 A 
ATOM      4  N   UNL     1      13.309  44.480  27.823  1.00  0.00    -0.215 NA
ATOM      5  C   UNL     1      12.819  44.897  29.029  1.00  0.00     0.226 A 
ATOM      6  N   UNL     1      12.172  44.018  29.860  1.00  0.00    -0.217 NA
ATOM      7  C   UNL     1      11.997  42.708  29.513  1.00  0.00     0.152 A 
ATOM      8  C   UNL     1      12.501  42.298  28.281  1.00  0.00     0.127 A 
ATOM      9  N   UNL     1      12.480  41.099  27.687  1.00  0.00    -0.340 N 
ATOM     10  H   UNL     1      12.068  40.205  28.035  1.00  0.00     0.168 HD
ENDROOT
BRANCH   7  11
ATOM     11  N   UNL     1      11.320  41.810  30.394  1.00  0.00    -0.382 N 
ATOM     12  H   UNL     1      10.324  41.987  30.655  1.00  0.00     0.158 HD
ATOM     13  H   UNL     1      11.798  40.972  30.789  1.00  0.00     0.158 HD
ENDBRANCH   7  11
TORSDOF 1
ENDMDL
MODEL 2
REMARK VINA RESULT:    -3.920     13.808     16.066
REMARK INTER + INTRA:          -4.034
REMARK INTER:                  -4.034
REMARK INTRA:                   0.000
REMARK UNBOUND:                 0.000
REMARK SMILES Nc1ncnc2nc[nH]c12
REMARK SMILES IDX 8 1 7 2 6 3 5 4 4 5 3 6 2 7 10 8 9 9 1 11
REMARK H PARENT 9 10 1 12 1 13
REMARK Flexibility Score: inf
ROOT
ATOM      1  C   UNL     1      13.161  38.985  15.269  1.00  0.00     0.199 A 
ATOM      2  N   UNL     1      13.055  37.657  15.546  1.00  0.00    -0.217 NA
ATOM      3  C   UNL     1      12.507  37.173  14.419  1.00  0.00     0.182 A 
ATOM      4  N   UNL     1      12.187  35.881  14.166  1.00  0.00    -0.215 NA
ATOM      5  C   UNL     1      11.632  35.578  12.954  1.00  0.00     0.226 A 
ATOM      6  N   UNL     1      11.410  36.563  12.025  1.00  0.00    -0.217 NA
ATOM      7  C   UNL     1      11.732  37.867  12.278  1.00  0.00     0.152 A 
ATOM      8  C   UNL     1      12.296  38.159  13.518  1.00  0.00     0.127 A 
ATOM      9  N   UNL     1      12.705  39.323  14.036  1.00  0.00    -0.340 N 
ATOM     10  H   UNL     1      12.683  40.273  13.604  1.00  0.00     0.168 HD
ENDROOT
BRANCH   7  11
ATOM     11  N   UNL     1      11.492  38.876  11.296  1.00  0.00    -0.382 N 
ATOM     12  H   UNL     1      11.030  39.772  11.571  1.00  0.00     0.158 HD
ATOM     13  H   UNL     1      11.767  38.741  10.299  1.00  0.00     0.158 HD
ENDBRANCH   7  11
TORSDOF 1
ENDMDL
MODEL 3
REMARK VINA RESULT:    -3.899     11.572     12.215
REMARK INTER + INTRA:          -4.013
REMARK INTER:                  -4.013
REMARK INTRA:                   0.000
REMARK UNBOUND:                 0.000
REMARK SMILES Nc1ncnc2nc[nH]c12
REMARK SMILES IDX 8 1 7 2 6 3 5 4 4 5 3 6 2 7 10 8 9 9 1 11
REMARK H PARENT 9 10 1 12 1 13
REMARK Flexibility Score: inf
ROOT
ATOM      1  C   UNL     1      23.254  34.523  29.997  1.00  0.00     0.199 A 
ATOM      2  N   UNL     1      21.934  34.851  30.044  1.00  0.00    -0.217 NA
ATOM      3  C   UNL     1      21.976  36.153  30.373  1.00  0.00     0.182 A 
ATOM      4  N   UNL     1      20.914  36.976  30.552  1.00  0.00    -0.215 NA
ATOM      5  C   UNL     1      21.157  38.278  30.888  1.00  0.00     0.226 A 
ATOM      6  N   UNL     1      22.443  38.731  31.037  1.00  0.00    -0.217 NA
ATOM      7  C   UNL     1      23.515  37.903  30.857  1.00  0.00     0.152 A 
ATOM      8  C   UNL     1      23.251  36.579  30.516  1.00  0.00     0.127 A 
ATOM      9  N   UNL     1      24.084  35.558  30.280  1.00  0.00    -0.340 N 
ATOM     10  H   UNL     1      25.128  35.547  30.307  1.00  0.00     0.168 HD
ENDROOT
BRANCH   7  11
ATOM     11  N   UNL     1      24.846  38.395  31.018  1.00  0.00    -0.382 N 
ATOM     12  H   UNL     1      25.112  38.904  31.891  1.00  0.00     0.158 HD
ATOM     13  H   UNL     1      25.570  38.260  30.278  1.00  0.00     0.158 HD
ENDBRANCH   7  11
TORSDOF 1
ENDMDL
MODEL 4
REMARK VINA RESULT:    -3.841     17.570     19.462
REMARK INTER + INTRA:          -3.953
REMARK INTER:                  -3.953
REMARK INTRA:                   0.000
REMARK UNBOUND:                 0.000
REMARK SMILES Nc1ncnc2nc[nH]c12
REMARK SMILES IDX 8 1 7 2 6 3 5 4 4 5 3 6 2 7 10 8 9 9 1 11
REMARK H PARENT 9 10 1 12 1 13
REMARK Flexibility Score: inf
ROOT
ATOM      1  C   UNL     1      25.526  42.110  12.784  1.00  0.00     0.199 A 
ATOM      2  N   UNL     1      24.769  42.155  13.914  1.00  0.00    -0.217 NA
ATOM      3  C   UNL     1      24.538  40.854  14.155  1.00  0.00     0.182 A 
ATOM      4  N   UNL     1      23.820  40.337  15.182  1.00  0.00    -0.215 NA
ATOM      5  C   UNL     1      23.693  38.978  15.261  1.00  0.00     0.226 A 
ATOM      6  N   UNL     1      24.281  38.168  14.322  1.00  0.00    -0.217 NA
ATOM      7  C   UNL     1      25.006  38.687  13.287  1.00  0.00     0.152 A 
ATOM      8  C   UNL     1      25.124  40.073  13.220  1.00  0.00     0.127 A 
ATOM      9  N   UNL     1      25.761  40.851  12.335  1.00  0.00    -0.340 N 
ATOM     10  H   UNL     1      26.310  40.568  11.494  1.00  0.00     0.168 HD
ENDROOT
BRANCH   7  11
ATOM     11  N   UNL     1      25.608  37.825  12.321  1.00  0.00    -0.382 N 
ATOM     12  H   UNL     1      25.343  36.816  12.284  1.00  0.00     0.158 HD
ATOM     13  H   UNL     1      26.317  38.180  11.642  1.00  0.00     0.158 HD
ENDBRANCH   7  11
TORSDOF 1
ENDMDL
MODEL 5
REMARK VINA RESULT:    -3.772     17.521     19.399
REMARK INTER + INTRA:          -3.882
REMARK INTER:                  -3.882
REMARK INTRA:                   0.000
REMARK UNBOUND:                 0.000
REMARK SMILES Nc1ncnc2nc[nH]c12
REMARK SMILES IDX 8 1 7 2 6 3 5 4 4 5 3 6 2 7 10 8 9 9 1 11
REMARK H PARENT 9 10 1 12 1 13
REMARK Flexibility Score: inf
ROOT
ATOM      1  C   UNL     1      25.491  38.658  12.141  1.00  0.00     0.199 A 
ATOM      2  N   UNL     1      24.837  38.303  13.281  1.00  0.00    -0.217 NA
ATOM      3  C   UNL     1      24.603  39.492  13.859  1.00  0.00     0.182 A 
ATOM      4  N   UNL     1      23.970  39.708  15.037  1.00  0.00    -0.215 NA
ATOM      5  C   UNL     1      23.827  40.998  15.466  1.00  0.00     0.226 A 
ATOM      6  N   UNL     1      24.314  42.040  14.717  1.00  0.00    -0.217 NA
ATOM      7  C   UNL     1      24.953  41.824  13.529  1.00  0.00     0.152 A 
ATOM      8  C   UNL     1      25.091  40.504  13.106  1.00  0.00     0.127 A 
ATOM      9  N   UNL     1      25.661  39.998  12.006  1.00  0.00    -0.340 N 
ATOM     10  H   UNL     1      26.130  40.503  11.221  1.00  0.00     0.168 HD
ENDROOT
BRANCH   7  11
ATOM     11  N   UNL     1      25.452  42.923  12.765  1.00  0.00    -0.382 N 
ATOM     12  H   UNL     1      26.292  42.797  12.157  1.00  0.00     0.158 HD
ATOM     13  H   UNL     1      24.997  43.861  12.799  1.00  0.00     0.158 HD
ENDBRANCH   7  11
TORSDOF 1
ENDMDL
MODEL 6
REMARK VINA RESULT:    -3.719     14.113     15.819
REMARK INTER + INTRA:          -3.827
REMARK INTER:                  -3.827
REMARK INTRA:                   0.000
REMARK UNBOUND:                 0.000
REMARK SMILES Nc1ncnc2nc[nH]c12
REMARK SMILES IDX 8 1 7 2 6 3 5 4 4 5 3 6 2 7 10 8 9 9 1 11
REMARK H PARENT 9 10 1 12 1 13
REMARK Flexibility Score: inf
ROOT
ATOM      1  C   UNL     1      11.455  34.533  13.491  1.00  0.00     0.199 A 
ATOM      2  N   UNL     1      12.128  34.783  14.647  1.00  0.00    -0.217 NA
ATOM      3  C   UNL     1      12.332  36.108  14.577  1.00  0.00     0.182 A 
ATOM      4  N   UNL     1      12.970  36.877  15.493  1.00  0.00    -0.215 NA
ATOM      5  C   UNL     1      13.083  38.217  15.245  1.00  0.00     0.226 A 
ATOM      6  N   UNL     1      12.560  38.759  14.098  1.00  0.00    -0.217 NA
ATOM      7  C   UNL     1      11.916  37.985  13.173  1.00  0.00     0.152 A 
ATOM      8  C   UNL     1      11.811  36.623  13.440  1.00  0.00     0.127 A 
ATOM      9  N   UNL     1      11.245  35.638  12.732  1.00  0.00    -0.340 N 
ATOM     10  H   UNL     1      10.756  35.693  11.811  1.00  0.00     0.168 HD
ENDROOT
BRANCH   7  11
ATOM     11  N   UNL     1      11.380  38.571  11.986  1.00  0.00    -0.382 N 
ATOM     12  H   UNL     1      11.161  37.969  11.161  1.00  0.00     0.158 HD
ATOM     13  H   UNL     1      11.199  39.596  11.919  1.00  0.00     0.158 HD
ENDBRANCH   7  11
TORSDOF 1
ENDMDL
MODEL 7
REMARK VINA RESULT:    -3.627     17.650     19.708
REMARK INTER + INTRA:          -3.733
REMARK INTER:                  -3.733
REMARK INTRA:                   0.000
REMARK UNBOUND:                 0.000
REMARK SMILES Nc1ncnc2nc[nH]c12
REMARK SMILES IDX 8 1 7 2 6 3 5 4 4 5 3 6 2 7 10 8 9 9 1 11
REMARK H PARENT 9 10 1 12 1 13
REMARK Flexibility Score: inf
ROOT
ATOM      1  C   UNL     1      22.254  38.025  14.251  1.00  0.00     0.199 A 
ATOM      2  N   UNL     1      22.442  39.369  14.337  1.00  0.00    -0.217 NA
ATOM      3  C   UNL     1      23.503  39.561  13.536  1.00  0.00     0.182 A 
ATOM      4  N   UNL     1      24.109  40.743  13.266  1.00  0.00    -0.215 NA
ATOM      5  C   UNL     1      25.184  40.739  12.421  1.00  0.00     0.226 A 
ATOM      6  N   UNL     1      25.629  39.566  11.866  1.00  0.00    -0.217 NA
ATOM      7  C   UNL     1      25.019  38.373  12.137  1.00  0.00     0.152 A 
ATOM      8  C   UNL     1      23.926  38.394  13.000  1.00  0.00     0.127 A 
ATOM      9  N   UNL     1      23.145  37.400  13.440  1.00  0.00    -0.340 N 
ATOM     10  H   UNL     1      23.200  36.381  13.220  1.00  0.00     0.168 HD
ENDROOT
BRANCH   7  11
ATOM     11  N   UNL     1      25.500  37.164  11.548  1.00  0.00    -0.382 N 
ATOM     12  H   UNL     1      24.911  36.652  10.853  1.00  0.00     0.158 HD
ATOM     13  H   UNL     1      26.434  36.772  11.797  1.00  0.00     0.158 HD
ENDBRANCH   7  11
TORSDOF 1
ENDMDL
MODEL 8
REMARK VINA RESULT:    -3.495      1.482      3.526
REMARK INTER + INTRA:          -3.597
REMARK INTER:                  -3.597
REMARK INTRA:                   0.000
REMARK UNBOUND:                 0.000
REMARK SMILES Nc1ncnc2nc[nH]c12
REMARK SMILES IDX 8 1 7 2 6 3 5 4 4 5 3 6 2 7 10 8 9 9 1 11
REMARK H PARENT 9 10 1 12 1 13
REMARK Flexibility Score: inf
ROOT
ATOM      1  C   UNL     1      11.919  43.152  29.397  1.00  0.00     0.199 A 
ATOM      2  N   UNL     1      12.375  42.385  28.370  1.00  0.00    -0.217 NA
ATOM      3  C   UNL     1      13.075  43.271  27.641  1.00  0.00     0.182 A 
ATOM      4  N   UNL     1      13.746  43.020  26.491  1.00  0.00    -0.215 NA
ATOM      5  C   UNL     1      14.403  44.057  25.888  1.00  0.00     0.226 A 
ATOM      6  N   UNL     1      14.378  45.312  26.441  1.00  0.00    -0.217 NA
ATOM      7  C   UNL     1      13.702  45.567  27.601  1.00  0.00     0.152 A 
ATOM      8  C   UNL     1      13.037  44.501  28.202  1.00  0.00     0.127 A 
ATOM      9  N   UNL     1      12.307  44.450  29.322  1.00  0.00    -0.340 N 
ATOM     10  H   UNL     1      12.081  45.221  29.990  1.00  0.00     0.168 HD
ENDROOT
BRANCH   7  11
ATOM     11  N   UNL     1      13.690  46.882  28.158  1.00  0.00    -0.382 N 
ATOM     12  H   UNL     1      13.981  47.031  29.150  1.00  0.00     0.158 HD
ATOM     13  H   UNL     1      13.392  47.708  27.595  1.00  0.00     0.158 HD
ENDBRANCH   7  11
TORSDOF 1
ENDMDL
MODEL 9
REMARK VINA RESULT:    -3.479     10.513     11.295
REMARK INTER + INTRA:          -3.580
REMARK INTER:                  -3.580
REMARK INTRA:                   0.000
REMARK UNBOUND:                 0.000
REMARK SMILES Nc1ncnc2nc[nH]c12
REMARK SMILES IDX 8 1 7 2 6 3 5 4 4 5 3 6 2 7 10 8 9 9 1 11
REMARK H PARENT 9 10 1 12 1 13
REMARK Flexibility Score: inf
ROOT
ATOM      1  C   UNL     1      21.738  40.481  28.900  1.00  0.00     0.199 A 
ATOM      2  N   UNL     1      20.846  39.455  28.858  1.00  0.00    -0.217 NA
ATOM      3  C   UNL     1      21.502  38.479  29.507  1.00  0.00     0.182 A 
ATOM      4  N   UNL     1      21.052  37.224  29.748  1.00  0.00    -0.215 NA
ATOM      5  C   UNL     1      21.869  36.364  30.428  1.00  0.00     0.226 A 
ATOM      6  N   UNL     1      23.109  36.771  30.851  1.00  0.00    -0.217 NA
ATOM      7  C   UNL     1      23.565  38.036  30.609  1.00  0.00     0.152 A 
ATOM      8  C   UNL     1      22.721  38.899  29.914  1.00  0.00     0.127 A 
ATOM      9  N   UNL     1      22.894  40.173  29.540  1.00  0.00    -0.340 N 
ATOM     10  H   UNL     1      23.719  40.793  29.696  1.00  0.00     0.168 HD
ENDROOT
BRANCH   7  11
ATOM     11  N   UNL     1      24.860  38.438  31.058  1.00  0.00    -0.382 N 
ATOM     12  H   UNL     1      25.675  37.795  30.943  1.00  0.00     0.158 HD
ATOM     13  H   UNL     1      25.016  39.368  31.505  1.00  0.00     0.158 HD
ENDBRANCH   7  11
TORSDOF 1
ENDMDL
