MODEL 1
REMARK VINA RESULT:    -2.332      0.000      0.000
REMARK INTER + INTRA:          -3.043
REMARK INTER:                  -2.877
REMARK INTRA:                  -0.166
REMARK UNBOUND:                -0.166
REMARK SMILES CCCCCC(C)=O
REMARK SMILES IDX 4 1 3 2 2 3 1 4 5 5 6 6 8 7 7 8
REMARK H PARENT
REMARK Flexibility Score: inf
ROOT
ATOM      1  C   UNL     1     109.932 111.921 106.190  1.00  0.00     0.008 C 
ENDROOT
BRANCH   1   2
ATOM      2  C   UNL     1     108.473 111.656 105.787  1.00  0.00     0.000 C 
BRANCH   2   3
ATOM      3  C   UNL     1     108.097 112.325 104.456  1.00  0.00    -0.003 C 
ATOM      4  C   UNL     1     106.788 111.791 103.875  1.00  0.00     0.004 C 
ENDBRANCH   2   3
ENDBRANCH   1   2
BRANCH   1   5
ATOM      5  C   UNL     1     110.853 111.899 104.965  1.00  0.00     0.075 C 
BRANCH   5   6
ATOM      6  C   UNL     1     111.814 113.058 105.000  1.00  0.00     0.129 C 
ATOM      7  O   UNL     1     111.928 113.775 104.018  1.00  0.00    -0.300 OA
ATOM      8  C   UNL     1     112.646 113.346 106.214  1.00  0.00     0.087 C 
ENDBRANCH   5   6
ENDBRANCH   1   5
TORSDOF 4
ENDMDL
MODEL 2
REMARK VINA RESULT:    -2.326      2.332      4.470
REMARK INTER + INTRA:          -3.035
REMARK INTER:                  -2.926
REMARK INTRA:                  -0.110
REMARK UNBOUND:                -0.166
REMARK SMILES CCCCCC(C)=O
REMARK SMILES IDX 4 1 3 2 2 3 1 4 5 5 6 6 8 7 7 8
REMARK H PARENT
REMARK Flexibility Score: inf
ROOT
ATOM      1  C   UNL     1     109.450 112.451 104.186  1.00  0.00     0.008 C 
ENDROOT
BRANCH   1   2
ATOM      2  C   UNL     1     110.919 112.024 104.051  1.00  0.00     0.000 C 
BRANCH   2   3
ATOM      3  C   UNL     1     111.896 113.185 104.294  1.00  0.00    -0.003 C 
ATOM      4  C   UNL     1     112.340 113.289 105.753  1.00  0.00     0.004 C 
ENDBRANCH   2   3
ENDBRANCH   1   2
BRANCH   1   5
ATOM      5  C   UNL     1     108.774 111.728 105.357  1.00  0.00     0.075 C 
BRANCH   5   6
ATOM      6  C   UNL     1     107.308 112.069 105.419  1.00  0.00     0.129 C 
ATOM      7  O   UNL     1     106.576 111.747 104.496  1.00  0.00    -0.300 OA
ATOM      8  C   UNL     1     106.727 112.807 106.588  1.00  0.00     0.087 C 
ENDBRANCH   5   6
ENDBRANCH   1   5
TORSDOF 4
ENDMDL
MODEL 3
REMARK VINA RESULT:    -2.316      1.805      2.232
REMARK INTER + INTRA:          -3.023
REMARK INTER:                  -2.719
REMARK INTRA:                  -0.304
REMARK UNBOUND:                -0.166
REMARK SMILES CCCCCC(C)=O
REMARK SMILES IDX 4 1 3 2 2 3 1 4 5 5 6 6 8 7 7 8
REMARK H PARENT
REMARK Flexibility Score: inf
ROOT
ATOM      1  C   UNL     1     108.716 110.221 104.796  1.00  0.00     0.008 C 
ENDROOT
BRANCH   1   2
ATOM      2  C   UNL     1     107.491 110.382 103.884  1.00  0.00     0.000 C 
BRANCH   2   3
ATOM      3  C   UNL     1     106.803 111.745 104.052  1.00  0.00    -0.003 C 
ATOM      4  C   UNL     1     106.753 112.206 105.509  1.00  0.00     0.004 C 
ENDBRANCH   2   3
ENDBRANCH   1   2
BRANCH   1   5
ATOM      5  C   UNL     1     109.991 110.702 104.095  1.00  0.00     0.075 C 
BRANCH   5   6
ATOM      6  C   UNL     1     110.479 111.991 104.702  1.00  0.00     0.129 C 
ATOM      7  O   UNL     1     110.292 112.206 105.889  1.00  0.00    -0.300 OA
ATOM      8  C   UNL     1     111.183 113.027 103.875  1.00  0.00     0.087 C 
ENDBRANCH   5   6
ENDBRANCH   1   5
TORSDOF 4
ENDMDL
MODEL 4
REMARK VINA RESULT:    -2.308      4.268      5.509
REMARK INTER + INTRA:          -3.013
REMARK INTER:                  -2.908
REMARK INTRA:                  -0.105
REMARK UNBOUND:                -0.166
REMARK SMILES CCCCCC(C)=O
REMARK SMILES IDX 4 1 3 2 2 3 1 4 5 5 6 6 8 7 7 8
REMARK H PARENT
REMARK Flexibility Score: inf
ROOT
ATOM      1  C   UNL     1     108.002 109.164 104.246  1.00  0.00     0.008 C 
ENDROOT
BRANCH   1   2
ATOM      2  C   UNL     1     108.242 110.680 104.311  1.00  0.00     0.000 C 
BRANCH   2   3
ATOM      3  C   UNL     1     106.938 111.479 104.463  1.00  0.00    -0.003 C 
ATOM      4  C   UNL     1     106.873 112.261 105.775  1.00  0.00     0.004 C 
ENDBRANCH   2   3
ENDBRANCH   1   2
BRANCH   1   5
ATOM      5  C   UNL     1     108.345 108.496 105.582  1.00  0.00     0.075 C 
BRANCH   5   6
ATOM      6  C   UNL     1     107.842 107.077 105.612  1.00  0.00     0.129 C 
ATOM      7  O   UNL     1     108.084 106.332 104.675  1.00  0.00    -0.300 OA
ATOM      8  C   UNL     1     107.037 106.558 106.767  1.00  0.00     0.087 C 
ENDBRANCH   5   6
ENDBRANCH   1   5
TORSDOF 4
ENDMDL
MODEL 5
REMARK VINA RESULT:    -2.307     10.841     11.459
REMARK INTER + INTRA:          -3.013
REMARK INTER:                  -2.875
REMARK INTRA:                  -0.137
REMARK UNBOUND:                -0.166
REMARK SMILES CCCCCC(C)=O
REMARK SMILES IDX 4 1 3 2 2 3 1 4 5 5 6 6 8 7 7 8
REMARK H PARENT
REMARK Flexibility Score: inf
ROOT
ATOM      1  C   UNL     1     114.028 102.887 108.978  1.00  0.00     0.008 C 
ENDROOT
BRANCH   1   2
ATOM      2  C   UNL     1     113.818 103.948 107.888  1.00  0.00     0.000 C 
BRANCH   2   3
ATOM      3  C   UNL     1     114.144 105.369 108.375  1.00  0.00    -0.003 C 
ATOM      4  C   UNL     1     113.766 106.444 107.357  1.00  0.00     0.004 C 
ENDBRANCH   2   3
ENDBRANCH   1   2
BRANCH   1   5
ATOM      5  C   UNL     1     114.776 101.670 108.423  1.00  0.00     0.075 C 
BRANCH   5   6
ATOM      6  C   UNL     1     116.170 101.597 108.987  1.00  0.00     0.129 C 
ATOM      7  O   UNL     1     117.086 101.208 108.280  1.00  0.00    -0.300 OA
ATOM      8  C   UNL     1     116.459 101.984 110.408  1.00  0.00     0.087 C 
ENDBRANCH   5   6
ENDBRANCH   1   5
TORSDOF 4
ENDMDL
MODEL 6
REMARK VINA RESULT:    -2.300      2.644      4.016
REMARK INTER + INTRA:          -3.004
REMARK INTER:                  -2.684
REMARK INTRA:                  -0.320
REMARK UNBOUND:                -0.166
REMARK SMILES CCCCCC(C)=O
REMARK SMILES IDX 4 1 3 2 2 3 1 4 5 5 6 6 8 7 7 8
REMARK H PARENT
REMARK Flexibility Score: inf
ROOT
ATOM      1  C   UNL     1     110.117 111.725 104.922  1.00  0.00     0.008 C 
ENDROOT
BRANCH   1   2
ATOM      2  C   UNL     1     110.492 112.785 103.875  1.00  0.00     0.000 C 
BRANCH   2   3
ATOM      3  C   UNL     1     111.844 113.453 104.169  1.00  0.00    -0.003 C 
ATOM      4  C   UNL     1     112.323 113.216 105.601  1.00  0.00     0.004 C 
ENDBRANCH   2   3
ENDBRANCH   1   2
BRANCH   1   5
ATOM      5  C   UNL     1     109.902 110.357 104.265  1.00  0.00     0.075 C 
BRANCH   5   6
ATOM      6  C   UNL     1     110.977 109.389 104.685  1.00  0.00     0.129 C 
ATOM      7  O   UNL     1     110.666 108.357 105.260  1.00  0.00    -0.300 OA
ATOM      8  C   UNL     1     112.427 109.669 104.423  1.00  0.00     0.087 C 
ENDBRANCH   5   6
ENDBRANCH   1   5
TORSDOF 4
ENDMDL
MODEL 7
REMARK VINA RESULT:    -2.259      3.934      5.074
REMARK INTER + INTRA:          -2.953
REMARK INTER:                  -2.741
REMARK INTRA:                  -0.212
REMARK UNBOUND:                -0.166
REMARK SMILES CCCCCC(C)=O
REMARK SMILES IDX 4 1 3 2 2 3 1 4 5 5 6 6 8 7 7 8
REMARK H PARENT
REMARK Flexibility Score: inf
ROOT
ATOM      1  C   UNL     1     108.763 108.717 104.909  1.00  0.00     0.008 C 
ENDROOT
BRANCH   1   2
ATOM      2  C   UNL     1     108.143 107.370 105.308  1.00  0.00     0.000 C 
BRANCH   2   3
ATOM      3  C   UNL     1     107.867 107.270 106.816  1.00  0.00    -0.003 C 
ATOM      4  C   UNL     1     106.660 106.390 107.140  1.00  0.00     0.004 C 
ENDBRANCH   2   3
ENDBRANCH   1   2
BRANCH   1   5
ATOM      5  C   UNL     1     107.852 109.474 103.936  1.00  0.00     0.075 C 
BRANCH   5   6
ATOM      6  C   UNL     1     107.369 110.761 104.551  1.00  0.00     0.129 C 
ATOM      7  O   UNL     1     106.658 111.509 103.898  1.00  0.00    -0.300 OA
ATOM      8  C   UNL     1     107.753 111.152 105.947  1.00  0.00     0.087 C 
ENDBRANCH   5   6
ENDBRANCH   1   5
TORSDOF 4
ENDMDL
MODEL 8
REMARK VINA RESULT:    -2.230      4.222      4.560
REMARK INTER + INTRA:          -2.918
REMARK INTER:                  -2.726
REMARK INTRA:                  -0.192
REMARK UNBOUND:                -0.166
REMARK SMILES CCCCCC(C)=O
REMARK SMILES IDX 4 1 3 2 2 3 1 4 5 5 6 6 8 7 7 8
REMARK H PARENT
REMARK Flexibility Score: inf
ROOT
ATOM      1  C   UNL     1     110.753 109.487 105.219  1.00  0.00     0.008 C 
ENDROOT
BRANCH   1   2
ATOM      2  C   UNL     1     109.912 108.606 104.284  1.00  0.00     0.000 C 
BRANCH   2   3
ATOM      3  C   UNL     1     108.915 107.719 105.046  1.00  0.00    -0.003 C 
ATOM      4  C   UNL     1     108.142 106.774 104.127  1.00  0.00     0.004 C 
ENDBRANCH   2   3
ENDBRANCH   1   2
BRANCH   1   5
ATOM      5  C   UNL     1     112.154 109.721 104.641  1.00  0.00     0.075 C 
BRANCH   5   6
ATOM      6  C   UNL     1     113.011 108.494 104.809  1.00  0.00     0.129 C 
ATOM      7  O   UNL     1     113.696 108.106 103.875  1.00  0.00    -0.300 OA
ATOM      8  C   UNL     1     113.034 107.727 106.098  1.00  0.00     0.087 C 
ENDBRANCH   5   6
ENDBRANCH   1   5
TORSDOF 4
ENDMDL
