MODEL 1
REMARK VINA RESULT:    -4.134      0.000      0.000
REMARK INTER + INTRA:          -6.615
REMARK INTER:                  -6.310
REMARK INTRA:                  -0.305
REMARK UNBOUND:                -0.305
REMARK SMILES CC1=CCC[C@@H](C)C(=O)C[C@@H](C(C)C)C(=O)C1
REMARK SMILES IDX 8 1 9 2 6 3 7 4 5 5 4 6 3 7 2 8 1 9 10 11 11 12 15 13 16 14
REMARK SMILES IDX 17 15 12 17 13 18 14 19
REMARK H PARENT
REMARK Flexibility Score: 70.00
ROOT
ATOM      1  C   UNL     1     -14.518  14.606 -31.965  1.00  0.00     0.136 C 
ATOM      2  O   UNL     1     -14.796  15.138 -33.030  1.00  0.00    -0.299 OA
ENDROOT
BRANCH   1   3
ATOM      3  C   UNL     1     -13.592  15.309 -31.001  1.00  0.00     0.053 C 
ATOM      4  C   UNL     1     -13.964  16.790 -30.870  1.00  0.00     0.016 C 
BRANCH   3   5
ATOM      5  C   UNL     1     -12.127  15.136 -31.475  1.00  0.00     0.015 C 
BRANCH   5   6
ATOM      6  C   UNL     1     -11.143  14.550 -30.442  1.00  0.00     0.028 C 
BRANCH   6   7
ATOM      7  C   UNL     1     -11.679  14.256 -29.057  1.00  0.00    -0.028 C 
ATOM      8  C   UNL     1     -12.352  13.149 -28.659  1.00  0.00    -0.070 CG0
ATOM      9  C   UNL     1     -12.651  13.010 -27.186  1.00  0.00     0.039 C 
ATOM     10  G   UNL     1     -12.853  12.064 -29.601  1.00  0.00     0.000 G0
ENDBRANCH   6   7
ENDBRANCH   5   6
ENDBRANCH   3   5
ENDBRANCH   1   3
BRANCH   1  11
ATOM     11  C   UNL     1     -15.096  13.249 -31.639  1.00  0.00     0.087 C 
BRANCH  11  12
ATOM     12  C   UNL     1     -15.333  12.985 -30.125  1.00  0.00     0.066 C 
BRANCH  12  13
ATOM     13  C   UNL     1     -14.366  11.919 -29.604  1.00  0.00     0.140 C 
ATOM     14  O   UNL     1     -14.860  10.879 -29.191  1.00  0.00    -0.299 OA
BRANCH  13  15
ATOM     15  C   UNL     1     -12.847  12.035 -29.601  1.00  0.00     0.106 CG0
ATOM     16  G   UNL     1     -12.373  13.145 -28.674  1.00  0.00     0.000 G0
ENDBRANCH  13  15
ENDBRANCH  12  13
BRANCH  12  17
ATOM     17  C   UNL     1     -16.831  12.813 -29.706  1.00  0.00    -0.006 C 
ATOM     18  C   UNL     1     -17.199  13.750 -28.539  1.00  0.00     0.008 C 
ATOM     19  C   UNL     1     -17.791  13.109 -30.874  1.00  0.00     0.008 C 
ENDBRANCH  12  17
ENDBRANCH  11  12
ENDBRANCH   1  11
TORSDOF 1
ENDMDL
MODEL 2
REMARK VINA RESULT:    -3.889      1.856      3.997
REMARK INTER + INTRA:          -6.241
REMARK INTER:                  -5.889
REMARK INTRA:                  -0.352
REMARK UNBOUND:                -0.305
REMARK SMILES CC1=CCC[C@@H](C)C(=O)C[C@@H](C(C)C)C(=O)C1
REMARK SMILES IDX 8 1 9 2 6 3 7 4 5 5 4 6 3 7 2 8 1 9 10 11 11 12 15 13 16 14
REMARK SMILES IDX 17 15 12 17 13 18 14 19
REMARK H PARENT
REMARK Flexibility Score: 70.00
ROOT
ATOM      1  C   UNL     1     -13.485  15.875 -30.709  1.00  0.00     0.136 C 
ATOM      2  O   UNL     1     -13.707  17.075 -30.779  1.00  0.00    -0.299 OA
ENDROOT
BRANCH   1   3
ATOM      3  C   UNL     1     -14.175  14.933 -31.666  1.00  0.00     0.053 C 
ATOM      4  C   UNL     1     -14.368  15.593 -33.036  1.00  0.00     0.016 C 
BRANCH   3   5
ATOM      5  C   UNL     1     -15.529  14.485 -31.061  1.00  0.00     0.015 C 
BRANCH   5   6
ATOM      6  C   UNL     1     -15.649  12.992 -30.693  1.00  0.00     0.028 C 
BRANCH   6   7
ATOM      7  C   UNL     1     -15.997  12.653 -29.259  1.00  0.00    -0.028 C 
ATOM      8  C   UNL     1     -15.145  12.258 -28.282  1.00  0.00    -0.070 CG0
ATOM      9  C   UNL     1     -15.703  12.128 -26.885  1.00  0.00     0.039 C 
ATOM     10  G   UNL     1     -13.683  11.905 -28.509  1.00  0.00     0.000 G0
ENDBRANCH   6   7
ENDBRANCH   5   6
ENDBRANCH   3   5
ENDBRANCH   1   3
BRANCH   1  11
ATOM     11  C   UNL     1     -12.533  15.356 -29.657  1.00  0.00     0.087 C 
BRANCH  11  12
ATOM     12  C   UNL     1     -12.246  13.828 -29.730  1.00  0.00     0.066 C 
BRANCH  12  13
ATOM     13  C   UNL     1     -12.778  13.118 -28.483  1.00  0.00     0.140 C 
ATOM     14  O   UNL     1     -12.472  13.600 -27.401  1.00  0.00    -0.299 OA
BRANCH  13  15
ATOM     15  C   UNL     1     -13.682  11.893 -28.486  1.00  0.00     0.106 CG0
ATOM     16  G   UNL     1     -15.143  12.275 -28.302  1.00  0.00     0.000 G0
ENDBRANCH  13  15
ENDBRANCH  12  13
BRANCH  12  17
ATOM     17  C   UNL     1     -10.794  13.445 -30.171  1.00  0.00    -0.006 C 
ATOM     18  C   UNL     1     -10.787  12.161 -31.023  1.00  0.00     0.008 C 
ATOM     19  C   UNL     1     -10.129  14.566 -30.992  1.00  0.00     0.008 C 
ENDBRANCH  12  17
ENDBRANCH  11  12
ENDBRANCH   1  11
TORSDOF 1
ENDMDL
MODEL 3
REMARK VINA RESULT:    -3.846      2.169      4.212
REMARK INTER + INTRA:          -6.175
REMARK INTER:                  -5.907
REMARK INTRA:                  -0.269
REMARK UNBOUND:                -0.305
REMARK SMILES CC1=CCC[C@@H](C)C(=O)C[C@@H](C(C)C)C(=O)C1
REMARK SMILES IDX 8 1 9 2 6 3 7 4 5 5 4 6 3 7 2 8 1 9 10 11 11 12 15 13 16 14
REMARK SMILES IDX 17 15 12 17 13 18 14 19
REMARK H PARENT
REMARK Flexibility Score: 70.00
ROOT
ATOM      1  C   UNL     1     -13.159  13.306 -31.246  1.00  0.00     0.136 C 
ATOM      2  O   UNL     1     -12.836  12.137 -31.395  1.00  0.00    -0.299 OA
ENDROOT
BRANCH   1   3
ATOM      3  C   UNL     1     -13.287  14.203 -32.454  1.00  0.00     0.053 C 
ATOM      4  C   UNL     1     -13.118  15.675 -32.060  1.00  0.00     0.016 C 
BRANCH   3   5
ATOM      5  C   UNL     1     -14.656  13.956 -33.136  1.00  0.00     0.015 C 
BRANCH   5   6
ATOM      6  C   UNL     1     -15.889  14.549 -32.422  1.00  0.00     0.028 C 
BRANCH   6   7
ATOM      7  C   UNL     1     -16.856  13.578 -31.778  1.00  0.00    -0.028 C 
ATOM      8  C   UNL     1     -17.118  13.442 -30.456  1.00  0.00    -0.070 CG0
ATOM      9  C   UNL     1     -18.240  12.511 -30.063  1.00  0.00     0.039 C 
ATOM     10  G   UNL     1     -16.337  14.136 -29.349  1.00  0.00     0.000 G0
ENDBRANCH   6   7
ENDBRANCH   5   6
ENDBRANCH   3   5
ENDBRANCH   1   3
BRANCH   1  11
ATOM     11  C   UNL     1     -13.413  13.835 -29.854  1.00  0.00     0.087 C 
BRANCH  11  12
ATOM     12  C   UNL     1     -14.023  12.802 -28.863  1.00  0.00     0.066 C 
BRANCH  12  13
ATOM     13  C   UNL     1     -15.488  13.137 -28.568  1.00  0.00     0.140 C 
ATOM     14  O   UNL     1     -15.998  12.583 -27.605  1.00  0.00    -0.299 OA
BRANCH  13  15
ATOM     15  C   UNL     1     -16.337  14.131 -29.349  1.00  0.00     0.106 CG0
ATOM     16  G   UNL     1     -17.114  13.448 -30.464  1.00  0.00     0.000 G0
ENDBRANCH  13  15
ENDBRANCH  12  13
BRANCH  12  17
ATOM     17  C   UNL     1     -13.133  12.468 -27.620  1.00  0.00    -0.006 C 
ATOM     18  C   UNL     1     -12.180  11.292 -27.912  1.00  0.00     0.008 C 
ATOM     19  C   UNL     1     -12.281  13.674 -27.183  1.00  0.00     0.008 C 
ENDBRANCH  12  17
ENDBRANCH  11  12
ENDBRANCH   1  11
TORSDOF 1
ENDMDL
MODEL 4
REMARK VINA RESULT:    -3.768      1.892      3.903
REMARK INTER + INTRA:          -6.056
REMARK INTER:                  -5.568
REMARK INTRA:                  -0.488
REMARK UNBOUND:                -0.305
REMARK SMILES CC1=CCC[C@@H](C)C(=O)C[C@@H](C(C)C)C(=O)C1
REMARK SMILES IDX 8 1 9 2 6 3 7 4 5 5 4 6 3 7 2 8 1 9 10 11 11 12 15 13 16 14
REMARK SMILES IDX 17 15 12 17 13 18 14 19
REMARK H PARENT
REMARK Flexibility Score: 70.00
ROOT
ATOM      1  C   UNL     1     -14.620  12.829 -30.816  1.00  0.00     0.136 C 
ATOM      2  O   UNL     1     -14.825  12.599 -31.999  1.00  0.00    -0.299 OA
ENDROOT
BRANCH   1   3
ATOM      3  C   UNL     1     -15.410  13.911 -30.120  1.00  0.00     0.053 C 
ATOM      4  C   UNL     1     -16.878  13.498 -29.963  1.00  0.00     0.016 C 
BRANCH   3   5
ATOM      5  C   UNL     1     -15.278  15.236 -30.912  1.00  0.00     0.015 C 
BRANCH   5   6
ATOM      6  C   UNL     1     -13.919  15.957 -30.808  1.00  0.00     0.028 C 
BRANCH   6   7
ATOM      7  C   UNL     1     -12.890  15.664 -31.880  1.00  0.00    -0.028 C 
ATOM      8  C   UNL     1     -11.688  15.061 -31.715  1.00  0.00    -0.070 CG0
ATOM      9  C   UNL     1     -10.899  14.734 -32.960  1.00  0.00     0.039 C 
ATOM     10  G   UNL     1     -11.072  14.727 -30.365  1.00  0.00     0.000 G0
ENDBRANCH   6   7
ENDBRANCH   5   6
ENDBRANCH   3   5
ENDBRANCH   1   3
BRANCH   1  11
ATOM     11  C   UNL     1     -13.571  12.033 -30.076  1.00  0.00     0.087 C 
BRANCH  11  12
ATOM     12  C   UNL     1     -12.634  12.874 -29.163  1.00  0.00     0.066 C 
BRANCH  12  13
ATOM     13  C   UNL     1     -11.379  13.304 -29.927  1.00  0.00     0.140 C 
ATOM     14  O   UNL     1     -10.595  12.420 -30.242  1.00  0.00    -0.299 OA
BRANCH  13  15
ATOM     15  C   UNL     1     -11.055  14.729 -30.355  1.00  0.00     0.106 CG0
ATOM     16  G   UNL     1     -11.677  15.063 -31.703  1.00  0.00     0.000 G0
ENDBRANCH  13  15
ENDBRANCH  12  13
BRANCH  12  17
ATOM     17  C   UNL     1     -12.397  12.287 -27.732  1.00  0.00    -0.006 C 
ATOM     18  C   UNL     1     -12.505  13.381 -26.651  1.00  0.00     0.008 C 
ATOM     19  C   UNL     1     -13.413  11.180 -27.391  1.00  0.00     0.008 C 
ENDBRANCH  12  17
ENDBRANCH  11  12
ENDBRANCH   1  11
TORSDOF 1
ENDMDL
MODEL 5
REMARK VINA RESULT:    -3.672      2.085      4.432
REMARK INTER + INTRA:          -5.909
REMARK INTER:                  -5.487
REMARK INTRA:                  -0.422
REMARK UNBOUND:                -0.305
REMARK SMILES CC1=CCC[C@@H](C)C(=O)C[C@@H](C(C)C)C(=O)C1
REMARK SMILES IDX 8 1 9 2 6 3 7 4 5 5 4 6 3 7 2 8 1 9 10 11 11 12 15 13 16 14
REMARK SMILES IDX 17 15 12 17 13 18 14 19
REMARK H PARENT
REMARK Flexibility Score: 70.00
ROOT
ATOM      1  C   UNL     1     -12.230  13.605 -29.279  1.00  0.00     0.136 C 
ATOM      2  O   UNL     1     -11.506  14.589 -29.238  1.00  0.00    -0.299 OA
ENDROOT
BRANCH   1   3
ATOM      3  C   UNL     1     -12.257  12.651 -28.109  1.00  0.00     0.053 C 
ATOM      4  C   UNL     1     -11.999  11.213 -28.572  1.00  0.00     0.016 C 
BRANCH   3   5
ATOM      5  C   UNL     1     -13.617  12.773 -27.377  1.00  0.00     0.015 C 
BRANCH   5   6
ATOM      6  C   UNL     1     -14.560  11.556 -27.489  1.00  0.00     0.028 C 
BRANCH   6   7
ATOM      7  C   UNL     1     -16.016  11.830 -27.803  1.00  0.00    -0.028 C 
ATOM      8  C   UNL     1     -16.577  11.957 -29.030  1.00  0.00    -0.070 CG0
ATOM      9  C   UNL     1     -18.081  12.073 -29.097  1.00  0.00     0.039 C 
ATOM     10  G   UNL     1     -15.791  12.027 -30.331  1.00  0.00     0.000 G0
ENDBRANCH   6   7
ENDBRANCH   5   6
ENDBRANCH   3   5
ENDBRANCH   1   3
BRANCH   1  11
ATOM     11  C   UNL     1     -13.075  13.356 -30.506  1.00  0.00     0.087 C 
BRANCH  11  12
ATOM     12  C   UNL     1     -14.318  14.280 -30.644  1.00  0.00     0.066 C 
BRANCH  12  13
ATOM     13  C   UNL     1     -15.591  13.450 -30.832  1.00  0.00     0.140 C 
ATOM     14  O   UNL     1     -16.505  13.974 -31.452  1.00  0.00    -0.299 OA
BRANCH  13  15
ATOM     15  C   UNL     1     -15.788  12.021 -30.346  1.00  0.00     0.106 CG0
ATOM     16  G   UNL     1     -16.572  11.975 -29.044  1.00  0.00     0.000 G0
ENDBRANCH  13  15
ENDBRANCH  12  13
BRANCH  12  17
ATOM     17  C   UNL     1     -14.141  15.492 -31.618  1.00  0.00    -0.006 C 
ATOM     18  C   UNL     1     -13.803  16.785 -30.850  1.00  0.00     0.008 C 
ATOM     19  C   UNL     1     -13.021  15.243 -32.646  1.00  0.00     0.008 C 
ENDBRANCH  12  17
ENDBRANCH  11  12
ENDBRANCH   1  11
TORSDOF 1
ENDMDL
MODEL 6
REMARK VINA RESULT:    -3.653      1.606      3.972
REMARK INTER + INTRA:          -5.881
REMARK INTER:                  -5.725
REMARK INTRA:                  -0.156
REMARK UNBOUND:                -0.305
REMARK SMILES CC1=CCC[C@@H](C)C(=O)C[C@@H](C(C)C)C(=O)C1
REMARK SMILES IDX 8 1 9 2 6 3 7 4 5 5 4 6 3 7 2 8 1 9 10 11 11 12 15 13 16 14
REMARK SMILES IDX 17 15 12 17 13 18 14 19
REMARK H PARENT
REMARK Flexibility Score: 70.00
ROOT
ATOM      1  C   UNL     1     -15.822  13.817 -31.010  1.00  0.00     0.136 C 
ATOM      2  O   UNL     1     -16.103  13.886 -32.198  1.00  0.00    -0.299 OA
ENDROOT
BRANCH   1   3
ATOM      3  C   UNL     1     -16.457  12.746 -30.156  1.00  0.00     0.053 C 
ATOM      4  C   UNL     1     -17.965  12.666 -30.414  1.00  0.00     0.016 C 
BRANCH   3   5
ATOM      5  C   UNL     1     -16.154  13.032 -28.664  1.00  0.00     0.015 C 
BRANCH   5   6
ATOM      6  C   UNL     1     -15.193  12.048 -27.964  1.00  0.00     0.028 C 
BRANCH   6   7
ATOM      7  C   UNL     1     -13.996  11.563 -28.754  1.00  0.00    -0.028 C 
ATOM      8  C   UNL     1     -12.795  12.177 -28.877  1.00  0.00    -0.070 CG0
ATOM      9  C   UNL     1     -11.699  11.423 -29.591  1.00  0.00     0.039 C 
ATOM     10  G   UNL     1     -12.493  13.582 -28.376  1.00  0.00     0.000 G0
ENDBRANCH   6   7
ENDBRANCH   5   6
ENDBRANCH   3   5
ENDBRANCH   1   3
BRANCH   1  11
ATOM     11  C   UNL     1     -14.854  14.814 -30.417  1.00  0.00     0.087 C 
BRANCH  11  12
ATOM     12  C   UNL     1     -13.358  14.552 -30.752  1.00  0.00     0.066 C 
BRANCH  12  13
ATOM     13  C   UNL     1     -12.501  14.619 -29.486  1.00  0.00     0.140 C 
ATOM     14  O   UNL     1     -11.789  15.604 -29.352  1.00  0.00    -0.299 OA
BRANCH  13  15
ATOM     15  C   UNL     1     -12.498  13.583 -28.370  1.00  0.00     0.106 CG0
ATOM     16  G   UNL     1     -12.811  12.191 -28.898  1.00  0.00     0.000 G0
ENDBRANCH  13  15
ENDBRANCH  12  13
BRANCH  12  17
ATOM     17  C   UNL     1     -12.808  15.332 -31.993  1.00  0.00    -0.006 C 
ATOM     18  C   UNL     1     -12.679  14.412 -33.222  1.00  0.00     0.008 C 
ATOM     19  C   UNL     1     -13.718  16.514 -32.377  1.00  0.00     0.008 C 
ENDBRANCH  12  17
ENDBRANCH  11  12
ENDBRANCH   1  11
TORSDOF 1
ENDMDL
MODEL 7
REMARK VINA RESULT:    -3.630      1.640      3.826
REMARK INTER + INTRA:          -5.845
REMARK INTER:                  -5.728
REMARK INTRA:                  -0.117
REMARK UNBOUND:                -0.305
REMARK SMILES CC1=CCC[C@@H](C)C(=O)C[C@@H](C(C)C)C(=O)C1
REMARK SMILES IDX 8 1 9 2 6 3 7 4 5 5 4 6 3 7 2 8 1 9 10 11 11 12 15 13 16 14
REMARK SMILES IDX 17 15 12 17 13 18 14 19
REMARK H PARENT
REMARK Flexibility Score: 70.00
ROOT
ATOM      1  C   UNL     1     -14.877  12.266 -28.007  1.00  0.00     0.136 C 
ATOM      2  O   UNL     1     -15.567  11.537 -27.309  1.00  0.00    -0.299 OA
ENDROOT
BRANCH   1   3
ATOM      3  C   UNL     1     -13.375  12.110 -27.988  1.00  0.00     0.053 C 
ATOM      4  C   UNL     1     -12.915  11.422 -26.699  1.00  0.00     0.016 C 
BRANCH   3   5
ATOM      5  C   UNL     1     -12.711  13.501 -28.153  1.00  0.00     0.015 C 
BRANCH   5   6
ATOM      6  C   UNL     1     -11.945  13.737 -29.471  1.00  0.00     0.028 C 
BRANCH   6   7
ATOM      7  C   UNL     1     -12.340  14.940 -30.301  1.00  0.00    -0.028 C 
ATOM      8  C   UNL     1     -13.289  14.991 -31.267  1.00  0.00    -0.070 CG0
ATOM      9  C   UNL     1     -13.614  16.344 -31.850  1.00  0.00     0.039 C 
ATOM     10  G   UNL     1     -14.016  13.775 -31.821  1.00  0.00     0.000 G0
ENDBRANCH   6   7
ENDBRANCH   5   6
ENDBRANCH   3   5
ENDBRANCH   1   3
BRANCH   1  11
ATOM     11  C   UNL     1     -15.539  13.317 -28.866  1.00  0.00     0.087 C 
BRANCH  11  12
ATOM     12  C   UNL     1     -16.030  12.814 -30.254  1.00  0.00     0.066 C 
BRANCH  12  13
ATOM     13  C   UNL     1     -15.487  13.704 -31.375  1.00  0.00     0.140 C 
ATOM     14  O   UNL     1     -16.286  14.450 -31.924  1.00  0.00    -0.299 OA
BRANCH  13  15
ATOM     15  C   UNL     1     -14.033  13.763 -31.825  1.00  0.00     0.106 CG0
ATOM     16  G   UNL     1     -13.317  14.976 -31.250  1.00  0.00     0.000 G0
ENDBRANCH  13  15
ENDBRANCH  12  13
BRANCH  12  17
ATOM     17  C   UNL     1     -17.554  12.465 -30.335  1.00  0.00    -0.006 C 
ATOM     18  C   UNL     1     -17.835  11.051 -29.791  1.00  0.00     0.008 C 
ATOM     19  C   UNL     1     -18.413  13.462 -29.535  1.00  0.00     0.008 C 
ENDBRANCH  12  17
ENDBRANCH  11  12
ENDBRANCH   1  11
TORSDOF 1
ENDMDL
MODEL 8
REMARK VINA RESULT:    -3.593      1.969      4.734
REMARK INTER + INTRA:          -5.789
REMARK INTER:                  -5.880
REMARK INTRA:                   0.091
REMARK UNBOUND:                -0.305
REMARK SMILES CC1=CCC[C@@H](C)C(=O)C[C@@H](C(C)C)C(=O)C1
REMARK SMILES IDX 8 1 9 2 6 3 7 4 5 5 4 6 3 7 2 8 1 9 10 11 11 12 15 13 16 14
REMARK SMILES IDX 17 15 12 17 13 18 14 19
REMARK H PARENT
REMARK Flexibility Score: 70.00
ROOT
ATOM      1  C   UNL     1     -14.731  12.262 -29.694  1.00  0.00     0.136 C 
ATOM      2  O   UNL     1     -15.004  11.128 -30.061  1.00  0.00    -0.299 OA
ENDROOT
BRANCH   1   3
ATOM      3  C   UNL     1     -15.802  13.327 -29.709  1.00  0.00     0.053 C 
ATOM      4  C   UNL     1     -16.751  13.162 -28.516  1.00  0.00     0.016 C 
BRANCH   3   5
ATOM      5  C   UNL     1     -16.570  13.266 -31.053  1.00  0.00     0.015 C 
BRANCH   5   6
ATOM      6  C   UNL     1     -15.790  13.723 -32.303  1.00  0.00     0.028 C 
BRANCH   6   7
ATOM      7  C   UNL     1     -14.999  15.009 -32.200  1.00  0.00    -0.028 C 
ATOM      8  C   UNL     1     -13.682  15.184 -32.472  1.00  0.00    -0.070 CG0
ATOM      9  C   UNL     1     -13.149  16.596 -32.446  1.00  0.00     0.039 C 
ATOM     10  G   UNL     1     -12.709  14.052 -32.764  1.00  0.00     0.000 G0
ENDBRANCH   6   7
ENDBRANCH   5   6
ENDBRANCH   3   5
ENDBRANCH   1   3
BRANCH   1  11
ATOM     11  C   UNL     1     -13.325  12.578 -29.243  1.00  0.00     0.087 C 
BRANCH  11  12
ATOM     12  C   UNL     1     -12.601  13.675 -30.076  1.00  0.00     0.066 C 
BRANCH  12  13
ATOM     13  C   UNL     1     -12.406  13.213 -31.522  1.00  0.00     0.140 C 
ATOM     14  O   UNL     1     -12.037  12.059 -31.688  1.00  0.00    -0.299 OA
BRANCH  13  15
ATOM     15  C   UNL     1     -12.673  14.060 -32.759  1.00  0.00     0.106 CG0
ATOM     16  G   UNL     1     -13.665  15.176 -32.471  1.00  0.00     0.000 G0
ENDBRANCH  13  15
ENDBRANCH  12  13
BRANCH  12  17
ATOM     17  C   UNL     1     -11.351  14.317 -29.387  1.00  0.00    -0.006 C 
ATOM     18  C   UNL     1     -10.465  15.056 -30.409  1.00  0.00     0.008 C 
ATOM     19  C   UNL     1     -11.753  15.322 -28.292  1.00  0.00     0.008 C 
ENDBRANCH  12  17
ENDBRANCH  11  12
ENDBRANCH   1  11
TORSDOF 1
ENDMDL
MODEL 9
REMARK VINA RESULT:    -3.437      2.082      4.245
REMARK INTER + INTRA:          -5.551
REMARK INTER:                  -5.156
REMARK INTRA:                  -0.395
REMARK UNBOUND:                -0.305
REMARK SMILES CC1=CCC[C@@H](C)C(=O)C[C@@H](C(C)C)C(=O)C1
REMARK SMILES IDX 8 1 9 2 6 3 7 4 5 5 4 6 3 7 2 8 1 9 10 11 11 12 15 13 16 14
REMARK SMILES IDX 17 15 12 17 13 18 14 19
REMARK H PARENT
REMARK Flexibility Score: 70.00
ROOT
ATOM      1  C   UNL     1     -12.100  14.503 -28.623  1.00  0.00     0.136 C 
ATOM      2  O   UNL     1     -11.546  15.392 -27.993  1.00  0.00    -0.299 OA
ENDROOT
BRANCH   1   3
ATOM      3  C   UNL     1     -11.908  14.420 -30.119  1.00  0.00     0.053 C 
ATOM      4  C   UNL     1     -10.457  14.732 -30.500  1.00  0.00     0.016 C 
BRANCH   3   5
ATOM      5  C   UNL     1     -12.895  15.387 -30.819  1.00  0.00     0.015 C 
BRANCH   5   6
ATOM      6  C   UNL     1     -14.296  15.507 -30.184  1.00  0.00     0.028 C 
BRANCH   6   7
ATOM      7  C   UNL     1     -15.411  14.686 -30.795  1.00  0.00    -0.028 C 
ATOM      8  C   UNL     1     -16.184  13.764 -30.170  1.00  0.00    -0.070 CG0
ATOM      9  C   UNL     1     -17.339  13.184 -30.949  1.00  0.00     0.039 C 
ATOM     10  G   UNL     1     -15.940  13.254 -28.758  1.00  0.00     0.000 G0
ENDBRANCH   6   7
ENDBRANCH   5   6
ENDBRANCH   3   5
ENDBRANCH   1   3
BRANCH   1  11
ATOM     11  C   UNL     1     -12.977  13.513 -27.895  1.00  0.00     0.087 C 
BRANCH  11  12
ATOM     12  C   UNL     1     -13.399  12.272 -28.733  1.00  0.00     0.066 C 
BRANCH  12  13
ATOM     13  C   UNL     1     -14.921  12.108 -28.728  1.00  0.00     0.140 C 
ATOM     14  O   UNL     1     -15.353  10.965 -28.674  1.00  0.00    -0.299 OA
BRANCH  13  15
ATOM     15  C   UNL     1     -15.928  13.250 -28.744  1.00  0.00     0.106 CG0
ATOM     16  G   UNL     1     -16.189  13.747 -30.158  1.00  0.00     0.000 G0
ENDBRANCH  13  15
ENDBRANCH  12  13
BRANCH  12  17
ATOM     17  C   UNL     1     -12.569  10.972 -28.460  1.00  0.00    -0.006 C 
ATOM     18  C   UNL     1     -11.321  10.905 -29.361  1.00  0.00     0.008 C 
ATOM     19  C   UNL     1     -12.104  10.886 -26.994  1.00  0.00     0.008 C 
ENDBRANCH  12  17
ENDBRANCH  11  12
ENDBRANCH   1  11
TORSDOF 1
ENDMDL
