MODEL 1
REMARK VINA RESULT:    -6.291      0.000      0.000
REMARK INTER + INTRA:          -9.695
REMARK INTER:                  -8.682
REMARK INTRA:                  -1.013
REMARK UNBOUND:                -1.013
REMARK SMILES CCCCc1cccc(O)c1CCCC
REMARK SMILES IDX 5 1 11 2 9 3 8 4 7 5 6 6 4 7 3 8 2 9 1 10 12 11 13 12 14 13
REMARK SMILES IDX 15 14 10 15
REMARK H PARENT 10 16
REMARK Flexibility Score: inf
ROOT
ATOM      1  C   UNL     1      -5.403   8.975 -14.638  1.00  0.00    -0.041 A 
ATOM      2  C   UNL     1      -6.366   9.229 -13.615  1.00  0.00    -0.003 A 
ATOM      3  C   UNL     1      -6.090  10.224 -12.648  1.00  0.00     0.119 A 
ATOM      4  C   UNL     1      -4.874  10.915 -12.670  1.00  0.00     0.046 A 
ATOM      5  C   UNL     1      -3.921  10.633 -13.643  1.00  0.00     0.004 A 
ATOM      6  C   UNL     1      -4.182   9.674 -14.618  1.00  0.00     0.004 A 
ENDROOT
BRANCH   1   7
ATOM      7  C   UNL     1      -5.626   7.985 -15.765  1.00  0.00     0.036 C 
BRANCH   7   8
ATOM      8  C   UNL     1      -5.087   8.521 -17.100  1.00  0.00     0.004 C 
BRANCH   8   9
ATOM      9  C   UNL     1      -6.121   9.371 -17.854  1.00  0.00    -0.003 C 
ATOM     10  C   UNL     1      -5.748  10.852 -17.891  1.00  0.00     0.004 C 
ENDBRANCH   8   9
ENDBRANCH   7   8
ENDBRANCH   1   7
BRANCH   2  11
ATOM     11  C   UNL     1      -7.663   8.447 -13.496  1.00  0.00     0.040 C 
BRANCH  11  12
ATOM     12  C   UNL     1      -8.797   9.132 -14.273  1.00  0.00     0.005 C 
BRANCH  12  13
ATOM     13  C   UNL     1      -9.389   8.192 -15.330  1.00  0.00    -0.003 C 
ATOM     14  C   UNL     1     -10.449   7.277 -14.725  1.00  0.00     0.004 C 
ENDBRANCH  12  13
ENDBRANCH  11  12
ENDBRANCH   2  11
BRANCH   3  15
ATOM     15  O   UNL     1      -7.030  10.526 -11.662  1.00  0.00    -0.508 OA
ATOM     16  H   UNL     1      -7.109  11.455 -11.266  1.00  0.00     0.293 HD
ENDBRANCH   3  15
TORSDOF 7
ENDMDL
MODEL 2
REMARK VINA RESULT:    -6.192      1.613      3.641
REMARK INTER + INTRA:          -9.558
REMARK INTER:                  -8.430
REMARK INTRA:                  -1.128
REMARK UNBOUND:                -1.013
REMARK SMILES CCCCc1cccc(O)c1CCCC
REMARK SMILES IDX 5 1 11 2 9 3 8 4 7 5 6 6 4 7 3 8 2 9 1 10 12 11 13 12 14 13
REMARK SMILES IDX 15 14 10 15
REMARK H PARENT 10 16
REMARK Flexibility Score: inf
ROOT
ATOM      1  C   UNL     1      -6.196   8.310 -14.954  1.00  0.00    -0.041 A 
ATOM      2  C   UNL     1      -5.604   8.990 -13.847  1.00  0.00    -0.003 A 
ATOM      3  C   UNL     1      -4.450   9.779 -14.066  1.00  0.00     0.119 A 
ATOM      4  C   UNL     1      -3.875   9.854 -15.339  1.00  0.00     0.046 A 
ATOM      5  C   UNL     1      -4.432   9.156 -16.405  1.00  0.00     0.004 A 
ATOM      6  C   UNL     1      -5.580   8.392 -16.217  1.00  0.00     0.004 A 
ENDROOT
BRANCH   1   7
ATOM      7  C   UNL     1      -7.472   7.498 -14.848  1.00  0.00     0.036 C 
BRANCH   7   8
ATOM      8  C   UNL     1      -8.700   8.323 -15.263  1.00  0.00     0.004 C 
BRANCH   8   9
ATOM      9  C   UNL     1      -9.865   8.187 -14.271  1.00  0.00    -0.003 C 
ATOM     10  C   UNL     1     -10.692   6.924 -14.506  1.00  0.00     0.004 C 
ENDBRANCH   8   9
ENDBRANCH   7   8
ENDBRANCH   1   7
BRANCH   2  11
ATOM     11  C   UNL     1      -6.138   8.871 -12.430  1.00  0.00     0.040 C 
BRANCH  11  12
ATOM     12  C   UNL     1      -7.217   9.929 -12.153  1.00  0.00     0.005 C 
BRANCH  12  13
ATOM     13  C   UNL     1      -8.245   9.417 -11.136  1.00  0.00    -0.003 C 
ATOM     14  C   UNL     1      -7.957   7.972 -10.739  1.00  0.00     0.004 C 
ENDBRANCH  12  13
ENDBRANCH  11  12
ENDBRANCH   2  11
BRANCH   3  15
ATOM     15  O   UNL     1      -3.875  10.490 -13.013  1.00  0.00    -0.508 OA
ATOM     16  H   UNL     1      -4.170  10.354 -12.053  1.00  0.00     0.293 HD
ENDBRANCH   3  15
TORSDOF 7
ENDMDL
MODEL 3
REMARK VINA RESULT:    -6.073      1.164      3.503
REMARK INTER + INTRA:          -9.394
REMARK INTER:                  -8.319
REMARK INTRA:                  -1.075
REMARK UNBOUND:                -1.013
REMARK SMILES CCCCc1cccc(O)c1CCCC
REMARK SMILES IDX 5 1 11 2 9 3 8 4 7 5 6 6 4 7 3 8 2 9 1 10 12 11 13 12 14 13
REMARK SMILES IDX 15 14 10 15
REMARK H PARENT 10 16
REMARK Flexibility Score: inf
ROOT
ATOM      1  C   UNL     1      -6.415   8.460 -15.177  1.00  0.00    -0.041 A 
ATOM      2  C   UNL     1      -6.119   8.786 -13.819  1.00  0.00    -0.003 A 
ATOM      3  C   UNL     1      -7.176   8.823 -12.878  1.00  0.00     0.119 A 
ATOM      4  C   UNL     1      -8.494   8.587 -13.285  1.00  0.00     0.046 A 
ATOM      5  C   UNL     1      -8.781   8.312 -14.617  1.00  0.00     0.004 A 
ATOM      6  C   UNL     1      -7.754   8.248 -15.555  1.00  0.00     0.004 A 
ENDROOT
BRANCH   1   7
ATOM      7  C   UNL     1      -5.353   8.321 -16.251  1.00  0.00     0.036 C 
BRANCH   7   8
ATOM      8  C   UNL     1      -5.742   9.080 -17.528  1.00  0.00     0.004 C 
BRANCH   8   9
ATOM      9  C   UNL     1      -5.161  10.502 -17.569  1.00  0.00    -0.003 C 
ATOM     10  C   UNL     1      -6.073  11.488 -18.299  1.00  0.00     0.004 C 
ENDBRANCH   8   9
ENDBRANCH   7   8
ENDBRANCH   1   7
BRANCH   2  11
ATOM     11  C   UNL     1      -4.719   9.135 -13.345  1.00  0.00     0.040 C 
BRANCH  11  12
ATOM     12  C   UNL     1      -4.232  10.450 -13.974  1.00  0.00     0.005 C 
BRANCH  12  13
ATOM     13  C   UNL     1      -5.049  11.643 -13.463  1.00  0.00    -0.003 C 
ATOM     14  C   UNL     1      -6.098  12.071 -14.485  1.00  0.00     0.004 C 
ENDBRANCH  12  13
ENDBRANCH  11  12
ENDBRANCH   2  11
BRANCH   3  15
ATOM     15  O   UNL     1      -6.912   9.095 -11.536  1.00  0.00    -0.508 OA
ATOM     16  H   UNL     1      -6.990   8.381 -10.821  1.00  0.00     0.293 HD
ENDBRANCH   3  15
TORSDOF 7
ENDMDL
MODEL 4
REMARK VINA RESULT:    -5.984      1.357      3.965
REMARK INTER + INTRA:          -9.271
REMARK INTER:                  -8.072
REMARK INTRA:                  -1.199
REMARK UNBOUND:                -1.013
REMARK SMILES CCCCc1cccc(O)c1CCCC
REMARK SMILES IDX 5 1 11 2 9 3 8 4 7 5 6 6 4 7 3 8 2 9 1 10 12 11 13 12 14 13
REMARK SMILES IDX 15 14 10 15
REMARK H PARENT 10 16
REMARK Flexibility Score: inf
ROOT
ATOM      1  C   UNL     1      -7.639   8.677 -14.810  1.00  0.00    -0.041 A 
ATOM      2  C   UNL     1      -7.759   9.923 -14.124  1.00  0.00    -0.003 A 
ATOM      3  C   UNL     1      -8.927  10.177 -13.366  1.00  0.00     0.119 A 
ATOM      4  C   UNL     1      -9.963   9.238 -13.326  1.00  0.00     0.046 A 
ATOM      5  C   UNL     1      -9.859   8.044 -14.031  1.00  0.00     0.004 A 
ATOM      6  C   UNL     1      -8.709   7.764 -14.765  1.00  0.00     0.004 A 
ENDROOT
BRANCH   1   7
ATOM      7  C   UNL     1      -6.404   8.271 -15.590  1.00  0.00     0.036 C 
BRANCH   7   8
ATOM      8  C   UNL     1      -6.420   8.852 -17.012  1.00  0.00     0.004 C 
BRANCH   8   9
ATOM      9  C   UNL     1      -5.174   9.695 -17.319  1.00  0.00    -0.003 C 
ATOM     10  C   UNL     1      -3.888   9.055 -16.796  1.00  0.00     0.004 C 
ENDBRANCH   8   9
ENDBRANCH   7   8
ENDBRANCH   1   7
BRANCH   2  11
ATOM     11  C   UNL     1      -6.701  11.010 -14.205  1.00  0.00     0.040 C 
BRANCH  11  12
ATOM     12  C   UNL     1      -5.706  10.904 -13.040  1.00  0.00     0.005 C 
BRANCH  12  13
ATOM     13  C   UNL     1      -4.303  10.539 -13.542  1.00  0.00    -0.003 C 
ATOM     14  C   UNL     1      -3.875   9.166 -13.036  1.00  0.00     0.004 C 
ENDBRANCH  12  13
ENDBRANCH  11  12
ENDBRANCH   2  11
BRANCH   3  15
ATOM     15  O   UNL     1      -9.054  11.367 -12.649  1.00  0.00    -0.508 OA
ATOM     16  H   UNL     1      -8.576  12.214 -12.932  1.00  0.00     0.293 HD
ENDBRANCH   3  15
TORSDOF 7
ENDMDL
MODEL 5
REMARK VINA RESULT:    -5.860      2.065      3.738
REMARK INTER + INTRA:          -9.099
REMARK INTER:                  -7.715
REMARK INTRA:                  -1.385
REMARK UNBOUND:                -1.013
REMARK SMILES CCCCc1cccc(O)c1CCCC
REMARK SMILES IDX 5 1 11 2 9 3 8 4 7 5 6 6 4 7 3 8 2 9 1 10 12 11 13 12 14 13
REMARK SMILES IDX 15 14 10 15
REMARK H PARENT 10 16
REMARK Flexibility Score: inf
ROOT
ATOM      1  C   UNL     1      -5.961   9.130 -13.182  1.00  0.00    -0.041 A 
ATOM      2  C   UNL     1      -6.080   8.573 -14.490  1.00  0.00    -0.003 A 
ATOM      3  C   UNL     1      -5.135   8.937 -15.479  1.00  0.00     0.119 A 
ATOM      4  C   UNL     1      -4.127   9.862 -15.187  1.00  0.00     0.046 A 
ATOM      5  C   UNL     1      -4.041  10.434 -13.922  1.00  0.00     0.004 A 
ATOM      6  C   UNL     1      -4.946  10.073 -12.929  1.00  0.00     0.004 A 
ENDROOT
BRANCH   1   7
ATOM      7  C   UNL     1      -6.872   8.755 -12.030  1.00  0.00     0.036 C 
BRANCH   7   8
ATOM      8  C   UNL     1      -7.590   9.986 -11.456  1.00  0.00     0.004 C 
BRANCH   8   9
ATOM      9  C   UNL     1      -9.099   9.977 -11.746  1.00  0.00    -0.003 C 
ATOM     10  C   UNL     1      -9.491  10.961 -12.847  1.00  0.00     0.004 C 
ENDBRANCH   8   9
ENDBRANCH   7   8
ENDBRANCH   1   7
BRANCH   2  11
ATOM     11  C   UNL     1      -7.207   7.633 -14.882  1.00  0.00     0.040 C 
BRANCH  11  12
ATOM     12  C   UNL     1      -8.477   8.413 -15.255  1.00  0.00     0.005 C 
BRANCH  12  13
ATOM     13  C   UNL     1      -9.739   7.620 -14.892  1.00  0.00    -0.003 C 
ATOM     14  C   UNL     1      -9.563   6.875 -13.573  1.00  0.00     0.004 C 
ENDBRANCH  12  13
ENDBRANCH  11  12
ENDBRANCH   2  11
BRANCH   3  15
ATOM     15  O   UNL     1      -5.200   8.376 -16.754  1.00  0.00    -0.508 OA
ATOM     16  H   UNL     1      -5.353   7.384 -16.893  1.00  0.00     0.293 HD
ENDBRANCH   3  15
TORSDOF 7
ENDMDL
MODEL 6
REMARK VINA RESULT:    -5.769      2.027      4.440
REMARK INTER + INTRA:          -8.974
REMARK INTER:                  -7.618
REMARK INTRA:                  -1.356
REMARK UNBOUND:                -1.013
REMARK SMILES CCCCc1cccc(O)c1CCCC
REMARK SMILES IDX 5 1 11 2 9 3 8 4 7 5 6 6 4 7 3 8 2 9 1 10 12 11 13 12 14 13
REMARK SMILES IDX 15 14 10 15
REMARK H PARENT 10 16
REMARK Flexibility Score: inf
ROOT
ATOM      1  C   UNL     1      -7.666   9.136 -12.822  1.00  0.00    -0.041 A 
ATOM      2  C   UNL     1      -8.284   8.509 -13.946  1.00  0.00    -0.003 A 
ATOM      3  C   UNL     1      -9.673   8.684 -14.150  1.00  0.00     0.119 A 
ATOM      4  C   UNL     1     -10.434   9.424 -13.239  1.00  0.00     0.046 A 
ATOM      5  C   UNL     1      -9.835   9.997 -12.122  1.00  0.00     0.004 A 
ATOM      6  C   UNL     1      -8.466   9.856 -11.915  1.00  0.00     0.004 A 
ENDROOT
BRANCH   1   7
ATOM      7  C   UNL     1      -6.176   9.075 -12.548  1.00  0.00     0.036 C 
BRANCH   7   8
ATOM      8  C   UNL     1      -5.561  10.480 -12.468  1.00  0.00     0.004 C 
BRANCH   8   9
ATOM      9  C   UNL     1      -5.096  10.999 -13.837  1.00  0.00    -0.003 C 
ATOM     10  C   UNL     1      -6.166  11.833 -14.542  1.00  0.00     0.004 C 
ENDBRANCH   8   9
ENDBRANCH   7   8
ENDBRANCH   1   7
BRANCH   2  11
ATOM     11  C   UNL     1      -7.519   7.625 -14.916  1.00  0.00     0.040 C 
BRANCH  11  12
ATOM     12  C   UNL     1      -6.841   8.460 -16.013  1.00  0.00     0.005 C 
BRANCH  12  13
ATOM     13  C   UNL     1      -5.337   8.170 -16.079  1.00  0.00    -0.003 C 
ATOM     14  C   UNL     1      -4.627   9.148 -17.010  1.00  0.00     0.004 C 
ENDBRANCH  12  13
ENDBRANCH  11  12
ENDBRANCH   2  11
BRANCH   3  15
ATOM     15  O   UNL     1     -10.297   8.121 -15.263  1.00  0.00    -0.508 OA
ATOM     16  H   UNL     1      -9.769   7.658 -15.994  1.00  0.00     0.293 HD
ENDBRANCH   3  15
TORSDOF 7
ENDMDL
MODEL 7
REMARK VINA RESULT:    -5.485      2.519      4.991
REMARK INTER + INTRA:          -8.582
REMARK INTER:                  -7.467
REMARK INTRA:                  -1.115
REMARK UNBOUND:                -1.013
REMARK SMILES CCCCc1cccc(O)c1CCCC
REMARK SMILES IDX 5 1 11 2 9 3 8 4 7 5 6 6 4 7 3 8 2 9 1 10 12 11 13 12 14 13
REMARK SMILES IDX 15 14 10 15
REMARK H PARENT 10 16
REMARK Flexibility Score: inf
ROOT
ATOM      1  C   UNL     1      -9.530  10.226 -12.888  1.00  0.00    -0.041 A 
ATOM      2  C   UNL     1      -8.711  10.192 -11.719  1.00  0.00    -0.003 A 
ATOM      3  C   UNL     1      -9.104  10.945 -10.587  1.00  0.00     0.119 A 
ATOM      4  C   UNL     1     -10.253  11.742 -10.630  1.00  0.00     0.046 A 
ATOM      5  C   UNL     1     -11.024  11.804 -11.786  1.00  0.00     0.004 A 
ATOM      6  C   UNL     1     -10.668  11.054 -12.904  1.00  0.00     0.004 A 
ENDROOT
BRANCH   1   7
ATOM      7  C   UNL     1      -9.244   9.404 -14.130  1.00  0.00     0.036 C 
BRANCH   7   8
ATOM      8  C   UNL     1      -9.878   8.008 -14.039  1.00  0.00     0.004 C 
BRANCH   8   9
ATOM      9  C   UNL     1      -8.833   6.882 -14.057  1.00  0.00    -0.003 C 
ATOM     10  C   UNL     1      -7.563   7.273 -14.813  1.00  0.00     0.004 C 
ENDBRANCH   8   9
ENDBRANCH   7   8
ENDBRANCH   1   7
BRANCH   2  11
ATOM     11  C   UNL     1      -7.410   9.413 -11.651  1.00  0.00     0.040 C 
BRANCH  11  12
ATOM     12  C   UNL     1      -6.261  10.192 -12.309  1.00  0.00     0.005 C 
BRANCH  12  13
ATOM     13  C   UNL     1      -5.102   9.259 -12.681  1.00  0.00    -0.003 C 
ATOM     14  C   UNL     1      -4.641   9.496 -14.115  1.00  0.00     0.004 C 
ENDBRANCH  12  13
ENDBRANCH  11  12
ENDBRANCH   2  11
BRANCH   3  15
ATOM     15  O   UNL     1      -8.348  10.898  -9.415  1.00  0.00    -0.508 OA
ATOM     16  H   UNL     1      -7.360  11.124  -9.407  1.00  0.00     0.293 HD
ENDBRANCH   3  15
TORSDOF 7
ENDMDL
MODEL 8
REMARK VINA RESULT:    -5.446      2.195      4.300
REMARK INTER + INTRA:          -8.528
REMARK INTER:                  -7.411
REMARK INTRA:                  -1.117
REMARK UNBOUND:                -1.013
REMARK SMILES CCCCc1cccc(O)c1CCCC
REMARK SMILES IDX 5 1 11 2 9 3 8 4 7 5 6 6 4 7 3 8 2 9 1 10 12 11 13 12 14 13
REMARK SMILES IDX 15 14 10 15
REMARK H PARENT 10 16
REMARK Flexibility Score: inf
ROOT
ATOM      1  C   UNL     1      -7.372   8.080 -13.962  1.00  0.00    -0.041 A 
ATOM      2  C   UNL     1      -6.591   8.728 -12.958  1.00  0.00    -0.003 A 
ATOM      3  C   UNL     1      -5.327   9.259 -13.310  1.00  0.00     0.119 A 
ATOM      4  C   UNL     1      -4.835   9.110 -14.611  1.00  0.00     0.046 A 
ATOM      5  C   UNL     1      -5.581   8.440 -15.574  1.00  0.00     0.004 A 
ATOM      6  C   UNL     1      -6.836   7.931 -15.255  1.00  0.00     0.004 A 
ENDROOT
BRANCH   1   7
ATOM      7  C   UNL     1      -8.767   7.541 -13.714  1.00  0.00     0.036 C 
BRANCH   7   8
ATOM      8  C   UNL     1      -9.844   8.531 -14.181  1.00  0.00     0.004 C 
BRANCH   8   9
ATOM      9  C   UNL     1     -10.848   8.877 -13.071  1.00  0.00    -0.003 C 
ATOM     10  C   UNL     1     -11.061  10.383 -12.920  1.00  0.00     0.004 C 
ENDBRANCH   8   9
ENDBRANCH   7   8
ENDBRANCH   1   7
BRANCH   2  11
ATOM     11  C   UNL     1      -7.043   8.839 -11.512  1.00  0.00     0.040 C 
BRANCH  11  12
ATOM     12  C   UNL     1      -7.769  10.169 -11.257  1.00  0.00     0.005 C 
BRANCH  12  13
ATOM     13  C   UNL     1      -8.772  10.039 -10.104  1.00  0.00    -0.003 C 
ATOM     14  C   UNL     1      -9.374  11.393  -9.741  1.00  0.00     0.004 C 
ENDBRANCH  12  13
ENDBRANCH  11  12
ENDBRANCH   2  11
BRANCH   3  15
ATOM     15  O   UNL     1      -4.561   9.936 -12.361  1.00  0.00    -0.508 OA
ATOM     16  H   UNL     1      -4.500   9.622 -11.400  1.00  0.00     0.293 HD
ENDBRANCH   3  15
TORSDOF 7
ENDMDL
MODEL 9
REMARK VINA RESULT:    -5.265      2.514      4.303
REMARK INTER + INTRA:          -8.278
REMARK INTER:                  -7.515
REMARK INTRA:                  -0.763
REMARK UNBOUND:                -1.013
REMARK SMILES CCCCc1cccc(O)c1CCCC
REMARK SMILES IDX 5 1 11 2 9 3 8 4 7 5 6 6 4 7 3 8 2 9 1 10 12 11 13 12 14 13
REMARK SMILES IDX 15 14 10 15
REMARK H PARENT 10 16
REMARK Flexibility Score: inf
ROOT
ATOM      1  C   UNL     1      -7.549   9.295 -13.759  1.00  0.00    -0.041 A 
ATOM      2  C   UNL     1      -8.940   9.554 -13.571  1.00  0.00    -0.003 A 
ATOM      3  C   UNL     1      -9.872   8.528 -13.857  1.00  0.00     0.119 A 
ATOM      4  C   UNL     1      -9.437   7.296 -14.357  1.00  0.00     0.046 A 
ATOM      5  C   UNL     1      -8.083   7.064 -14.579  1.00  0.00     0.004 A 
ATOM      6  C   UNL     1      -7.148   8.052 -14.282  1.00  0.00     0.004 A 
ENDROOT
BRANCH   1   7
ATOM      7  C   UNL     1      -6.462  10.295 -13.415  1.00  0.00     0.036 C 
BRANCH   7   8
ATOM      8  C   UNL     1      -5.110   9.601 -13.190  1.00  0.00     0.004 C 
BRANCH   8   9
ATOM      9  C   UNL     1      -3.986  10.211 -14.041  1.00  0.00    -0.003 C 
ATOM     10  C   UNL     1      -3.876   9.563 -15.421  1.00  0.00     0.004 C 
ENDBRANCH   8   9
ENDBRANCH   7   8
ENDBRANCH   1   7
BRANCH   2  11
ATOM     11  C   UNL     1      -9.470  10.902 -13.113  1.00  0.00     0.040 C 
BRANCH  11  12
ATOM     12  C   UNL     1      -9.669  10.932 -11.590  1.00  0.00     0.005 C 
BRANCH  12  13
ATOM     13  C   UNL     1     -10.926  11.724 -11.212  1.00  0.00    -0.003 C 
ATOM     14  C   UNL     1     -11.643  12.248 -12.452  1.00  0.00     0.004 C 
ENDBRANCH  12  13
ENDBRANCH  11  12
ENDBRANCH   2  11
BRANCH   3  15
ATOM     15  O   UNL     1     -11.235   8.736 -13.642  1.00  0.00    -0.508 OA
ATOM     16  H   UNL     1     -11.838   9.110 -14.364  1.00  0.00     0.293 HD
ENDBRANCH   3  15
TORSDOF 7
ENDMDL
