MODEL 1
REMARK VINA RESULT:    -6.627      0.000      0.000
REMARK INTER + INTRA:          -7.882
REMARK INTER:                  -7.595
REMARK INTRA:                  -0.287
REMARK UNBOUND:                -0.287
REMARK SMILES O=C1C[C@H](c2ccc(O)cc2)Oc2cc(O)cc(O)c21
REMARK SMILES IDX 3 1 4 2 12 3 13 4 14 5 15 6 17 7 18 8 20 9 2 10 1 11 5 12
REMARK SMILES IDX 6 13 11 14 7 15 10 16 8 17 9 18 19 20 16 22
REMARK H PARENT 9 19 19 21 16 23
REMARK Flexibility Score: inf
ROOT
ATOM      1  C   UNL     1       5.468 -13.988   6.291  1.00  0.00     0.131 C 
ATOM      2  C   UNL     1       4.945 -15.351   6.765  1.00  0.00     0.211 C 
ATOM      3  O   UNL     1       5.940 -16.032   7.534  1.00  0.00    -0.484 OA
ATOM      4  C   UNL     1       7.302 -16.004   7.202  1.00  0.00     0.138 A 
ATOM      5  C   UNL     1       8.169 -16.906   7.824  1.00  0.00     0.093 A 
ATOM      6  C   UNL     1       9.529 -16.912   7.503  1.00  0.00     0.123 A 
ATOM      7  C   UNL     1      10.027 -15.993   6.577  1.00  0.00     0.093 A 
ATOM      8  C   UNL     1       9.184 -15.054   5.971  1.00  0.00     0.133 A 
ATOM      9  C   UNL     1       7.794 -15.075   6.260  1.00  0.00     0.102 A 
ATOM     10  C   UNL     1       6.797 -14.176   5.625  1.00  0.00     0.174 C 
ATOM     11  O   UNL     1       7.021 -13.615   4.520  1.00  0.00    -0.294 OA
ENDROOT
BRANCH   2  12
ATOM     12  C   UNL     1       3.685 -15.186   7.579  1.00  0.00    -0.007 A 
ATOM     13  C   UNL     1       3.488 -14.028   8.351  1.00  0.00     0.011 A 
ATOM     14  C   UNL     1       2.721 -16.208   7.622  1.00  0.00     0.011 A 
ATOM     15  C   UNL     1       2.336 -13.884   9.130  1.00  0.00     0.046 A 
ATOM     16  C   UNL     1       1.571 -16.064   8.402  1.00  0.00     0.046 A 
ATOM     17  C   UNL     1       1.374 -14.899   9.157  1.00  0.00     0.115 A 
BRANCH  17  18
ATOM     18  O   UNL     1       0.231 -14.743   9.938  1.00  0.00    -0.508 OA
ATOM     19  H   UNL     1      -0.508 -15.436   9.938  1.00  0.00     0.293 HD
ENDBRANCH  17  18
ENDBRANCH   2  12
BRANCH   8  20
ATOM     20  O   UNL     1       9.775 -14.109   5.129  1.00  0.00    -0.507 OA
ATOM     21  H   UNL     1      10.733 -13.804   5.207  1.00  0.00     0.293 HD
ENDBRANCH   8  20
BRANCH   6  22
ATOM     22  O   UNL     1      10.396 -17.822   8.103  1.00  0.00    -0.508 OA
ATOM     23  H   UNL     1      10.397 -18.802   7.846  1.00  0.00     0.293 HD
ENDBRANCH   6  22
TORSDOF 4
ENDMDL
MODEL 2
REMARK VINA RESULT:    -6.543      1.599      3.547
REMARK INTER + INTRA:          -7.787
REMARK INTER:                  -7.499
REMARK INTRA:                  -0.287
REMARK UNBOUND:                -0.287
REMARK SMILES O=C1C[C@H](c2ccc(O)cc2)Oc2cc(O)cc(O)c21
REMARK SMILES IDX 3 1 4 2 12 3 13 4 14 5 15 6 17 7 18 8 20 9 2 10 1 11 5 12
REMARK SMILES IDX 6 13 11 14 7 15 10 16 8 17 9 18 19 20 16 22
REMARK H PARENT 9 19 19 21 16 23
REMARK Flexibility Score: inf
ROOT
ATOM      1  C   UNL     1       4.280 -16.409   9.087  1.00  0.00     0.131 C 
ATOM      2  C   UNL     1       3.545 -15.112   8.719  1.00  0.00     0.211 C 
ATOM      3  O   UNL     1       3.953 -14.652   7.427  1.00  0.00    -0.484 OA
ATOM      4  C   UNL     1       5.280 -14.726   6.983  1.00  0.00     0.138 A 
ATOM      5  C   UNL     1       5.653 -14.014   5.840  1.00  0.00     0.093 A 
ATOM      6  C   UNL     1       6.972 -14.057   5.382  1.00  0.00     0.123 A 
ATOM      7  C   UNL     1       7.915 -14.837   6.054  1.00  0.00     0.093 A 
ATOM      8  C   UNL     1       7.556 -15.590   7.178  1.00  0.00     0.133 A 
ATOM      9  C   UNL     1       6.227 -15.513   7.674  1.00  0.00     0.102 A 
ATOM     10  C   UNL     1       5.753 -16.210   8.896  1.00  0.00     0.174 C 
ATOM     11  O   UNL     1       6.550 -16.587   9.795  1.00  0.00    -0.294 OA
ENDROOT
BRANCH   2  12
ATOM     12  C   UNL     1       2.050 -15.319   8.746  1.00  0.00    -0.007 A 
ATOM     13  C   UNL     1       1.462 -16.334   7.971  1.00  0.00     0.011 A 
ATOM     14  C   UNL     1       1.223 -14.468   9.499  1.00  0.00     0.011 A 
ATOM     15  C   UNL     1       0.075 -16.510   7.971  1.00  0.00     0.046 A 
ATOM     16  C   UNL     1      -0.163 -14.645   9.497  1.00  0.00     0.046 A 
ATOM     17  C   UNL     1      -0.740 -15.668   8.734  1.00  0.00     0.115 A 
BRANCH  17  18
ATOM     18  O   UNL     1      -2.122 -15.854   8.723  1.00  0.00    -0.508 OA
ATOM     19  H   UNL     1      -2.535 -16.753   8.939  1.00  0.00     0.293 HD
ENDBRANCH  17  18
ENDBRANCH   2  12
BRANCH   8  20
ATOM     20  O   UNL     1       8.533 -16.417   7.737  1.00  0.00    -0.507 OA
ATOM     21  H   UNL     1       8.428 -17.414   7.853  1.00  0.00     0.293 HD
ENDBRANCH   8  20
BRANCH   6  22
ATOM     22  O   UNL     1       7.356 -13.332   4.255  1.00  0.00    -0.508 OA
ATOM     23  H   UNL     1       7.001 -13.558   3.334  1.00  0.00     0.293 HD
ENDBRANCH   6  22
TORSDOF 4
ENDMDL
MODEL 3
REMARK VINA RESULT:    -6.303      3.103      8.553
REMARK INTER + INTRA:          -7.511
REMARK INTER:                  -7.191
REMARK INTRA:                  -0.320
REMARK UNBOUND:                -0.287
REMARK SMILES O=C1C[C@H](c2ccc(O)cc2)Oc2cc(O)cc(O)c21
REMARK SMILES IDX 3 1 4 2 12 3 13 4 14 5 15 6 17 7 18 8 20 9 2 10 1 11 5 12
REMARK SMILES IDX 6 13 11 14 7 15 10 16 8 17 9 18 19 20 16 22
REMARK H PARENT 9 19 19 21 16 23
REMARK Flexibility Score: inf
ROOT
ATOM      1  C   UNL     1      10.779 -16.900   8.035  1.00  0.00     0.131 C 
ATOM      2  C   UNL     1      11.323 -16.685   6.615  1.00  0.00     0.211 C 
ATOM      3  O   UNL     1      10.652 -15.593   5.979  1.00  0.00    -0.484 OA
ATOM      4  C   UNL     1       9.277 -15.361   6.128  1.00  0.00     0.138 A 
ATOM      5  C   UNL     1       8.646 -14.457   5.269  1.00  0.00     0.093 A 
ATOM      6  C   UNL     1       7.274 -14.216   5.384  1.00  0.00     0.123 A 
ATOM      7  C   UNL     1       6.538 -14.861   6.380  1.00  0.00     0.093 A 
ATOM      8  C   UNL     1       7.156 -15.740   7.277  1.00  0.00     0.133 A 
ATOM      9  C   UNL     1       8.540 -16.023   7.134  1.00  0.00     0.102 A 
ATOM     10  C   UNL     1       9.284 -16.990   7.980  1.00  0.00     0.174 C 
ATOM     11  O   UNL     1       8.697 -17.911   8.607  1.00  0.00    -0.294 OA
ENDROOT
BRANCH   2  12
ATOM     12  C   UNL     1      12.810 -16.431   6.645  1.00  0.00    -0.007 A 
ATOM     13  C   UNL     1      13.635 -17.158   7.521  1.00  0.00     0.011 A 
ATOM     14  C   UNL     1      13.381 -15.430   5.840  1.00  0.00     0.011 A 
ATOM     15  C   UNL     1      15.008 -16.905   7.572  1.00  0.00     0.046 A 
ATOM     16  C   UNL     1      14.755 -15.177   5.894  1.00  0.00     0.046 A 
ATOM     17  C   UNL     1      15.572 -15.916   6.759  1.00  0.00     0.115 A 
BRANCH  17  18
ATOM     18  O   UNL     1      16.943 -15.674   6.822  1.00  0.00    -0.508 OA
ATOM     19  H   UNL     1      17.442 -15.255   6.046  1.00  0.00     0.293 HD
ENDBRANCH  17  18
ENDBRANCH   2  12
BRANCH   8  20
ATOM     20  O   UNL     1       6.370 -16.271   8.302  1.00  0.00    -0.507 OA
ATOM     21  H   UNL     1       6.240 -15.829   9.200  1.00  0.00     0.293 HD
ENDBRANCH   8  20
BRANCH   6  22
ATOM     22  O   UNL     1       6.634 -13.332   4.518  1.00  0.00    -0.508 OA
ATOM     23  H   UNL     1       6.904 -13.255   3.545  1.00  0.00     0.293 HD
ENDBRANCH   6  22
TORSDOF 4
ENDMDL
MODEL 4
REMARK VINA RESULT:    -6.168      2.476      7.666
REMARK INTER + INTRA:          -7.356
REMARK INTER:                  -7.038
REMARK INTRA:                  -0.319
REMARK UNBOUND:                -0.287
REMARK SMILES O=C1C[C@H](c2ccc(O)cc2)Oc2cc(O)cc(O)c21
REMARK SMILES IDX 3 1 4 2 12 3 13 4 14 5 15 6 17 7 18 8 20 9 2 10 1 11 5 12
REMARK SMILES IDX 6 13 11 14 7 15 10 16 8 17 9 18 19 20 16 22
REMARK H PARENT 9 19 19 21 16 23
REMARK Flexibility Score: inf
ROOT
ATOM      1  C   UNL     1       8.974 -16.362   8.602  1.00  0.00     0.131 C 
ATOM      2  C   UNL     1       9.513 -16.508   7.171  1.00  0.00     0.211 C 
ATOM      3  O   UNL     1       9.017 -15.457   6.337  1.00  0.00    -0.484 OA
ATOM      4  C   UNL     1       7.703 -14.976   6.428  1.00  0.00     0.138 A 
ATOM      5  C   UNL     1       7.211 -14.156   5.409  1.00  0.00     0.093 A 
ATOM      6  C   UNL     1       5.901 -13.674   5.465  1.00  0.00     0.123 A 
ATOM      7  C   UNL     1       5.090 -13.990   6.557  1.00  0.00     0.093 A 
ATOM      8  C   UNL     1       5.575 -14.777   7.608  1.00  0.00     0.133 A 
ATOM      9  C   UNL     1       6.890 -15.308   7.533  1.00  0.00     0.102 A 
ATOM     10  C   UNL     1       7.483 -16.211   8.552  1.00  0.00     0.174 C 
ATOM     11  O   UNL     1       6.766 -16.888   9.334  1.00  0.00    -0.294 OA
ENDROOT
BRANCH   2  12
ATOM     12  C   UNL     1      11.021 -16.505   7.167  1.00  0.00    -0.007 A 
ATOM     13  C   UNL     1      11.734 -17.043   8.252  1.00  0.00     0.011 A 
ATOM     14  C   UNL     1      11.732 -15.915   6.106  1.00  0.00     0.011 A 
ATOM     15  C   UNL     1      13.132 -17.014   8.265  1.00  0.00     0.046 A 
ATOM     16  C   UNL     1      13.129 -15.887   6.121  1.00  0.00     0.046 A 
ATOM     17  C   UNL     1      13.833 -16.438   7.200  1.00  0.00     0.115 A 
BRANCH  17  18
ATOM     18  O   UNL     1      15.226 -16.416   7.226  1.00  0.00    -0.508 OA
ATOM     19  H   UNL     1      15.734 -15.747   7.793  1.00  0.00     0.293 HD
ENDBRANCH  17  18
ENDBRANCH   2  12
BRANCH   8  20
ATOM     20  O   UNL     1       4.735 -14.970   8.707  1.00  0.00    -0.507 OA
ATOM     21  H   UNL     1       4.211 -15.816   8.875  1.00  0.00     0.293 HD
ENDBRANCH   8  20
BRANCH   6  22
ATOM     22  O   UNL     1       5.396 -12.872   4.442  1.00  0.00    -0.508 OA
ATOM     23  H   UNL     1       5.926 -12.693   3.598  1.00  0.00     0.293 HD
ENDBRANCH   6  22
TORSDOF 4
ENDMDL
MODEL 5
REMARK VINA RESULT:    -6.164      2.571      7.571
REMARK INTER + INTRA:          -7.351
REMARK INTER:                  -7.038
REMARK INTRA:                  -0.313
REMARK UNBOUND:                -0.287
REMARK SMILES O=C1C[C@H](c2ccc(O)cc2)Oc2cc(O)cc(O)c21
REMARK SMILES IDX 3 1 4 2 12 3 13 4 14 5 15 6 17 7 18 8 20 9 2 10 1 11 5 12
REMARK SMILES IDX 6 13 11 14 7 15 10 16 8 17 9 18 19 20 16 22
REMARK H PARENT 9 19 19 21 16 23
REMARK Flexibility Score: inf
ROOT
ATOM      1  C   UNL     1       4.559 -16.929   9.753  1.00  0.00     0.131 C 
ATOM      2  C   UNL     1       3.899 -16.335   8.500  1.00  0.00     0.211 C 
ATOM      3  O   UNL     1       2.738 -15.578   8.854  1.00  0.00    -0.484 OA
ATOM      4  C   UNL     1       1.846 -15.987   9.856  1.00  0.00     0.138 A 
ATOM      5  C   UNL     1       0.603 -15.355   9.955  1.00  0.00     0.093 A 
ATOM      6  C   UNL     1      -0.312 -15.751  10.934  1.00  0.00     0.123 A 
ATOM      7  C   UNL     1       0.028 -16.763  11.834  1.00  0.00     0.093 A 
ATOM      8  C   UNL     1       1.282 -17.383  11.778  1.00  0.00     0.133 A 
ATOM      9  C   UNL     1       2.197 -17.016  10.756  1.00  0.00     0.102 A 
ATOM     10  C   UNL     1       3.523 -17.654  10.557  1.00  0.00     0.174 C 
ATOM     11  O   UNL     1       3.778 -18.805  11.000  1.00  0.00    -0.294 OA
ENDROOT
BRANCH   2  12
ATOM     12  C   UNL     1       4.873 -15.464   7.745  1.00  0.00    -0.007 A 
ATOM     13  C   UNL     1       6.256 -15.609   7.947  1.00  0.00     0.011 A 
ATOM     14  C   UNL     1       4.410 -14.462   6.874  1.00  0.00     0.011 A 
ATOM     15  C   UNL     1       7.160 -14.784   7.272  1.00  0.00     0.046 A 
ATOM     16  C   UNL     1       5.316 -13.638   6.200  1.00  0.00     0.046 A 
ATOM     17  C   UNL     1       6.694 -13.799   6.396  1.00  0.00     0.115 A 
BRANCH  17  18
ATOM     18  O   UNL     1       7.606 -12.983   5.729  1.00  0.00    -0.508 OA
ATOM     19  H   UNL     1       7.354 -12.053   5.417  1.00  0.00     0.293 HD
ENDBRANCH  17  18
ENDBRANCH   2  12
BRANCH   8  20
ATOM     20  O   UNL     1       1.581 -18.319  12.771  1.00  0.00    -0.507 OA
ATOM     21  H   UNL     1       2.512 -18.497  13.116  1.00  0.00     0.293 HD
ENDBRANCH   8  20
BRANCH   6  22
ATOM     22  O   UNL     1      -1.561 -15.140  11.026  1.00  0.00    -0.508 OA
ATOM     23  H   UNL     1      -2.074 -14.855  10.200  1.00  0.00     0.293 HD
ENDBRANCH   6  22
TORSDOF 4
ENDMDL
MODEL 6
REMARK VINA RESULT:    -6.102      3.062      3.547
REMARK INTER + INTRA:          -7.281
REMARK INTER:                  -6.973
REMARK INTRA:                  -0.308
REMARK UNBOUND:                -0.287
REMARK SMILES O=C1C[C@H](c2ccc(O)cc2)Oc2cc(O)cc(O)c21
REMARK SMILES IDX 3 1 4 2 12 3 13 4 14 5 15 6 17 7 18 8 20 9 2 10 1 11 5 12
REMARK SMILES IDX 6 13 11 14 7 15 10 16 8 17 9 18 19 20 16 22
REMARK H PARENT 9 19 19 21 16 23
REMARK Flexibility Score: inf
ROOT
ATOM      1  C   UNL     1       5.141 -14.945   8.362  1.00  0.00     0.131 C 
ATOM      2  C   UNL     1       5.704 -16.325   8.730  1.00  0.00     0.211 C 
ATOM      3  O   UNL     1       7.108 -16.383   8.464  1.00  0.00    -0.484 OA
ATOM      4  C   UNL     1       7.688 -15.790   7.334  1.00  0.00     0.138 A 
ATOM      5  C   UNL     1       9.003 -16.120   6.996  1.00  0.00     0.093 A 
ATOM      6  C   UNL     1       9.603 -15.555   5.867  1.00  0.00     0.123 A 
ATOM      7  C   UNL     1       8.893 -14.637   5.090  1.00  0.00     0.093 A 
ATOM      8  C   UNL     1       7.589 -14.262   5.432  1.00  0.00     0.133 A 
ATOM      9  C   UNL     1       6.959 -14.868   6.551  1.00  0.00     0.102 A 
ATOM     10  C   UNL     1       5.559 -14.600   6.965  1.00  0.00     0.174 C 
ATOM     11  O   UNL     1       4.705 -14.145   6.159  1.00  0.00    -0.294 OA
ENDROOT
BRANCH   2  12
ATOM     12  C   UNL     1       5.439 -16.640  10.182  1.00  0.00    -0.007 A 
ATOM     13  C   UNL     1       4.179 -17.115  10.586  1.00  0.00     0.011 A 
ATOM     14  C   UNL     1       6.427 -16.411  11.156  1.00  0.00     0.011 A 
ATOM     15  C   UNL     1       3.921 -17.379  11.934  1.00  0.00     0.046 A 
ATOM     16  C   UNL     1       6.167 -16.674  12.503  1.00  0.00     0.046 A 
ATOM     17  C   UNL     1       4.913 -17.162  12.895  1.00  0.00     0.115 A 
BRANCH  17  18
ATOM     18  O   UNL     1       4.642 -17.429  14.236  1.00  0.00    -0.508 OA
ATOM     19  H   UNL     1       5.312 -17.212  14.964  1.00  0.00     0.293 HD
ENDBRANCH  17  18
ENDBRANCH   2  12
BRANCH   8  20
ATOM     20  O   UNL     1       6.983 -13.269   4.660  1.00  0.00    -0.507 OA
ATOM     21  H   UNL     1       6.091 -13.377   4.200  1.00  0.00     0.293 HD
ENDBRANCH   8  20
BRANCH   6  22
ATOM     22  O   UNL     1      10.907 -15.895   5.511  1.00  0.00    -0.508 OA
ATOM     23  H   UNL     1      11.126 -16.795   5.101  1.00  0.00     0.293 HD
ENDBRANCH   6  22
TORSDOF 4
ENDMDL
MODEL 7
REMARK VINA RESULT:    -6.059      2.697      6.512
REMARK INTER + INTRA:          -7.232
REMARK INTER:                  -6.926
REMARK INTRA:                  -0.306
REMARK UNBOUND:                -0.287
REMARK SMILES O=C1C[C@H](c2ccc(O)cc2)Oc2cc(O)cc(O)c21
REMARK SMILES IDX 3 1 4 2 12 3 13 4 14 5 15 6 17 7 18 8 20 9 2 10 1 11 5 12
REMARK SMILES IDX 6 13 11 14 7 15 10 16 8 17 9 18 19 20 16 22
REMARK H PARENT 9 19 19 21 16 23
REMARK Flexibility Score: inf
ROOT
ATOM      1  C   UNL     1       9.709 -16.867   7.378  1.00  0.00     0.131 C 
ATOM      2  C   UNL     1       9.439 -16.360   8.802  1.00  0.00     0.211 C 
ATOM      3  O   UNL     1       8.054 -16.047   8.971  1.00  0.00    -0.484 OA
ATOM      4  C   UNL     1       7.291 -15.430   7.969  1.00  0.00     0.138 A 
ATOM      5  C   UNL     1       6.038 -14.907   8.297  1.00  0.00     0.093 A 
ATOM      6  C   UNL     1       5.261 -14.274   7.324  1.00  0.00     0.123 A 
ATOM      7  C   UNL     1       5.728 -14.189   6.011  1.00  0.00     0.093 A 
ATOM      8  C   UNL     1       6.963 -14.740   5.650  1.00  0.00     0.133 A 
ATOM      9  C   UNL     1       7.776 -15.343   6.646  1.00  0.00     0.102 A 
ATOM     10  C   UNL     1       9.131 -15.896   6.393  1.00  0.00     0.174 C 
ATOM     11  O   UNL     1       9.823 -15.530   5.406  1.00  0.00    -0.294 OA
ENDROOT
BRANCH   2  12
ATOM     12  C   UNL     1       9.866 -17.385   9.824  1.00  0.00    -0.007 A 
ATOM     13  C   UNL     1       8.912 -18.225  10.425  1.00  0.00     0.011 A 
ATOM     14  C   UNL     1      11.209 -17.477  10.227  1.00  0.00     0.011 A 
ATOM     15  C   UNL     1       9.299 -19.155  11.393  1.00  0.00     0.046 A 
ATOM     16  C   UNL     1      11.594 -18.408  11.196  1.00  0.00     0.046 A 
ATOM     17  C   UNL     1      10.640 -19.251  11.780  1.00  0.00     0.115 A 
BRANCH  17  18
ATOM     18  O   UNL     1      11.012 -20.183  12.747  1.00  0.00    -0.508 OA
ATOM     19  H   UNL     1      10.333 -20.803  13.172  1.00  0.00     0.293 HD
ENDBRANCH  17  18
ENDBRANCH   2  12
BRANCH   8  20
ATOM     20  O   UNL     1       7.317 -14.697   4.299  1.00  0.00    -0.507 OA
ATOM     21  H   UNL     1       7.782 -15.449   3.813  1.00  0.00     0.293 HD
ENDBRANCH   8  20
BRANCH   6  22
ATOM     22  O   UNL     1       4.019 -13.732   7.648  1.00  0.00    -0.508 OA
ATOM     23  H   UNL     1       3.818 -12.748   7.512  1.00  0.00     0.293 HD
ENDBRANCH   6  22
TORSDOF 4
ENDMDL
MODEL 8
REMARK VINA RESULT:    -6.033      7.813      9.920
REMARK INTER + INTRA:          -7.202
REMARK INTER:                  -6.884
REMARK INTRA:                  -0.318
REMARK UNBOUND:                -0.287
REMARK SMILES O=C1C[C@H](c2ccc(O)cc2)Oc2cc(O)cc(O)c21
REMARK SMILES IDX 3 1 4 2 12 3 13 4 14 5 15 6 17 7 18 8 20 9 2 10 1 11 5 12
REMARK SMILES IDX 6 13 11 14 7 15 10 16 8 17 9 18 19 20 16 22
REMARK H PARENT 9 19 19 21 16 23
REMARK Flexibility Score: inf
ROOT
ATOM      1  C   UNL     1       8.919 -15.138  13.289  1.00  0.00     0.131 C 
ATOM      2  C   UNL     1       9.628 -14.772  14.601  1.00  0.00     0.211 C 
ATOM      3  O   UNL     1       8.798 -13.926  15.402  1.00  0.00    -0.484 OA
ATOM      4  C   UNL     1       8.004 -12.908  14.855  1.00  0.00     0.138 A 
ATOM      5  C   UNL     1       7.444 -11.954  15.707  1.00  0.00     0.093 A 
ATOM      6  C   UNL     1       6.660 -10.919  15.189  1.00  0.00     0.123 A 
ATOM      7  C   UNL     1       6.413 -10.857  13.816  1.00  0.00     0.093 A 
ATOM      8  C   UNL     1       6.932 -11.824  12.948  1.00  0.00     0.133 A 
ATOM      9  C   UNL     1       7.767 -12.850  13.464  1.00  0.00     0.102 A 
ATOM     10  C   UNL     1       8.427 -13.885  12.629  1.00  0.00     0.174 C 
ATOM     11  O   UNL     1       8.632 -13.713  11.399  1.00  0.00    -0.294 OA
ENDROOT
BRANCH   2  12
ATOM     12  C   UNL     1       9.998 -16.014  15.373  1.00  0.00    -0.007 A 
ATOM     13  C   UNL     1      10.326 -17.200  14.692  1.00  0.00     0.011 A 
ATOM     14  C   UNL     1       9.966 -16.020  16.778  1.00  0.00     0.011 A 
ATOM     15  C   UNL     1      10.640 -18.361  15.404  1.00  0.00     0.046 A 
ATOM     16  C   UNL     1      10.279 -17.182  17.489  1.00  0.00     0.046 A 
ATOM     17  C   UNL     1      10.619 -18.355  16.803  1.00  0.00     0.115 A 
BRANCH  17  18
ATOM     18  O   UNL     1      10.935 -19.520  17.500  1.00  0.00    -0.508 OA
ATOM     19  H   UNL     1      10.216 -20.170  17.796  1.00  0.00     0.293 HD
ENDBRANCH  17  18
ENDBRANCH   2  12
BRANCH   8  20
ATOM     20  O   UNL     1       6.562 -11.745  11.603  1.00  0.00    -0.507 OA
ATOM     21  H   UNL     1       5.713 -11.309  11.276  1.00  0.00     0.293 HD
ENDBRANCH   8  20
BRANCH   6  22
ATOM     22  O   UNL     1       6.115  -9.952  16.031  1.00  0.00    -0.508 OA
ATOM     23  H   UNL     1       5.157 -10.011  16.356  1.00  0.00     0.293 HD
ENDBRANCH   6  22
TORSDOF 4
ENDMDL
MODEL 9
REMARK VINA RESULT:    -5.980      3.797      6.289
REMARK INTER + INTRA:          -7.141
REMARK INTER:                  -6.829
REMARK INTRA:                  -0.312
REMARK UNBOUND:                -0.287
REMARK SMILES O=C1C[C@H](c2ccc(O)cc2)Oc2cc(O)cc(O)c21
REMARK SMILES IDX 3 1 4 2 12 3 13 4 14 5 15 6 17 7 18 8 20 9 2 10 1 11 5 12
REMARK SMILES IDX 6 13 11 14 7 15 10 16 8 17 9 18 19 20 16 22
REMARK H PARENT 9 19 19 21 16 23
REMARK Flexibility Score: inf
ROOT
ATOM      1  C   UNL     1      12.160 -15.188   6.403  1.00  0.00     0.131 C 
ATOM      2  C   UNL     1      10.927 -16.094   6.538  1.00  0.00     0.211 C 
ATOM      3  O   UNL     1      10.788 -16.557   7.885  1.00  0.00    -0.484 OA
ATOM      4  C   UNL     1      11.886 -16.931   8.673  1.00  0.00     0.138 A 
ATOM      5  C   UNL     1      11.660 -17.628   9.862  1.00  0.00     0.093 A 
ATOM      6  C   UNL     1      12.735 -18.026  10.661  1.00  0.00     0.123 A 
ATOM      7  C   UNL     1      14.039 -17.701  10.282  1.00  0.00     0.093 A 
ATOM      8  C   UNL     1      14.287 -16.969   9.115  1.00  0.00     0.133 A 
ATOM      9  C   UNL     1      13.201 -16.603   8.276  1.00  0.00     0.102 A 
ATOM     10  C   UNL     1      13.351 -15.890   6.983  1.00  0.00     0.174 C 
ATOM     11  O   UNL     1      14.433 -15.905   6.339  1.00  0.00    -0.294 OA
ENDROOT
BRANCH   2  12
ATOM     12  C   UNL     1       9.678 -15.364   6.111  1.00  0.00    -0.007 A 
ATOM     13  C   UNL     1       9.771 -14.205   5.320  1.00  0.00     0.011 A 
ATOM     14  C   UNL     1       8.412 -15.798   6.542  1.00  0.00     0.011 A 
ATOM     15  C   UNL     1       8.617 -13.509   4.948  1.00  0.00     0.046 A 
ATOM     16  C   UNL     1       7.261 -15.100   6.170  1.00  0.00     0.046 A 
ATOM     17  C   UNL     1       7.360 -13.954   5.369  1.00  0.00     0.115 A 
BRANCH  17  18
ATOM     18  O   UNL     1       6.219 -13.250   4.990  1.00  0.00    -0.508 OA
ATOM     19  H   UNL     1       5.315 -13.446   5.403  1.00  0.00     0.293 HD
ENDBRANCH  17  18
ENDBRANCH   2  12
BRANCH   8  20
ATOM     20  O   UNL     1      15.609 -16.603   8.855  1.00  0.00    -0.507 OA
ATOM     21  H   UNL     1      15.916 -15.650   8.727  1.00  0.00     0.293 HD
ENDBRANCH   8  20
BRANCH   6  22
ATOM     22  O   UNL     1      12.518 -18.740  11.838  1.00  0.00    -0.508 OA
ATOM     23  H   UNL     1      11.666 -19.267  11.989  1.00  0.00     0.293 HD
ENDBRANCH   6  22
TORSDOF 4
ENDMDL
