MODEL 1
REMARK VINA RESULT:    -4.379      0.000      0.000
REMARK INTER + INTRA:          -6.207
REMARK INTER:                  -5.786
REMARK INTRA:                  -0.421
REMARK UNBOUND:                -0.421
REMARK SMILES C=C[C@H](O)CCCCC
REMARK SMILES IDX 6 1 7 2 8 3 9 4 5 5 3 6 2 7 1 8 4 9
REMARK H PARENT 4 10
REMARK Flexibility Score: inf
ROOT
ATOM      1  C   UNL     1      13.581 -16.143  31.488  1.00  0.00     0.003 C 
ENDROOT
BRANCH   1   2
ATOM      2  C   UNL     1      13.950 -15.879  30.021  1.00  0.00    -0.000 C 
BRANCH   2   3
ATOM      3  C   UNL     1      13.580 -14.459  29.566  1.00  0.00    -0.003 C 
ATOM      4  C   UNL     1      12.089 -14.301  29.272  1.00  0.00     0.004 C 
ENDBRANCH   2   3
ENDBRANCH   1   2
BRANCH   1   5
ATOM      5  C   UNL     1      12.748 -17.427  31.622  1.00  0.00     0.036 C 
BRANCH   5   6
ATOM      6  C   UNL     1      11.259 -17.192  31.301  1.00  0.00     0.136 C 
BRANCH   6   7
ATOM      7  C   UNL     1      10.528 -16.602  32.486  1.00  0.00    -0.004 C 
ATOM      8  C   UNL     1       9.830 -15.467  32.394  1.00  0.00     0.007 C 
ENDBRANCH   6   7
BRANCH   6   9
ATOM      9  O   UNL     1      10.646 -18.398  30.918  1.00  0.00    -0.389 OA
ATOM     10  H   UNL     1       9.717 -18.187  30.633  1.00  0.00     0.211 HD
ENDBRANCH   6   9
ENDBRANCH   5   6
ENDBRANCH   1   5
TORSDOF 6
ENDMDL
MODEL 2
REMARK VINA RESULT:    -4.127      1.601      3.643
REMARK INTER + INTRA:          -5.875
REMARK INTER:                  -5.377
REMARK INTRA:                  -0.498
REMARK UNBOUND:                -0.421
REMARK SMILES C=C[C@H](O)CCCCC
REMARK SMILES IDX 6 1 7 2 8 3 9 4 5 5 3 6 2 7 1 8 4 9
REMARK H PARENT 4 10
REMARK Flexibility Score: inf
ROOT
ATOM      1  C   UNL     1      13.739 -15.638  31.039  1.00  0.00     0.003 C 
ENDROOT
BRANCH   1   2
ATOM      2  C   UNL     1      13.252 -16.973  31.621  1.00  0.00    -0.000 C 
BRANCH   2   3
ATOM      3  C   UNL     1      11.734 -17.161  31.475  1.00  0.00    -0.003 C 
ATOM      4  C   UNL     1      10.934 -15.997  32.058  1.00  0.00     0.004 C 
ENDBRANCH   2   3
ENDBRANCH   1   2
BRANCH   1   5
ATOM      5  C   UNL     1      14.349 -15.837  29.644  1.00  0.00     0.036 C 
BRANCH   5   6
ATOM      6  C   UNL     1      13.420 -15.328  28.524  1.00  0.00     0.136 C 
BRANCH   6   7
ATOM      7  C   UNL     1      12.473 -14.267  29.037  1.00  0.00    -0.004 C 
ATOM      8  C   UNL     1      11.824 -13.438  28.214  1.00  0.00     0.007 C 
ENDBRANCH   6   7
BRANCH   6   9
ATOM      9  O   UNL     1      12.687 -16.393  27.974  1.00  0.00    -0.389 OA
ATOM     10  H   UNL     1      12.864 -16.409  26.996  1.00  0.00     0.211 HD
ENDBRANCH   6   9
ENDBRANCH   5   6
ENDBRANCH   1   5
TORSDOF 6
ENDMDL
MODEL 3
REMARK VINA RESULT:    -4.068      3.476      5.558
REMARK INTER + INTRA:          -5.796
REMARK INTER:                  -5.556
REMARK INTRA:                  -0.240
REMARK UNBOUND:                -0.421
REMARK SMILES C=C[C@H](O)CCCCC
REMARK SMILES IDX 6 1 7 2 8 3 9 4 5 5 3 6 2 7 1 8 4 9
REMARK H PARENT 4 10
REMARK Flexibility Score: inf
ROOT
ATOM      1  C   UNL     1       9.817 -19.647  33.487  1.00  0.00     0.003 C 
ENDROOT
BRANCH   1   2
ATOM      2  C   UNL     1       9.256 -21.076  33.497  1.00  0.00    -0.000 C 
BRANCH   2   3
ATOM      3  C   UNL     1       9.645 -21.872  32.241  1.00  0.00    -0.003 C 
ATOM      4  C   UNL     1       9.907 -23.349  32.534  1.00  0.00     0.004 C 
ENDBRANCH   2   3
ENDBRANCH   1   2
BRANCH   1   5
ATOM      5  C   UNL     1      10.549 -19.354  32.168  1.00  0.00     0.036 C 
BRANCH   5   6
ATOM      6  C   UNL     1      10.974 -17.877  32.054  1.00  0.00     0.136 C 
BRANCH   6   7
ATOM      7  C   UNL     1       9.988 -16.966  32.750  1.00  0.00    -0.004 C 
ATOM      8  C   UNL     1       9.946 -15.652  32.511  1.00  0.00     0.007 C 
ENDBRANCH   6   7
BRANCH   6   9
ATOM      9  O   UNL     1      11.092 -17.505  30.704  1.00  0.00    -0.389 OA
ATOM     10  H   UNL     1      11.243 -16.523  30.673  1.00  0.00     0.211 HD
ENDBRANCH   6   9
ENDBRANCH   5   6
ENDBRANCH   1   5
TORSDOF 6
ENDMDL
MODEL 4
REMARK VINA RESULT:    -4.026     10.958     11.802
REMARK INTER + INTRA:          -5.742
REMARK INTER:                  -5.573
REMARK INTRA:                  -0.169
REMARK UNBOUND:                -0.421
REMARK SMILES C=C[C@H](O)CCCCC
REMARK SMILES IDX 6 1 7 2 8 3 9 4 5 5 3 6 2 7 1 8 4 9
REMARK H PARENT 4 10
REMARK Flexibility Score: inf
ROOT
ATOM      1  C   UNL     1       7.319 -21.594  20.756  1.00  0.00     0.003 C 
ENDROOT
BRANCH   1   2
ATOM      2  C   UNL     1       8.441 -22.640  20.815  1.00  0.00    -0.000 C 
BRANCH   2   3
ATOM      3  C   UNL     1       9.840 -22.009  20.748  1.00  0.00    -0.003 C 
ATOM      4  C   UNL     1      10.960 -23.029  20.951  1.00  0.00     0.004 C 
ENDBRANCH   2   3
ENDBRANCH   1   2
BRANCH   1   5
ATOM      5  C   UNL     1       7.896 -20.171  20.719  1.00  0.00     0.036 C 
BRANCH   5   6
ATOM      6  C   UNL     1       7.137 -19.210  21.656  1.00  0.00     0.136 C 
BRANCH   6   7
ATOM      7  C   UNL     1       6.829 -17.901  20.966  1.00  0.00    -0.004 C 
ATOM      8  C   UNL     1       6.609 -16.774  21.650  1.00  0.00     0.007 C 
ENDBRANCH   6   7
BRANCH   6   9
ATOM      9  O   UNL     1       7.887 -18.968  22.820  1.00  0.00    -0.389 OA
ATOM     10  H   UNL     1       8.516 -19.728  22.938  1.00  0.00     0.211 HD
ENDBRANCH   6   9
ENDBRANCH   5   6
ENDBRANCH   1   5
TORSDOF 6
ENDMDL
MODEL 5
REMARK VINA RESULT:    -3.984     10.896     11.799
REMARK INTER + INTRA:          -5.686
REMARK INTER:                  -5.549
REMARK INTRA:                  -0.137
REMARK UNBOUND:                -0.421
REMARK SMILES C=C[C@H](O)CCCCC
REMARK SMILES IDX 6 1 7 2 8 3 9 4 5 5 3 6 2 7 1 8 4 9
REMARK H PARENT 4 10
REMARK Flexibility Score: inf
ROOT
ATOM      1  C   UNL     1       7.535 -19.063  21.596  1.00  0.00     0.003 C 
ENDROOT
BRANCH   1   2
ATOM      2  C   UNL     1       6.915 -17.861  20.870  1.00  0.00    -0.000 C 
BRANCH   2   3
ATOM      3  C   UNL     1       6.596 -16.698  21.822  1.00  0.00    -0.003 C 
ATOM      4  C   UNL     1       6.206 -15.418  21.083  1.00  0.00     0.004 C 
ENDBRANCH   2   3
ENDBRANCH   1   2
BRANCH   1   5
ATOM      5  C   UNL     1       7.330 -20.356  20.791  1.00  0.00     0.036 C 
BRANCH   5   6
ATOM      6  C   UNL     1       8.640 -21.150  20.621  1.00  0.00     0.136 C 
BRANCH   6   7
ATOM      7  C   UNL     1       8.386 -22.640  20.640  1.00  0.00    -0.004 C 
ATOM      8  C   UNL     1       7.324 -23.170  21.254  1.00  0.00     0.007 C 
ENDBRANCH   6   7
BRANCH   6   9
ATOM      9  O   UNL     1       9.552 -20.811  21.636  1.00  0.00    -0.389 OA
ATOM     10  H   UNL     1       9.746 -21.636  22.156  1.00  0.00     0.211 HD
ENDBRANCH   6   9
ENDBRANCH   5   6
ENDBRANCH   1   5
TORSDOF 6
ENDMDL
MODEL 6
REMARK VINA RESULT:    -3.967      2.168      4.457
REMARK INTER + INTRA:          -5.663
REMARK INTER:                  -5.497
REMARK INTRA:                  -0.166
REMARK UNBOUND:                -0.421
REMARK SMILES C=C[C@H](O)CCCCC
REMARK SMILES IDX 6 1 7 2 8 3 9 4 5 5 3 6 2 7 1 8 4 9
REMARK H PARENT 4 10
REMARK Flexibility Score: inf
ROOT
ATOM      1  C   UNL     1      12.507 -15.342  30.343  1.00  0.00     0.003 C 
ENDROOT
BRANCH   1   2
ATOM      2  C   UNL     1      11.591 -16.417  30.945  1.00  0.00    -0.000 C 
BRANCH   2   3
ATOM      3  C   UNL     1      11.072 -16.037  32.340  1.00  0.00    -0.003 C 
ATOM      4  C   UNL     1       9.665 -15.443  32.307  1.00  0.00     0.004 C 
ENDBRANCH   2   3
ENDBRANCH   1   2
BRANCH   1   5
ATOM      5  C   UNL     1      11.822 -14.633  29.165  1.00  0.00     0.036 C 
BRANCH   5   6
ATOM      6  C   UNL     1      12.491 -14.965  27.817  1.00  0.00     0.136 C 
BRANCH   6   7
ATOM      7  C   UNL     1      11.683 -14.430  26.656  1.00  0.00    -0.004 C 
ATOM      8  C   UNL     1      11.554 -13.121  26.427  1.00  0.00     0.007 C 
ENDBRANCH   6   7
BRANCH   6   9
ATOM      9  O   UNL     1      12.654 -16.355  27.681  1.00  0.00    -0.389 OA
ATOM     10  H   UNL     1      13.629 -16.546  27.672  1.00  0.00     0.211 HD
ENDBRANCH   6   9
ENDBRANCH   5   6
ENDBRANCH   1   5
TORSDOF 6
ENDMDL
MODEL 7
REMARK VINA RESULT:    -3.963      3.118      4.352
REMARK INTER + INTRA:          -5.658
REMARK INTER:                  -5.494
REMARK INTRA:                  -0.164
REMARK UNBOUND:                -0.421
REMARK SMILES C=C[C@H](O)CCCCC
REMARK SMILES IDX 6 1 7 2 8 3 9 4 5 5 3 6 2 7 1 8 4 9
REMARK H PARENT 4 10
REMARK Flexibility Score: inf
ROOT
ATOM      1  C   UNL     1      10.269 -18.278  32.508  1.00  0.00     0.003 C 
ENDROOT
BRANCH   1   2
ATOM      2  C   UNL     1      11.413 -17.480  31.867  1.00  0.00    -0.000 C 
BRANCH   2   3
ATOM      3  C   UNL     1      11.173 -15.963  31.915  1.00  0.00    -0.003 C 
ATOM      4  C   UNL     1       9.885 -15.590  32.648  1.00  0.00     0.004 C 
ENDBRANCH   2   3
ENDBRANCH   1   2
BRANCH   1   5
ATOM      5  C   UNL     1      10.467 -19.787  32.298  1.00  0.00     0.036 C 
BRANCH   5   6
ATOM      6  C   UNL     1       9.461 -20.371  31.287  1.00  0.00     0.136 C 
BRANCH   6   7
ATOM      7  C   UNL     1       9.566 -21.878  31.216  1.00  0.00    -0.004 C 
ATOM      8  C   UNL     1       9.792 -22.624  32.301  1.00  0.00     0.007 C 
ENDBRANCH   6   7
BRANCH   6   9
ATOM      9  O   UNL     1       9.673 -19.820  30.012  1.00  0.00    -0.389 OA
ATOM     10  H   UNL     1      10.643 -19.623  29.925  1.00  0.00     0.211 HD
ENDBRANCH   6   9
ENDBRANCH   5   6
ENDBRANCH   1   5
TORSDOF 6
ENDMDL
MODEL 8
REMARK VINA RESULT:    -3.893      2.337      3.758
REMARK INTER + INTRA:          -5.566
REMARK INTER:                  -5.274
REMARK INTRA:                  -0.292
REMARK UNBOUND:                -0.421
REMARK SMILES C=C[C@H](O)CCCCC
REMARK SMILES IDX 6 1 7 2 8 3 9 4 5 5 3 6 2 7 1 8 4 9
REMARK H PARENT 4 10
REMARK Flexibility Score: inf
ROOT
ATOM      1  C   UNL     1      12.478 -13.505  28.668  1.00  0.00     0.003 C 
ENDROOT
BRANCH   1   2
ATOM      2  C   UNL     1      11.659 -12.967  27.486  1.00  0.00    -0.000 C 
BRANCH   2   3
ATOM      3  C   UNL     1      12.062 -13.607  26.149  1.00  0.00    -0.003 C 
ATOM      4  C   UNL     1      11.262 -14.870  25.832  1.00  0.00     0.004 C 
ENDBRANCH   2   3
ENDBRANCH   1   2
BRANCH   1   5
ATOM      5  C   UNL     1      11.647 -14.484  29.511  1.00  0.00     0.036 C 
BRANCH   5   6
ATOM      6  C   UNL     1      12.402 -15.799  29.789  1.00  0.00     0.136 C 
BRANCH   6   7
ATOM      7  C   UNL     1      13.585 -15.570  30.703  1.00  0.00    -0.004 C 
ATOM      8  C   UNL     1      13.675 -16.148  31.904  1.00  0.00     0.007 C 
ENDBRANCH   6   7
BRANCH   6   9
ATOM      9  O   UNL     1      12.839 -16.376  28.584  1.00  0.00    -0.389 OA
ATOM     10  H   UNL     1      12.765 -17.363  28.677  1.00  0.00     0.211 HD
ENDBRANCH   6   9
ENDBRANCH   5   6
ENDBRANCH   1   5
TORSDOF 6
ENDMDL
MODEL 9
REMARK VINA RESULT:    -3.862      2.523      3.479
REMARK INTER + INTRA:          -5.524
REMARK INTER:                  -5.389
REMARK INTRA:                  -0.135
REMARK UNBOUND:                -0.421
REMARK SMILES C=C[C@H](O)CCCCC
REMARK SMILES IDX 6 1 7 2 8 3 9 4 5 5 3 6 2 7 1 8 4 9
REMARK H PARENT 4 10
REMARK Flexibility Score: inf
ROOT
ATOM      1  C   UNL     1      10.364 -17.031  32.494  1.00  0.00     0.003 C 
ENDROOT
BRANCH   1   2
ATOM      2  C   UNL     1      11.041 -15.905  31.700  1.00  0.00    -0.000 C 
BRANCH   2   3
ATOM      3  C   UNL     1      12.574 -15.988  31.748  1.00  0.00    -0.003 C 
ATOM      4  C   UNL     1      13.247 -15.160  30.655  1.00  0.00     0.004 C 
ENDBRANCH   2   3
ENDBRANCH   1   2
BRANCH   1   5
ATOM      5  C   UNL     1      11.002 -18.391  32.172  1.00  0.00     0.036 C 
BRANCH   5   6
ATOM      6  C   UNL     1       9.946 -19.477  31.886  1.00  0.00     0.136 C 
BRANCH   6   7
ATOM      7  C   UNL     1      10.276 -20.766  32.604  1.00  0.00    -0.004 C 
ATOM      8  C   UNL     1       9.742 -21.936  32.242  1.00  0.00     0.007 C 
ENDBRANCH   6   7
BRANCH   6   9
ATOM      9  O   UNL     1       9.851 -19.715  30.504  1.00  0.00    -0.389 OA
ATOM     10  H   UNL     1       9.563 -18.868  30.070  1.00  0.00     0.211 HD
ENDBRANCH   6   9
ENDBRANCH   5   6
ENDBRANCH   1   5
TORSDOF 6
ENDMDL
