MODEL 1
REMARK VINA RESULT:    -3.938      0.000      0.000
REMARK INTER + INTRA:          -5.449
REMARK INTER:                  -5.320
REMARK INTRA:                  -0.129
REMARK UNBOUND:                -0.129
REMARK SMILES [NH3+]CCCC[C@H]([NH3+])C(=O)[O-]
REMARK SMILES IDX 4 1 3 2 2 3 1 4 5 8 6 9 7 10 8 14 9 15 10 16
REMARK H PARENT 1 5 1 6 1 7 7 11 7 12 7 13
REMARK Flexibility Score: inf
ROOT
ATOM      1  C   UNL     1     -24.386  -6.160  14.192  1.00  0.00     0.012 C 
ENDROOT
BRANCH   1   2
ATOM      2  C   UNL     1     -25.735  -6.690  14.695  1.00  0.00     0.061 C 
BRANCH   2   3
ATOM      3  C   UNL     1     -26.375  -5.716  15.693  1.00  0.00     0.258 C 
BRANCH   3   4
ATOM      4  N   UNL     1     -27.827  -5.886  15.732  1.00  0.00    -0.358 N 
ATOM      5  H   UNL     1     -28.207  -5.518  16.634  1.00  0.00     0.344 HD
ATOM      6  H   UNL     1     -28.255  -5.351  14.942  1.00  0.00     0.344 HD
ATOM      7  H   UNL     1     -28.074  -6.897  15.630  1.00  0.00     0.344 HD
ENDBRANCH   3   4
ENDBRANCH   2   3
ENDBRANCH   1   2
BRANCH   1   8
ATOM      8  C   UNL     1     -23.242  -6.606  15.115  1.00  0.00     0.072 C 
BRANCH   8   9
ATOM      9  C   UNL     1     -22.276  -5.452  15.466  1.00  0.00     0.227 C 
BRANCH   9  10
ATOM     10  N   UNL     1     -21.173  -5.907  16.323  1.00  0.00    -0.350 N 
ATOM     11  H   UNL     1     -20.399  -5.203  16.312  1.00  0.00     0.345 HD
ATOM     12  H   UNL     1     -21.497  -6.042  17.309  1.00  0.00     0.345 HD
ATOM     13  H   UNL     1     -20.784  -6.807  15.961  1.00  0.00     0.345 HD
ENDBRANCH   9  10
BRANCH   9  14
ATOM     14  C   UNL     1     -23.040  -4.351  16.154  1.00  0.00     0.099 C 
ATOM     15  O   UNL     1     -23.232  -4.395  17.398  1.00  0.00    -0.544 OA
ATOM     16  O   UNL     1     -23.522  -3.271  15.424  1.00  0.00    -0.544 OA
ENDBRANCH   9  14
ENDBRANCH   8   9
ENDBRANCH   1   8
TORSDOF 7
ENDMDL
MODEL 2
REMARK VINA RESULT:    -3.927      2.571      3.206
REMARK INTER + INTRA:          -5.433
REMARK INTER:                  -5.345
REMARK INTRA:                  -0.088
REMARK UNBOUND:                -0.129
REMARK SMILES [NH3+]CCCC[C@H]([NH3+])C(=O)[O-]
REMARK SMILES IDX 4 1 3 2 2 3 1 4 5 8 6 9 7 10 8 14 9 15 10 16
REMARK H PARENT 1 5 1 6 1 7 7 11 7 12 7 13
REMARK Flexibility Score: inf
ROOT
ATOM      1  C   UNL     1     -23.971  -5.938  14.350  1.00  0.00     0.012 C 
ENDROOT
BRANCH   1   2
ATOM      2  C   UNL     1     -24.177  -7.412  14.721  1.00  0.00     0.061 C 
BRANCH   2   3
ATOM      3  C   UNL     1     -22.848  -8.078  15.101  1.00  0.00     0.258 C 
BRANCH   3   4
ATOM      4  N   UNL     1     -22.847  -9.493  14.731  1.00  0.00    -0.358 N 
ATOM      5  H   UNL     1     -23.809  -9.790  14.448  1.00  0.00     0.344 HD
ATOM      6  H   UNL     1     -22.198  -9.635  13.923  1.00  0.00     0.344 HD
ATOM      7  H   UNL     1     -22.519 -10.075  15.535  1.00  0.00     0.344 HD
ENDBRANCH   3   4
ENDBRANCH   2   3
ENDBRANCH   1   2
BRANCH   1   8
ATOM      8  C   UNL     1     -23.228  -5.189  15.467  1.00  0.00     0.072 C 
BRANCH   8   9
ATOM      9  C   UNL     1     -24.138  -4.196  16.225  1.00  0.00     0.227 C 
BRANCH   9  10
ATOM     10  N   UNL     1     -23.992  -2.826  15.714  1.00  0.00    -0.350 N 
ATOM     11  H   UNL     1     -23.000  -2.656  15.429  1.00  0.00     0.345 HD
ATOM     12  H   UNL     1     -24.615  -2.667  14.888  1.00  0.00     0.345 HD
ATOM     13  H   UNL     1     -24.227  -2.136  16.462  1.00  0.00     0.345 HD
ENDBRANCH   9  10
BRANCH   9  14
ATOM     14  C   UNL     1     -23.809  -4.235  17.693  1.00  0.00     0.099 C 
ATOM     15  O   UNL     1     -22.608  -4.249  18.073  1.00  0.00    -0.544 OA
ATOM     16  O   UNL     1     -24.827  -4.236  18.640  1.00  0.00    -0.544 OA
ENDBRANCH   9  14
ENDBRANCH   8   9
ENDBRANCH   1   8
TORSDOF 7
ENDMDL
MODEL 3
REMARK VINA RESULT:    -3.919      2.667      3.520
REMARK INTER + INTRA:          -5.423
REMARK INTER:                  -5.354
REMARK INTRA:                  -0.070
REMARK UNBOUND:                -0.129
REMARK SMILES [NH3+]CCCC[C@H]([NH3+])C(=O)[O-]
REMARK SMILES IDX 4 1 3 2 2 3 1 4 5 8 6 9 7 10 8 14 9 15 10 16
REMARK H PARENT 1 5 1 6 1 7 7 11 7 12 7 13
REMARK Flexibility Score: inf
ROOT
ATOM      1  C   UNL     1     -22.091  -5.892  15.472  1.00  0.00     0.012 C 
ENDROOT
BRANCH   1   2
ATOM      2  C   UNL     1     -23.004  -7.030  14.998  1.00  0.00     0.061 C 
BRANCH   2   3
ATOM      3  C   UNL     1     -22.352  -8.399  15.241  1.00  0.00     0.258 C 
BRANCH   3   4
ATOM      4  N   UNL     1     -23.228  -9.482  14.794  1.00  0.00    -0.358 N 
ATOM      5  H   UNL     1     -23.677  -9.227  13.885  1.00  0.00     0.344 HD
ATOM      6  H   UNL     1     -22.659 -10.348  14.660  1.00  0.00     0.344 HD
ATOM      7  H   UNL     1     -23.965  -9.668  15.513  1.00  0.00     0.344 HD
ENDBRANCH   3   4
ENDBRANCH   2   3
ENDBRANCH   1   2
BRANCH   1   8
ATOM      8  C   UNL     1     -22.855  -4.919  16.383  1.00  0.00     0.072 C 
BRANCH   8   9
ATOM      9  C   UNL     1     -24.060  -4.261  15.673  1.00  0.00     0.227 C 
BRANCH   9  10
ATOM     10  N   UNL     1     -23.987  -2.794  15.726  1.00  0.00    -0.350 N 
ATOM     11  H   UNL     1     -24.694  -2.379  15.075  1.00  0.00     0.345 HD
ATOM     12  H   UNL     1     -24.172  -2.446  16.696  1.00  0.00     0.345 HD
ATOM     13  H   UNL     1     -23.044  -2.469  15.415  1.00  0.00     0.345 HD
ENDBRANCH   9  10
BRANCH   9  14
ATOM     14  C   UNL     1     -25.338  -4.735  16.312  1.00  0.00     0.099 C 
ATOM     15  O   UNL     1     -25.606  -4.421  17.502  1.00  0.00    -0.544 OA
ATOM     16  O   UNL     1     -26.239  -5.507  15.588  1.00  0.00    -0.544 OA
ENDBRANCH   9  14
ENDBRANCH   8   9
ENDBRANCH   1   8
TORSDOF 7
ENDMDL
MODEL 4
REMARK VINA RESULT:    -3.908      2.861      3.888
REMARK INTER + INTRA:          -5.408
REMARK INTER:                  -4.989
REMARK INTRA:                  -0.419
REMARK UNBOUND:                -0.129
REMARK SMILES [NH3+]CCCC[C@H]([NH3+])C(=O)[O-]
REMARK SMILES IDX 4 1 3 2 2 3 1 4 5 8 6 9 7 10 8 14 9 15 10 16
REMARK H PARENT 1 5 1 6 1 7 7 11 7 12 7 13
REMARK Flexibility Score: inf
ROOT
ATOM      1  C   UNL     1     -22.608  -6.036  15.422  1.00  0.00     0.012 C 
ENDROOT
BRANCH   1   2
ATOM      2  C   UNL     1     -22.454  -4.986  16.529  1.00  0.00     0.061 C 
BRANCH   2   3
ATOM      3  C   UNL     1     -23.433  -3.822  16.328  1.00  0.00     0.258 C 
BRANCH   3   4
ATOM      4  N   UNL     1     -24.515  -3.873  17.311  1.00  0.00    -0.358 N 
ATOM      5  H   UNL     1     -24.120  -3.981  18.274  1.00  0.00     0.344 HD
ATOM      6  H   UNL     1     -25.059  -2.981  17.267  1.00  0.00     0.344 HD
ATOM      7  H   UNL     1     -25.156  -4.672  17.100  1.00  0.00     0.344 HD
ENDBRANCH   3   4
ENDBRANCH   2   3
ENDBRANCH   1   2
BRANCH   1   8
ATOM      8  C   UNL     1     -23.633  -5.581  14.372  1.00  0.00     0.072 C 
BRANCH   8   9
ATOM      9  C   UNL     1     -24.495  -6.747  13.836  1.00  0.00     0.227 C 
BRANCH   9  10
ATOM     10  N   UNL     1     -24.959  -6.495  12.465  1.00  0.00    -0.350 N 
ATOM     11  H   UNL     1     -25.687  -5.743  12.468  1.00  0.00     0.345 HD
ATOM     12  H   UNL     1     -24.165  -6.198  11.851  1.00  0.00     0.345 HD
ATOM     13  H   UNL     1     -25.399  -7.357  12.070  1.00  0.00     0.345 HD
ENDBRANCH   9  10
BRANCH   9  14
ATOM     14  C   UNL     1     -25.674  -6.958  14.748  1.00  0.00     0.099 C 
ATOM     15  O   UNL     1     -26.198  -8.099  14.852  1.00  0.00    -0.544 OA
ATOM     16  O   UNL     1     -26.181  -5.901  15.495  1.00  0.00    -0.544 OA
ENDBRANCH   9  14
ENDBRANCH   8   9
ENDBRANCH   1   8
TORSDOF 7
ENDMDL
MODEL 5
REMARK VINA RESULT:    -3.890      1.771      2.146
REMARK INTER + INTRA:          -5.384
REMARK INTER:                  -5.196
REMARK INTRA:                  -0.188
REMARK UNBOUND:                -0.129
REMARK SMILES [NH3+]CCCC[C@H]([NH3+])C(=O)[O-]
REMARK SMILES IDX 4 1 3 2 2 3 1 4 5 8 6 9 7 10 8 14 9 15 10 16
REMARK H PARENT 1 5 1 6 1 7 7 11 7 12 7 13
REMARK Flexibility Score: inf
ROOT
ATOM      1  C   UNL     1     -22.821  -6.586  15.083  1.00  0.00     0.012 C 
ENDROOT
BRANCH   1   2
ATOM      2  C   UNL     1     -23.965  -6.130  14.170  1.00  0.00     0.061 C 
BRANCH   2   3
ATOM      3  C   UNL     1     -25.283  -6.819  14.549  1.00  0.00     0.258 C 
BRANCH   3   4
ATOM      4  N   UNL     1     -26.239  -5.856  15.095  1.00  0.00    -0.358 N 
ATOM      5  H   UNL     1     -26.371  -5.063  14.426  1.00  0.00     0.344 HD
ATOM      6  H   UNL     1     -27.158  -6.332  15.241  1.00  0.00     0.344 HD
ATOM      7  H   UNL     1     -25.897  -5.490  16.014  1.00  0.00     0.344 HD
ENDBRANCH   3   4
ENDBRANCH   2   3
ENDBRANCH   1   2
BRANCH   1   8
ATOM      8  C   UNL     1     -22.191  -5.390  15.815  1.00  0.00     0.072 C 
BRANCH   8   9
ATOM      9  C   UNL     1     -23.231  -4.316  16.204  1.00  0.00     0.227 C 
BRANCH   9  10
ATOM     10  N   UNL     1     -22.855  -2.987  15.702  1.00  0.00    -0.350 N 
ATOM     11  H   UNL     1     -21.841  -2.808  15.893  1.00  0.00     0.345 HD
ATOM     12  H   UNL     1     -23.025  -2.915  14.672  1.00  0.00     0.345 HD
ATOM     13  H   UNL     1     -23.403  -2.247  16.196  1.00  0.00     0.345 HD
ENDBRANCH   9  10
BRANCH   9  14
ATOM     14  C   UNL     1     -23.376  -4.278  17.702  1.00  0.00     0.099 C 
ATOM     15  O   UNL     1     -22.353  -4.271  18.436  1.00  0.00    -0.544 OA
ATOM     16  O   UNL     1     -24.637  -4.230  18.284  1.00  0.00    -0.544 OA
ENDBRANCH   9  14
ENDBRANCH   8   9
ENDBRANCH   1   8
TORSDOF 7
ENDMDL
MODEL 6
REMARK VINA RESULT:    -3.861      2.775      3.824
REMARK INTER + INTRA:          -5.345
REMARK INTER:                  -5.217
REMARK INTRA:                  -0.128
REMARK UNBOUND:                -0.129
REMARK SMILES [NH3+]CCCC[C@H]([NH3+])C(=O)[O-]
REMARK SMILES IDX 4 1 3 2 2 3 1 4 5 8 6 9 7 10 8 14 9 15 10 16
REMARK H PARENT 1 5 1 6 1 7 7 11 7 12 7 13
REMARK Flexibility Score: inf
ROOT
ATOM      1  C   UNL     1     -25.125  -4.642  16.101  1.00  0.00     0.012 C 
ENDROOT
BRANCH   1   2
ATOM      2  C   UNL     1     -23.740  -3.998  15.963  1.00  0.00     0.061 C 
BRANCH   2   3
ATOM      3  C   UNL     1     -22.882  -4.260  17.208  1.00  0.00     0.258 C 
BRANCH   3   4
ATOM      4  N   UNL     1     -23.660  -4.058  18.431  1.00  0.00    -0.358 N 
ATOM      5  H   UNL     1     -23.989  -3.067  18.487  1.00  0.00     0.344 HD
ATOM      6  H   UNL     1     -24.492  -4.691  18.415  1.00  0.00     0.344 HD
ATOM      7  H   UNL     1     -23.077  -4.286  19.269  1.00  0.00     0.344 HD
ENDBRANCH   3   4
ENDBRANCH   2   3
ENDBRANCH   1   2
BRANCH   1   8
ATOM      8  C   UNL     1     -25.278  -5.830  15.138  1.00  0.00     0.072 C 
BRANCH   8   9
ATOM      9  C   UNL     1     -24.015  -6.066  14.279  1.00  0.00     0.227 C 
BRANCH   9  10
ATOM     10  N   UNL     1     -24.354  -6.328  12.874  1.00  0.00    -0.350 N 
ATOM     11  H   UNL     1     -25.366  -6.580  12.793  1.00  0.00     0.345 HD
ATOM     12  H   UNL     1     -24.165  -5.486  12.281  1.00  0.00     0.345 HD
ATOM     13  H   UNL     1     -23.799  -7.137  12.514  1.00  0.00     0.345 HD
ENDBRANCH   9  10
BRANCH   9  14
ATOM     14  C   UNL     1     -23.234  -7.222  14.844  1.00  0.00     0.099 C 
ATOM     15  O   UNL     1     -22.049  -7.055  15.236  1.00  0.00    -0.544 OA
ATOM     16  O   UNL     1     -23.821  -8.477  14.955  1.00  0.00    -0.544 OA
ENDBRANCH   9  14
ENDBRANCH   8   9
ENDBRANCH   1   8
TORSDOF 7
ENDMDL
MODEL 7
REMARK VINA RESULT:    -3.835      2.938      4.218
REMARK INTER + INTRA:          -5.310
REMARK INTER:                  -5.197
REMARK INTRA:                  -0.114
REMARK UNBOUND:                -0.129
REMARK SMILES [NH3+]CCCC[C@H]([NH3+])C(=O)[O-]
REMARK SMILES IDX 4 1 3 2 2 3 1 4 5 8 6 9 7 10 8 14 9 15 10 16
REMARK H PARENT 1 5 1 6 1 7 7 11 7 12 7 13
REMARK Flexibility Score: inf
ROOT
ATOM      1  C   UNL     1     -24.296  -4.235  16.207  1.00  0.00     0.012 C 
ENDROOT
BRANCH   1   2
ATOM      2  C   UNL     1     -23.192  -3.529  15.410  1.00  0.00     0.061 C 
BRANCH   2   3
ATOM      3  C   UNL     1     -23.374  -2.006  15.442  1.00  0.00     0.258 C 
BRANCH   3   4
ATOM      4  N   UNL     1     -22.366  -1.341  14.617  1.00  0.00    -0.358 N 
ATOM      5  H   UNL     1     -22.397  -1.716  13.641  1.00  0.00     0.344 HD
ATOM      6  H   UNL     1     -22.567  -0.315  14.591  1.00  0.00     0.344 HD
ATOM      7  H   UNL     1     -21.413  -1.489  15.023  1.00  0.00     0.344 HD
ENDBRANCH   3   4
ENDBRANCH   2   3
ENDBRANCH   1   2
BRANCH   1   8
ATOM      8  C   UNL     1     -24.960  -5.338  15.369  1.00  0.00     0.072 C 
BRANCH   8   9
ATOM      9  C   UNL     1     -24.016  -5.917  14.292  1.00  0.00     0.227 C 
BRANCH   9  10
ATOM     10  N   UNL     1     -24.760  -6.408  13.124  1.00  0.00    -0.350 N 
ATOM     11  H   UNL     1     -24.760  -5.682  12.370  1.00  0.00     0.345 HD
ATOM     12  H   UNL     1     -24.330  -7.287  12.750  1.00  0.00     0.345 HD
ATOM     13  H   UNL     1     -25.755  -6.593  13.382  1.00  0.00     0.345 HD
ENDBRANCH   9  10
BRANCH   9  14
ATOM     14  C   UNL     1     -23.200  -7.033  14.889  1.00  0.00     0.099 C 
ATOM     15  O   UNL     1     -22.047  -6.803  15.340  1.00  0.00    -0.544 OA
ATOM     16  O   UNL     1     -23.721  -8.319  14.964  1.00  0.00    -0.544 OA
ENDBRANCH   9  14
ENDBRANCH   8   9
ENDBRANCH   1   8
TORSDOF 7
ENDMDL
MODEL 8
REMARK VINA RESULT:    -3.773      1.651      2.138
REMARK INTER + INTRA:          -5.226
REMARK INTER:                  -5.100
REMARK INTRA:                  -0.125
REMARK UNBOUND:                -0.129
REMARK SMILES [NH3+]CCCC[C@H]([NH3+])C(=O)[O-]
REMARK SMILES IDX 4 1 3 2 2 3 1 4 5 8 6 9 7 10 8 14 9 15 10 16
REMARK H PARENT 1 5 1 6 1 7 7 11 7 12 7 13
REMARK Flexibility Score: inf
ROOT
ATOM      1  C   UNL     1     -22.727  -7.789  15.094  1.00  0.00     0.012 C 
ENDROOT
BRANCH   1   2
ATOM      2  C   UNL     1     -23.888  -8.790  15.035  1.00  0.00     0.061 C 
BRANCH   2   3
ATOM      3  C   UNL     1     -25.201  -8.092  14.657  1.00  0.00     0.258 C 
BRANCH   3   4
ATOM      4  N   UNL     1     -26.330  -9.018  14.743  1.00  0.00    -0.358 N 
ATOM      5  H   UNL     1     -26.801  -9.097  13.812  1.00  0.00     0.344 HD
ATOM      6  H   UNL     1     -25.977  -9.961  15.025  1.00  0.00     0.344 HD
ATOM      7  H   UNL     1     -27.015  -8.685  15.460  1.00  0.00     0.344 HD
ENDBRANCH   3   4
ENDBRANCH   2   3
ENDBRANCH   1   2
BRANCH   1   8
ATOM      8  C   UNL     1     -23.224  -6.356  14.854  1.00  0.00     0.072 C 
BRANCH   8   9
ATOM      9  C   UNL     1     -22.348  -5.296  15.558  1.00  0.00     0.227 C 
BRANCH   9  10
ATOM     10  N   UNL     1     -21.265  -5.915  16.335  1.00  0.00    -0.350 N 
ATOM     11  H   UNL     1     -21.639  -6.722  16.887  1.00  0.00     0.345 HD
ATOM     12  H   UNL     1     -20.503  -6.258  15.705  1.00  0.00     0.345 HD
ATOM     13  H   UNL     1     -20.870  -5.226  17.015  1.00  0.00     0.345 HD
ENDBRANCH   9  10
BRANCH   9  14
ATOM     14  C   UNL     1     -23.210  -4.452  16.459  1.00  0.00     0.099 C 
ATOM     15  O   UNL     1     -24.284  -3.957  16.026  1.00  0.00    -0.544 OA
ATOM     16  O   UNL     1     -22.836  -4.229  17.780  1.00  0.00    -0.544 OA
ENDBRANCH   9  14
ENDBRANCH   8   9
ENDBRANCH   1   8
TORSDOF 7
ENDMDL
MODEL 9
REMARK VINA RESULT:    -3.722      2.784      3.616
REMARK INTER + INTRA:          -5.158
REMARK INTER:                  -4.746
REMARK INTRA:                  -0.411
REMARK UNBOUND:                -0.129
REMARK SMILES [NH3+]CCCC[C@H]([NH3+])C(=O)[O-]
REMARK SMILES IDX 4 1 3 2 2 3 1 4 5 8 6 9 7 10 8 14 9 15 10 16
REMARK H PARENT 1 5 1 6 1 7 7 11 7 12 7 13
REMARK Flexibility Score: inf
ROOT
ATOM      1  C   UNL     1     -22.400  -5.745  15.858  1.00  0.00     0.012 C 
ENDROOT
BRANCH   1   2
ATOM      2  C   UNL     1     -23.197  -4.466  15.578  1.00  0.00     0.061 C 
BRANCH   2   3
ATOM      3  C   UNL     1     -24.266  -4.233  16.655  1.00  0.00     0.258 C 
BRANCH   3   4
ATOM      4  N   UNL     1     -25.599  -4.552  16.146  1.00  0.00    -0.358 N 
ATOM      5  H   UNL     1     -26.317  -4.379  16.887  1.00  0.00     0.344 HD
ATOM      6  H   UNL     1     -25.807  -3.939  15.324  1.00  0.00     0.344 HD
ATOM      7  H   UNL     1     -25.639  -5.552  15.841  1.00  0.00     0.344 HD
ENDBRANCH   3   4
ENDBRANCH   2   3
ENDBRANCH   1   2
BRANCH   1   8
ATOM      8  C   UNL     1     -22.596  -6.773  14.733  1.00  0.00     0.072 C 
BRANCH   8   9
ATOM      9  C   UNL     1     -23.608  -7.879  15.108  1.00  0.00     0.227 C 
BRANCH   9  10
ATOM     10  N   UNL     1     -23.152  -9.205  14.669  1.00  0.00    -0.350 N 
ATOM     11  H   UNL     1     -22.792  -9.151  13.688  1.00  0.00     0.345 HD
ATOM     12  H   UNL     1     -22.391  -9.563  15.292  1.00  0.00     0.345 HD
ATOM     13  H   UNL     1     -23.950  -9.880  14.674  1.00  0.00     0.345 HD
ENDBRANCH   9  10
BRANCH   9  14
ATOM     14  C   UNL     1     -24.945  -7.565  14.491  1.00  0.00     0.099 C 
ATOM     15  O   UNL     1     -25.064  -6.591  13.701  1.00  0.00    -0.544 OA
ATOM     16  O   UNL     1     -26.052  -8.357  14.774  1.00  0.00    -0.544 OA
ENDBRANCH   9  14
ENDBRANCH   8   9
ENDBRANCH   1   8
TORSDOF 7
ENDMDL
