MODEL 1
REMARK VINA RESULT:    -3.971      0.000      0.000
REMARK INTER + INTRA:          -5.620
REMARK INTER:                  -5.364
REMARK INTRA:                  -0.256
REMARK UNBOUND:                -0.256
REMARK SMILES CCCCCCCC(=O)[O-]
REMARK SMILES IDX 5 1 6 2 7 3 8 4 9 5 10 6 4 7 3 8 2 9 1 10
REMARK H PARENT
REMARK Flexibility Score: inf
ROOT
ATOM      1  C   UNL     1      25.603   6.184   9.841  1.00  0.00     0.000 C 
ENDROOT
BRANCH   1   2
ATOM      2  C   UNL     1      26.432   5.162  10.629  1.00  0.00     0.006 C 
BRANCH   2   3
ATOM      3  C   UNL     1      27.932   5.391  10.418  1.00  0.00     0.053 C 
BRANCH   3   4
ATOM      4  C   UNL     1      28.711   4.852  11.576  1.00  0.00     0.041 C 
ATOM      5  O   UNL     1      29.104   5.625  12.489  1.00  0.00    -0.550 OA
ATOM      6  O   UNL     1      28.961   3.489  11.673  1.00  0.00    -0.550 OA
ENDBRANCH   3   4
ENDBRANCH   2   3
ENDBRANCH   1   2
BRANCH   1   7
ATOM      7  C   UNL     1      26.505   7.257   9.212  1.00  0.00     0.000 C 
BRANCH   7   8
ATOM      8  C   UNL     1      25.883   7.897   7.961  1.00  0.00    -0.000 C 
BRANCH   8   9
ATOM      9  C   UNL     1      26.364   7.238   6.659  1.00  0.00    -0.003 C 
ATOM     10  C   UNL     1      25.296   7.325   5.573  1.00  0.00     0.004 C 
ENDBRANCH   8   9
ENDBRANCH   7   8
ENDBRANCH   1   7
TORSDOF 6
ENDMDL
MODEL 2
REMARK VINA RESULT:    -3.917      3.223      4.662
REMARK INTER + INTRA:          -5.548
REMARK INTER:                  -5.159
REMARK INTRA:                  -0.389
REMARK UNBOUND:                -0.256
REMARK SMILES CCCCCCCC(=O)[O-]
REMARK SMILES IDX 5 1 6 2 7 3 8 4 9 5 10 6 4 7 3 8 2 9 1 10
REMARK H PARENT
REMARK Flexibility Score: inf
ROOT
ATOM      1  C   UNL     1      27.037   3.933   8.080  1.00  0.00     0.000 C 
ENDROOT
BRANCH   1   2
ATOM      2  C   UNL     1      27.305   3.893   9.589  1.00  0.00     0.006 C 
BRANCH   2   3
ATOM      3  C   UNL     1      28.507   4.766   9.958  1.00  0.00     0.053 C 
BRANCH   3   4
ATOM      4  C   UNL     1      28.892   4.552  11.388  1.00  0.00     0.041 C 
ATOM      5  O   UNL     1      28.962   5.529  12.178  1.00  0.00    -0.550 OA
ATOM      6  O   UNL     1      29.124   3.266  11.860  1.00  0.00    -0.550 OA
ENDBRANCH   3   4
ENDBRANCH   2   3
ENDBRANCH   1   2
BRANCH   1   7
ATOM      7  C   UNL     1      27.544   2.654   7.396  1.00  0.00     0.000 C 
BRANCH   7   8
ATOM      8  C   UNL     1      27.128   1.378   8.143  1.00  0.00    -0.000 C 
BRANCH   8   9
ATOM      9  C   UNL     1      28.309   0.428   8.394  1.00  0.00    -0.003 C 
ATOM     10  C   UNL     1      28.548   0.233   9.889  1.00  0.00     0.004 C 
ENDBRANCH   8   9
ENDBRANCH   7   8
ENDBRANCH   1   7
TORSDOF 6
ENDMDL
MODEL 3
REMARK VINA RESULT:    -3.870      4.078      5.680
REMARK INTER + INTRA:          -5.484
REMARK INTER:                  -5.287
REMARK INTRA:                  -0.197
REMARK UNBOUND:                -0.256
REMARK SMILES CCCCCCCC(=O)[O-]
REMARK SMILES IDX 5 1 6 2 7 3 8 4 9 5 10 6 4 7 3 8 2 9 1 10
REMARK H PARENT
REMARK Flexibility Score: inf
ROOT
ATOM      1  C   UNL     1      27.081   2.598   8.575  1.00  0.00     0.000 C 
ENDROOT
BRANCH   1   2
ATOM      2  C   UNL     1      28.009   3.782   8.874  1.00  0.00     0.006 C 
BRANCH   2   3
ATOM      3  C   UNL     1      28.323   3.870  10.370  1.00  0.00     0.053 C 
BRANCH   3   4
ATOM      4  C   UNL     1      28.199   5.282  10.848  1.00  0.00     0.041 C 
ATOM      5  O   UNL     1      28.680   5.618  11.962  1.00  0.00    -0.550 OA
ATOM      6  O   UNL     1      27.595   6.239  10.042  1.00  0.00    -0.550 OA
ENDBRANCH   3   4
ENDBRANCH   2   3
ENDBRANCH   1   2
BRANCH   1   7
ATOM      7  C   UNL     1      27.861   1.429   7.955  1.00  0.00     0.000 C 
BRANCH   7   8
ATOM      8  C   UNL     1      28.375   0.434   9.007  1.00  0.00    -0.000 C 
BRANCH   8   9
ATOM      9  C   UNL     1      27.925  -1.008   8.726  1.00  0.00    -0.003 C 
ATOM     10  C   UNL     1      27.604  -1.745  10.023  1.00  0.00     0.004 C 
ENDBRANCH   8   9
ENDBRANCH   7   8
ENDBRANCH   1   7
TORSDOF 6
ENDMDL
MODEL 4
REMARK VINA RESULT:    -3.868      3.464      5.342
REMARK INTER + INTRA:          -5.482
REMARK INTER:                  -5.138
REMARK INTRA:                  -0.343
REMARK UNBOUND:                -0.256
REMARK SMILES CCCCCCCC(=O)[O-]
REMARK SMILES IDX 5 1 6 2 7 3 8 4 9 5 10 6 4 7 3 8 2 9 1 10
REMARK H PARENT
REMARK Flexibility Score: inf
ROOT
ATOM      1  C   UNL     1      27.004   3.482   8.113  1.00  0.00     0.000 C 
ENDROOT
BRANCH   1   2
ATOM      2  C   UNL     1      26.447   4.603   7.227  1.00  0.00     0.006 C 
BRANCH   2   3
ATOM      3  C   UNL     1      26.181   5.869   8.046  1.00  0.00     0.053 C 
BRANCH   3   4
ATOM      4  C   UNL     1      26.309   7.086   7.185  1.00  0.00     0.041 C 
ATOM      5  O   UNL     1      26.147   8.232   7.680  1.00  0.00    -0.550 OA
ATOM      6  O   UNL     1      26.656   6.957   5.846  1.00  0.00    -0.550 OA
ENDBRANCH   3   4
ENDBRANCH   2   3
ENDBRANCH   1   2
BRANCH   1   7
ATOM      7  C   UNL     1      28.111   4.009   9.038  1.00  0.00     0.000 C 
BRANCH   7   8
ATOM      8  C   UNL     1      28.232   3.201  10.339  1.00  0.00    -0.000 C 
BRANCH   8   9
ATOM      9  C   UNL     1      28.779   4.037  11.506  1.00  0.00    -0.003 C 
ATOM     10  C   UNL     1      28.360   5.499  11.377  1.00  0.00     0.004 C 
ENDBRANCH   8   9
ENDBRANCH   7   8
ENDBRANCH   1   7
TORSDOF 6
ENDMDL
MODEL 5
REMARK VINA RESULT:    -3.843      3.200      5.208
REMARK INTER + INTRA:          -5.447
REMARK INTER:                  -5.050
REMARK INTRA:                  -0.397
REMARK UNBOUND:                -0.256
REMARK SMILES CCCCCCCC(=O)[O-]
REMARK SMILES IDX 5 1 6 2 7 3 8 4 9 5 10 6 4 7 3 8 2 9 1 10
REMARK H PARENT
REMARK Flexibility Score: inf
ROOT
ATOM      1  C   UNL     1      25.724   6.221   9.873  1.00  0.00     0.000 C 
ENDROOT
BRANCH   1   2
ATOM      2  C   UNL     1      26.878   6.746   9.010  1.00  0.00     0.006 C 
BRANCH   2   3
ATOM      3  C   UNL     1      26.356   7.626   7.871  1.00  0.00     0.053 C 
BRANCH   3   4
ATOM      4  C   UNL     1      26.070   6.798   6.658  1.00  0.00     0.041 C 
ATOM      5  O   UNL     1      25.434   7.291   5.690  1.00  0.00    -0.550 OA
ATOM      6  O   UNL     1      26.549   5.496   6.576  1.00  0.00    -0.550 OA
ENDBRANCH   3   4
ENDBRANCH   2   3
ENDBRANCH   1   2
BRANCH   1   7
ATOM      7  C   UNL     1      26.160   4.995  10.689  1.00  0.00     0.000 C 
BRANCH   7   8
ATOM      8  C   UNL     1      27.372   4.275  10.077  1.00  0.00    -0.000 C 
BRANCH   8   9
ATOM      9  C   UNL     1      28.474   3.991  11.109  1.00  0.00    -0.003 C 
ATOM     10  C   UNL     1      28.847   5.257  11.876  1.00  0.00     0.004 C 
ENDBRANCH   8   9
ENDBRANCH   7   8
ENDBRANCH   1   7
TORSDOF 6
ENDMDL
MODEL 6
REMARK VINA RESULT:    -3.829      4.399      6.059
REMARK INTER + INTRA:          -5.429
REMARK INTER:                  -5.168
REMARK INTRA:                  -0.261
REMARK UNBOUND:                -0.256
REMARK SMILES CCCCCCCC(=O)[O-]
REMARK SMILES IDX 5 1 6 2 7 3 8 4 9 5 10 6 4 7 3 8 2 9 1 10
REMARK H PARENT
REMARK Flexibility Score: inf
ROOT
ATOM      1  C   UNL     1      27.634   2.073   8.534  1.00  0.00     0.000 C 
ENDROOT
BRANCH   1   2
ATOM      2  C   UNL     1      28.290   0.830   9.146  1.00  0.00     0.006 C 
BRANCH   2   3
ATOM      3  C   UNL     1      27.494  -0.434   8.809  1.00  0.00     0.053 C 
BRANCH   3   4
ATOM      4  C   UNL     1      27.681  -1.470   9.873  1.00  0.00     0.041 C 
ATOM      5  O   UNL     1      27.617  -2.693   9.583  1.00  0.00    -0.550 OA
ATOM      6  O   UNL     1      27.975  -1.084  11.175  1.00  0.00    -0.550 OA
ENDBRANCH   3   4
ENDBRANCH   2   3
ENDBRANCH   1   2
BRANCH   1   7
ATOM      7  C   UNL     1      27.907   3.319   9.391  1.00  0.00     0.000 C 
BRANCH   7   8
ATOM      8  C   UNL     1      28.434   2.971  10.791  1.00  0.00    -0.000 C 
BRANCH   8   9
ATOM      9  C   UNL     1      28.841   4.215  11.595  1.00  0.00    -0.003 C 
ATOM     10  C   UNL     1      28.224   5.478  11.001  1.00  0.00     0.004 C 
ENDBRANCH   8   9
ENDBRANCH   7   8
ENDBRANCH   1   7
TORSDOF 6
ENDMDL
MODEL 7
REMARK VINA RESULT:    -3.822      1.468      1.855
REMARK INTER + INTRA:          -5.419
REMARK INTER:                  -4.986
REMARK INTRA:                  -0.432
REMARK UNBOUND:                -0.256
REMARK SMILES CCCCCCCC(=O)[O-]
REMARK SMILES IDX 5 1 6 2 7 3 8 4 9 5 10 6 4 7 3 8 2 9 1 10
REMARK H PARENT
REMARK Flexibility Score: inf
ROOT
ATOM      1  C   UNL     1      27.072   4.147   8.092  1.00  0.00     0.000 C 
ENDROOT
BRANCH   1   2
ATOM      2  C   UNL     1      28.078   3.876   9.218  1.00  0.00     0.006 C 
BRANCH   2   3
ATOM      3  C   UNL     1      28.327   5.138  10.049  1.00  0.00     0.053 C 
BRANCH   3   4
ATOM      4  C   UNL     1      28.799   4.776  11.422  1.00  0.00     0.041 C 
ATOM      5  O   UNL     1      28.977   5.673  12.287  1.00  0.00    -0.550 OA
ATOM      6  O   UNL     1      28.994   3.443  11.761  1.00  0.00    -0.550 OA
ENDBRANCH   3   4
ENDBRANCH   2   3
ENDBRANCH   1   2
BRANCH   1   7
ATOM      7  C   UNL     1      25.738   4.656   8.658  1.00  0.00     0.000 C 
BRANCH   7   8
ATOM      8  C   UNL     1      25.148   5.814   7.837  1.00  0.00    -0.000 C 
BRANCH   8   9
ATOM      9  C   UNL     1      26.161   6.414   6.850  1.00  0.00    -0.003 C 
ATOM     10  C   UNL     1      26.607   7.803   7.298  1.00  0.00     0.004 C 
ENDBRANCH   8   9
ENDBRANCH   7   8
ENDBRANCH   1   7
TORSDOF 6
ENDMDL
MODEL 8
REMARK VINA RESULT:    -3.750      9.362     10.676
REMARK INTER + INTRA:          -5.322
REMARK INTER:                  -4.874
REMARK INTRA:                  -0.448
REMARK UNBOUND:                -0.256
REMARK SMILES CCCCCCCC(=O)[O-]
REMARK SMILES IDX 5 1 6 2 7 3 8 4 9 5 10 6 4 7 3 8 2 9 1 10
REMARK H PARENT
REMARK Flexibility Score: inf
ROOT
ATOM      1  C   UNL     1      24.981   1.928  17.549  1.00  0.00     0.000 C 
ENDROOT
BRANCH   1   2
ATOM      2  C   UNL     1      24.675   1.132  18.823  1.00  0.00     0.006 C 
BRANCH   2   3
ATOM      3  C   UNL     1      23.326   0.416  18.713  1.00  0.00     0.053 C 
BRANCH   3   4
ATOM      4  C   UNL     1      23.490  -0.907  18.032  1.00  0.00     0.041 C 
ATOM      5  O   UNL     1      22.516  -1.437  17.437  1.00  0.00    -0.550 OA
ATOM      6  O   UNL     1      24.732  -1.530  18.013  1.00  0.00    -0.550 OA
ENDBRANCH   3   4
ENDBRANCH   2   3
ENDBRANCH   1   2
BRANCH   1   7
ATOM      7  C   UNL     1      24.945   3.440  17.821  1.00  0.00     0.000 C 
BRANCH   7   8
ATOM      8  C   UNL     1      23.730   4.129  17.180  1.00  0.00    -0.000 C 
BRANCH   8   9
ATOM      9  C   UNL     1      22.751   4.690  18.222  1.00  0.00    -0.003 C 
ATOM     10  C   UNL     1      23.309   4.542  19.634  1.00  0.00     0.004 C 
ENDBRANCH   8   9
ENDBRANCH   7   8
ENDBRANCH   1   7
TORSDOF 6
ENDMDL
MODEL 9
REMARK VINA RESULT:    -3.740      3.245      4.917
REMARK INTER + INTRA:          -5.309
REMARK INTER:                  -4.850
REMARK INTRA:                  -0.459
REMARK UNBOUND:                -0.256
REMARK SMILES CCCCCCCC(=O)[O-]
REMARK SMILES IDX 5 1 6 2 7 3 8 4 9 5 10 6 4 7 3 8 2 9 1 10
REMARK H PARENT
REMARK Flexibility Score: inf
ROOT
ATOM      1  C   UNL     1      26.703   4.379   8.215  1.00  0.00     0.000 C 
ENDROOT
BRANCH   1   2
ATOM      2  C   UNL     1      26.649   2.862   8.431  1.00  0.00     0.006 C 
BRANCH   2   3
ATOM      3  C   UNL     1      27.985   2.207   8.069  1.00  0.00     0.053 C 
BRANCH   3   4
ATOM      4  C   UNL     1      27.986   0.765   8.467  1.00  0.00     0.041 C 
ATOM      5  O   UNL     1      27.459  -0.099   7.718  1.00  0.00    -0.550 OA
ATOM      6  O   UNL     1      28.613   0.367   9.641  1.00  0.00    -0.550 OA
ENDBRANCH   3   4
ENDBRANCH   2   3
ENDBRANCH   1   2
BRANCH   1   7
ATOM      7  C   UNL     1      26.670   5.128   9.555  1.00  0.00     0.000 C 
BRANCH   7   8
ATOM      8  C   UNL     1      28.057   5.627   9.990  1.00  0.00    -0.000 C 
BRANCH   8   9
ATOM      9  C   UNL     1      28.423   5.186  11.416  1.00  0.00    -0.003 C 
ATOM     10  C   UNL     1      28.806   3.710  11.453  1.00  0.00     0.004 C 
ENDBRANCH   8   9
ENDBRANCH   7   8
ENDBRANCH   1   7
TORSDOF 6
ENDMDL
