MODEL 1
REMARK VINA RESULT:    -4.207      0.000      0.000
REMARK INTER + INTRA:          -9.552
REMARK INTER:                  -7.650
REMARK INTRA:                  -1.902
REMARK UNBOUND:                -1.902
REMARK SMILES CCCCCCCCCCCCCCCC(=O)[O-]
REMARK SMILES IDX 9 1 10 2 11 3 12 4 13 5 14 6 15 7 16 8 17 9 18 10 8 11 7 12
REMARK SMILES IDX 6 13 5 14 4 15 3 16 2 17 1 18
REMARK H PARENT
REMARK Flexibility Score: inf
ROOT
ATOM      1  C   UNL     1      20.761  -7.217  48.310  1.00  0.00     0.000 C 
ENDROOT
BRANCH   1   2
ATOM      2  C   UNL     1      20.249  -7.303  49.758  1.00  0.00     0.000 C 
BRANCH   2   3
ATOM      3  C   UNL     1      21.381  -7.246  50.799  1.00  0.00     0.000 C 
BRANCH   3   4
ATOM      4  C   UNL     1      22.686  -6.590  50.310  1.00  0.00     0.000 C 
BRANCH   4   5
ATOM      5  C   UNL     1      22.944  -5.218  50.955  1.00  0.00     0.000 C 
BRANCH   5   6
ATOM      6  C   UNL     1      23.216  -4.114  49.915  1.00  0.00     0.006 C 
BRANCH   6   7
ATOM      7  C   UNL     1      23.143  -2.684  50.474  1.00  0.00     0.053 C 
BRANCH   7   8
ATOM      8  C   UNL     1      22.443  -1.750  49.534  1.00  0.00     0.041 C 
ATOM      9  O   UNL     1      21.817  -0.753  49.981  1.00  0.00    -0.550 OA
ATOM     10  O   UNL     1      22.509  -1.964  48.164  1.00  0.00    -0.550 OA
ENDBRANCH   7   8
ENDBRANCH   6   7
ENDBRANCH   5   6
ENDBRANCH   4   5
ENDBRANCH   3   4
ENDBRANCH   2   3
ENDBRANCH   1   2
BRANCH   1  11
ATOM     11  C   UNL     1      19.951  -6.233  47.453  1.00  0.00     0.000 C 
BRANCH  11  12
ATOM     12  C   UNL     1      20.809  -5.079  46.905  1.00  0.00    -0.000 C 
BRANCH  12  13
ATOM     13  C   UNL     1      22.222  -5.547  46.498  1.00  0.00    -0.000 C 
BRANCH  13  14
ATOM     14  C   UNL     1      22.519  -5.378  44.999  1.00  0.00    -0.000 C 
BRANCH  14  15
ATOM     15  C   UNL     1      22.123  -6.606  44.168  1.00  0.00    -0.000 C 
BRANCH  15  16
ATOM     16  C   UNL     1      20.926  -6.297  43.263  1.00  0.00    -0.000 C 
BRANCH  16  17
ATOM     17  C   UNL     1      19.672  -7.044  43.733  1.00  0.00    -0.003 C 
ATOM     18  C   UNL     1      20.034  -8.378  44.377  1.00  0.00     0.004 C 
ENDBRANCH  16  17
ENDBRANCH  15  16
ENDBRANCH  14  15
ENDBRANCH  13  14
ENDBRANCH  12  13
ENDBRANCH  11  12
ENDBRANCH   1  11
TORSDOF 14
ENDMDL
MODEL 2
REMARK VINA RESULT:    -4.195      2.275      5.511
REMARK INTER + INTRA:          -9.530
REMARK INTER:                  -7.674
REMARK INTRA:                  -1.856
REMARK UNBOUND:                -1.902
REMARK SMILES CCCCCCCCCCCCCCCC(=O)[O-]
REMARK SMILES IDX 9 1 10 2 11 3 12 4 13 5 14 6 15 7 16 8 17 9 18 10 8 11 7 12
REMARK SMILES IDX 6 13 5 14 4 15 3 16 2 17 1 18
REMARK H PARENT
REMARK Flexibility Score: inf
ROOT
ATOM      1  C   UNL     1      20.243  -7.176  50.038  1.00  0.00     0.000 C 
ENDROOT
BRANCH   1   2
ATOM      2  C   UNL     1      20.698  -7.351  48.579  1.00  0.00     0.000 C 
BRANCH   2   3
ATOM      3  C   UNL     1      19.859  -6.526  47.586  1.00  0.00     0.000 C 
BRANCH   3   4
ATOM      4  C   UNL     1      19.885  -7.031  46.131  1.00  0.00     0.000 C 
BRANCH   4   5
ATOM      5  C   UNL     1      18.483  -7.135  45.509  1.00  0.00     0.000 C 
BRANCH   5   6
ATOM      6  C   UNL     1      18.444  -6.649  44.048  1.00  0.00     0.006 C 
BRANCH   6   7
ATOM      7  C   UNL     1      19.585  -5.693  43.666  1.00  0.00     0.053 C 
BRANCH   7   8
ATOM      8  C   UNL     1      19.190  -4.257  43.823  1.00  0.00     0.041 C 
ATOM      9  O   UNL     1      18.258  -3.776  43.125  1.00  0.00    -0.550 OA
ATOM     10  O   UNL     1      19.830  -3.457  44.760  1.00  0.00    -0.550 OA
ENDBRANCH   7   8
ENDBRANCH   6   7
ENDBRANCH   5   6
ENDBRANCH   4   5
ENDBRANCH   3   4
ENDBRANCH   2   3
ENDBRANCH   1   2
BRANCH   1  11
ATOM     11  C   UNL     1      21.364  -7.470  51.046  1.00  0.00     0.000 C 
BRANCH  11  12
ATOM     12  C   UNL     1      22.734  -6.949  50.576  1.00  0.00    -0.000 C 
BRANCH  12  13
ATOM     13  C   UNL     1      23.004  -5.507  51.054  1.00  0.00    -0.000 C 
BRANCH  13  14
ATOM     14  C   UNL     1      23.711  -4.633  50.005  1.00  0.00    -0.000 C 
BRANCH  14  15
ATOM     15  C   UNL     1      22.852  -4.384  48.758  1.00  0.00    -0.000 C 
BRANCH  15  16
ATOM     16  C   UNL     1      23.476  -5.036  47.520  1.00  0.00    -0.000 C 
BRANCH  16  17
ATOM     17  C   UNL     1      22.778  -4.566  46.238  1.00  0.00    -0.003 C 
ATOM     18  C   UNL     1      23.146  -5.452  45.053  1.00  0.00     0.004 C 
ENDBRANCH  16  17
ENDBRANCH  15  16
ENDBRANCH  14  15
ENDBRANCH  13  14
ENDBRANCH  12  13
ENDBRANCH  11  12
ENDBRANCH   1  11
TORSDOF 14
ENDMDL
MODEL 3
REMARK VINA RESULT:    -4.167      2.937      4.506
REMARK INTER + INTRA:          -9.479
REMARK INTER:                  -7.370
REMARK INTRA:                  -2.109
REMARK UNBOUND:                -1.902
REMARK SMILES CCCCCCCCCCCCCCCC(=O)[O-]
REMARK SMILES IDX 9 1 10 2 11 3 12 4 13 5 14 6 15 7 16 8 17 9 18 10 8 11 7 12
REMARK SMILES IDX 6 13 5 14 4 15 3 16 2 17 1 18
REMARK H PARENT
REMARK Flexibility Score: inf
ROOT
ATOM      1  C   UNL     1      21.916  -4.540  45.480  1.00  0.00     0.000 C 
ENDROOT
BRANCH   1   2
ATOM      2  C   UNL     1      21.139  -4.496  46.807  1.00  0.00     0.000 C 
BRANCH   2   3
ATOM      3  C   UNL     1      21.415  -5.715  47.705  1.00  0.00     0.000 C 
BRANCH   3   4
ATOM      4  C   UNL     1      20.199  -6.624  47.965  1.00  0.00     0.000 C 
BRANCH   4   5
ATOM      5  C   UNL     1      20.207  -7.249  49.370  1.00  0.00     0.000 C 
BRANCH   5   6
ATOM      6  C   UNL     1      21.354  -6.715  50.250  1.00  0.00     0.006 C 
BRANCH   6   7
ATOM      7  C   UNL     1      22.016  -7.778  51.142  1.00  0.00     0.053 C 
BRANCH   7   8
ATOM      8  C   UNL     1      23.323  -8.247  50.580  1.00  0.00     0.041 C 
ATOM      9  O   UNL     1      23.765  -7.756  49.508  1.00  0.00    -0.550 OA
ATOM     10  O   UNL     1      24.068  -9.204  51.257  1.00  0.00    -0.550 OA
ENDBRANCH   7   8
ENDBRANCH   6   7
ENDBRANCH   5   6
ENDBRANCH   4   5
ENDBRANCH   3   4
ENDBRANCH   2   3
ENDBRANCH   1   2
BRANCH   1  11
ATOM     11  C   UNL     1      21.109  -3.974  44.303  1.00  0.00     0.000 C 
BRANCH  11  12
ATOM     12  C   UNL     1      19.589  -4.103  44.511  1.00  0.00    -0.000 C 
BRANCH  12  13
ATOM     13  C   UNL     1      18.865  -4.584  43.237  1.00  0.00    -0.000 C 
BRANCH  13  14
ATOM     14  C   UNL     1      18.274  -5.998  43.361  1.00  0.00    -0.000 C 
BRANCH  14  15
ATOM     15  C   UNL     1      18.746  -6.734  44.623  1.00  0.00    -0.000 C 
BRANCH  15  16
ATOM     16  C   UNL     1      19.428  -8.059  44.264  1.00  0.00    -0.000 C 
BRANCH  16  17
ATOM     17  C   UNL     1      20.932  -8.000  44.556  1.00  0.00    -0.003 C 
ATOM     18  C   UNL     1      21.714  -7.536  43.333  1.00  0.00     0.004 C 
ENDBRANCH  16  17
ENDBRANCH  15  16
ENDBRANCH  14  15
ENDBRANCH  13  14
ENDBRANCH  12  13
ENDBRANCH  11  12
ENDBRANCH   1  11
TORSDOF 14
ENDMDL
MODEL 4
REMARK VINA RESULT:    -4.163      2.187      3.745
REMARK INTER + INTRA:          -9.472
REMARK INTER:                  -7.406
REMARK INTRA:                  -2.066
REMARK UNBOUND:                -1.902
REMARK SMILES CCCCCCCCCCCCCCCC(=O)[O-]
REMARK SMILES IDX 9 1 10 2 11 3 12 4 13 5 14 6 15 7 16 8 17 9 18 10 8 11 7 12
REMARK SMILES IDX 6 13 5 14 4 15 3 16 2 17 1 18
REMARK H PARENT
REMARK Flexibility Score: inf
ROOT
ATOM      1  C   UNL     1      22.722  -6.644  50.518  1.00  0.00     0.000 C 
ENDROOT
BRANCH   1   2
ATOM      2  C   UNL     1      22.797  -5.262  51.191  1.00  0.00     0.000 C 
BRANCH   2   3
ATOM      3  C   UNL     1      23.247  -4.149  50.228  1.00  0.00     0.000 C 
BRANCH   3   4
ATOM      4  C   UNL     1      23.258  -4.540  48.738  1.00  0.00     0.000 C 
BRANCH   4   5
ATOM      5  C   UNL     1      22.363  -3.635  47.875  1.00  0.00     0.000 C 
BRANCH   5   6
ATOM      6  C   UNL     1      23.161  -2.832  46.830  1.00  0.00     0.006 C 
BRANCH   6   7
ATOM      7  C   UNL     1      22.379  -1.677  46.184  1.00  0.00     0.053 C 
BRANCH   7   8
ATOM      8  C   UNL     1      22.883  -1.358  44.810  1.00  0.00     0.041 C 
ATOM      9  O   UNL     1      23.546  -2.212  44.163  1.00  0.00    -0.550 OA
ATOM     10  O   UNL     1      22.595  -0.129  44.232  1.00  0.00    -0.550 OA
ENDBRANCH   7   8
ENDBRANCH   6   7
ENDBRANCH   5   6
ENDBRANCH   4   5
ENDBRANCH   3   4
ENDBRANCH   2   3
ENDBRANCH   1   2
BRANCH   1  11
ATOM     11  C   UNL     1      21.469  -7.433  50.926  1.00  0.00     0.000 C 
BRANCH  11  12
ATOM     12  C   UNL     1      20.291  -7.212  49.960  1.00  0.00    -0.000 C 
BRANCH  12  13
ATOM     13  C   UNL     1      20.730  -7.278  48.482  1.00  0.00    -0.000 C 
BRANCH  13  14
ATOM     14  C   UNL     1      19.885  -6.392  47.550  1.00  0.00    -0.000 C 
BRANCH  14  15
ATOM     15  C   UNL     1      20.246  -6.570  46.069  1.00  0.00    -0.000 C 
BRANCH  15  16
ATOM     16  C   UNL     1      20.184  -5.233  45.323  1.00  0.00    -0.000 C 
BRANCH  16  17
ATOM     17  C   UNL     1      21.419  -5.040  44.435  1.00  0.00    -0.003 C 
ATOM     18  C   UNL     1      22.537  -5.999  44.828  1.00  0.00     0.004 C 
ENDBRANCH  16  17
ENDBRANCH  15  16
ENDBRANCH  14  15
ENDBRANCH  13  14
ENDBRANCH  12  13
ENDBRANCH  11  12
ENDBRANCH   1  11
TORSDOF 14
ENDMDL
MODEL 5
REMARK VINA RESULT:    -4.139      3.337      5.330
REMARK INTER + INTRA:          -9.428
REMARK INTER:                  -7.393
REMARK INTRA:                  -2.035
REMARK UNBOUND:                -1.902
REMARK SMILES CCCCCCCCCCCCCCCC(=O)[O-]
REMARK SMILES IDX 9 1 10 2 11 3 12 4 13 5 14 6 15 7 16 8 17 9 18 10 8 11 7 12
REMARK SMILES IDX 6 13 5 14 4 15 3 16 2 17 1 18
REMARK H PARENT
REMARK Flexibility Score: inf
ROOT
ATOM      1  C   UNL     1      22.832  -6.858  50.798  1.00  0.00     0.000 C 
ENDROOT
BRANCH   1   2
ATOM      2  C   UNL     1      21.497  -7.536  51.154  1.00  0.00     0.000 C 
BRANCH   2   3
ATOM      3  C   UNL     1      20.365  -7.184  50.173  1.00  0.00     0.000 C 
BRANCH   3   4
ATOM      4  C   UNL     1      20.669  -7.478  48.692  1.00  0.00     0.000 C 
BRANCH   4   5
ATOM      5  C   UNL     1      19.869  -6.586  47.728  1.00  0.00     0.000 C 
BRANCH   5   6
ATOM      6  C   UNL     1      19.844  -7.137  46.290  1.00  0.00     0.006 C 
BRANCH   6   7
ATOM      7  C   UNL     1      18.454  -7.137  45.634  1.00  0.00     0.053 C 
BRANCH   7   8
ATOM      8  C   UNL     1      18.535  -7.298  44.147  1.00  0.00     0.041 C 
ATOM      9  O   UNL     1      17.851  -6.558  43.391  1.00  0.00    -0.550 OA
ATOM     10  O   UNL     1      19.390  -8.243  43.595  1.00  0.00    -0.550 OA
ENDBRANCH   7   8
ENDBRANCH   6   7
ENDBRANCH   5   6
ENDBRANCH   4   5
ENDBRANCH   3   4
ENDBRANCH   2   3
ENDBRANCH   1   2
BRANCH   1  11
ATOM     11  C   UNL     1      22.837  -5.357  51.122  1.00  0.00     0.000 C 
BRANCH  11  12
ATOM     12  C   UNL     1      23.312  -4.497  49.937  1.00  0.00    -0.000 C 
BRANCH  12  13
ATOM     13  C   UNL     1      23.619  -5.348  48.687  1.00  0.00    -0.000 C 
BRANCH  13  14
ATOM     14  C   UNL     1      23.131  -4.711  47.375  1.00  0.00    -0.000 C 
BRANCH  14  15
ATOM     15  C   UNL     1      22.229  -3.490  47.602  1.00  0.00    -0.000 C 
BRANCH  15  16
ATOM     16  C   UNL     1      21.750  -2.903  46.270  1.00  0.00    -0.000 C 
BRANCH  16  17
ATOM     17  C   UNL     1      21.425  -4.014  45.263  1.00  0.00    -0.003 C 
ATOM     18  C   UNL     1      20.034  -3.828  44.667  1.00  0.00     0.004 C 
ENDBRANCH  16  17
ENDBRANCH  15  16
ENDBRANCH  14  15
ENDBRANCH  13  14
ENDBRANCH  12  13
ENDBRANCH  11  12
ENDBRANCH   1  11
TORSDOF 14
ENDMDL
MODEL 6
REMARK VINA RESULT:    -4.136      2.033      5.630
REMARK INTER + INTRA:          -9.423
REMARK INTER:                  -7.752
REMARK INTRA:                  -1.671
REMARK UNBOUND:                -1.902
REMARK SMILES CCCCCCCCCCCCCCCC(=O)[O-]
REMARK SMILES IDX 9 1 10 2 11 3 12 4 13 5 14 6 15 7 16 8 17 9 18 10 8 11 7 12
REMARK SMILES IDX 6 13 5 14 4 15 3 16 2 17 1 18
REMARK H PARENT
REMARK Flexibility Score: inf
ROOT
ATOM      1  C   UNL     1      20.761  -7.369  44.080  1.00  0.00     0.000 C 
ENDROOT
BRANCH   1   2
ATOM      2  C   UNL     1      20.965  -6.353  42.942  1.00  0.00     0.000 C 
BRANCH   2   3
ATOM      3  C   UNL     1      19.766  -5.405  42.763  1.00  0.00     0.000 C 
BRANCH   3   4
ATOM      4  C   UNL     1      20.013  -3.949  43.203  1.00  0.00     0.000 C 
BRANCH   4   5
ATOM      5  C   UNL     1      19.844  -3.745  44.718  1.00  0.00     0.000 C 
BRANCH   5   6
ATOM      6  C   UNL     1      21.186  -3.513  45.439  1.00  0.00     0.006 C 
BRANCH   6   7
ATOM      7  C   UNL     1      22.119  -2.514  44.736  1.00  0.00     0.053 C 
BRANCH   7   8
ATOM      8  C   UNL     1      22.706  -1.523  45.695  1.00  0.00     0.041 C 
ATOM      9  O   UNL     1      22.299  -1.477  46.887  1.00  0.00    -0.550 OA
ATOM     10  O   UNL     1      23.721  -0.672  45.281  1.00  0.00    -0.550 OA
ENDBRANCH   7   8
ENDBRANCH   6   7
ENDBRANCH   5   6
ENDBRANCH   4   5
ENDBRANCH   3   4
ENDBRANCH   2   3
ENDBRANCH   1   2
BRANCH   1  11
ATOM     11  C   UNL     1      19.311  -7.407  44.586  1.00  0.00     0.000 C 
BRANCH  11  12
ATOM     12  C   UNL     1      19.194  -7.044  46.077  1.00  0.00    -0.000 C 
BRANCH  12  13
ATOM     13  C   UNL     1      20.563  -7.060  46.789  1.00  0.00    -0.000 C 
BRANCH  13  14
ATOM     14  C   UNL     1      20.549  -6.374  48.166  1.00  0.00    -0.000 C 
BRANCH  14  15
ATOM     15  C   UNL     1      19.908  -7.241  49.258  1.00  0.00    -0.000 C 
BRANCH  15  16
ATOM     16  C   UNL     1      20.704  -7.157  50.565  1.00  0.00    -0.000 C 
BRANCH  16  17
ATOM     17  C   UNL     1      22.057  -6.471  50.343  1.00  0.00    -0.003 C 
ATOM     18  C   UNL     1      23.211  -7.388  50.733  1.00  0.00     0.004 C 
ENDBRANCH  16  17
ENDBRANCH  15  16
ENDBRANCH  14  15
ENDBRANCH  13  14
ENDBRANCH  12  13
ENDBRANCH  11  12
ENDBRANCH   1  11
TORSDOF 14
ENDMDL
MODEL 7
REMARK VINA RESULT:    -4.104      2.478      5.512
REMARK INTER + INTRA:          -9.366
REMARK INTER:                  -7.398
REMARK INTRA:                  -1.967
REMARK UNBOUND:                -1.902
REMARK SMILES CCCCCCCCCCCCCCCC(=O)[O-]
REMARK SMILES IDX 9 1 10 2 11 3 12 4 13 5 14 6 15 7 16 8 17 9 18 10 8 11 7 12
REMARK SMILES IDX 6 13 5 14 4 15 3 16 2 17 1 18
REMARK H PARENT
REMARK Flexibility Score: inf
ROOT
ATOM      1  C   UNL     1      20.256  -7.130  49.748  1.00  0.00     0.000 C 
ENDROOT
BRANCH   1   2
ATOM      2  C   UNL     1      20.949  -7.293  48.384  1.00  0.00     0.000 C 
BRANCH   2   3
ATOM      3  C   UNL     1      20.874  -6.024  47.517  1.00  0.00     0.000 C 
BRANCH   3   4
ATOM      4  C   UNL     1      22.171  -5.195  47.458  1.00  0.00     0.000 C 
BRANCH   4   5
ATOM      5  C   UNL     1      21.920  -3.714  47.129  1.00  0.00     0.000 C 
BRANCH   5   6
ATOM      6  C   UNL     1      22.838  -3.191  46.008  1.00  0.00     0.006 C 
BRANCH   6   7
ATOM      7  C   UNL     1      22.159  -2.212  45.037  1.00  0.00     0.053 C 
BRANCH   7   8
ATOM      8  C   UNL     1      22.930  -0.935  44.896  1.00  0.00     0.041 C 
ATOM      9  O   UNL     1      22.527  -0.034  44.115  1.00  0.00    -0.550 OA
ATOM     10  O   UNL     1      24.077  -0.729  45.652  1.00  0.00    -0.550 OA
ENDBRANCH   7   8
ENDBRANCH   6   7
ENDBRANCH   5   6
ENDBRANCH   4   5
ENDBRANCH   3   4
ENDBRANCH   2   3
ENDBRANCH   1   2
BRANCH   1  11
ATOM     11  C   UNL     1      21.254  -7.032  50.911  1.00  0.00     0.000 C 
BRANCH  11  12
ATOM     12  C   UNL     1      22.684  -7.424  50.498  1.00  0.00    -0.000 C 
BRANCH  12  13
ATOM     13  C   UNL     1      23.672  -6.246  50.629  1.00  0.00    -0.000 C 
BRANCH  13  14
ATOM     14  C   UNL     1      23.012  -4.940  51.100  1.00  0.00    -0.000 C 
BRANCH  14  15
ATOM     15  C   UNL     1      23.776  -3.687  50.650  1.00  0.00    -0.000 C 
BRANCH  15  16
ATOM     16  C   UNL     1      22.850  -2.468  50.592  1.00  0.00    -0.000 C 
BRANCH  16  17
ATOM     17  C   UNL     1      23.437  -1.372  49.695  1.00  0.00    -0.003 C 
ATOM     18  C   UNL     1      24.698  -1.855  48.986  1.00  0.00     0.004 C 
ENDBRANCH  16  17
ENDBRANCH  15  16
ENDBRANCH  14  15
ENDBRANCH  13  14
ENDBRANCH  12  13
ENDBRANCH  11  12
ENDBRANCH   1  11
TORSDOF 14
ENDMDL
MODEL 8
REMARK VINA RESULT:    -4.081      2.892      6.768
REMARK INTER + INTRA:          -9.324
REMARK INTER:                  -7.512
REMARK INTRA:                  -1.812
REMARK UNBOUND:                -1.902
REMARK SMILES CCCCCCCCCCCCCCCC(=O)[O-]
REMARK SMILES IDX 9 1 10 2 11 3 12 4 13 5 14 6 15 7 16 8 17 9 18 10 8 11 7 12
REMARK SMILES IDX 6 13 5 14 4 15 3 16 2 17 1 18
REMARK H PARENT
REMARK Flexibility Score: inf
ROOT
ATOM      1  C   UNL     1      21.931  -5.302  47.152  1.00  0.00     0.000 C 
ENDROOT
BRANCH   1   2
ATOM      2  C   UNL     1      21.756  -3.781  46.999  1.00  0.00     0.000 C 
BRANCH   2   3
ATOM      3  C   UNL     1      22.367  -3.234  45.697  1.00  0.00     0.000 C 
BRANCH   3   4
ATOM      4  C   UNL     1      21.478  -3.379  44.447  1.00  0.00     0.000 C 
BRANCH   4   5
ATOM      5  C   UNL     1      20.006  -3.666  44.790  1.00  0.00     0.000 C 
BRANCH   5   6
ATOM      6  C   UNL     1      19.397  -4.775  43.912  1.00  0.00     0.006 C 
BRANCH   6   7
ATOM      7  C   UNL     1      20.193  -6.090  43.907  1.00  0.00     0.053 C 
BRANCH   7   8
ATOM      8  C   UNL     1      19.348  -7.259  44.312  1.00  0.00     0.041 C 
ATOM      9  O   UNL     1      19.546  -8.392  43.799  1.00  0.00    -0.550 OA
ATOM     10  O   UNL     1      18.362  -7.103  45.277  1.00  0.00    -0.550 OA
ENDBRANCH   7   8
ENDBRANCH   6   7
ENDBRANCH   5   6
ENDBRANCH   4   5
ENDBRANCH   3   4
ENDBRANCH   2   3
ENDBRANCH   1   2
BRANCH   1  11
ATOM     11  C   UNL     1      20.657  -5.996  47.657  1.00  0.00     0.000 C 
BRANCH  11  12
ATOM     12  C   UNL     1      20.956  -7.294  48.428  1.00  0.00    -0.000 C 
BRANCH  12  13
ATOM     13  C   UNL     1      20.295  -7.308  49.822  1.00  0.00    -0.000 C 
BRANCH  13  14
ATOM     14  C   UNL     1      21.285  -7.570  50.970  1.00  0.00    -0.000 C 
BRANCH  14  15
ATOM     15  C   UNL     1      22.665  -6.945  50.723  1.00  0.00    -0.000 C 
BRANCH  15  16
ATOM     16  C   UNL     1      22.752  -5.542  51.334  1.00  0.00    -0.000 C 
BRANCH  16  17
ATOM     17  C   UNL     1      23.502  -4.582  50.404  1.00  0.00    -0.003 C 
ATOM     18  C   UNL     1      23.130  -3.131  50.692  1.00  0.00     0.004 C 
ENDBRANCH  16  17
ENDBRANCH  15  16
ENDBRANCH  14  15
ENDBRANCH  13  14
ENDBRANCH  12  13
ENDBRANCH  11  12
ENDBRANCH   1  11
TORSDOF 14
ENDMDL
MODEL 9
REMARK VINA RESULT:    -4.053      3.177      5.703
REMARK INTER + INTRA:          -9.272
REMARK INTER:                  -7.133
REMARK INTRA:                  -2.139
REMARK UNBOUND:                -1.902
REMARK SMILES CCCCCCCCCCCCCCCC(=O)[O-]
REMARK SMILES IDX 9 1 10 2 11 3 12 4 13 5 14 6 15 7 16 8 17 9 18 10 8 11 7 12
REMARK SMILES IDX 6 13 5 14 4 15 3 16 2 17 1 18
REMARK H PARENT
REMARK Flexibility Score: inf
ROOT
ATOM      1  C   UNL     1      21.507  -7.864  51.117  1.00  0.00     0.000 C 
ENDROOT
BRANCH   1   2
ATOM      2  C   UNL     1      20.385  -7.133  50.360  1.00  0.00     0.000 C 
BRANCH   2   3
ATOM      3  C   UNL     1      20.350  -7.476  48.860  1.00  0.00     0.000 C 
BRANCH   3   4
ATOM      4  C   UNL     1      20.060  -6.287  47.925  1.00  0.00     0.000 C 
BRANCH   4   5
ATOM      5  C   UNL     1      20.123  -6.668  46.436  1.00  0.00     0.000 C 
BRANCH   5   6
ATOM      6  C   UNL     1      18.746  -7.053  45.863  1.00  0.00     0.006 C 
BRANCH   6   7
ATOM      7  C   UNL     1      18.771  -7.485  44.388  1.00  0.00     0.053 C 
BRANCH   7   8
ATOM      8  C   UNL     1      19.124  -6.350  43.476  1.00  0.00     0.041 C 
ATOM      9  O   UNL     1      18.301  -5.418  43.275  1.00  0.00    -0.550 OA
ATOM     10  O   UNL     1      20.375  -6.305  42.874  1.00  0.00    -0.550 OA
ENDBRANCH   7   8
ENDBRANCH   6   7
ENDBRANCH   5   6
ENDBRANCH   4   5
ENDBRANCH   3   4
ENDBRANCH   2   3
ENDBRANCH   1   2
BRANCH   1  11
ATOM     11  C   UNL     1      22.813  -7.058  51.161  1.00  0.00     0.000 C 
BRANCH  11  12
ATOM     12  C   UNL     1      22.573  -5.538  51.125  1.00  0.00    -0.000 C 
BRANCH  12  13
ATOM     13  C   UNL     1      23.326  -4.858  49.963  1.00  0.00    -0.000 C 
BRANCH  13  14
ATOM     14  C   UNL     1      24.222  -5.819  49.163  1.00  0.00    -0.000 C 
BRANCH  14  15
ATOM     15  C   UNL     1      23.744  -6.019  47.719  1.00  0.00    -0.000 C 
BRANCH  15  16
ATOM     16  C   UNL     1      23.664  -7.508  47.367  1.00  0.00    -0.000 C 
BRANCH  16  17
ATOM     17  C   UNL     1      24.829  -8.285  47.990  1.00  0.00    -0.003 C 
ATOM     18  C   UNL     1      24.329  -9.486  48.786  1.00  0.00     0.004 C 
ENDBRANCH  16  17
ENDBRANCH  15  16
ENDBRANCH  14  15
ENDBRANCH  13  14
ENDBRANCH  12  13
ENDBRANCH  11  12
ENDBRANCH   1  11
TORSDOF 14
ENDMDL
