MODEL 1
REMARK VINA RESULT:    -4.749      0.000      0.000
REMARK INTER + INTRA:          -5.201
REMARK INTER:                  -5.165
REMARK INTRA:                  -0.036
REMARK UNBOUND:                -0.036
REMARK SMILES O=C([O-])c1ccc(O)cc1
REMARK SMILES IDX 4 1 5 2 10 3 6 4 9 5 7 6 2 7 1 8 3 9 8 10
REMARK H PARENT 8 11
REMARK Flexibility Score: inf
ROOT
ATOM      1  C   UNL     1     -17.832  41.765  32.136  1.00  0.00    -0.003 A 
ATOM      2  C   UNL     1     -18.572  41.562  33.315  1.00  0.00     0.014 A 
ATOM      3  C   UNL     1     -17.850  43.033  31.529  1.00  0.00     0.014 A 
ATOM      4  C   UNL     1     -19.314  42.608  33.874  1.00  0.00     0.047 A 
ATOM      5  C   UNL     1     -18.594  44.076  32.092  1.00  0.00     0.047 A 
ATOM      6  C   UNL     1     -19.326  43.868  33.263  1.00  0.00     0.115 A 
ENDROOT
BRANCH   1   7
ATOM      7  C   UNL     1     -17.045  40.663  31.539  1.00  0.00     0.071 C 
ATOM      8  O   UNL     1     -16.267  40.881  30.574  1.00  0.00    -0.545 OA
ATOM      9  O   UNL     1     -17.153  39.369  32.038  1.00  0.00    -0.545 OA
ENDBRANCH   1   7
BRANCH   6  10
ATOM     10  O   UNL     1     -20.061  44.916  33.811  1.00  0.00    -0.508 OA
ATOM     11  H   UNL     1     -19.624  45.796  34.059  1.00  0.00     0.293 HD
ENDBRANCH   6  10
TORSDOF 2
ENDMDL
MODEL 2
REMARK VINA RESULT:    -4.745      0.059      1.533
REMARK INTER + INTRA:          -5.197
REMARK INTER:                  -5.162
REMARK INTRA:                  -0.036
REMARK UNBOUND:                -0.036
REMARK SMILES O=C([O-])c1ccc(O)cc1
REMARK SMILES IDX 4 1 5 2 10 3 6 4 9 5 7 6 2 7 1 8 3 9 8 10
REMARK H PARENT 8 11
REMARK Flexibility Score: inf
ROOT
ATOM      1  C   UNL     1     -17.856  41.762  32.137  1.00  0.00    -0.003 A 
ATOM      2  C   UNL     1     -17.844  43.027  31.520  1.00  0.00     0.014 A 
ATOM      3  C   UNL     1     -18.603  41.586  33.315  1.00  0.00     0.014 A 
ATOM      4  C   UNL     1     -18.564  44.091  32.071  1.00  0.00     0.047 A 
ATOM      5  C   UNL     1     -19.322  42.654  33.864  1.00  0.00     0.047 A 
ATOM      6  C   UNL     1     -19.305  43.907  33.245  1.00  0.00     0.115 A 
ENDROOT
BRANCH   1   7
ATOM      7  C   UNL     1     -17.097  40.632  31.557  1.00  0.00     0.071 C 
ATOM      8  O   UNL     1     -16.285  40.823  30.614  1.00  0.00    -0.545 OA
ATOM      9  O   UNL     1     -17.269  39.343  32.048  1.00  0.00    -0.545 OA
ENDBRANCH   1   7
BRANCH   6  10
ATOM     10  O   UNL     1     -20.026  44.959  33.804  1.00  0.00    -0.508 OA
ATOM     11  H   UNL     1     -19.751  45.924  33.659  1.00  0.00     0.293 HD
ENDBRANCH   6  10
TORSDOF 2
ENDMDL
MODEL 3
REMARK VINA RESULT:    -4.726      4.082      4.903
REMARK INTER + INTRA:          -5.176
REMARK INTER:                  -5.145
REMARK INTRA:                  -0.031
REMARK UNBOUND:                -0.036
REMARK SMILES O=C([O-])c1ccc(O)cc1
REMARK SMILES IDX 4 1 5 2 10 3 6 4 9 5 7 6 2 7 1 8 3 9 8 10
REMARK H PARENT 8 11
REMARK Flexibility Score: inf
ROOT
ATOM      1  C   UNL     1     -15.952  44.469  32.049  1.00  0.00    -0.003 A 
ATOM      2  C   UNL     1     -14.623  44.587  31.601  1.00  0.00     0.014 A 
ATOM      3  C   UNL     1     -16.202  44.404  33.431  1.00  0.00     0.014 A 
ATOM      4  C   UNL     1     -13.569  44.639  32.518  1.00  0.00     0.047 A 
ATOM      5  C   UNL     1     -15.144  44.456  34.345  1.00  0.00     0.047 A 
ATOM      6  C   UNL     1     -13.827  44.573  33.893  1.00  0.00     0.115 A 
ENDROOT
BRANCH   1   7
ATOM      7  C   UNL     1     -17.072  44.415  31.083  1.00  0.00     0.071 C 
ATOM      8  O   UNL     1     -17.116  45.211  30.108  1.00  0.00    -0.545 OA
ATOM      9  O   UNL     1     -18.092  43.483  31.239  1.00  0.00    -0.545 OA
ENDBRANCH   1   7
BRANCH   6  10
ATOM     10  O   UNL     1     -12.785  44.623  34.815  1.00  0.00    -0.508 OA
ATOM     11  H   UNL     1     -12.072  45.342  34.769  1.00  0.00     0.293 HD
ENDBRANCH   6  10
TORSDOF 2
ENDMDL
MODEL 4
REMARK VINA RESULT:    -4.692      3.991      4.711
REMARK INTER + INTRA:          -5.140
REMARK INTER:                  -5.105
REMARK INTRA:                  -0.035
REMARK UNBOUND:                -0.036
REMARK SMILES O=C([O-])c1ccc(O)cc1
REMARK SMILES IDX 4 1 5 2 10 3 6 4 9 5 7 6 2 7 1 8 3 9 8 10
REMARK H PARENT 8 11
REMARK Flexibility Score: inf
ROOT
ATOM      1  C   UNL     1     -15.843  44.224  31.941  1.00  0.00    -0.003 A 
ATOM      2  C   UNL     1     -16.131  43.834  33.261  1.00  0.00     0.014 A 
ATOM      3  C   UNL     1     -14.548  44.680  31.632  1.00  0.00     0.014 A 
ATOM      4  C   UNL     1     -15.145  43.898  34.251  1.00  0.00     0.047 A 
ATOM      5  C   UNL     1     -13.565  44.743  32.625  1.00  0.00     0.047 A 
ATOM      6  C   UNL     1     -13.859  44.354  33.934  1.00  0.00     0.115 A 
ENDROOT
BRANCH   1   7
ATOM      7  C   UNL     1     -16.882  44.158  30.889  1.00  0.00     0.071 C 
ATOM      8  O   UNL     1     -17.902  43.435  31.042  1.00  0.00    -0.545 OA
ATOM      9  O   UNL     1     -16.747  44.894  29.718  1.00  0.00    -0.545 OA
ENDBRANCH   1   7
BRANCH   6  10
ATOM     10  O   UNL     1     -12.868  44.422  34.911  1.00  0.00    -0.508 OA
ATOM     11  H   UNL     1     -13.003  44.951  35.765  1.00  0.00     0.293 HD
ENDBRANCH   6  10
TORSDOF 2
ENDMDL
MODEL 5
REMARK VINA RESULT:    -4.654      1.923      2.688
REMARK INTER + INTRA:          -5.098
REMARK INTER:                  -5.069
REMARK INTRA:                  -0.029
REMARK UNBOUND:                -0.036
REMARK SMILES O=C([O-])c1ccc(O)cc1
REMARK SMILES IDX 4 1 5 2 10 3 6 4 9 5 7 6 2 7 1 8 3 9 8 10
REMARK H PARENT 8 11
REMARK Flexibility Score: inf
ROOT
ATOM      1  C   UNL     1     -17.479  41.734  32.033  1.00  0.00    -0.003 A 
ATOM      2  C   UNL     1     -16.561  42.050  31.015  1.00  0.00     0.014 A 
ATOM      3  C   UNL     1     -18.386  42.719  32.464  1.00  0.00     0.014 A 
ATOM      4  C   UNL     1     -16.550  43.326  30.442  1.00  0.00     0.047 A 
ATOM      5  C   UNL     1     -18.372  43.994  31.888  1.00  0.00     0.047 A 
ATOM      6  C   UNL     1     -17.456  44.301  30.878  1.00  0.00     0.115 A 
ENDROOT
BRANCH   1   7
ATOM      7  C   UNL     1     -17.496  40.386  32.643  1.00  0.00     0.071 C 
ATOM      8  O   UNL     1     -17.760  39.371  31.946  1.00  0.00    -0.545 OA
ATOM      9  O   UNL     1     -17.219  40.221  33.995  1.00  0.00    -0.545 OA
ENDBRANCH   1   7
BRANCH   6  10
ATOM     10  O   UNL     1     -17.455  45.575  30.314  1.00  0.00    -0.508 OA
ATOM     11  H   UNL     1     -18.315  46.093  30.175  1.00  0.00     0.293 HD
ENDBRANCH   6  10
TORSDOF 2
ENDMDL
MODEL 6
REMARK VINA RESULT:    -4.539      3.691      4.211
REMARK INTER + INTRA:          -4.973
REMARK INTER:                  -4.937
REMARK INTRA:                  -0.036
REMARK UNBOUND:                -0.036
REMARK SMILES O=C([O-])c1ccc(O)cc1
REMARK SMILES IDX 4 1 5 2 10 3 6 4 9 5 7 6 2 7 1 8 3 9 8 10
REMARK H PARENT 8 11
REMARK Flexibility Score: inf
ROOT
ATOM      1  C   UNL     1     -15.062  44.585  32.551  1.00  0.00    -0.003 A 
ATOM      2  C   UNL     1     -16.113  44.452  33.477  1.00  0.00     0.014 A 
ATOM      3  C   UNL     1     -15.353  44.523  31.177  1.00  0.00     0.014 A 
ATOM      4  C   UNL     1     -17.427  44.262  33.036  1.00  0.00     0.047 A 
ATOM      5  C   UNL     1     -16.668  44.333  30.739  1.00  0.00     0.047 A 
ATOM      6  C   UNL     1     -17.707  44.202  31.665  1.00  0.00     0.115 A 
ENDROOT
BRANCH   1   7
ATOM      7  C   UNL     1     -13.671  44.787  33.012  1.00  0.00     0.071 C 
ATOM      8  O   UNL     1     -12.718  44.796  32.188  1.00  0.00    -0.545 OA
ATOM      9  O   UNL     1     -13.395  44.970  34.363  1.00  0.00    -0.545 OA
ENDBRANCH   1   7
BRANCH   6  10
ATOM     10  O   UNL     1     -19.011  44.014  31.213  1.00  0.00    -0.508 OA
ATOM     11  H   UNL     1     -19.377  43.088  31.026  1.00  0.00     0.293 HD
ENDBRANCH   6  10
TORSDOF 2
ENDMDL
MODEL 7
REMARK VINA RESULT:    -4.530      3.702      4.449
REMARK INTER + INTRA:          -4.963
REMARK INTER:                  -4.927
REMARK INTRA:                  -0.036
REMARK UNBOUND:                -0.036
REMARK SMILES O=C([O-])c1ccc(O)cc1
REMARK SMILES IDX 4 1 5 2 10 3 6 4 9 5 7 6 2 7 1 8 3 9 8 10
REMARK H PARENT 8 11
REMARK Flexibility Score: inf
ROOT
ATOM      1  C   UNL     1     -15.027  44.586  32.507  1.00  0.00    -0.003 A 
ATOM      2  C   UNL     1     -15.339  44.630  31.136  1.00  0.00     0.014 A 
ATOM      3  C   UNL     1     -16.061  44.368  33.436  1.00  0.00     0.014 A 
ATOM      4  C   UNL     1     -16.658  44.458  30.704  1.00  0.00     0.047 A 
ATOM      5  C   UNL     1     -17.379  44.196  32.999  1.00  0.00     0.047 A 
ATOM      6  C   UNL     1     -17.682  44.241  31.636  1.00  0.00     0.115 A 
ENDROOT
BRANCH   1   7
ATOM      7  C   UNL     1     -13.633  44.767  32.970  1.00  0.00     0.071 C 
ATOM      8  O   UNL     1     -12.677  44.730  32.152  1.00  0.00    -0.545 OA
ATOM      9  O   UNL     1     -13.360  44.980  34.317  1.00  0.00    -0.545 OA
ENDBRANCH   1   7
BRANCH   6  10
ATOM     10  O   UNL     1     -18.999  44.069  31.217  1.00  0.00    -0.508 OA
ATOM     11  H   UNL     1     -19.433  44.707  30.561  1.00  0.00     0.293 HD
ENDBRANCH   6  10
TORSDOF 2
ENDMDL
MODEL 8
REMARK VINA RESULT:    -4.514      2.941      3.615
REMARK INTER + INTRA:          -4.946
REMARK INTER:                  -4.919
REMARK INTRA:                  -0.027
REMARK UNBOUND:                -0.036
REMARK SMILES O=C([O-])c1ccc(O)cc1
REMARK SMILES IDX 4 1 5 2 10 3 6 4 9 5 7 6 2 7 1 8 3 9 8 10
REMARK H PARENT 8 11
REMARK Flexibility Score: inf
ROOT
ATOM      1  C   UNL     1     -16.550  43.911  33.546  1.00  0.00    -0.003 A 
ATOM      2  C   UNL     1     -16.521  42.561  33.942  1.00  0.00     0.014 A 
ATOM      3  C   UNL     1     -17.791  44.522  33.295  1.00  0.00     0.014 A 
ATOM      4  C   UNL     1     -17.711  41.839  34.083  1.00  0.00     0.047 A 
ATOM      5  C   UNL     1     -18.979  43.796  33.437  1.00  0.00     0.047 A 
ATOM      6  C   UNL     1     -18.943  42.456  33.831  1.00  0.00     0.115 A 
ENDROOT
BRANCH   1   7
ATOM      7  C   UNL     1     -15.294  44.680  33.395  1.00  0.00     0.071 C 
ATOM      8  O   UNL     1     -14.824  45.334  34.364  1.00  0.00    -0.545 OA
ATOM      9  O   UNL     1     -14.616  44.690  32.182  1.00  0.00    -0.545 OA
ENDBRANCH   1   7
BRANCH   6  10
ATOM     10  O   UNL     1     -20.134  41.747  33.968  1.00  0.00    -0.508 OA
ATOM     11  H   UNL     1     -20.188  40.908  34.534  1.00  0.00     0.293 HD
ENDBRANCH   6  10
TORSDOF 2
ENDMDL
MODEL 9
REMARK VINA RESULT:    -4.463      1.899      2.389
REMARK INTER + INTRA:          -4.890
REMARK INTER:                  -4.857
REMARK INTRA:                  -0.033
REMARK UNBOUND:                -0.036
REMARK SMILES O=C([O-])c1ccc(O)cc1
REMARK SMILES IDX 4 1 5 2 10 3 6 4 9 5 7 6 2 7 1 8 3 9 8 10
REMARK H PARENT 8 11
REMARK Flexibility Score: inf
ROOT
ATOM      1  C   UNL     1     -16.554  42.886  32.797  1.00  0.00    -0.003 A 
ATOM      2  C   UNL     1     -16.583  44.244  33.161  1.00  0.00     0.014 A 
ATOM      3  C   UNL     1     -17.762  42.166  32.750  1.00  0.00     0.014 A 
ATOM      4  C   UNL     1     -17.795  44.868  33.473  1.00  0.00     0.047 A 
ATOM      5  C   UNL     1     -18.972  42.794  33.063  1.00  0.00     0.047 A 
ATOM      6  C   UNL     1     -18.993  44.144  33.424  1.00  0.00     0.115 A 
ENDROOT
BRANCH   1   7
ATOM      7  C   UNL     1     -15.275  42.220  32.465  1.00  0.00     0.071 C 
ATOM      8  O   UNL     1     -15.239  41.285  31.622  1.00  0.00    -0.545 OA
ATOM      9  O   UNL     1     -14.093  42.618  33.080  1.00  0.00    -0.545 OA
ENDBRANCH   1   7
BRANCH   6  10
ATOM     10  O   UNL     1     -20.206  44.755  33.733  1.00  0.00    -0.508 OA
ATOM     11  H   UNL     1     -20.406  45.094  34.666  1.00  0.00     0.293 HD
ENDBRANCH   6  10
TORSDOF 2
ENDMDL
