MODEL 1
REMARK VINA RESULT:    -4.235      0.000      0.000
REMARK INTER + INTRA:          -6.657
REMARK INTER:                  -6.463
REMARK INTRA:                  -0.194
REMARK UNBOUND:                -0.194
REMARK SMILES CC1=CCC[C@@H](C)C(=O)C[C@@H](C(C)C)C(=O)C1
REMARK SMILES IDX 8 1 9 2 6 3 7 4 5 5 4 6 3 7 2 8 1 9 10 11 11 12 15 13 16 14
REMARK SMILES IDX 17 15 12 17 13 18 14 19
REMARK H PARENT
REMARK Flexibility Score: 70.00
ROOT
ATOM      1  C   UNL     1      17.247 -34.145  24.000  1.00  0.00     0.136 C 
ATOM      2  O   UNL     1      17.253 -33.653  25.121  1.00  0.00    -0.299 OA
ENDROOT
BRANCH   1   3
ATOM      3  C   UNL     1      17.659 -35.601  23.852  1.00  0.00     0.053 C 
ATOM      4  C   UNL     1      17.935 -36.324  25.181  1.00  0.00     0.016 C 
BRANCH   3   5
ATOM      5  C   UNL     1      18.794 -35.782  22.817  1.00  0.00     0.015 C 
BRANCH   5   6
ATOM      6  C   UNL     1      18.373 -36.444  21.473  1.00  0.00     0.028 C 
BRANCH   6   7
ATOM      7  C   UNL     1      18.325 -35.428  20.345  1.00  0.00    -0.028 C 
ATOM      8  C   UNL     1      17.202 -34.841  19.867  1.00  0.00    -0.070 CG0
ATOM      9  C   UNL     1      17.345 -33.843  18.746  1.00  0.00     0.039 C 
ATOM     10  G   UNL     1      15.821 -35.103  20.444  1.00  0.00     0.000 G0
ENDBRANCH   6   7
ENDBRANCH   5   6
ENDBRANCH   3   5
ENDBRANCH   1   3
BRANCH   1  11
ATOM     11  C   UNL     1      16.773 -33.290  22.845  1.00  0.00     0.087 C 
BRANCH  11  12
ATOM     12  C   UNL     1      15.258 -33.525  22.544  1.00  0.00     0.066 C 
BRANCH  12  13
ATOM     13  C   UNL     1      15.098 -33.929  21.080  1.00  0.00     0.140 C 
ATOM     14  O   UNL     1      14.371 -33.255  20.369  1.00  0.00    -0.299 OA
BRANCH  13  15
ATOM     15  C   UNL     1      15.806 -35.108  20.438  1.00  0.00     0.106 CG0
ATOM     16  G   UNL     1      17.191 -34.822  19.881  1.00  0.00     0.000 G0
ENDBRANCH  13  15
ENDBRANCH  12  13
BRANCH  12  17
ATOM     17  C   UNL     1      14.374 -32.283  22.883  1.00  0.00    -0.006 C 
ATOM     18  C   UNL     1      13.781 -32.386  24.303  1.00  0.00     0.008 C 
ATOM     19  C   UNL     1      15.165 -30.966  22.775  1.00  0.00     0.008 C 
ENDBRANCH  12  17
ENDBRANCH  11  12
ENDBRANCH   1  11
TORSDOF 1
ENDMDL
MODEL 2
REMARK VINA RESULT:    -4.133      2.558      4.165
REMARK INTER + INTRA:          -6.502
REMARK INTER:                  -6.354
REMARK INTRA:                  -0.148
REMARK UNBOUND:                -0.194
REMARK SMILES CC1=CCC[C@@H](C)C(=O)C[C@@H](C(C)C)C(=O)C1
REMARK SMILES IDX 8 1 9 2 6 3 7 4 5 5 4 6 3 7 2 8 1 9 10 11 11 12 15 13 16 14
REMARK SMILES IDX 17 15 12 17 13 18 14 19
REMARK H PARENT
REMARK Flexibility Score: 70.00
ROOT
ATOM      1  C   UNL     1      16.181 -31.024  22.767  1.00  0.00     0.136 C 
ATOM      2  O   UNL     1      16.321 -29.825  22.966  1.00  0.00    -0.299 OA
ENDROOT
BRANCH   1   3
ATOM      3  C   UNL     1      14.768 -31.583  22.703  1.00  0.00     0.053 C 
ATOM      4  C   UNL     1      13.926 -31.333  23.966  1.00  0.00     0.016 C 
BRANCH   3   5
ATOM      5  C   UNL     1      14.747 -33.060  22.243  1.00  0.00     0.015 C 
BRANCH   5   6
ATOM      6  C   UNL     1      14.755 -33.279  20.702  1.00  0.00     0.028 C 
BRANCH   6   7
ATOM      7  C   UNL     1      15.362 -34.622  20.335  1.00  0.00    -0.028 C 
ATOM      8  C   UNL     1      16.559 -34.800  19.728  1.00  0.00    -0.070 CG0
ATOM      9  C   UNL     1      17.010 -36.212  19.449  1.00  0.00     0.039 C 
ATOM     10  G   UNL     1      17.484 -33.650  19.367  1.00  0.00     0.000 G0
ENDBRANCH   6   7
ENDBRANCH   5   6
ENDBRANCH   3   5
ENDBRANCH   1   3
BRANCH   1  11
ATOM     11  C   UNL     1      17.420 -31.861  22.538  1.00  0.00     0.087 C 
BRANCH  11  12
ATOM     12  C   UNL     1      17.983 -31.667  21.093  1.00  0.00     0.066 C 
BRANCH  12  13
ATOM     13  C   UNL     1      18.292 -33.035  20.491  1.00  0.00     0.140 C 
ATOM     14  O   UNL     1      19.212 -33.682  20.964  1.00  0.00    -0.299 OA
BRANCH  13  15
ATOM     15  C   UNL     1      17.512 -33.662  19.351  1.00  0.00     0.106 CG0
ATOM     16  G   UNL     1      16.556 -34.778  19.740  1.00  0.00     0.000 G0
ENDBRANCH  13  15
ENDBRANCH  12  13
BRANCH  12  17
ATOM     17  C   UNL     1      19.239 -30.739  21.052  1.00  0.00    -0.006 C 
ATOM     18  C   UNL     1      18.863 -29.304  20.630  1.00  0.00     0.008 C 
ATOM     19  C   UNL     1      19.956 -30.679  22.413  1.00  0.00     0.008 C 
ENDBRANCH  12  17
ENDBRANCH  11  12
ENDBRANCH   1  11
TORSDOF 1
ENDMDL
MODEL 3
REMARK VINA RESULT:    -4.132      2.360      3.771
REMARK INTER + INTRA:          -6.499
REMARK INTER:                  -6.282
REMARK INTRA:                  -0.217
REMARK UNBOUND:                -0.194
REMARK SMILES CC1=CCC[C@@H](C)C(=O)C[C@@H](C(C)C)C(=O)C1
REMARK SMILES IDX 8 1 9 2 6 3 7 4 5 5 4 6 3 7 2 8 1 9 10 11 11 12 15 13 16 14
REMARK SMILES IDX 17 15 12 17 13 18 14 19
REMARK H PARENT
REMARK Flexibility Score: 70.00
ROOT
ATOM      1  C   UNL     1      16.932 -30.630  21.400  1.00  0.00     0.136 C 
ATOM      2  O   UNL     1      16.983 -29.407  21.387  1.00  0.00    -0.299 OA
ENDROOT
BRANCH   1   3
ATOM      3  C   UNL     1      18.239 -31.404  21.473  1.00  0.00     0.053 C 
ATOM      4  C   UNL     1      19.484 -30.531  21.705  1.00  0.00     0.016 C 
BRANCH   3   5
ATOM      5  C   UNL     1      18.400 -32.387  20.290  1.00  0.00     0.015 C 
BRANCH   5   6
ATOM      6  C   UNL     1      17.932 -33.845  20.565  1.00  0.00     0.028 C 
BRANCH   6   7
ATOM      7  C   UNL     1      18.053 -34.200  22.036  1.00  0.00    -0.028 C 
ATOM      8  C   UNL     1      17.026 -34.250  22.917  1.00  0.00    -0.070 CG0
ATOM      9  C   UNL     1      17.332 -34.634  24.343  1.00  0.00     0.039 C 
ATOM     10  G   UNL     1      15.582 -33.990  22.521  1.00  0.00     0.000 G0
ENDBRANCH   6   7
ENDBRANCH   5   6
ENDBRANCH   3   5
ENDBRANCH   1   3
BRANCH   1  11
ATOM     11  C   UNL     1      15.571 -31.291  21.404  1.00  0.00     0.087 C 
BRANCH  11  12
ATOM     12  C   UNL     1      14.984 -31.385  22.848  1.00  0.00     0.066 C 
BRANCH  12  13
ATOM     13  C   UNL     1      14.871 -32.855  23.244  1.00  0.00     0.140 C 
ATOM     14  O   UNL     1      14.163 -33.147  24.194  1.00  0.00    -0.299 OA
BRANCH  13  15
ATOM     15  C   UNL     1      15.566 -33.991  22.516  1.00  0.00     0.106 CG0
ATOM     16  G   UNL     1      17.010 -34.245  22.917  1.00  0.00     0.000 G0
ENDBRANCH  13  15
ENDBRANCH  12  13
BRANCH  12  17
ATOM     17  C   UNL     1      13.610 -30.657  22.993  1.00  0.00    -0.006 C 
ATOM     18  C   UNL     1      13.799 -29.157  23.296  1.00  0.00     0.008 C 
ATOM     19  C   UNL     1      12.747 -30.798  21.726  1.00  0.00     0.008 C 
ENDBRANCH  12  17
ENDBRANCH  11  12
ENDBRANCH   1  11
TORSDOF 1
ENDMDL
MODEL 4
REMARK VINA RESULT:    -4.054      2.532      4.083
REMARK INTER + INTRA:          -6.380
REMARK INTER:                  -6.426
REMARK INTRA:                   0.046
REMARK UNBOUND:                -0.194
REMARK SMILES CC1=CCC[C@@H](C)C(=O)C[C@@H](C(C)C)C(=O)C1
REMARK SMILES IDX 8 1 9 2 6 3 7 4 5 5 4 6 3 7 2 8 1 9 10 11 11 12 15 13 16 14
REMARK SMILES IDX 17 15 12 17 13 18 14 19
REMARK H PARENT
REMARK Flexibility Score: 70.00
ROOT
ATOM      1  C   UNL     1      15.183 -33.329  20.653  1.00  0.00     0.136 C 
ATOM      2  O   UNL     1      14.326 -33.660  19.846  1.00  0.00    -0.299 OA
ENDROOT
BRANCH   1   3
ATOM      3  C   UNL     1      16.626 -33.715  20.371  1.00  0.00     0.053 C 
ATOM      4  C   UNL     1      16.891 -34.178  18.928  1.00  0.00     0.016 C 
BRANCH   3   5
ATOM      5  C   UNL     1      17.187 -34.690  21.433  1.00  0.00     0.015 C 
BRANCH   5   6
ATOM      6  C   UNL     1      17.969 -34.026  22.603  1.00  0.00     0.028 C 
BRANCH   6   7
ATOM      7  C   UNL     1      18.769 -32.827  22.127  1.00  0.00    -0.028 C 
ATOM      8  C   UNL     1      18.381 -31.534  22.230  1.00  0.00    -0.070 CG0
ATOM      9  C   UNL     1      19.313 -30.469  21.711  1.00  0.00     0.039 C 
ATOM     10  G   UNL     1      17.079 -31.111  22.890  1.00  0.00     0.000 G0
ENDBRANCH   6   7
ENDBRANCH   5   6
ENDBRANCH   3   5
ENDBRANCH   1   3
BRANCH   1  11
ATOM     11  C   UNL     1      14.760 -32.505  21.850  1.00  0.00     0.087 C 
BRANCH  11  12
ATOM     12  C   UNL     1      14.773 -30.977  21.526  1.00  0.00     0.066 C 
BRANCH  12  13
ATOM     13  C   UNL     1      16.080 -30.372  22.032  1.00  0.00     0.140 C 
ATOM     14  O   UNL     1      16.341 -29.219  21.730  1.00  0.00    -0.299 OA
BRANCH  13  15
ATOM     15  C   UNL     1      17.076 -31.105  22.912  1.00  0.00     0.106 CG0
ATOM     16  G   UNL     1      18.373 -31.518  22.236  1.00  0.00     0.000 G0
ENDBRANCH  13  15
ENDBRANCH  12  13
BRANCH  12  17
ATOM     17  C   UNL     1      13.540 -30.222  22.117  1.00  0.00    -0.006 C 
ATOM     18  C   UNL     1      12.220 -30.745  21.514  1.00  0.00     0.008 C 
ATOM     19  C   UNL     1      13.466 -30.350  23.650  1.00  0.00     0.008 C 
ENDBRANCH  12  17
ENDBRANCH  11  12
ENDBRANCH   1  11
TORSDOF 1
ENDMDL
MODEL 5
REMARK VINA RESULT:    -4.052      1.900      4.286
REMARK INTER + INTRA:          -6.378
REMARK INTER:                  -6.169
REMARK INTRA:                  -0.209
REMARK UNBOUND:                -0.194
REMARK SMILES CC1=CCC[C@@H](C)C(=O)C[C@@H](C(C)C)C(=O)C1
REMARK SMILES IDX 8 1 9 2 6 3 7 4 5 5 4 6 3 7 2 8 1 9 10 11 11 12 15 13 16 14
REMARK SMILES IDX 17 15 12 17 13 18 14 19
REMARK H PARENT
REMARK Flexibility Score: 70.00
ROOT
ATOM      1  C   UNL     1      18.066 -36.150  21.543  1.00  0.00     0.136 C 
ATOM      2  O   UNL     1      18.791 -37.065  21.911  1.00  0.00    -0.299 OA
ENDROOT
BRANCH   1   3
ATOM      3  C   UNL     1      17.100 -36.413  20.399  1.00  0.00     0.053 C 
ATOM      4  C   UNL     1      17.654 -37.328  19.294  1.00  0.00     0.016 C 
BRANCH   3   5
ATOM      5  C   UNL     1      16.479 -35.107  19.850  1.00  0.00     0.015 C 
BRANCH   5   6
ATOM      6  C   UNL     1      15.132 -34.682  20.502  1.00  0.00     0.028 C 
BRANCH   6   7
ATOM      7  C   UNL     1      15.056 -33.177  20.691  1.00  0.00    -0.028 C 
ATOM      8  C   UNL     1      15.031 -32.538  21.884  1.00  0.00    -0.070 CG0
ATOM      9  C   UNL     1      14.965 -31.032  21.881  1.00  0.00     0.039 C 
ATOM     10  G   UNL     1      15.119 -33.266  23.216  1.00  0.00     0.000 G0
ENDBRANCH   6   7
ENDBRANCH   5   6
ENDBRANCH   3   5
ENDBRANCH   1   3
BRANCH   1  11
ATOM     11  C   UNL     1      18.137 -34.836  22.290  1.00  0.00     0.087 C 
BRANCH  11  12
ATOM     12  C   UNL     1      17.268 -34.868  23.588  1.00  0.00     0.066 C 
BRANCH  12  13
ATOM     13  C   UNL     1      16.544 -33.532  23.735  1.00  0.00     0.140 C 
ATOM     14  O   UNL     1      17.131 -32.611  24.279  1.00  0.00    -0.299 OA
BRANCH  13  15
ATOM     15  C   UNL     1      15.140 -33.262  23.227  1.00  0.00     0.106 CG0
ATOM     16  G   UNL     1      15.049 -32.545  21.890  1.00  0.00     0.000 G0
ENDBRANCH  13  15
ENDBRANCH  12  13
BRANCH  12  17
ATOM     17  C   UNL     1      18.101 -35.198  24.867  1.00  0.00    -0.006 C 
ATOM     18  C   UNL     1      17.783 -36.612  25.395  1.00  0.00     0.008 C 
ATOM     19  C   UNL     1      19.616 -35.100  24.609  1.00  0.00     0.008 C 
ENDBRANCH  12  17
ENDBRANCH  11  12
ENDBRANCH   1  11
TORSDOF 1
ENDMDL
MODEL 6
REMARK VINA RESULT:    -4.051      2.094      3.852
REMARK INTER + INTRA:          -6.376
REMARK INTER:                  -6.049
REMARK INTRA:                  -0.326
REMARK UNBOUND:                -0.194
REMARK SMILES CC1=CCC[C@@H](C)C(=O)C[C@@H](C(C)C)C(=O)C1
REMARK SMILES IDX 8 1 9 2 6 3 7 4 5 5 4 6 3 7 2 8 1 9 10 11 11 12 15 13 16 14
REMARK SMILES IDX 17 15 12 17 13 18 14 19
REMARK H PARENT
REMARK Flexibility Score: 70.00
ROOT
ATOM      1  C   UNL     1      14.782 -33.738  20.353  1.00  0.00     0.136 C 
ATOM      2  O   UNL     1      13.931 -33.246  19.624  1.00  0.00    -0.299 OA
ENDROOT
BRANCH   1   3
ATOM      3  C   UNL     1      15.934 -34.491  19.707  1.00  0.00     0.053 C 
ATOM      4  C   UNL     1      16.549 -35.592  20.589  1.00  0.00     0.016 C 
BRANCH   3   5
ATOM      5  C   UNL     1      16.991 -33.535  19.107  1.00  0.00     0.015 C 
BRANCH   5   6
ATOM      6  C   UNL     1      18.406 -33.616  19.749  1.00  0.00     0.028 C 
BRANCH   6   7
ATOM      7  C   UNL     1      18.784 -32.312  20.428  1.00  0.00    -0.028 C 
ATOM      8  C   UNL     1      18.616 -32.035  21.743  1.00  0.00    -0.070 CG0
ATOM      9  C   UNL     1      19.062 -30.686  22.247  1.00  0.00     0.039 C 
ATOM     10  G   UNL     1      18.049 -33.038  22.734  1.00  0.00     0.000 G0
ENDBRANCH   6   7
ENDBRANCH   5   6
ENDBRANCH   3   5
ENDBRANCH   1   3
BRANCH   1  11
ATOM     11  C   UNL     1      14.663 -33.514  21.845  1.00  0.00     0.087 C 
BRANCH  11  12
ATOM     12  C   UNL     1      15.485 -32.267  22.303  1.00  0.00     0.066 C 
BRANCH  12  13
ATOM     13  C   UNL     1      16.621 -32.726  23.213  1.00  0.00     0.140 C 
ATOM     14  O   UNL     1      16.388 -32.873  24.402  1.00  0.00    -0.299 OA
BRANCH  13  15
ATOM     15  C   UNL     1      18.026 -33.037  22.733  1.00  0.00     0.106 CG0
ATOM     16  G   UNL     1      18.621 -32.045  21.748  1.00  0.00     0.000 G0
ENDBRANCH  13  15
ENDBRANCH  12  13
BRANCH  12  17
ATOM     17  C   UNL     1      14.603 -31.186  23.007  1.00  0.00    -0.006 C 
ATOM     18  C   UNL     1      15.221 -29.780  22.867  1.00  0.00     0.008 C 
ATOM     19  C   UNL     1      13.171 -31.154  22.443  1.00  0.00     0.008 C 
ENDBRANCH  12  17
ENDBRANCH  11  12
ENDBRANCH   1  11
TORSDOF 1
ENDMDL
MODEL 7
REMARK VINA RESULT:    -3.992      1.527      3.789
REMARK INTER + INTRA:          -6.286
REMARK INTER:                  -5.977
REMARK INTRA:                  -0.309
REMARK UNBOUND:                -0.194
REMARK SMILES CC1=CCC[C@@H](C)C(=O)C[C@@H](C(C)C)C(=O)C1
REMARK SMILES IDX 8 1 9 2 6 3 7 4 5 5 4 6 3 7 2 8 1 9 10 11 11 12 15 13 16 14
REMARK SMILES IDX 17 15 12 17 13 18 14 19
REMARK H PARENT
REMARK Flexibility Score: 70.00
ROOT
ATOM      1  C   UNL     1      15.563 -33.896  20.304  1.00  0.00     0.136 C 
ATOM      2  O   UNL     1      14.658 -33.625  19.526  1.00  0.00    -0.299 OA
ENDROOT
BRANCH   1   3
ATOM      3  C   UNL     1      16.920 -34.268  19.729  1.00  0.00     0.053 C 
ATOM      4  C   UNL     1      17.233 -33.625  18.367  1.00  0.00     0.016 C 
BRANCH   3   5
ATOM      5  C   UNL     1      17.162 -35.796  19.747  1.00  0.00     0.015 C 
BRANCH   5   6
ATOM      6  C   UNL     1      17.571 -36.390  21.126  1.00  0.00     0.028 C 
BRANCH   6   7
ATOM      7  C   UNL     1      18.786 -35.682  21.698  1.00  0.00    -0.028 C 
ATOM      8  C   UNL     1      18.771 -34.827  22.748  1.00  0.00    -0.070 CG0
ATOM      9  C   UNL     1      20.080 -34.222  23.189  1.00  0.00     0.039 C 
ATOM     10  G   UNL     1      17.510 -34.495  23.528  1.00  0.00     0.000 G0
ENDBRANCH   6   7
ENDBRANCH   5   6
ENDBRANCH   3   5
ENDBRANCH   1   3
BRANCH   1  11
ATOM     11  C   UNL     1      15.289 -33.786  21.789  1.00  0.00     0.087 C 
BRANCH  11  12
ATOM     12  C   UNL     1      16.014 -32.553  22.415  1.00  0.00     0.066 C 
BRANCH  12  13
ATOM     13  C   UNL     1      17.033 -33.043  23.441  1.00  0.00     0.140 C 
ATOM     14  O   UNL     1      17.479 -32.240  24.244  1.00  0.00    -0.299 OA
BRANCH  13  15
ATOM     15  C   UNL     1      17.516 -34.478  23.546  1.00  0.00     0.106 CG0
ATOM     16  G   UNL     1      18.769 -34.811  22.753  1.00  0.00     0.000 G0
ENDBRANCH  13  15
ENDBRANCH  12  13
BRANCH  12  17
ATOM     17  C   UNL     1      15.024 -31.527  23.053  1.00  0.00    -0.006 C 
ATOM     18  C   UNL     1      14.373 -30.632  21.978  1.00  0.00     0.008 C 
ATOM     19  C   UNL     1      13.910 -32.224  23.854  1.00  0.00     0.008 C 
ENDBRANCH  12  17
ENDBRANCH  11  12
ENDBRANCH   1  11
TORSDOF 1
ENDMDL
MODEL 8
REMARK VINA RESULT:    -3.912      2.159      4.882
REMARK INTER + INTRA:          -6.164
REMARK INTER:                  -6.028
REMARK INTRA:                  -0.137
REMARK UNBOUND:                -0.194
REMARK SMILES CC1=CCC[C@@H](C)C(=O)C[C@@H](C(C)C)C(=O)C1
REMARK SMILES IDX 8 1 9 2 6 3 7 4 5 5 4 6 3 7 2 8 1 9 10 11 11 12 15 13 16 14
REMARK SMILES IDX 17 15 12 17 13 18 14 19
REMARK H PARENT
REMARK Flexibility Score: 70.00
ROOT
ATOM      1  C   UNL     1      15.809 -33.474  22.104  1.00  0.00     0.136 C 
ATOM      2  O   UNL     1      14.886 -33.863  21.401  1.00  0.00    -0.299 OA
ENDROOT
BRANCH   1   3
ATOM      3  C   UNL     1      15.493 -33.022  23.521  1.00  0.00     0.053 C 
ATOM      4  C   UNL     1      14.939 -31.591  23.625  1.00  0.00     0.016 C 
BRANCH   3   5
ATOM      5  C   UNL     1      16.667 -33.289  24.492  1.00  0.00     0.015 C 
BRANCH   5   6
ATOM      6  C   UNL     1      16.829 -34.766  24.955  1.00  0.00     0.028 C 
BRANCH   6   7
ATOM      7  C   UNL     1      18.265 -35.074  25.339  1.00  0.00    -0.028 C 
ATOM      8  C   UNL     1      19.140 -35.786  24.590  1.00  0.00    -0.070 CG0
ATOM      9  C   UNL     1      20.536 -35.984  25.126  1.00  0.00     0.039 C 
ATOM     10  G   UNL     1      18.796 -36.343  23.219  1.00  0.00     0.000 G0
ENDBRANCH   6   7
ENDBRANCH   5   6
ENDBRANCH   3   5
ENDBRANCH   1   3
BRANCH   1  11
ATOM     11  C   UNL     1      17.212 -33.524  21.538  1.00  0.00     0.087 C 
BRANCH  11  12
ATOM     12  C   UNL     1      17.641 -34.988  21.203  1.00  0.00     0.066 C 
BRANCH  12  13
ATOM     13  C   UNL     1      18.850 -35.359  22.058  1.00  0.00     0.140 C 
ATOM     14  O   UNL     1      19.917 -34.817  21.821  1.00  0.00    -0.299 OA
BRANCH  13  15
ATOM     15  C   UNL     1      18.810 -36.349  23.208  1.00  0.00     0.106 CG0
ATOM     16  G   UNL     1      19.132 -35.779  24.579  1.00  0.00     0.000 G0
ENDBRANCH  13  15
ENDBRANCH  12  13
BRANCH  12  17
ATOM     17  C   UNL     1      17.942 -35.199  19.685  1.00  0.00    -0.006 C 
ATOM     18  C   UNL     1      17.214 -36.443  19.136  1.00  0.00     0.008 C 
ATOM     19  C   UNL     1      17.533 -33.977  18.841  1.00  0.00     0.008 C 
ENDBRANCH  12  17
ENDBRANCH  11  12
ENDBRANCH   1  11
TORSDOF 1
ENDMDL
MODEL 9
REMARK VINA RESULT:    -3.911      2.150      4.991
REMARK INTER + INTRA:          -6.162
REMARK INTER:                  -5.675
REMARK INTRA:                  -0.487
REMARK UNBOUND:                -0.194
REMARK SMILES CC1=CCC[C@@H](C)C(=O)C[C@@H](C(C)C)C(=O)C1
REMARK SMILES IDX 8 1 9 2 6 3 7 4 5 5 4 6 3 7 2 8 1 9 10 11 11 12 15 13 16 14
REMARK SMILES IDX 17 15 12 17 13 18 14 19
REMARK H PARENT
REMARK Flexibility Score: 70.00
ROOT
ATOM      1  C   UNL     1      18.055 -34.530  20.843  1.00  0.00     0.136 C 
ATOM      2  O   UNL     1      18.373 -33.804  19.910  1.00  0.00    -0.299 OA
ENDROOT
BRANCH   1   3
ATOM      3  C   UNL     1      16.711 -35.236  20.779  1.00  0.00     0.053 C 
ATOM      4  C   UNL     1      16.657 -36.417  19.795  1.00  0.00     0.016 C 
BRANCH   3   5
ATOM      5  C   UNL     1      15.539 -34.243  20.599  1.00  0.00     0.015 C 
BRANCH   5   6
ATOM      6  C   UNL     1      14.992 -33.610  21.911  1.00  0.00     0.028 C 
BRANCH   6   7
ATOM      7  C   UNL     1      15.727 -32.328  22.258  1.00  0.00    -0.028 C 
ATOM      8  C   UNL     1      16.510 -32.144  23.348  1.00  0.00    -0.070 CG0
ATOM      9  C   UNL     1      17.174 -30.802  23.526  1.00  0.00     0.039 C 
ATOM     10  G   UNL     1      16.788 -33.241  24.362  1.00  0.00     0.000 G0
ENDBRANCH   6   7
ENDBRANCH   5   6
ENDBRANCH   3   5
ENDBRANCH   1   3
BRANCH   1  11
ATOM     11  C   UNL     1      19.047 -34.723  21.970  1.00  0.00     0.087 C 
BRANCH  11  12
ATOM     12  C   UNL     1      18.337 -35.186  23.282  1.00  0.00     0.066 C 
BRANCH  12  13
ATOM     13  C   UNL     1      18.131 -33.976  24.190  1.00  0.00     0.140 C 
ATOM     14  O   UNL     1      19.090 -33.542  24.806  1.00  0.00    -0.299 OA
BRANCH  13  15
ATOM     15  C   UNL     1      16.807 -33.255  24.363  1.00  0.00     0.106 CG0
ATOM     16  G   UNL     1      16.520 -32.153  23.356  1.00  0.00     0.000 G0
ENDBRANCH  13  15
ENDBRANCH  12  13
BRANCH  12  17
ATOM     17  C   UNL     1      19.116 -36.318  24.025  1.00  0.00    -0.006 C 
ATOM     18  C   UNL     1      18.334 -36.824  25.255  1.00  0.00     0.008 C 
ATOM     19  C   UNL     1      19.411 -37.515  23.103  1.00  0.00     0.008 C 
ENDBRANCH  12  17
ENDBRANCH  11  12
ENDBRANCH   1  11
TORSDOF 1
ENDMDL
