MODEL 1
REMARK VINA RESULT:    -8.018      0.000      0.000
REMARK INTER + INTRA:         -12.289
REMARK INTER:                 -11.065
REMARK INTRA:                  -1.224
REMARK UNBOUND:                -1.224
REMARK SMILES CC[C@H](CC[C@@H](C)[C@@H]1CC[C@@H]2[C@H]3CC=C4C[C@@H](O)CC[C@]4(C)[C@@H]3CC[C@@]21C)C(C)C
REMARK SMILES IDX 5 1 4 2 3 3 2 4 1 5 28 6 29 7 30 8 6 9 7 10 8 11 9 12 26 13
REMARK SMILES IDX 10 14 11 15 25 16 27 17 12 18 24 19 23 20 13 21 21 22 14 23
REMARK SMILES IDX 15 24 20 25 22 26 16 27 19 28 17 29 18 30
REMARK H PARENT 18 31
REMARK Flexibility Score: inf
ROOT
ATOM      1  C   UNL     1     -25.995 -21.231 -11.366  1.00  0.00     0.004 C 
ENDROOT
BRANCH   1   2
ATOM      2  C   UNL     1     -25.888 -21.248  -9.822  1.00  0.00     0.004 C 
BRANCH   2   3
ATOM      3  C   UNL     1     -25.771 -22.652  -9.156  1.00  0.00    -0.009 C 
BRANCH   3   4
ATOM      4  C   UNL     1     -24.337 -22.866  -8.593  1.00  0.00     0.000 C 
ATOM      5  C   UNL     1     -23.671 -24.134  -9.109  1.00  0.00     0.004 C 
ENDBRANCH   3   4
BRANCH   3   6
ATOM      6  C   UNL     1     -26.964 -22.977  -8.183  1.00  0.00    -0.014 C 
ATOM      7  C   UNL     1     -27.413 -24.446  -8.177  1.00  0.00     0.007 C 
ATOM      8  C   UNL     1     -28.182 -22.063  -8.406  1.00  0.00     0.007 C 
ENDBRANCH   3   6
ENDBRANCH   2   3
ENDBRANCH   1   2
BRANCH   1   9
ATOM      9  C   UNL     1     -24.683 -20.731 -12.026  1.00  0.00    -0.011 C 
ATOM     10  C   UNL     1     -23.676 -21.896 -12.152  1.00  0.00     0.008 C 
BRANCH   9  11
ATOM     11  C   UNL     1     -24.966 -19.999 -13.381  1.00  0.00    -0.002 C 
ATOM     12  C   UNL     1     -23.989 -20.309 -14.505  1.00  0.00     0.005 C 
ATOM     13  C   UNL     1     -25.205 -18.439 -13.323  1.00  0.00    -0.026 C 
ATOM     14  C   UNL     1     -23.714 -19.020 -15.261  1.00  0.00     0.005 C 
ATOM     15  C   UNL     1     -24.473 -17.864 -14.585  1.00  0.00    -0.001 C 
ATOM     16  C   UNL     1     -24.617 -17.742 -12.043  1.00  0.00     0.007 C 
ATOM     17  C   UNL     1     -26.755 -18.134 -13.385  1.00  0.00     0.012 C 
ATOM     18  C   UNL     1     -23.505 -16.652 -14.327  1.00  0.00     0.000 C 
ATOM     19  C   UNL     1     -24.776 -16.222 -12.114  1.00  0.00     0.005 C 
ATOM     20  C   UNL     1     -24.014 -15.591 -13.308  1.00  0.00     0.003 C 
ATOM     21  C   UNL     1     -23.162 -15.897 -15.618  1.00  0.00     0.031 C 
ATOM     22  C   UNL     1     -22.835 -14.616 -12.903  1.00  0.00    -0.008 C 
ATOM     23  C   UNL     1     -22.100 -14.866 -15.342  1.00  0.00    -0.027 C 
ATOM     24  C   UNL     1     -21.930 -14.310 -14.114  1.00  0.00    -0.065 C 
ATOM     25  C   UNL     1     -21.914 -15.228 -11.777  1.00  0.00     0.014 C 
ATOM     26  C   UNL     1     -23.462 -13.285 -12.390  1.00  0.00     0.016 C 
ATOM     27  C   UNL     1     -20.680 -13.507 -13.855  1.00  0.00     0.063 C 
ATOM     28  C   UNL     1     -20.584 -14.482 -11.539  1.00  0.00     0.033 C 
ATOM     29  C   UNL     1     -19.816 -14.260 -12.843  1.00  0.00     0.118 C 
BRANCH  29  30
ATOM     30  O   UNL     1     -18.667 -13.512 -12.566  1.00  0.00    -0.393 OA
ATOM     31  H   UNL     1     -18.614 -12.776 -13.241  1.00  0.00     0.210 HD
ENDBRANCH  29  30
ENDBRANCH   9  11
ENDBRANCH   1   9
TORSDOF 7
ENDMDL
MODEL 2
REMARK VINA RESULT:    -7.501      3.214      7.759
REMARK INTER + INTRA:         -11.576
REMARK INTER:                 -11.431
REMARK INTRA:                  -0.145
REMARK UNBOUND:                -1.224
REMARK SMILES CC[C@H](CC[C@@H](C)[C@@H]1CC[C@@H]2[C@H]3CC=C4C[C@@H](O)CC[C@]4(C)[C@@H]3CC[C@@]21C)C(C)C
REMARK SMILES IDX 5 1 4 2 3 3 2 4 1 5 28 6 29 7 30 8 6 9 7 10 8 11 9 12 26 13
REMARK SMILES IDX 10 14 11 15 25 16 27 17 12 18 24 19 23 20 13 21 21 22 14 23
REMARK SMILES IDX 15 24 20 25 22 26 16 27 19 28 17 29 18 30
REMARK H PARENT 18 31
REMARK Flexibility Score: inf
ROOT
ATOM      1  C   UNL     1     -22.079 -14.523 -12.507  1.00  0.00     0.004 C 
ENDROOT
BRANCH   1   2
ATOM      2  C   UNL     1     -22.221 -13.939 -11.080  1.00  0.00     0.004 C 
BRANCH   2   3
ATOM      3  C   UNL     1     -21.068 -14.267 -10.084  1.00  0.00    -0.009 C 
BRANCH   3   4
ATOM      4  C   UNL     1     -19.716 -14.386 -10.844  1.00  0.00     0.000 C 
ATOM      5  C   UNL     1     -19.170 -13.044 -11.313  1.00  0.00     0.004 C 
ENDBRANCH   3   4
BRANCH   3   6
ATOM      6  C   UNL     1     -21.077 -13.355  -8.803  1.00  0.00    -0.014 C 
ATOM      7  C   UNL     1     -20.386 -13.961  -7.573  1.00  0.00     0.007 C 
ATOM      8  C   UNL     1     -22.489 -12.875  -8.422  1.00  0.00     0.007 C 
ENDBRANCH   3   6
ENDBRANCH   2   3
ENDBRANCH   1   2
BRANCH   1   9
ATOM      9  C   UNL     1     -22.114 -13.410 -13.587  1.00  0.00    -0.011 C 
ATOM     10  C   UNL     1     -20.763 -13.356 -14.334  1.00  0.00     0.008 C 
BRANCH   9  11
ATOM     11  C   UNL     1     -23.348 -13.572 -14.538  1.00  0.00    -0.002 C 
ATOM     12  C   UNL     1     -24.631 -12.914 -14.056  1.00  0.00     0.005 C 
ATOM     13  C   UNL     1     -23.677 -15.029 -15.051  1.00  0.00    -0.026 C 
ATOM     14  C   UNL     1     -25.789 -13.841 -14.384  1.00  0.00     0.005 C 
ATOM     15  C   UNL     1     -25.241 -15.128 -15.027  1.00  0.00    -0.001 C 
ATOM     16  C   UNL     1     -23.090 -16.178 -14.154  1.00  0.00     0.007 C 
ATOM     17  C   UNL     1     -23.125 -15.215 -16.520  1.00  0.00     0.012 C 
ATOM     18  C   UNL     1     -25.841 -16.393 -14.311  1.00  0.00     0.000 C 
ATOM     19  C   UNL     1     -23.551 -17.554 -14.639  1.00  0.00     0.005 C 
ATOM     20  C   UNL     1     -25.090 -17.732 -14.573  1.00  0.00     0.003 C 
ATOM     21  C   UNL     1     -27.311 -16.630 -14.683  1.00  0.00     0.031 C 
ATOM     22  C   UNL     1     -25.587 -18.842 -13.561  1.00  0.00    -0.008 C 
ATOM     23  C   UNL     1     -27.881 -17.739 -13.839  1.00  0.00    -0.027 C 
ATOM     24  C   UNL     1     -27.104 -18.719 -13.307  1.00  0.00    -0.065 C 
ATOM     25  C   UNL     1     -24.871 -18.736 -12.159  1.00  0.00     0.014 C 
ATOM     26  C   UNL     1     -25.291 -20.237 -14.188  1.00  0.00     0.016 C 
ATOM     27  C   UNL     1     -27.703 -19.619 -12.255  1.00  0.00     0.063 C 
ATOM     28  C   UNL     1     -25.505 -19.579 -11.032  1.00  0.00     0.033 C 
ATOM     29  C   UNL     1     -27.012 -19.337 -10.920  1.00  0.00     0.118 C 
BRANCH  29  30
ATOM     30  O   UNL     1     -27.532 -20.188  -9.940  1.00  0.00    -0.393 OA
ATOM     31  H   UNL     1     -27.813 -19.622  -9.165  1.00  0.00     0.210 HD
ENDBRANCH  29  30
ENDBRANCH   9  11
ENDBRANCH   1   9
TORSDOF 7
ENDMDL
MODEL 3
REMARK VINA RESULT:    -7.396      1.742      3.920
REMARK INTER + INTRA:         -11.431
REMARK INTER:                  -9.562
REMARK INTRA:                  -1.869
REMARK UNBOUND:                -1.224
REMARK SMILES CC[C@H](CC[C@@H](C)[C@@H]1CC[C@@H]2[C@H]3CC=C4C[C@@H](O)CC[C@]4(C)[C@@H]3CC[C@@]21C)C(C)C
REMARK SMILES IDX 5 1 4 2 3 3 2 4 1 5 28 6 29 7 30 8 6 9 7 10 8 11 9 12 26 13
REMARK SMILES IDX 10 14 11 15 25 16 27 17 12 18 24 19 23 20 13 21 21 22 14 23
REMARK SMILES IDX 15 24 20 25 22 26 16 27 19 28 17 29 18 30
REMARK H PARENT 18 31
REMARK Flexibility Score: inf
ROOT
ATOM      1  C   UNL     1     -25.584 -23.643  -8.119  1.00  0.00     0.004 C 
ENDROOT
BRANCH   1   2
ATOM      2  C   UNL     1     -26.669 -24.481  -8.839  1.00  0.00     0.004 C 
BRANCH   2   3
ATOM      3  C   UNL     1     -28.148 -24.091  -8.542  1.00  0.00    -0.009 C 
BRANCH   3   4
ATOM      4  C   UNL     1     -28.912 -25.300  -7.930  1.00  0.00     0.000 C 
ATOM      5  C   UNL     1     -27.996 -26.312  -7.257  1.00  0.00     0.004 C 
ENDBRANCH   3   4
BRANCH   3   6
ATOM      6  C   UNL     1     -28.288 -22.716  -7.791  1.00  0.00    -0.014 C 
ATOM      7  C   UNL     1     -29.125 -22.764  -6.504  1.00  0.00     0.007 C 
ATOM      8  C   UNL     1     -28.801 -21.587  -8.703  1.00  0.00     0.007 C 
ENDBRANCH   3   6
ENDBRANCH   2   3
ENDBRANCH   1   2
BRANCH   1   9
ATOM      9  C   UNL     1     -25.130 -22.434  -8.979  1.00  0.00    -0.011 C 
ATOM     10  C   UNL     1     -23.790 -21.879  -8.446  1.00  0.00     0.008 C 
BRANCH   9  11
ATOM     11  C   UNL     1     -25.097 -22.793 -10.503  1.00  0.00    -0.002 C 
ATOM     12  C   UNL     1     -23.720 -23.107 -11.067  1.00  0.00     0.005 C 
ATOM     13  C   UNL     1     -25.849 -21.819 -11.491  1.00  0.00    -0.026 C 
ATOM     14  C   UNL     1     -23.625 -22.488 -12.451  1.00  0.00     0.005 C 
ATOM     15  C   UNL     1     -24.927 -21.724 -12.755  1.00  0.00    -0.001 C 
ATOM     16  C   UNL     1     -26.071 -20.369 -10.925  1.00  0.00     0.007 C 
ATOM     17  C   UNL     1     -27.259 -22.424 -11.868  1.00  0.00     0.012 C 
ATOM     18  C   UNL     1     -24.602 -20.272 -13.264  1.00  0.00     0.000 C 
ATOM     19  C   UNL     1     -26.691 -19.449 -11.979  1.00  0.00     0.005 C 
ATOM     20  C   UNL     1     -25.788 -19.266 -13.226  1.00  0.00     0.003 C 
ATOM     21  C   UNL     1     -24.062 -20.267 -14.701  1.00  0.00     0.031 C 
ATOM     22  C   UNL     1     -25.259 -17.791 -13.451  1.00  0.00    -0.008 C 
ATOM     23  C   UNL     1     -23.603 -18.881 -15.071  1.00  0.00    -0.027 C 
ATOM     24  C   UNL     1     -24.117 -17.767 -14.489  1.00  0.00    -0.065 C 
ATOM     25  C   UNL     1     -24.695 -17.149 -12.124  1.00  0.00     0.014 C 
ATOM     26  C   UNL     1     -26.442 -16.927 -13.981  1.00  0.00     0.016 C 
ATOM     27  C   UNL     1     -23.412 -16.451 -14.707  1.00  0.00     0.063 C 
ATOM     28  C   UNL     1     -23.895 -15.844 -12.315  1.00  0.00     0.033 C 
ATOM     29  C   UNL     1     -22.806 -15.995 -13.380  1.00  0.00     0.118 C 
BRANCH  29  30
ATOM     30  O   UNL     1     -22.178 -14.758 -13.557  1.00  0.00    -0.393 OA
ATOM     31  H   UNL     1     -21.730 -14.519 -12.696  1.00  0.00     0.210 HD
ENDBRANCH  29  30
ENDBRANCH   9  11
ENDBRANCH   1   9
TORSDOF 7
ENDMDL
MODEL 4
REMARK VINA RESULT:    -7.283      1.871      4.395
REMARK INTER + INTRA:         -11.274
REMARK INTER:                 -10.509
REMARK INTRA:                  -0.765
REMARK UNBOUND:                -1.224
REMARK SMILES CC[C@H](CC[C@@H](C)[C@@H]1CC[C@@H]2[C@H]3CC=C4C[C@@H](O)CC[C@]4(C)[C@@H]3CC[C@@]21C)C(C)C
REMARK SMILES IDX 5 1 4 2 3 3 2 4 1 5 28 6 29 7 30 8 6 9 7 10 8 11 9 12 26 13
REMARK SMILES IDX 10 14 11 15 25 16 27 17 12 18 24 19 23 20 13 21 21 22 14 23
REMARK SMILES IDX 15 24 20 25 22 26 16 27 19 28 17 29 18 30
REMARK H PARENT 18 31
REMARK Flexibility Score: inf
ROOT
ATOM      1  C   UNL     1     -26.151 -23.000  -8.100  1.00  0.00     0.004 C 
ENDROOT
BRANCH   1   2
ATOM      2  C   UNL     1     -26.574 -24.470  -8.340  1.00  0.00     0.004 C 
BRANCH   2   3
ATOM      3  C   UNL     1     -27.925 -24.910  -7.700  1.00  0.00    -0.009 C 
BRANCH   3   4
ATOM      4  C   UNL     1     -29.119 -24.384  -8.546  1.00  0.00     0.000 C 
ATOM      5  C   UNL     1     -29.124 -22.870  -8.704  1.00  0.00     0.004 C 
ENDBRANCH   3   4
BRANCH   3   6
ATOM      6  C   UNL     1     -27.957 -26.433  -7.307  1.00  0.00    -0.014 C 
ATOM      7  C   UNL     1     -28.984 -26.801  -6.227  1.00  0.00     0.007 C 
ATOM      8  C   UNL     1     -26.572 -26.978  -6.915  1.00  0.00     0.007 C 
ENDBRANCH   3   6
ENDBRANCH   2   3
ENDBRANCH   1   2
BRANCH   1   9
ATOM      9  C   UNL     1     -24.809 -22.668  -8.804  1.00  0.00    -0.011 C 
ATOM     10  C   UNL     1     -23.633 -23.301  -8.026  1.00  0.00     0.008 C 
BRANCH   9  11
ATOM     11  C   UNL     1     -24.842 -23.063 -10.318  1.00  0.00    -0.002 C 
ATOM     12  C   UNL     1     -23.484 -23.311 -10.957  1.00  0.00     0.005 C 
ATOM     13  C   UNL     1     -25.707 -22.159 -11.282  1.00  0.00    -0.026 C 
ATOM     14  C   UNL     1     -23.506 -22.723 -12.357  1.00  0.00     0.005 C 
ATOM     15  C   UNL     1     -24.866 -22.043 -12.600  1.00  0.00    -0.001 C 
ATOM     16  C   UNL     1     -25.981 -20.711 -10.735  1.00  0.00     0.007 C 
ATOM     17  C   UNL     1     -27.098 -22.854 -11.562  1.00  0.00     0.012 C 
ATOM     18  C   UNL     1     -24.658 -20.588 -13.159  1.00  0.00     0.000 C 
ATOM     19  C   UNL     1     -26.714 -19.855 -11.770  1.00  0.00     0.005 C 
ATOM     20  C   UNL     1     -25.897 -19.651 -13.072  1.00  0.00     0.003 C 
ATOM     21  C   UNL     1     -24.204 -20.588 -14.625  1.00  0.00     0.031 C 
ATOM     22  C   UNL     1     -25.470 -18.155 -13.361  1.00  0.00    -0.008 C 
ATOM     23  C   UNL     1     -23.849 -19.188 -15.051  1.00  0.00    -0.027 C 
ATOM     24  C   UNL     1     -24.393 -18.090 -14.464  1.00  0.00    -0.065 C 
ATOM     25  C   UNL     1     -24.870 -17.448 -12.083  1.00  0.00     0.014 C 
ATOM     26  C   UNL     1     -26.731 -17.374 -13.838  1.00  0.00     0.016 C 
ATOM     27  C   UNL     1     -23.781 -16.742 -14.752  1.00  0.00     0.063 C 
ATOM     28  C   UNL     1     -24.161 -16.104 -12.350  1.00  0.00     0.033 C 
ATOM     29  C   UNL     1     -23.128 -16.219 -13.473  1.00  0.00     0.118 C 
BRANCH  29  30
ATOM     30  O   UNL     1     -22.585 -14.953 -13.715  1.00  0.00    -0.393 OA
ATOM     31  H   UNL     1     -23.278 -14.274 -13.470  1.00  0.00     0.210 HD
ENDBRANCH  29  30
ENDBRANCH   9  11
ENDBRANCH   1   9
TORSDOF 7
ENDMDL
MODEL 5
REMARK VINA RESULT:    -6.783      1.260      2.328
REMARK INTER + INTRA:         -10.584
REMARK INTER:                  -9.784
REMARK INTRA:                  -0.800
REMARK UNBOUND:                -1.224
REMARK SMILES CC[C@H](CC[C@@H](C)[C@@H]1CC[C@@H]2[C@H]3CC=C4C[C@@H](O)CC[C@]4(C)[C@@H]3CC[C@@]21C)C(C)C
REMARK SMILES IDX 5 1 4 2 3 3 2 4 1 5 28 6 29 7 30 8 6 9 7 10 8 11 9 12 26 13
REMARK SMILES IDX 10 14 11 15 25 16 27 17 12 18 24 19 23 20 13 21 21 22 14 23
REMARK SMILES IDX 15 24 20 25 22 26 16 27 19 28 17 29 18 30
REMARK H PARENT 18 31
REMARK Flexibility Score: inf
ROOT
ATOM      1  C   UNL     1     -23.516 -20.887 -12.070  1.00  0.00     0.004 C 
ENDROOT
BRANCH   1   2
ATOM      2  C   UNL     1     -23.130 -22.375 -12.251  1.00  0.00     0.004 C 
BRANCH   2   3
ATOM      3  C   UNL     1     -24.297 -23.355 -12.577  1.00  0.00    -0.009 C 
BRANCH   3   4
ATOM      4  C   UNL     1     -23.944 -24.222 -13.819  1.00  0.00     0.000 C 
ATOM      5  C   UNL     1     -24.596 -23.727 -15.103  1.00  0.00     0.004 C 
ENDBRANCH   3   4
BRANCH   3   6
ATOM      6  C   UNL     1     -24.832 -24.122 -11.312  1.00  0.00    -0.014 C 
ATOM      7  C   UNL     1     -26.277 -23.786 -10.914  1.00  0.00     0.007 C 
ATOM      8  C   UNL     1     -23.909 -23.977 -10.090  1.00  0.00     0.007 C 
ENDBRANCH   3   6
ENDBRANCH   2   3
ENDBRANCH   1   2
BRANCH   1   9
ATOM      9  C   UNL     1     -25.013 -20.641 -12.394  1.00  0.00    -0.011 C 
ATOM     10  C   UNL     1     -25.725 -20.025 -11.169  1.00  0.00     0.008 C 
BRANCH   9  11
ATOM     11  C   UNL     1     -25.187 -19.802 -13.705  1.00  0.00    -0.002 C 
ATOM     12  C   UNL     1     -24.182 -20.100 -14.806  1.00  0.00     0.005 C 
ATOM     13  C   UNL     1     -25.328 -18.237 -13.546  1.00  0.00    -0.026 C 
ATOM     14  C   UNL     1     -23.791 -18.784 -15.457  1.00  0.00     0.005 C 
ATOM     15  C   UNL     1     -24.505 -17.629 -14.733  1.00  0.00    -0.001 C 
ATOM     16  C   UNL     1     -24.756 -17.669 -12.197  1.00  0.00     0.007 C 
ATOM     17  C   UNL     1     -26.851 -17.826 -13.650  1.00  0.00     0.012 C 
ATOM     18  C   UNL     1     -23.474 -16.504 -14.351  1.00  0.00     0.000 C 
ATOM     19  C   UNL     1     -24.814 -16.141 -12.167  1.00  0.00     0.005 C 
ATOM     20  C   UNL     1     -23.959 -15.483 -13.282  1.00  0.00     0.003 C 
ATOM     21  C   UNL     1     -23.024 -15.688 -15.570  1.00  0.00     0.031 C 
ATOM     22  C   UNL     1     -22.741 -14.619 -12.760  1.00  0.00    -0.008 C 
ATOM     23  C   UNL     1     -21.912 -14.751 -15.179  1.00  0.00    -0.027 C 
ATOM     24  C   UNL     1     -21.763 -14.292 -13.909  1.00  0.00    -0.065 C 
ATOM     25  C   UNL     1     -21.912 -15.366 -11.643  1.00  0.00     0.014 C 
ATOM     26  C   UNL     1     -23.303 -13.286 -12.181  1.00  0.00     0.016 C 
ATOM     27  C   UNL     1     -20.477 -13.594 -13.543  1.00  0.00     0.063 C 
ATOM     28  C   UNL     1     -20.550 -14.728 -11.300  1.00  0.00     0.033 C 
ATOM     29  C   UNL     1     -19.710 -14.471 -12.553  1.00  0.00     0.118 C 
BRANCH  29  30
ATOM     30  O   UNL     1     -18.530 -13.821 -12.176  1.00  0.00    -0.393 OA
ATOM     31  H   UNL     1     -17.837 -14.027 -12.867  1.00  0.00     0.210 HD
ENDBRANCH  29  30
ENDBRANCH   9  11
ENDBRANCH   1   9
TORSDOF 7
ENDMDL
MODEL 6
REMARK VINA RESULT:    -6.613      1.478      2.603
REMARK INTER + INTRA:         -10.351
REMARK INTER:                 -10.169
REMARK INTRA:                  -0.182
REMARK UNBOUND:                -1.224
REMARK SMILES CC[C@H](CC[C@@H](C)[C@@H]1CC[C@@H]2[C@H]3CC=C4C[C@@H](O)CC[C@]4(C)[C@@H]3CC[C@@]21C)C(C)C
REMARK SMILES IDX 5 1 4 2 3 3 2 4 1 5 28 6 29 7 30 8 6 9 7 10 8 11 9 12 26 13
REMARK SMILES IDX 10 14 11 15 25 16 27 17 12 18 24 19 23 20 13 21 21 22 14 23
REMARK SMILES IDX 15 24 20 25 22 26 16 27 19 28 17 29 18 30
REMARK H PARENT 18 31
REMARK Flexibility Score: inf
ROOT
ATOM      1  C   UNL     1     -26.008 -21.411 -11.722  1.00  0.00     0.004 C 
ENDROOT
BRANCH   1   2
ATOM      2  C   UNL     1     -25.858 -22.681 -12.595  1.00  0.00     0.004 C 
BRANCH   2   3
ATOM      3  C   UNL     1     -24.467 -23.381 -12.558  1.00  0.00    -0.009 C 
BRANCH   3   4
ATOM      4  C   UNL     1     -24.455 -24.503 -11.480  1.00  0.00     0.000 C 
ATOM      5  C   UNL     1     -23.910 -24.040 -10.136  1.00  0.00     0.004 C 
ENDBRANCH   3   4
BRANCH   3   6
ATOM      6  C   UNL     1     -23.931 -23.771 -13.984  1.00  0.00    -0.014 C 
ATOM      7  C   UNL     1     -24.870 -23.419 -15.147  1.00  0.00     0.007 C 
ATOM      8  C   UNL     1     -23.514 -25.249 -14.082  1.00  0.00     0.007 C 
ENDBRANCH   3   6
ENDBRANCH   2   3
ENDBRANCH   1   2
BRANCH   1   9
ATOM      9  C   UNL     1     -24.849 -20.410 -11.964  1.00  0.00    -0.011 C 
ATOM     10  C   UNL     1     -23.489 -21.122 -11.790  1.00  0.00     0.008 C 
BRANCH   9  11
ATOM     11  C   UNL     1     -25.000 -19.679 -13.341  1.00  0.00    -0.002 C 
ATOM     12  C   UNL     1     -23.973 -20.059 -14.395  1.00  0.00     0.005 C 
ATOM     13  C   UNL     1     -25.150 -18.107 -13.311  1.00  0.00    -0.026 C 
ATOM     14  C   UNL     1     -23.574 -18.798 -15.143  1.00  0.00     0.005 C 
ATOM     15  C   UNL     1     -24.306 -17.592 -14.527  1.00  0.00    -0.001 C 
ATOM     16  C   UNL     1     -24.605 -17.430 -12.001  1.00  0.00     0.007 C 
ATOM     17  C   UNL     1     -26.671 -17.713 -13.476  1.00  0.00     0.012 C 
ATOM     18  C   UNL     1     -23.286 -16.435 -14.217  1.00  0.00     0.000 C 
ATOM     19  C   UNL     1     -24.669 -15.905 -12.095  1.00  0.00     0.005 C 
ATOM     20  C   UNL     1     -23.796 -15.334 -13.242  1.00  0.00     0.003 C 
ATOM     21  C   UNL     1     -22.816 -15.717 -15.489  1.00  0.00     0.031 C 
ATOM     22  C   UNL     1     -22.590 -14.425 -12.769  1.00  0.00    -0.008 C 
ATOM     23  C   UNL     1     -21.715 -14.746 -15.154  1.00  0.00    -0.027 C 
ATOM     24  C   UNL     1     -21.592 -14.187 -13.922  1.00  0.00    -0.065 C 
ATOM     25  C   UNL     1     -21.780 -15.076 -11.581  1.00  0.00     0.014 C 
ATOM     26  C   UNL     1     -23.168 -13.053 -12.309  1.00  0.00     0.016 C 
ATOM     27  C   UNL     1     -20.316 -13.455 -13.589  1.00  0.00     0.063 C 
ATOM     28  C   UNL     1     -20.427 -14.406 -11.264  1.00  0.00     0.033 C 
ATOM     29  C   UNL     1     -19.565 -14.245 -12.517  1.00  0.00     0.118 C 
BRANCH  29  30
ATOM     30  O   UNL     1     -18.394 -13.562 -12.172  1.00  0.00    -0.393 OA
ATOM     31  H   UNL     1     -18.122 -13.868 -11.260  1.00  0.00     0.210 HD
ENDBRANCH  29  30
ENDBRANCH   9  11
ENDBRANCH   1   9
TORSDOF 7
ENDMDL
MODEL 7
REMARK VINA RESULT:    -6.475      2.821      8.089
REMARK INTER + INTRA:         -10.160
REMARK INTER:                  -9.894
REMARK INTRA:                  -0.265
REMARK UNBOUND:                -1.224
REMARK SMILES CC[C@H](CC[C@@H](C)[C@@H]1CC[C@@H]2[C@H]3CC=C4C[C@@H](O)CC[C@]4(C)[C@@H]3CC[C@@]21C)C(C)C
REMARK SMILES IDX 5 1 4 2 3 3 2 4 1 5 28 6 29 7 30 8 6 9 7 10 8 11 9 12 26 13
REMARK SMILES IDX 10 14 11 15 25 16 27 17 12 18 24 19 23 20 13 21 21 22 14 23
REMARK SMILES IDX 15 24 20 25 22 26 16 27 19 28 17 29 18 30
REMARK H PARENT 18 31
REMARK Flexibility Score: inf
ROOT
ATOM      1  C   UNL     1     -21.219 -13.995 -14.476  1.00  0.00     0.004 C 
ENDROOT
BRANCH   1   2
ATOM      2  C   UNL     1     -21.192 -13.191 -13.153  1.00  0.00     0.004 C 
BRANCH   2   3
ATOM      3  C   UNL     1     -20.211 -13.704 -12.056  1.00  0.00    -0.009 C 
BRANCH   3   4
ATOM      4  C   UNL     1     -18.745 -13.340 -12.430  1.00  0.00     0.000 C 
ATOM      5  C   UNL     1     -17.835 -14.554 -12.548  1.00  0.00     0.004 C 
ENDBRANCH   3   4
BRANCH   3   6
ATOM      6  C   UNL     1     -20.674 -13.349 -10.596  1.00  0.00    -0.014 C 
ATOM      7  C   UNL     1     -20.440 -14.454  -9.556  1.00  0.00     0.007 C 
ATOM      8  C   UNL     1     -22.137 -12.876 -10.531  1.00  0.00     0.007 C 
ENDBRANCH   3   6
ENDBRANCH   2   3
ENDBRANCH   1   2
BRANCH   1   9
ATOM      9  C   UNL     1     -21.715 -15.448 -14.253  1.00  0.00    -0.011 C 
ATOM     10  C   UNL     1     -20.731 -16.208 -13.336  1.00  0.00     0.008 C 
BRANCH   9  11
ATOM     11  C   UNL     1     -23.195 -15.478 -13.743  1.00  0.00    -0.002 C 
ATOM     12  C   UNL     1     -23.368 -15.330 -12.240  1.00  0.00     0.005 C 
ATOM     13  C   UNL     1     -24.111 -16.659 -14.253  1.00  0.00    -0.026 C 
ATOM     14  C   UNL     1     -24.473 -16.274 -11.797  1.00  0.00     0.005 C 
ATOM     15  C   UNL     1     -24.974 -17.074 -13.013  1.00  0.00    -0.001 C 
ATOM     16  C   UNL     1     -23.319 -17.920 -14.756  1.00  0.00     0.007 C 
ATOM     17  C   UNL     1     -25.031 -16.149 -15.433  1.00  0.00     0.012 C 
ATOM     18  C   UNL     1     -25.007 -18.610 -12.679  1.00  0.00     0.000 C 
ATOM     19  C   UNL     1     -24.267 -19.066 -15.117  1.00  0.00     0.005 C 
ATOM     20  C   UNL     1     -25.100 -19.563 -13.907  1.00  0.00     0.003 C 
ATOM     21  C   UNL     1     -26.167 -18.979 -11.745  1.00  0.00     0.031 C 
ATOM     22  C   UNL     1     -24.803 -21.053 -13.464  1.00  0.00    -0.008 C 
ATOM     23  C   UNL     1     -26.046 -20.418 -11.318  1.00  0.00    -0.027 C 
ATOM     24  C   UNL     1     -25.406 -21.347 -12.075  1.00  0.00    -0.065 C 
ATOM     25  C   UNL     1     -23.256 -21.353 -13.373  1.00  0.00     0.014 C 
ATOM     26  C   UNL     1     -25.453 -22.008 -14.510  1.00  0.00     0.016 C 
ATOM     27  C   UNL     1     -25.086 -22.684 -11.453  1.00  0.00     0.063 C 
ATOM     28  C   UNL     1     -22.884 -22.674 -12.667  1.00  0.00     0.033 C 
ATOM     29  C   UNL     1     -23.569 -22.803 -11.306  1.00  0.00     0.118 C 
BRANCH  29  30
ATOM     30  O   UNL     1     -23.254 -24.053 -10.762  1.00  0.00    -0.393 OA
ATOM     31  H   UNL     1     -22.484 -24.424 -11.281  1.00  0.00     0.210 HD
ENDBRANCH  29  30
ENDBRANCH   9  11
ENDBRANCH   1   9
TORSDOF 7
ENDMDL
