MODEL 1
REMARK VINA RESULT:    -5.095      0.000      0.000
REMARK INTER + INTRA:          -5.578
REMARK INTER:                  -5.542
REMARK INTRA:                  -0.036
REMARK UNBOUND:                -0.036
REMARK SMILES O=C([O-])c1ccc(O)cc1
REMARK SMILES IDX 4 1 5 2 10 3 6 4 9 5 7 6 2 7 1 8 3 9 8 10
REMARK H PARENT 8 11
REMARK Flexibility Score: inf
ROOT
ATOM      1  C   UNL     1     -13.045   0.857  -9.729  1.00  0.00    -0.003 A 
ATOM      2  C   UNL     1     -14.427   1.095  -9.616  1.00  0.00     0.014 A 
ATOM      3  C   UNL     1     -12.145   1.870  -9.349  1.00  0.00     0.014 A 
ATOM      4  C   UNL     1     -14.896   2.321  -9.136  1.00  0.00     0.047 A 
ATOM      5  C   UNL     1     -12.619   3.094  -8.869  1.00  0.00     0.047 A 
ATOM      6  C   UNL     1     -13.993   3.324  -8.761  1.00  0.00     0.115 A 
ENDROOT
BRANCH   1   7
ATOM      7  C   UNL     1     -12.549  -0.441 -10.238  1.00  0.00     0.071 C 
ATOM      8  O   UNL     1     -13.348  -1.388 -10.463  1.00  0.00    -0.545 OA
ATOM      9  O   UNL     1     -11.192  -0.633 -10.473  1.00  0.00    -0.545 OA
ENDBRANCH   1   7
BRANCH   6  10
ATOM     10  O   UNL     1     -14.451   4.549  -8.281  1.00  0.00    -0.508 OA
ATOM     11  H   UNL     1     -13.852   5.165  -7.743  1.00  0.00     0.293 HD
ENDBRANCH   6  10
TORSDOF 2
ENDMDL
MODEL 2
REMARK VINA RESULT:    -4.934      1.491      3.883
REMARK INTER + INTRA:          -5.403
REMARK INTER:                  -5.368
REMARK INTRA:                  -0.035
REMARK UNBOUND:                -0.036
REMARK SMILES O=C([O-])c1ccc(O)cc1
REMARK SMILES IDX 4 1 5 2 10 3 6 4 9 5 7 6 2 7 1 8 3 9 8 10
REMARK H PARENT 8 11
REMARK Flexibility Score: inf
ROOT
ATOM      1  C   UNL     1     -13.057   2.162  -9.310  1.00  0.00    -0.003 A 
ATOM      2  C   UNL     1     -14.449   2.040  -9.469  1.00  0.00     0.014 A 
ATOM      3  C   UNL     1     -12.235   1.067  -9.633  1.00  0.00     0.014 A 
ATOM      4  C   UNL     1     -15.006   0.847  -9.939  1.00  0.00     0.047 A 
ATOM      5  C   UNL     1     -12.797  -0.124 -10.103  1.00  0.00     0.047 A 
ATOM      6  C   UNL     1     -14.181  -0.238 -10.258  1.00  0.00     0.115 A 
ENDROOT
BRANCH   1   7
ATOM      7  C   UNL     1     -12.469   3.425  -8.812  1.00  0.00     0.071 C 
ATOM      8  O   UNL     1     -13.124   4.500  -8.859  1.00  0.00    -0.545 OA
ATOM      9  O   UNL     1     -11.182   3.444  -8.286  1.00  0.00    -0.545 OA
ENDBRANCH   1   7
BRANCH   6  10
ATOM     10  O   UNL     1     -14.725  -1.431 -10.727  1.00  0.00    -0.508 OA
ATOM     11  H   UNL     1     -14.314  -1.931 -11.508  1.00  0.00     0.293 HD
ENDBRANCH   6  10
TORSDOF 2
ENDMDL
MODEL 3
REMARK VINA RESULT:    -4.849      5.940      7.393
REMARK INTER + INTRA:          -5.310
REMARK INTER:                  -5.282
REMARK INTRA:                  -0.027
REMARK UNBOUND:                -0.036
REMARK SMILES O=C([O-])c1ccc(O)cc1
REMARK SMILES IDX 4 1 5 2 10 3 6 4 9 5 7 6 2 7 1 8 3 9 8 10
REMARK H PARENT 8 11
REMARK Flexibility Score: inf
ROOT
ATOM      1  C   UNL     1     -10.661  -5.118  -7.260  1.00  0.00    -0.003 A 
ATOM      2  C   UNL     1     -11.171  -5.296  -8.559  1.00  0.00     0.014 A 
ATOM      3  C   UNL     1      -9.888  -3.975  -6.982  1.00  0.00     0.014 A 
ATOM      4  C   UNL     1     -10.911  -4.352  -9.557  1.00  0.00     0.047 A 
ATOM      5  C   UNL     1      -9.630  -3.034  -7.983  1.00  0.00     0.047 A 
ATOM      6  C   UNL     1     -10.140  -3.218  -9.271  1.00  0.00     0.115 A 
ENDROOT
BRANCH   1   7
ATOM      7  C   UNL     1     -10.937  -6.117  -6.204  1.00  0.00     0.071 C 
ATOM      8  O   UNL     1     -11.754  -5.863  -5.280  1.00  0.00    -0.545 OA
ATOM      9  O   UNL     1     -10.297  -7.351  -6.219  1.00  0.00    -0.545 OA
ENDBRANCH   1   7
BRANCH   6  10
ATOM     10  O   UNL     1      -9.875  -2.272 -10.259  1.00  0.00    -0.508 OA
ATOM     11  H   UNL     1     -10.499  -1.491 -10.425  1.00  0.00     0.293 HD
ENDBRANCH   6  10
TORSDOF 2
ENDMDL
MODEL 4
REMARK VINA RESULT:    -4.841      5.943      7.519
REMARK INTER + INTRA:          -5.301
REMARK INTER:                  -5.273
REMARK INTRA:                  -0.028
REMARK UNBOUND:                -0.036
REMARK SMILES O=C([O-])c1ccc(O)cc1
REMARK SMILES IDX 4 1 5 2 10 3 6 4 9 5 7 6 2 7 1 8 3 9 8 10
REMARK H PARENT 8 11
REMARK Flexibility Score: inf
ROOT
ATOM      1  C   UNL     1     -10.643  -5.145  -7.290  1.00  0.00    -0.003 A 
ATOM      2  C   UNL     1      -9.891  -3.996  -6.985  1.00  0.00     0.014 A 
ATOM      3  C   UNL     1     -11.130  -5.314  -8.600  1.00  0.00     0.014 A 
ATOM      4  C   UNL     1      -9.633  -3.037  -7.969  1.00  0.00     0.047 A 
ATOM      5  C   UNL     1     -10.869  -4.352  -9.581  1.00  0.00     0.047 A 
ATOM      6  C   UNL     1     -10.121  -3.213  -9.270  1.00  0.00     0.115 A 
ENDROOT
BRANCH   1   7
ATOM      7  C   UNL     1     -10.916  -6.159  -6.248  1.00  0.00     0.071 C 
ATOM      8  O   UNL     1     -11.739  -5.924  -5.324  1.00  0.00    -0.545 OA
ATOM      9  O   UNL     1     -10.264  -7.387  -6.274  1.00  0.00    -0.545 OA
ENDBRANCH   1   7
BRANCH   6  10
ATOM     10  O   UNL     1      -9.870  -2.264 -10.258  1.00  0.00    -0.508 OA
ATOM     11  H   UNL     1      -9.905  -1.270 -10.060  1.00  0.00     0.293 HD
ENDBRANCH   6  10
TORSDOF 2
ENDMDL
MODEL 5
REMARK VINA RESULT:    -4.403     15.447     16.805
REMARK INTER + INTRA:          -4.825
REMARK INTER:                  -4.795
REMARK INTRA:                  -0.029
REMARK UNBOUND:                -0.036
REMARK SMILES O=C([O-])c1ccc(O)cc1
REMARK SMILES IDX 4 1 5 2 10 3 6 4 9 5 7 6 2 7 1 8 3 9 8 10
REMARK H PARENT 8 11
REMARK Flexibility Score: inf
ROOT
ATOM      1  C   UNL     1     -12.329   5.639   5.865  1.00  0.00    -0.003 A 
ATOM      2  C   UNL     1     -10.992   5.254   5.658  1.00  0.00     0.014 A 
ATOM      3  C   UNL     1     -12.765   5.914   7.175  1.00  0.00     0.014 A 
ATOM      4  C   UNL     1     -10.111   5.145   6.739  1.00  0.00     0.047 A 
ATOM      5  C   UNL     1     -11.880   5.803   8.252  1.00  0.00     0.047 A 
ATOM      6  C   UNL     1     -10.554   5.420   8.039  1.00  0.00     0.115 A 
ENDROOT
BRANCH   1   7
ATOM      7  C   UNL     1     -13.259   5.754   4.721  1.00  0.00     0.071 C 
ATOM      8  O   UNL     1     -13.454   4.776   3.952  1.00  0.00    -0.545 OA
ATOM      9  O   UNL     1     -13.932   6.947   4.478  1.00  0.00    -0.545 OA
ENDBRANCH   1   7
BRANCH   6  10
ATOM     10  O   UNL     1      -9.685   5.314   9.122  1.00  0.00    -0.508 OA
ATOM     11  H   UNL     1      -9.333   6.135   9.602  1.00  0.00     0.293 HD
ENDBRANCH   6  10
TORSDOF 2
ENDMDL
MODEL 6
REMARK VINA RESULT:    -4.391     15.387     16.713
REMARK INTER + INTRA:          -4.812
REMARK INTER:                  -4.782
REMARK INTRA:                  -0.030
REMARK UNBOUND:                -0.036
REMARK SMILES O=C([O-])c1ccc(O)cc1
REMARK SMILES IDX 4 1 5 2 10 3 6 4 9 5 7 6 2 7 1 8 3 9 8 10
REMARK H PARENT 8 11
REMARK Flexibility Score: inf
ROOT
ATOM      1  C   UNL     1     -12.365   5.650   5.806  1.00  0.00    -0.003 A 
ATOM      2  C   UNL     1     -12.781   5.995   7.104  1.00  0.00     0.014 A 
ATOM      3  C   UNL     1     -11.045   5.204   5.609  1.00  0.00     0.014 A 
ATOM      4  C   UNL     1     -11.895   5.898   8.181  1.00  0.00     0.047 A 
ATOM      5  C   UNL     1     -10.162   5.109   6.689  1.00  0.00     0.047 A 
ATOM      6  C   UNL     1     -10.583   5.454   7.976  1.00  0.00     0.115 A 
ENDROOT
BRANCH   1   7
ATOM      7  C   UNL     1     -13.304   5.753   4.668  1.00  0.00     0.071 C 
ATOM      8  O   UNL     1     -13.484   4.775   3.895  1.00  0.00    -0.545 OA
ATOM      9  O   UNL     1     -14.002   6.933   4.434  1.00  0.00    -0.545 OA
ENDBRANCH   1   7
BRANCH   6  10
ATOM     10  O   UNL     1      -9.692   5.354   9.042  1.00  0.00    -0.508 OA
ATOM     11  H   UNL     1      -9.176   4.500   9.224  1.00  0.00     0.293 HD
ENDBRANCH   6  10
TORSDOF 2
ENDMDL
MODEL 7
REMARK VINA RESULT:    -4.352      6.573      7.363
REMARK INTER + INTRA:          -4.769
REMARK INTER:                  -4.739
REMARK INTRA:                  -0.030
REMARK UNBOUND:                -0.036
REMARK SMILES O=C([O-])c1ccc(O)cc1
REMARK SMILES IDX 4 1 5 2 10 3 6 4 9 5 7 6 2 7 1 8 3 9 8 10
REMARK H PARENT 8 11
REMARK Flexibility Score: inf
ROOT
ATOM      1  C   UNL     1     -11.598  -5.427  -8.606  1.00  0.00    -0.003 A 
ATOM      2  C   UNL     1     -11.109  -5.465  -7.288  1.00  0.00     0.014 A 
ATOM      3  C   UNL     1     -11.077  -4.473  -9.501  1.00  0.00     0.014 A 
ATOM      4  C   UNL     1     -10.122  -4.566  -6.874  1.00  0.00     0.047 A 
ATOM      5  C   UNL     1     -10.090  -3.576  -9.081  1.00  0.00     0.047 A 
ATOM      6  C   UNL     1      -9.609  -3.619  -7.770  1.00  0.00     0.115 A 
ENDROOT
BRANCH   1   7
ATOM      7  C   UNL     1     -12.642  -6.380  -9.044  1.00  0.00     0.071 C 
ATOM      8  O   UNL     1     -12.481  -7.076 -10.081  1.00  0.00    -0.545 OA
ATOM      9  O   UNL     1     -13.819  -6.518  -8.315  1.00  0.00    -0.545 OA
ENDBRANCH   1   7
BRANCH   6  10
ATOM     10  O   UNL     1      -8.626  -2.719  -7.367  1.00  0.00    -0.508 OA
ATOM     11  H   UNL     1      -8.785  -2.063  -6.611  1.00  0.00     0.293 HD
ENDBRANCH   6  10
TORSDOF 2
ENDMDL
MODEL 8
REMARK VINA RESULT:    -4.286      7.000      8.071
REMARK INTER + INTRA:          -4.698
REMARK INTER:                  -4.662
REMARK INTRA:                  -0.036
REMARK UNBOUND:                -0.036
REMARK SMILES O=C([O-])c1ccc(O)cc1
REMARK SMILES IDX 4 1 5 2 10 3 6 4 9 5 7 6 2 7 1 8 3 9 8 10
REMARK H PARENT 8 11
REMARK Flexibility Score: inf
ROOT
ATOM      1  C   UNL     1     -10.673  -4.863  -7.781  1.00  0.00    -0.003 A 
ATOM      2  C   UNL     1     -10.646  -5.080  -6.392  1.00  0.00     0.014 A 
ATOM      3  C   UNL     1     -11.715  -5.429  -8.540  1.00  0.00     0.014 A 
ATOM      4  C   UNL     1     -11.638  -5.848  -5.776  1.00  0.00     0.047 A 
ATOM      5  C   UNL     1     -12.706  -6.196  -7.919  1.00  0.00     0.047 A 
ATOM      6  C   UNL     1     -12.671  -6.407  -6.538  1.00  0.00     0.115 A 
ENDROOT
BRANCH   1   7
ATOM      7  C   UNL     1      -9.622  -4.050  -8.432  1.00  0.00     0.071 C 
ATOM      8  O   UNL     1      -8.749  -3.460  -7.742  1.00  0.00    -0.545 OA
ATOM      9  O   UNL     1      -9.585  -3.925  -9.817  1.00  0.00    -0.545 OA
ENDBRANCH   1   7
BRANCH   6  10
ATOM     10  O   UNL     1     -13.665  -7.174  -5.934  1.00  0.00    -0.508 OA
ATOM     11  H   UNL     1     -14.648  -7.012  -6.123  1.00  0.00     0.293 HD
ENDBRANCH   6  10
TORSDOF 2
ENDMDL
MODEL 9
REMARK VINA RESULT:    -4.265     15.355     16.657
REMARK INTER + INTRA:          -4.675
REMARK INTER:                  -4.645
REMARK INTRA:                  -0.030
REMARK UNBOUND:                -0.036
REMARK SMILES O=C([O-])c1ccc(O)cc1
REMARK SMILES IDX 4 1 5 2 10 3 6 4 9 5 7 6 2 7 1 8 3 9 8 10
REMARK H PARENT 8 11
REMARK Flexibility Score: inf
ROOT
ATOM      1  C   UNL     1     -13.060   4.868   5.969  1.00  0.00    -0.003 A 
ATOM      2  C   UNL     1     -13.442   5.106   7.301  1.00  0.00     0.014 A 
ATOM      3  C   UNL     1     -12.098   3.874   5.702  1.00  0.00     0.014 A 
ATOM      4  C   UNL     1     -12.874   4.367   8.343  1.00  0.00     0.047 A 
ATOM      5  C   UNL     1     -11.533   3.139   6.748  1.00  0.00     0.047 A 
ATOM      6  C   UNL     1     -11.918   3.381   8.069  1.00  0.00     0.115 A 
ENDROOT
BRANCH   1   7
ATOM      7  C   UNL     1     -13.662   5.650   4.866  1.00  0.00     0.071 C 
ATOM      8  O   UNL     1     -14.135   5.070   3.854  1.00  0.00    -0.545 OA
ATOM      9  O   UNL     1     -13.712   7.038   4.934  1.00  0.00    -0.545 OA
ENDBRANCH   1   7
BRANCH   6  10
ATOM     10  O   UNL     1     -11.346   2.640   9.100  1.00  0.00    -0.508 OA
ATOM     11  H   UNL     1     -11.249   1.633   9.039  1.00  0.00     0.293 HD
ENDBRANCH   6  10
TORSDOF 2
ENDMDL
