MODEL 1
REMARK VINA RESULT:    -5.966      0.000      0.000
REMARK INTER + INTRA:          -6.547
REMARK INTER:                  -8.408
REMARK INTRA:                   1.861
REMARK UNBOUND:                 1.861
REMARK SMILES CC1=CCC(=C(C)C)C(=O)CC(C)=CCC1
REMARK SMILES IDX 12 1 14 2 13 3 15 4 16 5 2 6 1 7 3 8 11 10 9 11 10 12 5 13
REMARK SMILES IDX 6 14 7 15 8 16 4 17
REMARK H PARENT
REMARK Flexibility Score: 60.00
ROOT
ATOM      1  C   UNL     1      -8.008  33.439  21.247  1.00  0.00    -0.070 C 
ATOM      2  C   UNL     1      -7.500  34.438  22.066  1.00  0.00    -0.027 C 
ATOM      3  C   UNL     1      -7.153  33.091  20.045  1.00  0.00     0.039 C 
ENDROOT
BRANCH   2   4
ATOM      4  C   UNL     1      -8.102  35.123  23.308  1.00  0.00     0.032 C 
BRANCH   4   5
ATOM      5  C   UNL     1      -8.877  34.104  24.076  1.00  0.00     0.034 C 
BRANCH   5   6
ATOM      6  C   UNL     1      -8.774  33.662  25.485  1.00  0.00    -0.077 C 
ATOM      7  C   UNL     1      -8.170  34.509  26.567  1.00  0.00     0.039 C 
ATOM      8  C   UNL     1      -9.289  32.427  25.741  1.00  0.00    -0.023 CG0
ATOM      9  G   UNL     1      -9.891  31.519  24.640  1.00  0.00     0.000 G0
ENDBRANCH   5   6
ENDBRANCH   4   5
ENDBRANCH   2   4
BRANCH   1  10
ATOM     10  C   UNL     1      -9.306  32.586  21.436  1.00  0.00     0.111 C 
BRANCH  10  11
ATOM     11  C   UNL     1      -9.106  31.217  22.101  1.00  0.00     0.163 C 
ATOM     12  O   UNL     1      -9.083  30.253  21.290  1.00  0.00    -0.294 OA
BRANCH  11  13
ATOM     13  C   UNL     1      -8.905  30.944  23.610  1.00  0.00    -0.002 C 
ATOM     14  C   UNL     1      -7.852  30.181  24.068  1.00  0.00    -0.069 C 
ATOM     15  C   UNL     1      -7.601  29.979  25.552  1.00  0.00     0.039 C 
ATOM     16  C   UNL     1      -6.883  29.477  23.141  1.00  0.00     0.039 C 
BRANCH  13  17
ATOM     17  C   UNL     1      -9.907  31.494  24.656  1.00  0.00     0.066 CG0
ATOM     18  G   UNL     1      -9.279  32.411  25.736  1.00  0.00     0.000 G0
ENDBRANCH  13  17
ENDBRANCH  11  13
ENDBRANCH  10  11
ENDBRANCH   1  10
TORSDOF 0
ENDMDL
MODEL 2
REMARK VINA RESULT:    -5.939      1.711      3.760
REMARK INTER + INTRA:          -6.509
REMARK INTER:                  -7.412
REMARK INTRA:                   0.903
REMARK UNBOUND:                 1.861
REMARK SMILES CC1=CCC(=C(C)C)C(=O)CC(C)=CCC1
REMARK SMILES IDX 12 1 14 2 13 3 15 4 16 5 2 6 1 7 3 8 11 10 9 11 10 12 5 13
REMARK SMILES IDX 6 14 7 15 8 16 4 17
REMARK H PARENT
REMARK Flexibility Score: 60.00
ROOT
ATOM      1  C   UNL     1      -8.310  35.046  25.303  1.00  0.00    -0.070 C 
ATOM      2  C   UNL     1      -8.572  34.474  26.540  1.00  0.00    -0.027 C 
ATOM      3  C   UNL     1      -8.986  36.378  25.050  1.00  0.00     0.039 C 
ENDROOT
BRANCH   2   4
ATOM      4  C   UNL     1      -8.154  33.112  27.126  1.00  0.00     0.032 C 
BRANCH   4   5
ATOM      5  C   UNL     1      -8.967  32.048  26.467  1.00  0.00     0.034 C 
BRANCH   5   6
ATOM      6  C   UNL     1      -8.563  30.810  25.762  1.00  0.00    -0.077 C 
ATOM      7  C   UNL     1      -7.885  29.661  26.449  1.00  0.00     0.039 C 
ATOM      8  C   UNL     1      -8.871  30.776  24.435  1.00  0.00    -0.023 CG0
ATOM      9  G   UNL     1      -9.544  31.959  23.695  1.00  0.00     0.000 G0
ENDBRANCH   5   6
ENDBRANCH   4   5
ENDBRANCH   2   4
BRANCH   1  10
ATOM     10  C   UNL     1      -7.365  34.530  24.167  1.00  0.00     0.111 C 
BRANCH  10  11
ATOM     11  C   UNL     1      -8.068  34.061  22.886  1.00  0.00     0.163 C 
ATOM     12  O   UNL     1      -8.116  34.935  21.980  1.00  0.00    -0.294 OA
BRANCH  11  13
ATOM     13  C   UNL     1      -8.661  32.657  22.619  1.00  0.00    -0.002 C 
ATOM     14  C   UNL     1      -8.445  32.002  21.425  1.00  0.00    -0.069 C 
ATOM     15  C   UNL     1      -8.953  30.590  21.188  1.00  0.00     0.039 C 
ATOM     16  C   UNL     1      -7.710  32.634  20.261  1.00  0.00     0.039 C 
BRANCH  13  17
ATOM     17  C   UNL     1      -9.548  31.955  23.678  1.00  0.00     0.066 CG0
ATOM     18  G   UNL     1      -8.859  30.790  24.431  1.00  0.00     0.000 G0
ENDBRANCH  13  17
ENDBRANCH  11  13
ENDBRANCH  10  11
ENDBRANCH   1  10
TORSDOF 0
ENDMDL
MODEL 3
REMARK VINA RESULT:    -5.839      1.797      3.833
REMARK INTER + INTRA:          -6.368
REMARK INTER:                  -7.156
REMARK INTRA:                   0.788
REMARK UNBOUND:                 1.861
REMARK SMILES CC1=CCC(=C(C)C)C(=O)CC(C)=CCC1
REMARK SMILES IDX 12 1 14 2 13 3 15 4 16 5 2 6 1 7 3 8 11 10 9 11 10 12 5 13
REMARK SMILES IDX 6 14 7 15 8 16 4 17
REMARK H PARENT
REMARK Flexibility Score: 60.00
ROOT
ATOM      1  C   UNL     1      -8.280  34.990  24.982  1.00  0.00    -0.070 C 
ATOM      2  C   UNL     1      -8.100  35.537  23.719  1.00  0.00    -0.027 C 
ATOM      3  C   UNL     1      -8.995  35.881  25.977  1.00  0.00     0.039 C 
ENDROOT
BRANCH   2   4
ATOM      4  C   UNL     1      -7.355  34.993  22.484  1.00  0.00     0.032 C 
BRANCH   4   5
ATOM      5  C   UNL     1      -8.283  34.096  21.735  1.00  0.00     0.034 C 
BRANCH   5   6
ATOM      6  C   UNL     1      -8.044  32.809  21.041  1.00  0.00    -0.077 C 
ATOM      7  C   UNL     1      -7.121  32.672  19.866  1.00  0.00     0.039 C 
ATOM      8  C   UNL     1      -8.712  31.742  21.561  1.00  0.00    -0.023 CG0
ATOM      9  G   UNL     1      -9.693  31.860  22.754  1.00  0.00     0.000 G0
ENDBRANCH   5   6
ENDBRANCH   4   5
ENDBRANCH   2   4
BRANCH   1  10
ATOM     10  C   UNL     1      -7.901  33.560  25.490  1.00  0.00     0.111 C 
BRANCH  10  11
ATOM     11  C   UNL     1      -8.978  32.483  25.298  1.00  0.00     0.163 C 
ATOM     12  O   UNL     1      -9.877  32.497  26.180  1.00  0.00    -0.294 OA
BRANCH  11  13
ATOM     13  C   UNL     1      -9.061  31.456  24.144  1.00  0.00    -0.002 C 
ATOM     14  C   UNL     1      -8.569  30.176  24.286  1.00  0.00    -0.069 C 
ATOM     15  C   UNL     1      -8.724  29.138  23.189  1.00  0.00     0.039 C 
ATOM     16  C   UNL     1      -7.828  29.712  25.523  1.00  0.00     0.039 C 
BRANCH  13  17
ATOM     17  C   UNL     1      -9.675  31.847  22.777  1.00  0.00     0.066 CG0
ATOM     18  G   UNL     1      -8.707  31.727  21.574  1.00  0.00     0.000 G0
ENDBRANCH  13  17
ENDBRANCH  11  13
ENDBRANCH  10  11
ENDBRANCH   1  10
TORSDOF 0
ENDMDL
MODEL 4
REMARK VINA RESULT:    -5.577      2.031      3.827
REMARK INTER + INTRA:          -5.998
REMARK INTER:                  -6.842
REMARK INTRA:                   0.844
REMARK UNBOUND:                 1.861
REMARK SMILES CC1=CCC(=C(C)C)C(=O)CC(C)=CCC1
REMARK SMILES IDX 12 1 14 2 13 3 15 4 16 5 2 6 1 7 3 8 11 10 9 11 10 12 5 13
REMARK SMILES IDX 6 14 7 15 8 16 4 17
REMARK H PARENT
REMARK Flexibility Score: 60.00
ROOT
ATOM      1  C   UNL     1      -7.951  34.695  23.860  1.00  0.00    -0.070 C 
ATOM      2  C   UNL     1      -7.509  34.710  22.544  1.00  0.00    -0.027 C 
ATOM      3  C   UNL     1      -7.286  35.702  24.777  1.00  0.00     0.039 C 
ENDROOT
BRANCH   2   4
ATOM      4  C   UNL     1      -7.865  33.800  21.353  1.00  0.00     0.032 C 
BRANCH   4   5
ATOM      5  C   UNL     1      -7.802  32.381  21.812  1.00  0.00     0.034 C 
BRANCH   5   6
ATOM      6  C   UNL     1      -8.807  31.295  21.760  1.00  0.00    -0.077 C 
ATOM      7  C   UNL     1      -9.749  31.105  20.607  1.00  0.00     0.039 C 
ATOM      8  C   UNL     1      -8.806  30.458  22.835  1.00  0.00    -0.023 CG0
ATOM      9  G   UNL     1      -7.866  30.646  24.051  1.00  0.00     0.000 G0
ENDBRANCH   5   6
ENDBRANCH   4   5
ENDBRANCH   2   4
BRANCH   1  10
ATOM     10  C   UNL     1      -9.083  33.825  24.501  1.00  0.00     0.111 C 
BRANCH  10  11
ATOM     11  C   UNL     1      -8.614  32.780  25.522  1.00  0.00     0.163 C 
ATOM     12  O   UNL     1      -8.265  33.269  26.630  1.00  0.00    -0.294 OA
BRANCH  11  13
ATOM     13  C   UNL     1      -8.570  31.246  25.322  1.00  0.00    -0.002 C 
ATOM     14  C   UNL     1      -9.110  30.385  26.253  1.00  0.00    -0.069 C 
ATOM     15  C   UNL     1      -9.146  28.885  26.023  1.00  0.00     0.039 C 
ATOM     16  C   UNL     1      -9.687  30.856  27.572  1.00  0.00     0.039 C 
BRANCH  13  17
ATOM     17  C   UNL     1      -7.884  30.628  24.077  1.00  0.00     0.066 CG0
ATOM     18  G   UNL     1      -8.805  30.469  22.842  1.00  0.00     0.000 G0
ENDBRANCH  13  17
ENDBRANCH  11  13
ENDBRANCH  10  11
ENDBRANCH   1  10
TORSDOF 0
ENDMDL
MODEL 5
REMARK VINA RESULT:    -5.407      2.127      3.918
REMARK INTER + INTRA:          -5.760
REMARK INTER:                  -6.847
REMARK INTRA:                   1.087
REMARK UNBOUND:                 1.861
REMARK SMILES CC1=CCC(=C(C)C)C(=O)CC(C)=CCC1
REMARK SMILES IDX 12 1 14 2 13 3 15 4 16 5 2 6 1 7 3 8 11 10 9 11 10 12 5 13
REMARK SMILES IDX 6 14 7 15 8 16 4 17
REMARK H PARENT
REMARK Flexibility Score: 60.00
ROOT
ATOM      1  C   UNL     1      -8.105  33.890  23.245  1.00  0.00    -0.070 C 
ATOM      2  C   UNL     1      -8.032  33.137  22.081  1.00  0.00    -0.027 C 
ATOM      3  C   UNL     1      -7.029  34.944  23.402  1.00  0.00     0.039 C 
ENDROOT
BRANCH   2   4
ATOM      4  C   UNL     1      -8.871  31.935  21.606  1.00  0.00     0.032 C 
BRANCH   4   5
ATOM      5  C   UNL     1      -8.940  30.943  22.719  1.00  0.00     0.034 C 
BRANCH   5   6
ATOM      6  C   UNL     1      -7.874  30.198  23.428  1.00  0.00    -0.077 C 
ATOM      7  C   UNL     1      -6.708  29.570  22.723  1.00  0.00     0.039 C 
ATOM      8  C   UNL     1      -8.015  30.139  24.781  1.00  0.00    -0.023 CG0
ATOM      9  G   UNL     1      -9.223  30.753  25.532  1.00  0.00     0.000 G0
ENDBRANCH   5   6
ENDBRANCH   4   5
ENDBRANCH   2   4
BRANCH   1  10
ATOM     10  C   UNL     1      -9.184  33.835  24.377  1.00  0.00     0.111 C 
BRANCH  10  11
ATOM     11  C   UNL     1      -8.674  33.386  25.753  1.00  0.00     0.163 C 
ATOM     12  O   UNL     1      -8.063  34.285  26.391  1.00  0.00    -0.294 OA
BRANCH  11  13
ATOM     13  C   UNL     1      -8.870  31.996  26.404  1.00  0.00    -0.002 C 
ATOM     14  C   UNL     1      -8.713  31.809  27.761  1.00  0.00    -0.069 C 
ATOM     15  C   UNL     1      -8.987  30.467  28.416  1.00  0.00     0.039 C 
ATOM     16  C   UNL     1      -8.244  32.906  28.692  1.00  0.00     0.039 C 
BRANCH  13  17
ATOM     17  C   UNL     1      -9.219  30.758  25.539  1.00  0.00     0.066 CG0
ATOM     18  G   UNL     1      -8.018  30.135  24.785  1.00  0.00     0.000 G0
ENDBRANCH  13  17
ENDBRANCH  11  13
ENDBRANCH  10  11
ENDBRANCH   1  10
TORSDOF 0
ENDMDL
MODEL 6
REMARK VINA RESULT:    -5.261      2.181      5.215
REMARK INTER + INTRA:          -5.554
REMARK INTER:                  -6.522
REMARK INTRA:                   0.968
REMARK UNBOUND:                 1.861
REMARK SMILES CC1=CCC(=C(C)C)C(=O)CC(C)=CCC1
REMARK SMILES IDX 12 1 14 2 13 3 15 4 16 5 2 6 1 7 3 8 11 10 9 11 10 12 5 13
REMARK SMILES IDX 6 14 7 15 8 16 4 17
REMARK H PARENT
REMARK Flexibility Score: 60.00
ROOT
ATOM      1  C   UNL     1      -9.160  30.201  25.794  1.00  0.00    -0.070 C 
ATOM      2  C   UNL     1      -7.920  29.623  25.564  1.00  0.00    -0.027 C 
ATOM      3  C   UNL     1     -10.063  29.439  26.743  1.00  0.00     0.039 C 
ENDROOT
BRANCH   2   4
ATOM      4  C   UNL     1      -6.779  30.034  24.613  1.00  0.00     0.032 C 
BRANCH   4   5
ATOM      5  C   UNL     1      -7.113  29.548  23.243  1.00  0.00     0.034 C 
BRANCH   5   6
ATOM      6  C   UNL     1      -8.142  29.992  22.275  1.00  0.00    -0.077 C 
ATOM      7  C   UNL     1      -9.021  29.039  21.520  1.00  0.00     0.039 C 
ATOM      8  C   UNL     1      -8.252  31.342  22.131  1.00  0.00    -0.023 CG0
ATOM      9  G   UNL     1      -7.339  32.348  22.875  1.00  0.00     0.000 G0
ENDBRANCH   5   6
ENDBRANCH   4   5
ENDBRANCH   2   4
BRANCH   1  10
ATOM     10  C   UNL     1      -9.721  31.558  25.254  1.00  0.00     0.111 C 
BRANCH  10  11
ATOM     11  C   UNL     1      -8.704  32.704  25.167  1.00  0.00     0.163 C 
ATOM     12  O   UNL     1      -8.351  33.161  26.287  1.00  0.00    -0.294 OA
BRANCH  11  13
ATOM     13  C   UNL     1      -8.083  33.292  23.877  1.00  0.00    -0.002 C 
ATOM     14  C   UNL     1      -8.191  34.633  23.576  1.00  0.00    -0.069 C 
ATOM     15  C   UNL     1      -7.512  35.232  22.356  1.00  0.00     0.039 C 
ATOM     16  C   UNL     1      -8.999  35.602  24.413  1.00  0.00     0.039 C 
BRANCH  13  17
ATOM     17  C   UNL     1      -7.346  32.380  22.865  1.00  0.00     0.066 CG0
ATOM     18  G   UNL     1      -8.248  31.344  22.150  1.00  0.00     0.000 G0
ENDBRANCH  13  17
ENDBRANCH  11  13
ENDBRANCH  10  11
ENDBRANCH   1  10
TORSDOF 0
ENDMDL
MODEL 7
REMARK VINA RESULT:    -4.902     17.434     19.187
REMARK INTER + INTRA:          -5.047
REMARK INTER:                  -5.123
REMARK INTRA:                   0.076
REMARK UNBOUND:                 1.861
REMARK SMILES CC1=CCC(=C(C)C)C(=O)CC(C)=CCC1
REMARK SMILES IDX 12 1 14 2 13 3 15 4 16 5 2 6 1 7 3 8 11 10 9 11 10 12 5 13
REMARK SMILES IDX 6 14 7 15 8 16 4 17
REMARK H PARENT
REMARK Flexibility Score: 60.00
ROOT
ATOM      1  C   UNL     1       1.160  48.281  14.559  1.00  0.00    -0.070 C 
ATOM      2  C   UNL     1       1.317  49.081  15.683  1.00  0.00    -0.027 C 
ATOM      3  C   UNL     1       1.300  48.997  13.231  1.00  0.00     0.039 C 
ENDROOT
BRANCH   2   4
ATOM      4  C   UNL     1       1.162  48.753  17.180  1.00  0.00     0.032 C 
BRANCH   4   5
ATOM      5  C   UNL     1      -0.278  48.897  17.545  1.00  0.00     0.034 C 
BRANCH   5   6
ATOM      6  C   UNL     1      -1.291  47.887  17.930  1.00  0.00    -0.077 C 
ATOM      7  C   UNL     1      -1.334  47.248  19.287  1.00  0.00     0.039 C 
ATOM      8  C   UNL     1      -2.204  47.589  16.964  1.00  0.00    -0.023 CG0
ATOM      9  G   UNL     1      -2.166  48.212  15.546  1.00  0.00     0.000 G0
ENDBRANCH   5   6
ENDBRANCH   4   5
ENDBRANCH   2   4
BRANCH   1  10
ATOM     10  C   UNL     1       0.923  46.736  14.485  1.00  0.00     0.111 C 
BRANCH  10  11
ATOM     11  C   UNL     1      -0.543  46.289  14.557  1.00  0.00     0.163 C 
ATOM     12  O   UNL     1      -0.692  45.060  14.789  1.00  0.00    -0.294 OA
BRANCH  11  13
ATOM     13  C   UNL     1      -1.792  47.190  14.409  1.00  0.00    -0.002 C 
ATOM     14  C   UNL     1      -2.568  47.161  13.270  1.00  0.00    -0.069 C 
ATOM     15  C   UNL     1      -3.842  47.980  13.153  1.00  0.00     0.039 C 
ATOM     16  C   UNL     1      -2.209  46.336  12.052  1.00  0.00     0.039 C 
BRANCH  13  17
ATOM     17  C   UNL     1      -2.192  48.182  15.531  1.00  0.00     0.066 CG0
ATOM     18  G   UNL     1      -2.206  47.577  16.956  1.00  0.00     0.000 G0
ENDBRANCH  13  17
ENDBRANCH  11  13
ENDBRANCH  10  11
ENDBRANCH   1  10
TORSDOF 0
ENDMDL
MODEL 8
REMARK VINA RESULT:    -4.683     17.622     19.236
REMARK INTER + INTRA:          -4.739
REMARK INTER:                  -4.977
REMARK INTRA:                   0.237
REMARK UNBOUND:                 1.861
REMARK SMILES CC1=CCC(=C(C)C)C(=O)CC(C)=CCC1
REMARK SMILES IDX 12 1 14 2 13 3 15 4 16 5 2 6 1 7 3 8 11 10 9 11 10 12 5 13
REMARK SMILES IDX 6 14 7 15 8 16 4 17
REMARK H PARENT
REMARK Flexibility Score: 60.00
ROOT
ATOM      1  C   UNL     1      -0.339  45.269  13.758  1.00  0.00    -0.070 C 
ATOM      2  C   UNL     1      -1.333  45.189  12.792  1.00  0.00    -0.027 C 
ATOM      3  C   UNL     1      -0.091  43.995  14.538  1.00  0.00     0.039 C 
ENDROOT
BRANCH   2   4
ATOM      4  C   UNL     1      -1.932  46.271  11.872  1.00  0.00     0.032 C 
BRANCH   4   5
ATOM      5  C   UNL     1      -3.205  46.753  12.483  1.00  0.00     0.034 C 
BRANCH   5   6
ATOM      6  C   UNL     1      -3.612  48.098  12.952  1.00  0.00    -0.077 C 
ATOM      7  C   UNL     1      -4.243  49.121  12.055  1.00  0.00     0.039 C 
ATOM      8  C   UNL     1      -3.389  48.338  14.274  1.00  0.00    -0.023 CG0
ATOM      9  G   UNL     1      -2.713  47.312  15.217  1.00  0.00     0.000 G0
ENDBRANCH   5   6
ENDBRANCH   4   5
ENDBRANCH   2   4
BRANCH   1  10
ATOM     10  C   UNL     1       0.595  46.477  14.100  1.00  0.00     0.111 C 
BRANCH  10  11
ATOM     11  C   UNL     1      -0.106  47.704  14.700  1.00  0.00     0.163 C 
ATOM     12  O   UNL     1       0.347  48.804  14.286  1.00  0.00    -0.294 OA
BRANCH  11  13
ATOM     13  C   UNL     1      -1.289  47.697  15.697  1.00  0.00    -0.002 C 
ATOM     14  C   UNL     1      -1.108  48.006  17.028  1.00  0.00    -0.069 C 
ATOM     15  C   UNL     1      -2.277  48.084  17.993  1.00  0.00     0.039 C 
ATOM     16  C   UNL     1       0.255  48.270  17.633  1.00  0.00     0.039 C 
BRANCH  13  17
ATOM     17  C   UNL     1      -2.715  47.310  15.232  1.00  0.00     0.066 CG0
ATOM     18  G   UNL     1      -3.393  48.338  14.292  1.00  0.00     0.000 G0
ENDBRANCH  13  17
ENDBRANCH  11  13
ENDBRANCH  10  11
ENDBRANCH   1  10
TORSDOF 0
ENDMDL
MODEL 9
REMARK VINA RESULT:    -4.570     18.550     20.222
REMARK INTER + INTRA:          -4.580
REMARK INTER:                  -4.926
REMARK INTRA:                   0.346
REMARK UNBOUND:                 1.861
REMARK SMILES CC1=CCC(=C(C)C)C(=O)CC(C)=CCC1
REMARK SMILES IDX 12 1 14 2 13 3 15 4 16 5 2 6 1 7 3 8 11 10 9 11 10 12 5 13
REMARK SMILES IDX 6 14 7 15 8 16 4 17
REMARK H PARENT
REMARK Flexibility Score: 60.00
ROOT
ATOM      1  C   UNL     1      -4.779  48.783  11.132  1.00  0.00    -0.070 C 
ATOM      2  C   UNL     1      -4.298  48.607   9.841  1.00  0.00    -0.027 C 
ATOM      3  C   UNL     1      -6.280  48.649  11.286  1.00  0.00     0.039 C 
ENDROOT
BRANCH   2   4
ATOM      4  C   UNL     1      -2.874  48.750   9.271  1.00  0.00     0.032 C 
BRANCH   4   5
ATOM      5  C   UNL     1      -2.221  47.408   9.296  1.00  0.00     0.034 C 
BRANCH   5   6
ATOM      6  C   UNL     1      -2.720  46.092   9.755  1.00  0.00    -0.077 C 
ATOM      7  C   UNL     1      -3.568  45.195   8.901  1.00  0.00     0.039 C 
ATOM      8  C   UNL     1      -2.336  45.736  11.013  1.00  0.00    -0.023 CG0
ATOM      9  G   UNL     1      -1.486  46.654  11.926  1.00  0.00     0.000 G0
ENDBRANCH   5   6
ENDBRANCH   4   5
ENDBRANCH   2   4
BRANCH   1  10
ATOM     10  C   UNL     1      -3.973  49.035  12.449  1.00  0.00     0.111 C 
BRANCH  10  11
ATOM     11  C   UNL     1      -3.582  47.777  13.235  1.00  0.00     0.163 C 
ATOM     12  O   UNL     1      -4.529  47.270  13.894  1.00  0.00    -0.294 OA
BRANCH  11  13
ATOM     13  C   UNL     1      -2.193  47.094  13.254  1.00  0.00    -0.002 C 
ATOM     14  C   UNL     1      -1.522  46.865  14.437  1.00  0.00    -0.069 C 
ATOM     15  C   UNL     1      -0.200  46.120  14.470  1.00  0.00     0.039 C 
ATOM     16  C   UNL     1      -2.033  47.347  15.779  1.00  0.00     0.039 C 
BRANCH  13  17
ATOM     17  C   UNL     1      -1.497  46.674  11.935  1.00  0.00     0.066 CG0
ATOM     18  G   UNL     1      -2.338  45.743  11.027  1.00  0.00     0.000 G0
ENDBRANCH  13  17
ENDBRANCH  11  13
ENDBRANCH  10  11
ENDBRANCH   1  10
TORSDOF 0
ENDMDL
