MODEL 1
REMARK VINA RESULT:    -5.075      0.000      0.000
REMARK INTER + INTRA:         -10.935
REMARK INTER:                  -9.525
REMARK INTRA:                  -1.410
REMARK UNBOUND:                -1.410
REMARK SMILES O=C([O-])CCCCCCCCCCCCCCC(=O)[O-]
REMARK SMILES IDX 10 1 9 2 8 3 7 4 6 5 5 6 4 7 2 8 1 9 3 10 11 11 12 12 13 13
REMARK SMILES IDX 14 14 15 15 16 16 17 17 18 18 19 19 20 20
REMARK H PARENT
REMARK Flexibility Score: inf
ROOT
ATOM      1  C   UNL     1       7.546  40.993  48.684  1.00  0.00     0.000 C 
ENDROOT
BRANCH   1   2
ATOM      2  C   UNL     1       8.145  39.712  48.066  1.00  0.00     0.000 C 
BRANCH   2   3
ATOM      3  C   UNL     1       9.662  39.757  47.812  1.00  0.00     0.000 C 
BRANCH   3   4
ATOM      4  C   UNL     1      10.013  39.876  46.321  1.00  0.00     0.000 C 
BRANCH   4   5
ATOM      5  C   UNL     1       8.780  39.605  45.445  1.00  0.00     0.000 C 
BRANCH   5   6
ATOM      6  C   UNL     1       9.124  39.518  43.949  1.00  0.00     0.006 C 
BRANCH   6   7
ATOM      7  C   UNL     1       9.980  40.697  43.470  1.00  0.00     0.053 C 
BRANCH   7   8
ATOM      8  C   UNL     1       9.530  41.153  42.119  1.00  0.00     0.041 C 
ATOM      9  O   UNL     1       8.399  40.815  41.681  1.00  0.00    -0.550 OA
ATOM     10  O   UNL     1      10.340  41.991  41.362  1.00  0.00    -0.550 OA
ENDBRANCH   7   8
ENDBRANCH   6   7
ENDBRANCH   5   6
ENDBRANCH   4   5
ENDBRANCH   3   4
ENDBRANCH   2   3
ENDBRANCH   1   2
BRANCH   1  11
ATOM     11  C   UNL     1       6.013  41.003  48.806  1.00  0.00     0.000 C 
BRANCH  11  12
ATOM     12  C   UNL     1       5.371  42.248  48.176  1.00  0.00     0.000 C 
BRANCH  12  13
ATOM     13  C   UNL     1       4.784  41.922  46.794  1.00  0.00     0.000 C 
BRANCH  13  14
ATOM     14  C   UNL     1       5.835  41.968  45.669  1.00  0.00     0.000 C 
BRANCH  14  15
ATOM     15  C   UNL     1       5.517  42.943  44.520  1.00  0.00     0.000 C 
BRANCH  15  16
ATOM     16  C   UNL     1       6.719  43.186  43.591  1.00  0.00     0.006 C 
BRANCH  16  17
ATOM     17  C   UNL     1       7.068  44.676  43.474  1.00  0.00     0.053 C 
BRANCH  17  18
ATOM     18  C   UNL     1       7.511  45.038  42.090  1.00  0.00     0.041 C 
ATOM     19  O   UNL     1       7.806  46.231  41.810  1.00  0.00    -0.550 OA
ATOM     20  O   UNL     1       7.626  44.055  41.115  1.00  0.00    -0.550 OA
ENDBRANCH  17  18
ENDBRANCH  16  17
ENDBRANCH  15  16
ENDBRANCH  14  15
ENDBRANCH  13  14
ENDBRANCH  12  13
ENDBRANCH  11  12
ENDBRANCH   1  11
TORSDOF 15
ENDMDL
MODEL 2
REMARK VINA RESULT:    -4.998      2.253      5.854
REMARK INTER + INTRA:         -10.790
REMARK INTER:                  -9.651
REMARK INTRA:                  -1.139
REMARK UNBOUND:                -1.410
REMARK SMILES O=C([O-])CCCCCCCCCCCCCCC(=O)[O-]
REMARK SMILES IDX 10 1 9 2 8 3 7 4 6 5 5 6 4 7 2 8 1 9 3 10 11 11 12 12 13 13
REMARK SMILES IDX 14 14 15 15 16 16 17 17 18 18 19 19 20 20
REMARK H PARENT
REMARK Flexibility Score: inf
ROOT
ATOM      1  C   UNL     1       5.852  41.386  48.697  1.00  0.00     0.000 C 
ENDROOT
BRANCH   1   2
ATOM      2  C   UNL     1       5.005  42.417  47.923  1.00  0.00     0.000 C 
BRANCH   2   3
ATOM      3  C   UNL     1       4.709  42.049  46.458  1.00  0.00     0.000 C 
BRANCH   3   4
ATOM      4  C   UNL     1       5.623  42.780  45.463  1.00  0.00     0.000 C 
BRANCH   4   5
ATOM      5  C   UNL     1       6.292  41.785  44.502  1.00  0.00     0.000 C 
BRANCH   5   6
ATOM      6  C   UNL     1       6.747  42.443  43.189  1.00  0.00     0.006 C 
BRANCH   6   7
ATOM      7  C   UNL     1       6.943  43.959  43.326  1.00  0.00     0.053 C 
BRANCH   7   8
ATOM      8  C   UNL     1       7.422  44.540  42.034  1.00  0.00     0.041 C 
ATOM      9  O   UNL     1       7.846  43.786  41.119  1.00  0.00    -0.550 OA
ATOM     10  O   UNL     1       7.355  45.912  41.821  1.00  0.00    -0.550 OA
ENDBRANCH   7   8
ENDBRANCH   6   7
ENDBRANCH   5   6
ENDBRANCH   4   5
ENDBRANCH   3   4
ENDBRANCH   2   3
ENDBRANCH   1   2
BRANCH   1  11
ATOM     11  C   UNL     1       6.221  40.119  47.906  1.00  0.00     0.000 C 
BRANCH  11  12
ATOM     12  C   UNL     1       7.730  39.836  47.902  1.00  0.00     0.000 C 
BRANCH  12  13
ATOM     13  C   UNL     1       8.444  40.654  48.989  1.00  0.00     0.000 C 
BRANCH  13  14
ATOM     14  C   UNL     1       9.934  40.294  49.131  1.00  0.00     0.000 C 
BRANCH  14  15
ATOM     15  C   UNL     1      10.332  38.925  48.548  1.00  0.00     0.000 C 
BRANCH  15  16
ATOM     16  C   UNL     1      11.797  38.553  48.839  1.00  0.00     0.006 C 
BRANCH  16  17
ATOM     17  C   UNL     1      12.782  39.543  48.203  1.00  0.00     0.053 C 
BRANCH  17  18
ATOM     18  C   UNL     1      12.590  39.647  46.722  1.00  0.00     0.041 C 
ATOM     19  O   UNL     1      12.829  38.657  45.980  1.00  0.00    -0.550 OA
ATOM     20  O   UNL     1      12.121  40.828  46.161  1.00  0.00    -0.550 OA
ENDBRANCH  17  18
ENDBRANCH  16  17
ENDBRANCH  15  16
ENDBRANCH  14  15
ENDBRANCH  13  14
ENDBRANCH  12  13
ENDBRANCH  11  12
ENDBRANCH   1  11
TORSDOF 15
ENDMDL
MODEL 3
REMARK VINA RESULT:    -4.941      1.925      2.693
REMARK INTER + INTRA:         -10.685
REMARK INTER:                  -9.386
REMARK INTRA:                  -1.299
REMARK UNBOUND:                -1.410
REMARK SMILES O=C([O-])CCCCCCCCCCCCCCC(=O)[O-]
REMARK SMILES IDX 10 1 9 2 8 3 7 4 6 5 5 6 4 7 2 8 1 9 3 10 11 11 12 12 13 13
REMARK SMILES IDX 14 14 15 15 16 16 17 17 18 18 19 19 20 20
REMARK H PARENT
REMARK Flexibility Score: inf
ROOT
ATOM      1  C   UNL     1       7.892  40.207  47.781  1.00  0.00     0.000 C 
ENDROOT
BRANCH   1   2
ATOM      2  C   UNL     1       8.838  40.519  48.959  1.00  0.00     0.000 C 
BRANCH   2   3
ATOM      3  C   UNL     1      10.133  39.686  48.994  1.00  0.00     0.000 C 
BRANCH   3   4
ATOM      4  C   UNL     1      11.385  40.541  49.239  1.00  0.00     0.000 C 
BRANCH   4   5
ATOM      5  C   UNL     1      12.479  40.216  48.210  1.00  0.00     0.000 C 
BRANCH   5   6
ATOM      6  C   UNL     1      12.196  40.831  46.829  1.00  0.00     0.006 C 
BRANCH   6   7
ATOM      7  C   UNL     1      12.140  39.778  45.715  1.00  0.00     0.053 C 
BRANCH   7   8
ATOM      8  C   UNL     1      10.721  39.487  45.343  1.00  0.00     0.041 C 
ATOM      9  O   UNL     1      10.056  40.325  44.677  1.00  0.00    -0.550 OA
ATOM     10  O   UNL     1      10.145  38.271  45.691  1.00  0.00    -0.550 OA
ENDBRANCH   7   8
ENDBRANCH   6   7
ENDBRANCH   5   6
ENDBRANCH   4   5
ENDBRANCH   3   4
ENDBRANCH   2   3
ENDBRANCH   1   2
BRANCH   1  11
ATOM     11  C   UNL     1       6.392  40.307  48.106  1.00  0.00     0.000 C 
BRANCH  11  12
ATOM     12  C   UNL     1       5.868  41.750  48.071  1.00  0.00     0.000 C 
BRANCH  12  13
ATOM     13  C   UNL     1       4.851  41.937  46.935  1.00  0.00     0.000 C 
BRANCH  13  14
ATOM     14  C   UNL     1       5.475  42.539  45.663  1.00  0.00     0.000 C 
BRANCH  14  15
ATOM     15  C   UNL     1       6.087  41.515  44.689  1.00  0.00     0.000 C 
BRANCH  15  16
ATOM     16  C   UNL     1       6.746  42.174  43.464  1.00  0.00     0.006 C 
BRANCH  16  17
ATOM     17  C   UNL     1       6.742  43.706  43.559  1.00  0.00     0.053 C 
BRANCH  17  18
ATOM     18  C   UNL     1       7.253  44.344  42.304  1.00  0.00     0.041 C 
ATOM     19  O   UNL     1       7.687  43.630  41.361  1.00  0.00    -0.550 OA
ATOM     20  O   UNL     1       7.225  45.725  42.164  1.00  0.00    -0.550 OA
ENDBRANCH  17  18
ENDBRANCH  16  17
ENDBRANCH  15  16
ENDBRANCH  14  15
ENDBRANCH  13  14
ENDBRANCH  12  13
ENDBRANCH  11  12
ENDBRANCH   1  11
TORSDOF 15
ENDMDL
MODEL 4
REMARK VINA RESULT:    -4.939      2.704      5.764
REMARK INTER + INTRA:         -10.681
REMARK INTER:                  -9.324
REMARK INTRA:                  -1.357
REMARK UNBOUND:                -1.410
REMARK SMILES O=C([O-])CCCCCCCCCCCCCCC(=O)[O-]
REMARK SMILES IDX 10 1 9 2 8 3 7 4 6 5 5 6 4 7 2 8 1 9 3 10 11 11 12 12 13 13
REMARK SMILES IDX 14 14 15 15 16 16 17 17 18 18 19 19 20 20
REMARK H PARENT
REMARK Flexibility Score: inf
ROOT
ATOM      1  C   UNL     1       6.064  41.775  44.906  1.00  0.00     0.000 C 
ENDROOT
BRANCH   1   2
ATOM      2  C   UNL     1       6.523  42.637  43.712  1.00  0.00     0.000 C 
BRANCH   2   3
ATOM      3  C   UNL     1       6.647  44.143  44.004  1.00  0.00     0.000 C 
BRANCH   3   4
ATOM      4  C   UNL     1       7.472  44.890  42.945  1.00  0.00     0.000 C 
BRANCH   4   5
ATOM      5  C   UNL     1       7.487  44.117  41.617  1.00  0.00     0.000 C 
BRANCH   5   6
ATOM      6  C   UNL     1       8.815  44.269  40.858  1.00  0.00     0.006 C 
BRANCH   6   7
ATOM      7  C   UNL     1      10.007  43.691  41.631  1.00  0.00     0.053 C 
BRANCH   7   8
ATOM      8  C   UNL     1       9.835  42.218  41.827  1.00  0.00     0.041 C 
ATOM      9  O   UNL     1       9.683  41.460  40.833  1.00  0.00    -0.550 OA
ATOM     10  O   UNL     1       9.892  41.674  43.105  1.00  0.00    -0.550 OA
ENDBRANCH   7   8
ENDBRANCH   6   7
ENDBRANCH   5   6
ENDBRANCH   4   5
ENDBRANCH   3   4
ENDBRANCH   2   3
ENDBRANCH   1   2
BRANCH   1  11
ATOM     11  C   UNL     1       5.232  42.519  45.965  1.00  0.00     0.000 C 
BRANCH  11  12
ATOM     12  C   UNL     1       4.834  41.625  47.149  1.00  0.00     0.000 C 
BRANCH  12  13
ATOM     13  C   UNL     1       5.346  42.210  48.474  1.00  0.00     0.000 C 
BRANCH  13  14
ATOM     14  C   UNL     1       6.573  41.462  49.027  1.00  0.00     0.000 C 
BRANCH  14  15
ATOM     15  C   UNL     1       6.911  40.143  48.308  1.00  0.00     0.000 C 
BRANCH  15  16
ATOM     16  C   UNL     1       8.315  40.146  47.679  1.00  0.00     0.006 C 
BRANCH  16  17
ATOM     17  C   UNL     1       9.424  40.111  48.740  1.00  0.00     0.053 C 
BRANCH  17  18
ATOM     18  C   UNL     1      10.263  38.875  48.629  1.00  0.00     0.041 C 
ATOM     19  O   UNL     1       9.741  37.784  48.277  1.00  0.00    -0.550 OA
ATOM     20  O   UNL     1      11.626  38.934  48.888  1.00  0.00    -0.550 OA
ENDBRANCH  17  18
ENDBRANCH  16  17
ENDBRANCH  15  16
ENDBRANCH  14  15
ENDBRANCH  13  14
ENDBRANCH  12  13
ENDBRANCH  11  12
ENDBRANCH   1  11
TORSDOF 15
ENDMDL
MODEL 5
REMARK VINA RESULT:    -4.924      3.235      4.128
REMARK INTER + INTRA:         -10.653
REMARK INTER:                  -9.690
REMARK INTRA:                  -0.963
REMARK UNBOUND:                -1.410
REMARK SMILES O=C([O-])CCCCCCCCCCCCCCC(=O)[O-]
REMARK SMILES IDX 10 1 9 2 8 3 7 4 6 5 5 6 4 7 2 8 1 9 3 10 11 11 12 12 13 13
REMARK SMILES IDX 14 14 15 15 16 16 17 17 18 18 19 19 20 20
REMARK H PARENT
REMARK Flexibility Score: inf
ROOT
ATOM      1  C   UNL     1       6.211  40.940  47.768  1.00  0.00     0.000 C 
ENDROOT
BRANCH   1   2
ATOM      2  C   UNL     1       7.149  41.054  48.988  1.00  0.00     0.000 C 
BRANCH   2   3
ATOM      3  C   UNL     1       8.603  40.613  48.736  1.00  0.00     0.000 C 
BRANCH   3   4
ATOM      4  C   UNL     1       8.704  39.192  48.162  1.00  0.00     0.000 C 
BRANCH   4   5
ATOM      5  C   UNL     1      10.019  39.005  47.391  1.00  0.00     0.000 C 
BRANCH   5   6
ATOM      6  C   UNL     1      10.973  40.201  47.547  1.00  0.00     0.006 C 
BRANCH   6   7
ATOM      7  C   UNL     1      12.364  39.786  48.041  1.00  0.00     0.053 C 
BRANCH   7   8
ATOM      8  C   UNL     1      12.264  39.102  49.367  1.00  0.00     0.041 C 
ATOM      9  O   UNL     1      11.781  39.711  50.359  1.00  0.00    -0.550 OA
ATOM     10  O   UNL     1      12.658  37.776  49.498  1.00  0.00    -0.550 OA
ENDBRANCH   7   8
ENDBRANCH   6   7
ENDBRANCH   5   6
ENDBRANCH   4   5
ENDBRANCH   3   4
ENDBRANCH   2   3
ENDBRANCH   1   2
BRANCH   1  11
ATOM     11  C   UNL     1       5.193  42.084  47.619  1.00  0.00     0.000 C 
BRANCH  11  12
ATOM     12  C   UNL     1       4.923  42.456  46.154  1.00  0.00     0.000 C 
BRANCH  12  13
ATOM     13  C   UNL     1       5.912  41.746  45.217  1.00  0.00     0.000 C 
BRANCH  13  14
ATOM     14  C   UNL     1       6.060  42.449  43.855  1.00  0.00     0.000 C 
BRANCH  14  15
ATOM     15  C   UNL     1       6.514  43.919  43.926  1.00  0.00     0.000 C 
BRANCH  15  16
ATOM     16  C   UNL     1       7.799  44.188  43.124  1.00  0.00     0.006 C 
BRANCH  16  17
ATOM     17  C   UNL     1       7.505  44.530  41.657  1.00  0.00     0.053 C 
BRANCH  17  18
ATOM     18  C   UNL     1       7.961  45.912  41.304  1.00  0.00     0.041 C 
ATOM     19  O   UNL     1       7.208  46.680  40.648  1.00  0.00    -0.550 OA
ATOM     20  O   UNL     1       9.206  46.363  41.723  1.00  0.00    -0.550 OA
ENDBRANCH  17  18
ENDBRANCH  16  17
ENDBRANCH  15  16
ENDBRANCH  14  15
ENDBRANCH  13  14
ENDBRANCH  12  13
ENDBRANCH  11  12
ENDBRANCH   1  11
TORSDOF 15
ENDMDL
MODEL 6
REMARK VINA RESULT:    -4.900      3.354      5.638
REMARK INTER + INTRA:         -10.608
REMARK INTER:                  -8.788
REMARK INTRA:                  -1.820
REMARK UNBOUND:                -1.410
REMARK SMILES O=C([O-])CCCCCCCCCCCCCCC(=O)[O-]
REMARK SMILES IDX 10 1 9 2 8 3 7 4 6 5 5 6 4 7 2 8 1 9 3 10 11 11 12 12 13 13
REMARK SMILES IDX 14 14 15 15 16 16 17 17 18 18 19 19 20 20
REMARK H PARENT
REMARK Flexibility Score: inf
ROOT
ATOM      1  C   UNL     1       7.559  43.579  41.543  1.00  0.00     0.000 C 
ENDROOT
BRANCH   1   2
ATOM      2  C   UNL     1       8.696  42.538  41.470  1.00  0.00     0.000 C 
BRANCH   2   3
ATOM      3  C   UNL     1       8.239  41.069  41.519  1.00  0.00     0.000 C 
BRANCH   3   4
ATOM      4  C   UNL     1       8.999  40.243  42.567  1.00  0.00     0.000 C 
BRANCH   4   5
ATOM      5  C   UNL     1       9.992  41.122  43.342  1.00  0.00     0.000 C 
BRANCH   5   6
ATOM      6  C   UNL     1      10.823  40.323  44.359  1.00  0.00     0.006 C 
BRANCH   6   7
ATOM      7  C   UNL     1      10.400  38.851  44.440  1.00  0.00     0.053 C 
BRANCH   7   8
ATOM      8  C   UNL     1      10.099  38.472  45.856  1.00  0.00     0.041 C 
ATOM      9  O   UNL     1      10.362  37.313  46.271  1.00  0.00    -0.550 OA
ATOM     10  O   UNL     1       9.574  39.415  46.731  1.00  0.00    -0.550 OA
ENDBRANCH   7   8
ENDBRANCH   6   7
ENDBRANCH   5   6
ENDBRANCH   4   5
ENDBRANCH   3   4
ENDBRANCH   2   3
ENDBRANCH   1   2
BRANCH   1  11
ATOM     11  C   UNL     1       7.757  44.687  42.593  1.00  0.00     0.000 C 
BRANCH  11  12
ATOM     12  C   UNL     1       7.007  44.407  43.904  1.00  0.00     0.000 C 
BRANCH  12  13
ATOM     13  C   UNL     1       6.042  43.222  43.741  1.00  0.00     0.000 C 
BRANCH  13  14
ATOM     14  C   UNL     1       5.816  42.447  45.052  1.00  0.00     0.000 C 
BRANCH  14  15
ATOM     15  C   UNL     1       6.483  41.060  45.114  1.00  0.00     0.000 C 
BRANCH  15  16
ATOM     16  C   UNL     1       6.174  40.304  46.418  1.00  0.00     0.006 C 
BRANCH  16  17
ATOM     17  C   UNL     1       5.369  41.160  47.405  1.00  0.00     0.053 C 
BRANCH  17  18
ATOM     18  C   UNL     1       6.131  41.424  48.667  1.00  0.00     0.041 C 
ATOM     19  O   UNL     1       5.582  42.030  49.624  1.00  0.00    -0.550 OA
ATOM     20  O   UNL     1       7.440  40.976  48.796  1.00  0.00    -0.550 OA
ENDBRANCH  17  18
ENDBRANCH  16  17
ENDBRANCH  15  16
ENDBRANCH  14  15
ENDBRANCH  13  14
ENDBRANCH  12  13
ENDBRANCH  11  12
ENDBRANCH   1  11
TORSDOF 15
ENDMDL
MODEL 7
REMARK VINA RESULT:    -4.885      3.030      5.756
REMARK INTER + INTRA:         -10.579
REMARK INTER:                  -8.736
REMARK INTRA:                  -1.843
REMARK UNBOUND:                -1.410
REMARK SMILES O=C([O-])CCCCCCCCCCCCCCC(=O)[O-]
REMARK SMILES IDX 10 1 9 2 8 3 7 4 6 5 5 6 4 7 2 8 1 9 3 10 11 11 12 12 13 13
REMARK SMILES IDX 14 14 15 15 16 16 17 17 18 18 19 19 20 20
REMARK H PARENT
REMARK Flexibility Score: inf
ROOT
ATOM      1  C   UNL     1       6.883  44.099  43.808  1.00  0.00     0.000 C 
ENDROOT
BRANCH   1   2
ATOM      2  C   UNL     1       7.901  44.316  42.669  1.00  0.00     0.000 C 
BRANCH   2   3
ATOM      3  C   UNL     1       7.811  43.305  41.512  1.00  0.00     0.000 C 
BRANCH   3   4
ATOM      4  C   UNL     1       9.037  42.385  41.427  1.00  0.00     0.000 C 
BRANCH   4   5
ATOM      5  C   UNL     1       8.776  41.056  42.153  1.00  0.00     0.000 C 
BRANCH   5   6
ATOM      6  C   UNL     1       9.583  40.923  43.454  1.00  0.00     0.006 C 
BRANCH   6   7
ATOM      7  C   UNL     1       9.049  39.813  44.369  1.00  0.00     0.053 C 
BRANCH   7   8
ATOM      8  C   UNL     1      10.177  39.142  45.086  1.00  0.00     0.041 C 
ATOM      9  O   UNL     1      10.209  37.886  45.181  1.00  0.00    -0.550 OA
ATOM     10  O   UNL     1      11.218  39.899  45.609  1.00  0.00    -0.550 OA
ENDBRANCH   7   8
ENDBRANCH   6   7
ENDBRANCH   5   6
ENDBRANCH   4   5
ENDBRANCH   3   4
ENDBRANCH   2   3
ENDBRANCH   1   2
BRANCH   1  11
ATOM     11  C   UNL     1       5.941  42.898  43.619  1.00  0.00     0.000 C 
BRANCH  11  12
ATOM     12  C   UNL     1       5.958  41.933  44.814  1.00  0.00     0.000 C 
BRANCH  12  13
ATOM     13  C   UNL     1       5.131  42.492  45.982  1.00  0.00     0.000 C 
BRANCH  13  14
ATOM     14  C   UNL     1       5.503  41.862  47.337  1.00  0.00     0.000 C 
BRANCH  14  15
ATOM     15  C   UNL     1       6.303  40.548  47.248  1.00  0.00     0.000 C 
BRANCH  15  16
ATOM     16  C   UNL     1       7.218  40.320  48.465  1.00  0.00     0.006 C 
BRANCH  16  17
ATOM     17  C   UNL     1       8.202  39.165  48.240  1.00  0.00     0.053 C 
BRANCH  17  18
ATOM     18  C   UNL     1       9.573  39.494  48.745  1.00  0.00     0.041 C 
ATOM     19  O   UNL     1       9.803  40.614  49.272  1.00  0.00    -0.550 OA
ATOM     20  O   UNL     1      10.591  38.552  48.661  1.00  0.00    -0.550 OA
ENDBRANCH  17  18
ENDBRANCH  16  17
ENDBRANCH  15  16
ENDBRANCH  14  15
ENDBRANCH  13  14
ENDBRANCH  12  13
ENDBRANCH  11  12
ENDBRANCH   1  11
TORSDOF 15
ENDMDL
MODEL 8
REMARK VINA RESULT:    -4.850      3.534      6.886
REMARK INTER + INTRA:         -10.513
REMARK INTER:                  -9.663
REMARK INTRA:                  -0.850
REMARK UNBOUND:                -1.410
REMARK SMILES O=C([O-])CCCCCCCCCCCCCCC(=O)[O-]
REMARK SMILES IDX 10 1 9 2 8 3 7 4 6 5 5 6 4 7 2 8 1 9 3 10 11 11 12 12 13 13
REMARK SMILES IDX 14 14 15 15 16 16 17 17 18 18 19 19 20 20
REMARK H PARENT
REMARK Flexibility Score: inf
ROOT
ATOM      1  C   UNL     1       6.786  40.167  48.157  1.00  0.00     0.000 C 
ENDROOT
BRANCH   1   2
ATOM      2  C   UNL     1       5.944  41.399  48.548  1.00  0.00     0.000 C 
BRANCH   2   3
ATOM      3  C   UNL     1       5.248  42.113  47.375  1.00  0.00     0.000 C 
BRANCH   3   4
ATOM      4  C   UNL     1       5.847  41.740  46.011  1.00  0.00     0.000 C 
BRANCH   4   5
ATOM      5  C   UNL     1       5.329  42.680  44.911  1.00  0.00     0.000 C 
BRANCH   5   6
ATOM      6  C   UNL     1       6.320  42.831  43.745  1.00  0.00     0.006 C 
BRANCH   6   7
ATOM      7  C   UNL     1       6.916  44.241  43.655  1.00  0.00     0.053 C 
BRANCH   7   8
ATOM      8  C   UNL     1       7.296  44.557  42.243  1.00  0.00     0.041 C 
ATOM      9  O   UNL     1       7.358  45.754  41.856  1.00  0.00    -0.550 OA
ATOM     10  O   UNL     1       7.630  43.532  41.367  1.00  0.00    -0.550 OA
ENDBRANCH   7   8
ENDBRANCH   6   7
ENDBRANCH   5   6
ENDBRANCH   4   5
ENDBRANCH   3   4
ENDBRANCH   2   3
ENDBRANCH   1   2
BRANCH   1  11
ATOM     11  C   UNL     1       8.282  40.262  48.504  1.00  0.00     0.000 C 
BRANCH  11  12
ATOM     12  C   UNL     1       9.114  39.134  47.876  1.00  0.00     0.000 C 
BRANCH  12  13
ATOM     13  C   UNL     1      10.384  38.867  48.699  1.00  0.00     0.000 C 
BRANCH  13  14
ATOM     14  C   UNL     1      11.269  40.116  48.861  1.00  0.00     0.000 C 
BRANCH  14  15
ATOM     15  C   UNL     1      11.950  40.605  47.568  1.00  0.00     0.000 C 
BRANCH  15  16
ATOM     16  C   UNL     1      13.453  40.276  47.522  1.00  0.00     0.006 C 
BRANCH  16  17
ATOM     17  C   UNL     1      13.720  38.872  46.962  1.00  0.00     0.053 C 
BRANCH  17  18
ATOM     18  C   UNL     1      14.357  37.977  47.980  1.00  0.00     0.041 C 
ATOM     19  O   UNL     1      13.642  37.279  48.746  1.00  0.00    -0.550 OA
ATOM     20  O   UNL     1      15.741  37.892  48.064  1.00  0.00    -0.550 OA
ENDBRANCH  17  18
ENDBRANCH  16  17
ENDBRANCH  15  16
ENDBRANCH  14  15
ENDBRANCH  13  14
ENDBRANCH  12  13
ENDBRANCH  11  12
ENDBRANCH   1  11
TORSDOF 15
ENDMDL
MODEL 9
REMARK VINA RESULT:    -4.824      4.486      6.757
REMARK INTER + INTRA:         -10.465
REMARK INTER:                  -9.159
REMARK INTRA:                  -1.306
REMARK UNBOUND:                -1.410
REMARK SMILES O=C([O-])CCCCCCCCCCCCCCC(=O)[O-]
REMARK SMILES IDX 10 1 9 2 8 3 7 4 6 5 5 6 4 7 2 8 1 9 3 10 11 11 12 12 13 13
REMARK SMILES IDX 14 14 15 15 16 16 17 17 18 18 19 19 20 20
REMARK H PARENT
REMARK Flexibility Score: inf
ROOT
ATOM      1  C   UNL     1      11.128  39.791  44.988  1.00  0.00     0.000 C 
ENDROOT
BRANCH   1   2
ATOM      2  C   UNL     1      10.165  38.587  44.909  1.00  0.00     0.000 C 
BRANCH   2   3
ATOM      3  C   UNL     1      10.811  37.216  45.177  1.00  0.00     0.000 C 
BRANCH   3   4
ATOM      4  C   UNL     1      10.510  36.189  44.076  1.00  0.00     0.000 C 
BRANCH   4   5
ATOM      5  C   UNL     1      10.388  34.775  44.665  1.00  0.00     0.000 C 
BRANCH   5   6
ATOM      6  C   UNL     1       9.863  33.752  43.646  1.00  0.00     0.006 C 
BRANCH   6   7
ATOM      7  C   UNL     1      10.568  33.855  42.288  1.00  0.00     0.053 C 
BRANCH   7   8
ATOM      8  C   UNL     1       9.654  33.408  41.191  1.00  0.00     0.041 C 
ATOM      9  O   UNL     1      10.121  33.111  40.059  1.00  0.00    -0.550 OA
ATOM     10  O   UNL     1       8.293  33.272  41.431  1.00  0.00    -0.550 OA
ENDBRANCH   7   8
ENDBRANCH   6   7
ENDBRANCH   5   6
ENDBRANCH   4   5
ENDBRANCH   3   4
ENDBRANCH   2   3
ENDBRANCH   1   2
BRANCH   1  11
ATOM     11  C   UNL     1      12.387  39.563  45.843  1.00  0.00     0.000 C 
BRANCH  11  12
ATOM     12  C   UNL     1      12.391  40.397  47.133  1.00  0.00     0.000 C 
BRANCH  12  13
ATOM     13  C   UNL     1      12.337  39.490  48.372  1.00  0.00     0.000 C 
BRANCH  13  14
ATOM     14  C   UNL     1      10.919  38.973  48.676  1.00  0.00     0.000 C 
BRANCH  14  15
ATOM     15  C   UNL     1       9.890  40.063  49.031  1.00  0.00     0.000 C 
BRANCH  15  16
ATOM     16  C   UNL     1       8.728  40.140  48.025  1.00  0.00     0.006 C 
BRANCH  16  17
ATOM     17  C   UNL     1       7.489  40.820  48.623  1.00  0.00     0.053 C 
BRANCH  17  18
ATOM     18  C   UNL     1       6.249  40.505  47.845  1.00  0.00     0.041 C 
ATOM     19  O   UNL     1       5.730  41.377  47.100  1.00  0.00    -0.550 OA
ATOM     20  O   UNL     1       5.683  39.239  47.920  1.00  0.00    -0.550 OA
ENDBRANCH  17  18
ENDBRANCH  16  17
ENDBRANCH  15  16
ENDBRANCH  14  15
ENDBRANCH  13  14
ENDBRANCH  12  13
ENDBRANCH  11  12
ENDBRANCH   1  11
TORSDOF 15
ENDMDL
