MODEL 1
REMARK VINA RESULT:    -4.921      0.000      0.000
REMARK INTER + INTRA:          -7.635
REMARK INTER:                  -7.511
REMARK INTRA:                  -0.124
REMARK UNBOUND:                -0.124
REMARK SMILES CCCCCCCCCCC(=O)[O-]
REMARK SMILES IDX 7 1 8 2 9 3 10 4 11 5 12 6 13 7 6 8 5 9 4 10 3 11 2 12 1 13
REMARK H PARENT
REMARK Flexibility Score: inf
ROOT
ATOM      1  C   UNL     1      -4.156   7.828   4.870  1.00  0.00     0.000 C 
ENDROOT
BRANCH   1   2
ATOM      2  C   UNL     1      -4.241   7.762   6.407  1.00  0.00     0.000 C 
BRANCH   2   3
ATOM      3  C   UNL     1      -5.341   6.833   6.956  1.00  0.00     0.006 C 
BRANCH   3   4
ATOM      4  C   UNL     1      -5.915   7.269   8.315  1.00  0.00     0.053 C 
BRANCH   4   5
ATOM      5  C   UNL     1      -7.291   6.723   8.543  1.00  0.00     0.041 C 
ATOM      6  O   UNL     1      -8.177   7.440   9.078  1.00  0.00    -0.550 OA
ATOM      7  O   UNL     1      -7.604   5.432   8.134  1.00  0.00    -0.550 OA
ENDBRANCH   4   5
ENDBRANCH   3   4
ENDBRANCH   2   3
ENDBRANCH   1   2
BRANCH   1   8
ATOM      8  C   UNL     1      -3.231   6.755   4.254  1.00  0.00     0.000 C 
BRANCH   8   9
ATOM      9  C   UNL     1      -3.417   5.377   4.915  1.00  0.00    -0.000 C 
BRANCH   9  10
ATOM     10  C   UNL     1      -2.082   4.675   5.207  1.00  0.00    -0.000 C 
BRANCH  10  11
ATOM     11  C   UNL     1      -2.268   3.266   5.792  1.00  0.00    -0.000 C 
BRANCH  11  12
ATOM     12  C   UNL     1      -2.307   3.310   7.324  1.00  0.00    -0.003 C 
ATOM     13  C   UNL     1      -1.112   2.576   7.926  1.00  0.00     0.004 C 
ENDBRANCH  11  12
ENDBRANCH  10  11
ENDBRANCH   9  10
ENDBRANCH   8   9
ENDBRANCH   1   8
TORSDOF 9
ENDMDL
MODEL 2
REMARK VINA RESULT:    -4.394     17.726     19.370
REMARK INTER + INTRA:          -6.830
REMARK INTER:                  -5.867
REMARK INTRA:                  -0.962
REMARK UNBOUND:                -0.124
REMARK SMILES CCCCCCCCCCC(=O)[O-]
REMARK SMILES IDX 7 1 8 2 9 3 10 4 11 5 12 6 13 7 6 8 5 9 4 10 3 11 2 12 1 13
REMARK H PARENT
REMARK Flexibility Score: inf
ROOT
ATOM      1  C   UNL     1      -0.523  -6.928  -7.939  1.00  0.00     0.000 C 
ENDROOT
BRANCH   1   2
ATOM      2  C   UNL     1      -0.096  -6.441  -6.541  1.00  0.00     0.000 C 
BRANCH   2   3
ATOM      3  C   UNL     1       0.639  -5.087  -6.522  1.00  0.00     0.006 C 
BRANCH   3   4
ATOM      4  C   UNL     1       2.136  -5.177  -6.866  1.00  0.00     0.053 C 
BRANCH   4   5
ATOM      5  C   UNL     1       2.381  -5.057  -8.339  1.00  0.00     0.041 C 
ATOM      6  O   UNL     1       3.011  -5.958  -8.952  1.00  0.00    -0.550 OA
ATOM      7  O   UNL     1       1.884  -3.965  -9.040  1.00  0.00    -0.550 OA
ENDBRANCH   4   5
ENDBRANCH   3   4
ENDBRANCH   2   3
ENDBRANCH   1   2
BRANCH   1   8
ATOM      8  C   UNL     1      -1.227  -5.845  -8.784  1.00  0.00     0.000 C 
BRANCH   8   9
ATOM      9  C   UNL     1      -2.599  -5.455  -8.205  1.00  0.00    -0.000 C 
BRANCH   9  10
ATOM     10  C   UNL     1      -2.737  -3.942  -7.971  1.00  0.00    -0.000 C 
BRANCH  10  11
ATOM     11  C   UNL     1      -1.701  -3.124  -8.759  1.00  0.00    -0.000 C 
BRANCH  11  12
ATOM     12  C   UNL     1      -1.005  -2.104  -7.851  1.00  0.00    -0.003 C 
ATOM     13  C   UNL     1      -0.968  -0.723  -8.501  1.00  0.00     0.004 C 
ENDBRANCH  11  12
ENDBRANCH  10  11
ENDBRANCH   9  10
ENDBRANCH   8   9
ENDBRANCH   1   8
TORSDOF 9
ENDMDL
MODEL 3
REMARK VINA RESULT:    -4.324     14.642     16.864
REMARK INTER + INTRA:          -6.724
REMARK INTER:                  -6.311
REMARK INTRA:                  -0.413
REMARK UNBOUND:                -0.124
REMARK SMILES CCCCCCCCCCC(=O)[O-]
REMARK SMILES IDX 7 1 8 2 9 3 10 4 11 5 12 6 13 7 6 8 5 9 4 10 3 11 2 12 1 13
REMARK H PARENT
REMARK Flexibility Score: inf
ROOT
ATOM      1  C   UNL     1       7.247   6.036  -3.124  1.00  0.00     0.000 C 
ENDROOT
BRANCH   1   2
ATOM      2  C   UNL     1       8.621   5.584  -3.655  1.00  0.00     0.000 C 
BRANCH   2   3
ATOM      3  C   UNL     1       8.745   5.554  -5.190  1.00  0.00     0.006 C 
BRANCH   3   4
ATOM      4  C   UNL     1       7.534   6.144  -5.932  1.00  0.00     0.053 C 
BRANCH   4   5
ATOM      5  C   UNL     1       7.551   5.805  -7.391  1.00  0.00     0.041 C 
ATOM      6  O   UNL     1       7.628   4.604  -7.762  1.00  0.00    -0.550 OA
ATOM      7  O   UNL     1       7.450   6.814  -8.341  1.00  0.00    -0.550 OA
ENDBRANCH   4   5
ENDBRANCH   3   4
ENDBRANCH   2   3
ENDBRANCH   1   2
BRANCH   1   8
ATOM      8  C   UNL     1       7.334   7.031  -1.947  1.00  0.00     0.000 C 
BRANCH   8   9
ATOM      9  C   UNL     1       6.180   8.050  -1.959  1.00  0.00    -0.000 C 
BRANCH   9  10
ATOM     10  C   UNL     1       6.675   9.505  -1.959  1.00  0.00    -0.000 C 
BRANCH  10  11
ATOM     11  C   UNL     1       5.690  10.466  -1.275  1.00  0.00    -0.000 C 
BRANCH  11  12
ATOM     12  C   UNL     1       4.242  10.008  -1.487  1.00  0.00    -0.003 C 
ATOM     13  C   UNL     1       3.587  10.767  -2.637  1.00  0.00     0.004 C 
ENDBRANCH  11  12
ENDBRANCH  10  11
ENDBRANCH   9  10
ENDBRANCH   8   9
ENDBRANCH   1   8
TORSDOF 9
ENDMDL
MODEL 4
REMARK VINA RESULT:    -4.310     17.182     18.715
REMARK INTER + INTRA:          -6.702
REMARK INTER:                  -5.832
REMARK INTRA:                  -0.870
REMARK UNBOUND:                -0.124
REMARK SMILES CCCCCCCCCCC(=O)[O-]
REMARK SMILES IDX 7 1 8 2 9 3 10 4 11 5 12 6 13 7 6 8 5 9 4 10 3 11 2 12 1 13
REMARK H PARENT
REMARK Flexibility Score: inf
ROOT
ATOM      1  C   UNL     1      -1.836  -6.029  -8.261  1.00  0.00     0.000 C 
ENDROOT
BRANCH   1   2
ATOM      2  C   UNL     1      -1.670  -4.713  -9.044  1.00  0.00     0.000 C 
BRANCH   2   3
ATOM      3  C   UNL     1      -2.183  -3.456  -8.315  1.00  0.00     0.006 C 
BRANCH   3   4
ATOM      4  C   UNL     1      -1.095  -2.681  -7.553  1.00  0.00     0.053 C 
BRANCH   4   5
ATOM      5  C   UNL     1      -0.590  -1.508  -8.335  1.00  0.00     0.041 C 
ATOM      6  O   UNL     1       0.454  -1.612  -9.032  1.00  0.00    -0.550 OA
ATOM      7  O   UNL     1      -1.291  -0.308  -8.321  1.00  0.00    -0.550 OA
ENDBRANCH   4   5
ENDBRANCH   3   4
ENDBRANCH   2   3
ENDBRANCH   1   2
BRANCH   1   8
ATOM      8  C   UNL     1      -0.534  -6.850  -8.146  1.00  0.00     0.000 C 
BRANCH   8   9
ATOM      9  C   UNL     1       0.038  -6.837  -6.717  1.00  0.00    -0.000 C 
BRANCH   9  10
ATOM     10  C   UNL     1       0.581  -5.459  -6.307  1.00  0.00    -0.000 C 
BRANCH  10  11
ATOM     11  C   UNL     1       2.004  -5.203  -6.828  1.00  0.00    -0.000 C 
BRANCH  11  12
ATOM     12  C   UNL     1       1.972  -4.666  -8.263  1.00  0.00    -0.003 C 
ATOM     13  C   UNL     1       2.768  -5.565  -9.206  1.00  0.00     0.004 C 
ENDBRANCH  11  12
ENDBRANCH  10  11
ENDBRANCH   9  10
ENDBRANCH   8   9
ENDBRANCH   1   8
TORSDOF 9
ENDMDL
MODEL 5
REMARK VINA RESULT:    -4.296     13.889     15.534
REMARK INTER + INTRA:          -6.681
REMARK INTER:                  -6.319
REMARK INTRA:                  -0.362
REMARK UNBOUND:                -0.124
REMARK SMILES CCCCCCCCCCC(=O)[O-]
REMARK SMILES IDX 7 1 8 2 9 3 10 4 11 5 12 6 13 7 6 8 5 9 4 10 3 11 2 12 1 13
REMARK H PARENT
REMARK Flexibility Score: inf
ROOT
ATOM      1  C   UNL     1       7.665   8.093  -2.805  1.00  0.00     0.000 C 
ENDROOT
BRANCH   1   2
ATOM      2  C   UNL     1       6.456   8.326  -1.879  1.00  0.00     0.000 C 
BRANCH   2   3
ATOM      3  C   UNL     1       6.283   9.778  -1.393  1.00  0.00     0.006 C 
BRANCH   3   4
ATOM      4  C   UNL     1       5.481  10.673  -2.353  1.00  0.00     0.053 C 
BRANCH   4   5
ATOM      5  C   UNL     1       4.007  10.590  -2.098  1.00  0.00     0.041 C 
ATOM      6  O   UNL     1       3.576  10.070  -1.035  1.00  0.00    -0.550 OA
ATOM      7  O   UNL     1       3.111  11.118  -3.019  1.00  0.00    -0.550 OA
ENDBRANCH   4   5
ENDBRANCH   3   4
ENDBRANCH   2   3
ENDBRANCH   1   2
BRANCH   1   8
ATOM      8  C   UNL     1       8.092   6.612  -2.905  1.00  0.00     0.000 C 
BRANCH   8   9
ATOM      9  C   UNL     1       7.247   5.828  -3.924  1.00  0.00    -0.000 C 
BRANCH   9  10
ATOM     10  C   UNL     1       8.037   5.456  -5.188  1.00  0.00    -0.000 C 
BRANCH  10  11
ATOM     11  C   UNL     1       7.930   6.521  -6.291  1.00  0.00    -0.000 C 
BRANCH  11  12
ATOM     12  C   UNL     1       7.540   5.885  -7.630  1.00  0.00    -0.003 C 
ATOM     13  C   UNL     1       8.279   4.568  -7.851  1.00  0.00     0.004 C 
ENDBRANCH  11  12
ENDBRANCH  10  11
ENDBRANCH   9  10
ENDBRANCH   8   9
ENDBRANCH   1   8
TORSDOF 9
ENDMDL
MODEL 6
REMARK VINA RESULT:    -4.289     16.700     18.604
REMARK INTER + INTRA:          -6.670
REMARK INTER:                  -6.107
REMARK INTRA:                  -0.563
REMARK UNBOUND:                -0.124
REMARK SMILES CCCCCCCCCCC(=O)[O-]
REMARK SMILES IDX 7 1 8 2 9 3 10 4 11 5 12 6 13 7 6 8 5 9 4 10 3 11 2 12 1 13
REMARK H PARENT
REMARK Flexibility Score: inf
ROOT
ATOM      1  C   UNL     1      -1.639  -4.145  -7.498  1.00  0.00     0.000 C 
ENDROOT
BRANCH   1   2
ATOM      2  C   UNL     1      -0.605  -5.209  -7.085  1.00  0.00     0.000 C 
BRANCH   2   3
ATOM      3  C   UNL     1       0.555  -4.683  -6.219  1.00  0.00     0.006 C 
BRANCH   3   4
ATOM      4  C   UNL     1       1.948  -5.143  -6.683  1.00  0.00     0.053 C 
BRANCH   4   5
ATOM      5  C   UNL     1       2.078  -5.117  -8.175  1.00  0.00     0.041 C 
ATOM      6  O   UNL     1       2.269  -6.185  -8.814  1.00  0.00    -0.550 OA
ATOM      7  O   UNL     1       1.956  -3.915  -8.863  1.00  0.00    -0.550 OA
ENDBRANCH   4   5
ENDBRANCH   3   4
ENDBRANCH   2   3
ENDBRANCH   1   2
BRANCH   1   8
ATOM      8  C   UNL     1      -1.226  -2.703  -7.130  1.00  0.00     0.000 C 
BRANCH   8   9
ATOM      9  C   UNL     1      -0.713  -1.914  -8.348  1.00  0.00    -0.000 C 
BRANCH   9  10
ATOM     10  C   UNL     1      -1.360  -0.525  -8.470  1.00  0.00    -0.000 C 
BRANCH  10  11
ATOM     11  C   UNL     1      -2.666  -0.549  -9.279  1.00  0.00    -0.000 C 
BRANCH  11  12
ATOM     12  C   UNL     1      -3.326   0.835  -9.292  1.00  0.00    -0.003 C 
ATOM     13  C   UNL     1      -2.795   1.709  -8.159  1.00  0.00     0.004 C 
ENDBRANCH  11  12
ENDBRANCH  10  11
ENDBRANCH   9  10
ENDBRANCH   8   9
ENDBRANCH   1   8
TORSDOF 9
ENDMDL
MODEL 7
REMARK VINA RESULT:    -4.284     17.952     20.043
REMARK INTER + INTRA:          -6.662
REMARK INTER:                  -5.719
REMARK INTRA:                  -0.943
REMARK UNBOUND:                -0.124
REMARK SMILES CCCCCCCCCCC(=O)[O-]
REMARK SMILES IDX 7 1 8 2 9 3 10 4 11 5 12 6 13 7 6 8 5 9 4 10 3 11 2 12 1 13
REMARK H PARENT
REMARK Flexibility Score: inf
ROOT
ATOM      1  C   UNL     1      -0.282  -6.780  -6.913  1.00  0.00     0.000 C 
ENDROOT
BRANCH   1   2
ATOM      2  C   UNL     1      -0.003  -7.478  -8.258  1.00  0.00     0.000 C 
BRANCH   2   3
ATOM      3  C   UNL     1       0.387  -6.532  -9.410  1.00  0.00     0.006 C 
BRANCH   3   4
ATOM      4  C   UNL     1       1.788  -6.788  -9.990  1.00  0.00     0.053 C 
BRANCH   4   5
ATOM      5  C   UNL     1       2.788  -5.784  -9.505  1.00  0.00     0.041 C 
ATOM      6  O   UNL     1       2.442  -4.589  -9.309  1.00  0.00    -0.550 OA
ATOM      7  O   UNL     1       4.094  -6.175  -9.236  1.00  0.00    -0.550 OA
ENDBRANCH   4   5
ENDBRANCH   3   4
ENDBRANCH   2   3
ENDBRANCH   1   2
BRANCH   1   8
ATOM      8  C   UNL     1       0.828  -5.796  -6.483  1.00  0.00     0.000 C 
BRANCH   8   9
ATOM      9  C   UNL     1       0.331  -4.340  -6.439  1.00  0.00    -0.000 C 
BRANCH   9  10
ATOM     10  C   UNL     1      -1.138  -4.201  -6.871  1.00  0.00    -0.000 C 
BRANCH  10  11
ATOM     11  C   UNL     1      -1.300  -3.402  -8.174  1.00  0.00    -0.000 C 
BRANCH  11  12
ATOM     12  C   UNL     1      -0.764  -1.975  -8.010  1.00  0.00    -0.003 C 
ATOM     13  C   UNL     1       0.318  -1.671  -9.042  1.00  0.00     0.004 C 
ENDBRANCH  11  12
ENDBRANCH  10  11
ENDBRANCH   9  10
ENDBRANCH   8   9
ENDBRANCH   1   8
TORSDOF 9
ENDMDL
MODEL 8
REMARK VINA RESULT:    -4.237     17.086     18.311
REMARK INTER + INTRA:          -6.590
REMARK INTER:                  -5.351
REMARK INTRA:                  -1.239
REMARK UNBOUND:                -0.124
REMARK SMILES CCCCCCCCCCC(=O)[O-]
REMARK SMILES IDX 7 1 8 2 9 3 10 4 11 5 12 6 13 7 6 8 5 9 4 10 3 11 2 12 1 13
REMARK H PARENT
REMARK Flexibility Score: inf
ROOT
ATOM      1  C   UNL     1      -0.034  -2.515  -9.395  1.00  0.00     0.000 C 
ENDROOT
BRANCH   1   2
ATOM      2  C   UNL     1      -0.571  -1.983  -8.053  1.00  0.00     0.000 C 
BRANCH   2   3
ATOM      3  C   UNL     1      -1.335  -3.018  -7.204  1.00  0.00     0.006 C 
BRANCH   3   4
ATOM      4  C   UNL     1      -2.095  -4.071  -8.028  1.00  0.00     0.053 C 
BRANCH   4   5
ATOM      5  C   UNL     1      -3.533  -3.701  -8.221  1.00  0.00     0.041 C 
ATOM      6  O   UNL     1      -4.416  -4.162  -7.450  1.00  0.00    -0.550 OA
ATOM      7  O   UNL     1      -3.894  -2.819  -9.233  1.00  0.00    -0.550 OA
ENDBRANCH   4   5
ENDBRANCH   3   4
ENDBRANCH   2   3
ENDBRANCH   1   2
BRANCH   1   8
ATOM      8  C   UNL     1       1.306  -3.272  -9.270  1.00  0.00     0.000 C 
BRANCH   8   9
ATOM      9  C   UNL     1       1.179  -4.752  -9.671  1.00  0.00    -0.000 C 
BRANCH   9  10
ATOM     10  C   UNL     1       1.717  -5.708  -8.595  1.00  0.00    -0.000 C 
BRANCH  10  11
ATOM     11  C   UNL     1       1.959  -5.007  -7.248  1.00  0.00    -0.000 C 
BRANCH  11  12
ATOM     12  C   UNL     1       0.931  -5.460  -6.204  1.00  0.00    -0.003 C 
ATOM     13  C   UNL     1       0.143  -6.671  -6.696  1.00  0.00     0.004 C 
ENDBRANCH  11  12
ENDBRANCH  10  11
ENDBRANCH   9  10
ENDBRANCH   8   9
ENDBRANCH   1   8
TORSDOF 9
ENDMDL
MODEL 9
REMARK VINA RESULT:    -4.226     17.662     19.194
REMARK INTER + INTRA:          -6.574
REMARK INTER:                  -5.665
REMARK INTRA:                  -0.909
REMARK UNBOUND:                -0.124
REMARK SMILES CCCCCCCCCCC(=O)[O-]
REMARK SMILES IDX 7 1 8 2 9 3 10 4 11 5 12 6 13 7 6 8 5 9 4 10 3 11 2 12 1 13
REMARK H PARENT
REMARK Flexibility Score: inf
ROOT
ATOM      1  C   UNL     1       2.015  -5.004  -7.203  1.00  0.00     0.000 C 
ENDROOT
BRANCH   1   2
ATOM      2  C   UNL     1       1.902  -4.672  -8.703  1.00  0.00     0.000 C 
BRANCH   2   3
ATOM      3  C   UNL     1       0.699  -3.786  -9.082  1.00  0.00     0.006 C 
BRANCH   3   4
ATOM      4  C   UNL     1       1.074  -2.345  -9.466  1.00  0.00     0.053 C 
BRANCH   4   5
ATOM      5  C   UNL     1      -0.054  -1.389  -9.224  1.00  0.00     0.041 C 
ATOM      6  O   UNL     1      -0.378  -0.554 -10.109  1.00  0.00    -0.550 OA
ATOM      7  O   UNL     1      -0.768  -1.443  -8.034  1.00  0.00    -0.550 OA
ENDBRANCH   4   5
ENDBRANCH   3   4
ENDBRANCH   2   3
ENDBRANCH   1   2
BRANCH   1   8
ATOM      8  C   UNL     1       0.776  -4.588  -6.381  1.00  0.00     0.000 C 
BRANCH   8   9
ATOM      9  C   UNL     1      -0.336  -5.652  -6.422  1.00  0.00    -0.000 C 
BRANCH   9  10
ATOM     10  C   UNL     1       0.196  -7.052  -6.767  1.00  0.00    -0.000 C 
BRANCH  10  11
ATOM     11  C   UNL     1      -0.558  -7.701  -7.937  1.00  0.00    -0.000 C 
BRANCH  11  12
ATOM     12  C   UNL     1      -1.612  -6.744  -8.507  1.00  0.00    -0.003 C 
ATOM     13  C   UNL     1      -1.470  -6.606 -10.020  1.00  0.00     0.004 C 
ENDBRANCH  11  12
ENDBRANCH  10  11
ENDBRANCH   9  10
ENDBRANCH   8   9
ENDBRANCH   1   8
TORSDOF 9
ENDMDL
