MODEL 1
REMARK VINA RESULT:    -5.442      0.000      0.000
REMARK INTER + INTRA:          -6.012
REMARK INTER:                  -6.555
REMARK INTRA:                   0.543
REMARK UNBOUND:                 0.543
REMARK SMILES O=c1c(O)c(-c2ccc(O)cc2O)oc2cc(O)cc(O)c12
REMARK SMILES IDX 5 1 3 2 2 3 1 4 22 5 20 6 19 7 17 8 16 9 15 10 14 11 6 12
REMARK SMILES IDX 8 13 7 14 9 15 11 16 12 17 10 18 13 20 4 22 21 24 18 26
REMARK H PARENT 10 19 13 21 4 23 21 25 18 27
REMARK Flexibility Score: inf
ROOT
ATOM      1  C   UNL     1      21.075 -45.421   8.156  1.00  0.00     0.184 A 
ATOM      2  C   UNL     1      19.676 -45.400   8.258  1.00  0.00     0.208 A 
ATOM      3  C   UNL     1      18.961 -46.589   8.047  1.00  0.00     0.238 A 
ATOM      4  O   UNL     1      17.702 -46.552   8.087  1.00  0.00    -0.285 OA
ATOM      5  C   UNL     1      19.656 -47.787   7.755  1.00  0.00     0.111 A 
ATOM      6  C   UNL     1      19.037 -49.059   7.562  1.00  0.00     0.134 A 
ATOM      7  C   UNL     1      19.811 -50.149   7.149  1.00  0.00     0.093 A 
ATOM      8  C   UNL     1      21.194 -50.030   6.984  1.00  0.00     0.123 A 
ATOM      9  C   UNL     1      21.816 -48.807   7.226  1.00  0.00     0.094 A 
ATOM     10  C   UNL     1      21.066 -47.692   7.604  1.00  0.00     0.146 A 
ATOM     11  O   UNL     1      21.697 -46.543   7.815  1.00  0.00    -0.451 OA
ENDROOT
BRANCH   1  12
ATOM     12  C   UNL     1      21.890 -44.208   8.381  1.00  0.00     0.063 A 
ATOM     13  C   UNL     1      22.013 -41.897   9.125  1.00  0.00     0.047 A 
ATOM     14  C   UNL     1      21.273 -43.062   8.905  1.00  0.00     0.020 A 
ATOM     15  C   UNL     1      23.377 -41.860   8.809  1.00  0.00     0.119 A 
ATOM     16  C   UNL     1      23.994 -42.991   8.266  1.00  0.00     0.093 A 
ATOM     17  C   UNL     1      23.257 -44.162   8.036  1.00  0.00     0.130 A 
BRANCH  15  18
ATOM     18  O   UNL     1      24.125 -40.706   9.028  1.00  0.00    -0.508 OA
ATOM     19  H   UNL     1      24.904 -40.695   9.677  1.00  0.00     0.293 HD
ENDBRANCH  15  18
BRANCH  17  20
ATOM     20  O   UNL     1      23.874 -45.266   7.448  1.00  0.00    -0.507 OA
ATOM     21  H   UNL     1      24.863 -45.448   7.567  1.00  0.00     0.293 HD
ENDBRANCH  17  20
ENDBRANCH   1  12
BRANCH   2  22
ATOM     22  O   UNL     1      19.014 -44.200   8.530  1.00  0.00    -0.502 OA
ATOM     23  H   UNL     1      18.045 -44.044   8.274  1.00  0.00     0.293 HD
ENDBRANCH   2  22
BRANCH   6  24
ATOM     24  O   UNL     1      17.680 -49.307   7.790  1.00  0.00    -0.507 OA
ATOM     25  H   UNL     1      16.928 -48.967   7.211  1.00  0.00     0.293 HD
ENDBRANCH   6  24
BRANCH   8  26
ATOM     26  O   UNL     1      21.959 -51.124   6.588  1.00  0.00    -0.508 OA
ATOM     27  H   UNL     1      21.789 -51.599   5.709  1.00  0.00     0.293 HD
ENDBRANCH   8  26
TORSDOF 6
ENDMDL
MODEL 2
REMARK VINA RESULT:    -5.099      1.354      3.080
REMARK INTER + INTRA:          -5.600
REMARK INTER:                  -5.246
REMARK INTRA:                  -0.353
REMARK UNBOUND:                 0.543
REMARK SMILES O=c1c(O)c(-c2ccc(O)cc2O)oc2cc(O)cc(O)c12
REMARK SMILES IDX 5 1 3 2 2 3 1 4 22 5 20 6 19 7 17 8 16 9 15 10 14 11 6 12
REMARK SMILES IDX 8 13 7 14 9 15 11 16 12 17 10 18 13 20 4 22 21 24 18 26
REMARK H PARENT 10 19 13 21 4 23 21 25 18 27
REMARK Flexibility Score: inf
ROOT
ATOM      1  C   UNL     1      22.013 -45.934   7.636  1.00  0.00     0.184 A 
ATOM      2  C   UNL     1      22.747 -46.748   6.759  1.00  0.00     0.208 A 
ATOM      3  C   UNL     1      22.250 -48.019   6.434  1.00  0.00     0.238 A 
ATOM      4  O   UNL     1      22.940 -48.765   5.690  1.00  0.00    -0.285 OA
ATOM      5  C   UNL     1      21.017 -48.454   6.978  1.00  0.00     0.111 A 
ATOM      6  C   UNL     1      20.399 -49.707   6.687  1.00  0.00     0.134 A 
ATOM      7  C   UNL     1      19.245 -50.086   7.383  1.00  0.00     0.093 A 
ATOM      8  C   UNL     1      18.650 -49.229   8.312  1.00  0.00     0.123 A 
ATOM      9  C   UNL     1      19.213 -47.979   8.560  1.00  0.00     0.094 A 
ATOM     10  C   UNL     1      20.384 -47.588   7.909  1.00  0.00     0.146 A 
ATOM     11  O   UNL     1      20.894 -46.393   8.183  1.00  0.00    -0.451 OA
ENDROOT
BRANCH   1  12
ATOM     12  C   UNL     1      22.471 -44.579   8.006  1.00  0.00     0.063 A 
ATOM     13  C   UNL     1      24.125 -43.171   9.098  1.00  0.00     0.047 A 
ATOM     14  C   UNL     1      23.667 -44.437   8.728  1.00  0.00     0.020 A 
ATOM     15  C   UNL     1      23.385 -42.030   8.764  1.00  0.00     0.119 A 
ATOM     16  C   UNL     1      22.182 -42.162   8.066  1.00  0.00     0.093 A 
ATOM     17  C   UNL     1      21.711 -43.432   7.696  1.00  0.00     0.130 A 
BRANCH  15  18
ATOM     18  O   UNL     1      23.835 -40.762   9.125  1.00  0.00    -0.508 OA
ATOM     19  H   UNL     1      23.408 -39.922   8.750  1.00  0.00     0.293 HD
ENDBRANCH  15  18
BRANCH  17  20
ATOM     20  O   UNL     1      20.485 -43.553   7.043  1.00  0.00    -0.507 OA
ATOM     21  H   UNL     1      20.177 -44.434   6.649  1.00  0.00     0.293 HD
ENDBRANCH  17  20
ENDBRANCH   1  12
BRANCH   2  22
ATOM     22  O   UNL     1      23.970 -46.301   6.251  1.00  0.00    -0.502 OA
ATOM     23  H   UNL     1      24.859 -46.633   6.606  1.00  0.00     0.293 HD
ENDBRANCH   2  22
BRANCH   6  24
ATOM     24  O   UNL     1      20.860 -50.595   5.711  1.00  0.00    -0.507 OA
ATOM     25  H   UNL     1      20.547 -51.548   5.606  1.00  0.00     0.293 HD
ENDBRANCH   6  24
BRANCH   8  26
ATOM     26  O   UNL     1      17.492 -49.608   8.988  1.00  0.00    -0.508 OA
ATOM     27  H   UNL     1      16.574 -49.487   8.576  1.00  0.00     0.293 HD
ENDBRANCH   8  26
TORSDOF 6
ENDMDL
MODEL 3
REMARK VINA RESULT:    -4.397      2.137      6.201
REMARK INTER + INTRA:          -4.754
REMARK INTER:                  -4.801
REMARK INTRA:                   0.047
REMARK UNBOUND:                 0.543
REMARK SMILES O=c1c(O)c(-c2ccc(O)cc2O)oc2cc(O)cc(O)c12
REMARK SMILES IDX 5 1 3 2 2 3 1 4 22 5 20 6 19 7 17 8 16 9 15 10 14 11 6 12
REMARK SMILES IDX 8 13 7 14 9 15 11 16 12 17 10 18 13 20 4 22 21 24 18 26
REMARK H PARENT 10 19 13 21 4 23 21 25 18 27
REMARK Flexibility Score: inf
ROOT
ATOM      1  C   UNL     1      21.056 -47.331   6.087  1.00  0.00     0.184 A 
ATOM      2  C   UNL     1      19.670 -47.468   6.256  1.00  0.00     0.208 A 
ATOM      3  C   UNL     1      18.969 -46.473   6.955  1.00  0.00     0.238 A 
ATOM      4  O   UNL     1      17.734 -46.628   7.150  1.00  0.00    -0.285 OA
ATOM      5  C   UNL     1      19.661 -45.346   7.461  1.00  0.00     0.111 A 
ATOM      6  C   UNL     1      19.046 -44.258   8.149  1.00  0.00     0.134 A 
ATOM      7  C   UNL     1      19.846 -43.260   8.719  1.00  0.00     0.093 A 
ATOM      8  C   UNL     1      21.235 -43.277   8.569  1.00  0.00     0.123 A 
ATOM      9  C   UNL     1      21.841 -44.304   7.848  1.00  0.00     0.094 A 
ATOM     10  C   UNL     1      21.073 -45.333   7.299  1.00  0.00     0.146 A 
ATOM     11  O   UNL     1      21.690 -46.298   6.629  1.00  0.00    -0.451 OA
ENDROOT
BRANCH   1  12
ATOM     12  C   UNL     1      21.852 -48.334   5.348  1.00  0.00     0.063 A 
ATOM     13  C   UNL     1      23.383 -48.841   3.529  1.00  0.00     0.047 A 
ATOM     14  C   UNL     1      22.623 -47.918   4.252  1.00  0.00     0.020 A 
ATOM     15  C   UNL     1      23.369 -50.195   3.884  1.00  0.00     0.119 A 
ATOM     16  C   UNL     1      22.586 -50.623   4.960  1.00  0.00     0.093 A 
ATOM     17  C   UNL     1      21.815 -49.702   5.688  1.00  0.00     0.130 A 
BRANCH  15  18
ATOM     18  O   UNL     1      24.125 -51.123   3.173  1.00  0.00    -0.508 OA
ATOM     19  H   UNL     1      25.133 -51.045   3.105  1.00  0.00     0.293 HD
ENDBRANCH  15  18
BRANCH  17  20
ATOM     20  O   UNL     1      21.000 -50.150   6.728  1.00  0.00    -0.507 OA
ATOM     21  H   UNL     1      20.004 -49.963   6.741  1.00  0.00     0.293 HD
ENDBRANCH  17  20
ENDBRANCH   1  12
BRANCH   2  22
ATOM     22  O   UNL     1      19.015 -48.599   5.763  1.00  0.00    -0.502 OA
ATOM     23  H   UNL     1      18.322 -48.547   5.025  1.00  0.00     0.293 HD
ENDBRANCH   2  22
BRANCH   6  24
ATOM     24  O   UNL     1      17.663 -44.097   8.276  1.00  0.00    -0.507 OA
ATOM     25  H   UNL     1      17.166 -43.238   8.104  1.00  0.00     0.293 HD
ENDBRANCH   6  24
BRANCH   8  26
ATOM     26  O   UNL     1      22.022 -42.272   9.125  1.00  0.00    -0.508 OA
ATOM     27  H   UNL     1      21.609 -41.472   9.592  1.00  0.00     0.293 HD
ENDBRANCH   8  26
TORSDOF 6
ENDMDL
MODEL 4
REMARK VINA RESULT:    -4.160      2.944      4.923
REMARK INTER + INTRA:          -4.468
REMARK INTER:                  -4.243
REMARK INTRA:                  -0.225
REMARK UNBOUND:                 0.543
REMARK SMILES O=c1c(O)c(-c2ccc(O)cc2O)oc2cc(O)cc(O)c12
REMARK SMILES IDX 5 1 3 2 2 3 1 4 22 5 20 6 19 7 17 8 16 9 15 10 14 11 6 12
REMARK SMILES IDX 8 13 7 14 9 15 11 16 12 17 10 18 13 20 4 22 21 24 18 26
REMARK H PARENT 10 19 13 21 4 23 21 25 18 27
REMARK Flexibility Score: inf
ROOT
ATOM      1  C   UNL     1      20.095 -47.509   7.353  1.00  0.00     0.184 A 
ATOM      2  C   UNL     1      20.362 -48.704   8.038  1.00  0.00     0.208 A 
ATOM      3  C   UNL     1      21.410 -49.523   7.592  1.00  0.00     0.238 A 
ATOM      4  O   UNL     1      21.611 -50.620   8.178  1.00  0.00    -0.285 OA
ATOM      5  C   UNL     1      22.188 -49.128   6.477  1.00  0.00     0.111 A 
ATOM      6  C   UNL     1      23.300 -49.861   5.963  1.00  0.00     0.134 A 
ATOM      7  C   UNL     1      23.914 -49.442   4.776  1.00  0.00     0.093 A 
ATOM      8  C   UNL     1      23.498 -48.281   4.121  1.00  0.00     0.123 A 
ATOM      9  C   UNL     1      22.452 -47.526   4.647  1.00  0.00     0.094 A 
ATOM     10  C   UNL     1      21.795 -47.938   5.809  1.00  0.00     0.146 A 
ATOM     11  O   UNL     1      20.796 -47.196   6.271  1.00  0.00    -0.451 OA
ENDROOT
BRANCH   1  12
ATOM     12  C   UNL     1      19.016 -46.593   7.779  1.00  0.00     0.063 A 
ATOM     13  C   UNL     1      16.673 -46.257   8.333  1.00  0.00     0.047 A 
ATOM     14  C   UNL     1      17.716 -47.098   7.936  1.00  0.00     0.020 A 
ATOM     15  C   UNL     1      16.914 -44.898   8.564  1.00  0.00     0.119 A 
ATOM     16  C   UNL     1      18.201 -44.381   8.388  1.00  0.00     0.093 A 
ATOM     17  C   UNL     1      19.253 -45.217   7.983  1.00  0.00     0.130 A 
BRANCH  15  18
ATOM     18  O   UNL     1      15.882 -44.051   8.963  1.00  0.00    -0.508 OA
ATOM     19  H   UNL     1      14.930 -44.192   8.647  1.00  0.00     0.293 HD
ENDBRANCH  15  18
BRANCH  17  20
ATOM     20  O   UNL     1      20.521 -44.679   7.763  1.00  0.00    -0.507 OA
ATOM     21  H   UNL     1      21.358 -45.132   8.111  1.00  0.00     0.293 HD
ENDBRANCH  17  20
ENDBRANCH   1  12
BRANCH   2  22
ATOM     22  O   UNL     1      19.567 -49.079   9.125  1.00  0.00    -0.502 OA
ATOM     23  H   UNL     1      18.920 -48.439   9.570  1.00  0.00     0.293 HD
ENDBRANCH   2  22
BRANCH   6  24
ATOM     24  O   UNL     1      23.852 -50.982   6.590  1.00  0.00    -0.507 OA
ATOM     25  H   UNL     1      23.321 -51.704   7.049  1.00  0.00     0.293 HD
ENDBRANCH   6  24
BRANCH   8  26
ATOM     26  O   UNL     1      24.125 -47.863   2.949  1.00  0.00    -0.508 OA
ATOM     27  H   UNL     1      23.618 -47.787   2.075  1.00  0.00     0.293 HD
ENDBRANCH   8  26
TORSDOF 6
ENDMDL
MODEL 5
REMARK VINA RESULT:    -3.759      3.256      4.929
REMARK INTER + INTRA:          -3.985
REMARK INTER:                  -3.648
REMARK INTRA:                  -0.337
REMARK UNBOUND:                 0.543
REMARK SMILES O=c1c(O)c(-c2ccc(O)cc2O)oc2cc(O)cc(O)c12
REMARK SMILES IDX 5 1 3 2 2 3 1 4 22 5 20 6 19 7 17 8 16 9 15 10 14 11 6 12
REMARK SMILES IDX 8 13 7 14 9 15 11 16 12 17 10 18 13 20 4 22 21 24 18 26
REMARK H PARENT 10 19 13 21 4 23 21 25 18 27
REMARK Flexibility Score: inf
ROOT
ATOM      1  C   UNL     1      20.166 -46.935   7.143  1.00  0.00     0.184 A 
ATOM      2  C   UNL     1      20.739 -46.645   5.896  1.00  0.00     0.208 A 
ATOM      3  C   UNL     1      21.867 -47.370   5.482  1.00  0.00     0.238 A 
ATOM      4  O   UNL     1      22.410 -47.070   4.385  1.00  0.00    -0.285 OA
ATOM      5  C   UNL     1      22.397 -48.386   6.314  1.00  0.00     0.111 A 
ATOM      6  C   UNL     1      23.512 -49.211   5.978  1.00  0.00     0.134 A 
ATOM      7  C   UNL     1      24.030 -50.095   6.932  1.00  0.00     0.093 A 
ATOM      8  C   UNL     1      23.432 -50.231   8.187  1.00  0.00     0.123 A 
ATOM      9  C   UNL     1      22.307 -49.473   8.504  1.00  0.00     0.094 A 
ATOM     10  C   UNL     1      21.789 -48.556   7.587  1.00  0.00     0.146 A 
ATOM     11  O   UNL     1      20.722 -47.846   7.932  1.00  0.00    -0.451 OA
ENDROOT
BRANCH   1  12
ATOM     12  C   UNL     1      18.968 -46.220   7.633  1.00  0.00     0.063 A 
ATOM     13  C   UNL     1      17.931 -44.132   8.320  1.00  0.00     0.047 A 
ATOM     14  C   UNL     1      19.043 -44.836   7.853  1.00  0.00     0.020 A 
ATOM     15  C   UNL     1      16.733 -44.806   8.587  1.00  0.00     0.119 A 
ATOM     16  C   UNL     1      16.655 -46.188   8.393  1.00  0.00     0.093 A 
ATOM     17  C   UNL     1      17.770 -46.903   7.929  1.00  0.00     0.130 A 
BRANCH  15  18
ATOM     18  O   UNL     1      15.617 -44.113   9.050  1.00  0.00    -0.508 OA
ATOM     19  H   UNL     1      15.679 -43.468   9.829  1.00  0.00     0.293 HD
ENDBRANCH  15  18
BRANCH  17  20
ATOM     20  O   UNL     1      17.694 -48.289   7.787  1.00  0.00    -0.507 OA
ATOM     21  H   UNL     1      16.979 -48.833   8.256  1.00  0.00     0.293 HD
ENDBRANCH  17  20
ENDBRANCH   1  12
BRANCH   2  22
ATOM     22  O   UNL     1      20.208 -45.625   5.103  1.00  0.00    -0.502 OA
ATOM     23  H   UNL     1      20.780 -45.067   4.480  1.00  0.00     0.293 HD
ENDBRANCH   2  22
BRANCH   6  24
ATOM     24  O   UNL     1      24.125 -49.219   4.721  1.00  0.00    -0.507 OA
ATOM     25  H   UNL     1      24.197 -50.026   4.122  1.00  0.00     0.293 HD
ENDBRANCH   6  24
BRANCH   8  26
ATOM     26  O   UNL     1      23.944 -51.125   9.125  1.00  0.00    -0.508 OA
ATOM     27  H   UNL     1      23.689 -52.106   9.116  1.00  0.00     0.293 HD
ENDBRANCH   8  26
TORSDOF 6
ENDMDL
