MODEL 1
REMARK VINA RESULT:    -3.113      0.000      0.000
REMARK INTER + INTRA:          -7.781
REMARK INTER:                  -5.661
REMARK INTRA:                  -2.120
REMARK UNBOUND:                -2.120
REMARK SMILES CCCCCCCCCCCCCC[C@H](C)C(=O)[O-]
REMARK SMILES IDX 9 1 10 2 11 3 12 4 13 5 14 6 15 7 16 8 17 9 18 10 19 11 8 12
REMARK SMILES IDX 7 13 6 14 5 15 4 16 3 17 2 18 1 19
REMARK H PARENT
REMARK Flexibility Score: inf
ROOT
ATOM      1  C   UNL     1       3.519  20.634   4.754  1.00  0.00     0.000 C 
ENDROOT
BRANCH   1   2
ATOM      2  C   UNL     1       4.363  19.432   5.211  1.00  0.00     0.000 C 
BRANCH   2   3
ATOM      3  C   UNL     1       5.419  19.817   6.260  1.00  0.00     0.000 C 
BRANCH   3   4
ATOM      4  C   UNL     1       5.545  18.778   7.384  1.00  0.00     0.000 C 
BRANCH   4   5
ATOM      5  C   UNL     1       5.053  17.403   6.917  1.00  0.00     0.001 C 
BRANCH   5   6
ATOM      6  C   UNL     1       4.024  16.821   7.900  1.00  0.00     0.009 C 
BRANCH   6   7
ATOM      7  C   UNL     1       4.509  15.503   8.537  1.00  0.00     0.032 C 
ATOM      8  C   UNL     1       5.815  15.723   9.308  1.00  0.00     0.014 C 
BRANCH   7   9
ATOM      9  C   UNL     1       4.700  14.427   7.502  1.00  0.00     0.044 C 
ATOM     10  O   UNL     1       5.853  13.995   7.231  1.00  0.00    -0.550 OA
ATOM     11  O   UNL     1       3.599  13.900   6.838  1.00  0.00    -0.550 OA
ENDBRANCH   7   9
ENDBRANCH   6   7
ENDBRANCH   5   6
ENDBRANCH   4   5
ENDBRANCH   3   4
ENDBRANCH   2   3
ENDBRANCH   1   2
BRANCH   1  12
ATOM     12  C   UNL     1       2.073  20.581   5.277  1.00  0.00     0.000 C 
BRANCH  12  13
ATOM     13  C   UNL     1       1.871  19.751   6.561  1.00  0.00    -0.000 C 
BRANCH  13  14
ATOM     14  C   UNL     1       1.685  20.573   7.853  1.00  0.00    -0.000 C 
BRANCH  14  15
ATOM     15  C   UNL     1       2.378  19.990   9.098  1.00  0.00    -0.000 C 
BRANCH  15  16
ATOM     16  C   UNL     1       1.523  20.110  10.368  1.00  0.00    -0.000 C 
BRANCH  16  17
ATOM     17  C   UNL     1       2.119  19.273  11.510  1.00  0.00    -0.000 C 
BRANCH  17  18
ATOM     18  C   UNL     1       3.423  18.568  11.109  1.00  0.00    -0.003 C 
ATOM     19  C   UNL     1       3.670  17.287  11.904  1.00  0.00     0.004 C 
ENDBRANCH  17  18
ENDBRANCH  16  17
ENDBRANCH  15  16
ENDBRANCH  14  15
ENDBRANCH  13  14
ENDBRANCH  12  13
ENDBRANCH   1  12
TORSDOF 14
ENDMDL
MODEL 2
REMARK VINA RESULT:    -3.005      1.224      2.768
REMARK INTER + INTRA:          -7.585
REMARK INTER:                  -5.048
REMARK INTRA:                  -2.537
REMARK UNBOUND:                -2.120
REMARK SMILES CCCCCCCCCCCCCC[C@H](C)C(=O)[O-]
REMARK SMILES IDX 9 1 10 2 11 3 12 4 13 5 14 6 15 7 16 8 17 9 18 10 19 11 8 12
REMARK SMILES IDX 7 13 6 14 5 15 4 16 3 17 2 18 1 19
REMARK H PARENT
REMARK Flexibility Score: inf
ROOT
ATOM      1  C   UNL     1       1.267  20.736   7.611  1.00  0.00     0.000 C 
ENDROOT
BRANCH   1   2
ATOM      2  C   UNL     1       1.670  19.857   6.415  1.00  0.00     0.000 C 
BRANCH   2   3
ATOM      3  C   UNL     1       3.058  20.217   5.859  1.00  0.00     0.000 C 
BRANCH   3   4
ATOM      4  C   UNL     1       4.017  19.018   5.835  1.00  0.00     0.000 C 
BRANCH   4   5
ATOM      5  C   UNL     1       3.657  18.007   6.931  1.00  0.00     0.001 C 
BRANCH   5   6
ATOM      6  C   UNL     1       4.647  16.830   6.941  1.00  0.00     0.009 C 
BRANCH   6   7
ATOM      7  C   UNL     1       4.038  15.565   7.582  1.00  0.00     0.032 C 
ATOM      8  C   UNL     1       4.321  15.533   9.088  1.00  0.00     0.014 C 
BRANCH   7   9
ATOM      9  C   UNL     1       4.563  14.312   6.935  1.00  0.00     0.044 C 
ATOM     10  O   UNL     1       5.788  14.196   6.661  1.00  0.00    -0.550 OA
ATOM     11  O   UNL     1       3.694  13.270   6.635  1.00  0.00    -0.550 OA
ENDBRANCH   7   9
ENDBRANCH   6   7
ENDBRANCH   5   6
ENDBRANCH   4   5
ENDBRANCH   3   4
ENDBRANCH   2   3
ENDBRANCH   1   2
BRANCH   1  12
ATOM     12  C   UNL     1       2.475  21.388   8.307  1.00  0.00     0.000 C 
BRANCH  12  13
ATOM     13  C   UNL     1       2.564  21.147   9.827  1.00  0.00    -0.000 C 
BRANCH  13  14
ATOM     14  C   UNL     1       2.041  19.778  10.307  1.00  0.00    -0.000 C 
BRANCH  14  15
ATOM     15  C   UNL     1       3.133  18.735  10.608  1.00  0.00    -0.000 C 
BRANCH  15  16
ATOM     16  C   UNL     1       4.499  19.372  10.902  1.00  0.00    -0.000 C 
BRANCH  16  17
ATOM     17  C   UNL     1       5.554  18.897   9.891  1.00  0.00    -0.000 C 
BRANCH  17  18
ATOM     18  C   UNL     1       5.975  20.004   8.913  1.00  0.00    -0.003 C 
ATOM     19  C   UNL     1       7.269  19.675   8.170  1.00  0.00     0.004 C 
ENDBRANCH  17  18
ENDBRANCH  16  17
ENDBRANCH  15  16
ENDBRANCH  14  15
ENDBRANCH  13  14
ENDBRANCH  12  13
ENDBRANCH   1  12
TORSDOF 14
ENDMDL
MODEL 3
REMARK VINA RESULT:    -2.966      1.056      3.999
REMARK INTER + INTRA:          -7.514
REMARK INTER:                  -5.581
REMARK INTRA:                  -1.934
REMARK UNBOUND:                -2.120
REMARK SMILES CCCCCCCCCCCCCC[C@H](C)C(=O)[O-]
REMARK SMILES IDX 9 1 10 2 11 3 12 4 13 5 14 6 15 7 16 8 17 9 18 10 19 11 8 12
REMARK SMILES IDX 7 13 6 14 5 15 4 16 3 17 2 18 1 19
REMARK H PARENT
REMARK Flexibility Score: inf
ROOT
ATOM      1  C   UNL     1       3.411  18.013  10.596  1.00  0.00     0.000 C 
ENDROOT
BRANCH   1   2
ATOM      2  C   UNL     1       4.875  18.100  11.061  1.00  0.00     0.000 C 
BRANCH   2   3
ATOM      3  C   UNL     1       5.786  18.772  10.020  1.00  0.00     0.000 C 
BRANCH   3   4
ATOM      4  C   UNL     1       5.221  18.688   8.595  1.00  0.00     0.000 C 
BRANCH   4   5
ATOM      5  C   UNL     1       5.562  17.340   7.948  1.00  0.00     0.001 C 
BRANCH   5   6
ATOM      6  C   UNL     1       4.345  16.758   7.211  1.00  0.00     0.009 C 
BRANCH   6   7
ATOM      7  C   UNL     1       4.022  15.320   7.668  1.00  0.00     0.032 C 
ATOM      8  C   UNL     1       4.680  15.021   9.020  1.00  0.00     0.014 C 
BRANCH   7   9
ATOM      9  C   UNL     1       4.461  14.304   6.648  1.00  0.00     0.044 C 
ATOM     10  O   UNL     1       3.695  13.362   6.309  1.00  0.00    -0.550 OA
ATOM     11  O   UNL     1       5.722  14.402   6.071  1.00  0.00    -0.550 OA
ENDBRANCH   7   9
ENDBRANCH   6   7
ENDBRANCH   5   6
ENDBRANCH   4   5
ENDBRANCH   3   4
ENDBRANCH   2   3
ENDBRANCH   1   2
BRANCH   1  12
ATOM     12  C   UNL     1       2.476  18.942  11.390  1.00  0.00     0.000 C 
BRANCH  12  13
ATOM     13  C   UNL     1       1.868  20.106  10.580  1.00  0.00    -0.000 C 
BRANCH  13  14
ATOM     14  C   UNL     1       2.122  20.052   9.060  1.00  0.00    -0.000 C 
BRANCH  14  15
ATOM     15  C   UNL     1       1.317  21.070   8.232  1.00  0.00    -0.000 C 
BRANCH  15  16
ATOM     16  C   UNL     1       0.910  20.528   6.854  1.00  0.00    -0.000 C 
BRANCH  16  17
ATOM     17  C   UNL     1       2.037  19.682   6.242  1.00  0.00    -0.000 C 
BRANCH  17  18
ATOM     18  C   UNL     1       2.986  20.509   5.363  1.00  0.00    -0.003 C 
ATOM     19  C   UNL     1       4.293  19.778   5.056  1.00  0.00     0.004 C 
ENDBRANCH  17  18
ENDBRANCH  16  17
ENDBRANCH  15  16
ENDBRANCH  14  15
ENDBRANCH  13  14
ENDBRANCH  12  13
ENDBRANCH   1  12
TORSDOF 14
ENDMDL
MODEL 4
REMARK VINA RESULT:    -2.913      1.553      4.077
REMARK INTER + INTRA:          -7.417
REMARK INTER:                  -5.463
REMARK INTRA:                  -1.954
REMARK UNBOUND:                -2.120
REMARK SMILES CCCCCCCCCCCCCC[C@H](C)C(=O)[O-]
REMARK SMILES IDX 9 1 10 2 11 3 12 4 13 5 14 6 15 7 16 8 17 9 18 10 19 11 8 12
REMARK SMILES IDX 7 13 6 14 5 15 4 16 3 17 2 18 1 19
REMARK H PARENT
REMARK Flexibility Score: inf
ROOT
ATOM      1  C   UNL     1       1.517  20.019  10.738  1.00  0.00     0.000 C 
ENDROOT
BRANCH   1   2
ATOM      2  C   UNL     1       2.826  20.155   9.941  1.00  0.00     0.000 C 
BRANCH   2   3
ATOM      3  C   UNL     1       3.371  18.798   9.465  1.00  0.00     0.000 C 
BRANCH   3   4
ATOM      4  C   UNL     1       4.271  18.921   8.227  1.00  0.00     0.000 C 
BRANCH   4   5
ATOM      5  C   UNL     1       3.945  17.827   7.202  1.00  0.00     0.001 C 
BRANCH   5   6
ATOM      6  C   UNL     1       4.322  16.437   7.740  1.00  0.00     0.009 C 
BRANCH   6   7
ATOM      7  C   UNL     1       5.218  15.656   6.757  1.00  0.00     0.032 C 
ATOM      8  C   UNL     1       5.714  16.573   5.633  1.00  0.00     0.014 C 
BRANCH   7   9
ATOM      9  C   UNL     1       4.496  14.473   6.172  1.00  0.00     0.044 C 
ATOM     10  O   UNL     1       4.746  14.084   4.999  1.00  0.00    -0.550 OA
ATOM     11  O   UNL     1       3.543  13.799   6.927  1.00  0.00    -0.550 OA
ENDBRANCH   7   9
ENDBRANCH   6   7
ENDBRANCH   5   6
ENDBRANCH   4   5
ENDBRANCH   3   4
ENDBRANCH   2   3
ENDBRANCH   1   2
BRANCH   1  12
ATOM     12  C   UNL     1       0.395  20.926  10.203  1.00  0.00     0.000 C 
BRANCH  12  13
ATOM     13  C   UNL     1       0.653  21.535   8.809  1.00  0.00    -0.000 C 
BRANCH  13  14
ATOM     14  C   UNL     1      -0.499  21.370   7.797  1.00  0.00    -0.000 C 
BRANCH  14  15
ATOM     15  C   UNL     1      -0.127  20.613   6.509  1.00  0.00    -0.000 C 
BRANCH  15  16
ATOM     16  C   UNL     1       1.349  20.190   6.471  1.00  0.00    -0.000 C 
BRANCH  16  17
ATOM     17  C   UNL     1       2.027  20.682   5.184  1.00  0.00    -0.000 C 
BRANCH  17  18
ATOM     18  C   UNL     1       3.413  21.292   5.442  1.00  0.00    -0.003 C 
ATOM     19  C   UNL     1       3.427  22.240   6.640  1.00  0.00     0.004 C 
ENDBRANCH  17  18
ENDBRANCH  16  17
ENDBRANCH  15  16
ENDBRANCH  14  15
ENDBRANCH  13  14
ENDBRANCH  12  13
ENDBRANCH   1  12
TORSDOF 14
ENDMDL
MODEL 5
REMARK VINA RESULT:    -2.908      1.437      4.440
REMARK INTER + INTRA:          -7.408
REMARK INTER:                  -5.845
REMARK INTRA:                  -1.562
REMARK UNBOUND:                -2.120
REMARK SMILES CCCCCCCCCCCCCC[C@H](C)C(=O)[O-]
REMARK SMILES IDX 9 1 10 2 11 3 12 4 13 5 14 6 15 7 16 8 17 9 18 10 19 11 8 12
REMARK SMILES IDX 7 13 6 14 5 15 4 16 3 17 2 18 1 19
REMARK H PARENT
REMARK Flexibility Score: inf
ROOT
ATOM      1  C   UNL     1       2.526  19.107  11.133  1.00  0.00     0.000 C 
ENDROOT
BRANCH   1   2
ATOM      2  C   UNL     1       3.940  18.538  11.345  1.00  0.00     0.000 C 
BRANCH   2   3
ATOM      3  C   UNL     1       3.972  17.002  11.290  1.00  0.00     0.000 C 
BRANCH   3   4
ATOM      4  C   UNL     1       4.943  16.466  10.228  1.00  0.00     0.000 C 
BRANCH   4   5
ATOM      5  C   UNL     1       4.325  15.288   9.465  1.00  0.00     0.001 C 
BRANCH   5   6
ATOM      6  C   UNL     1       4.493  15.465   7.947  1.00  0.00     0.009 C 
BRANCH   6   7
ATOM      7  C   UNL     1       5.182  14.250   7.292  1.00  0.00     0.032 C 
ATOM      8  C   UNL     1       6.619  14.596   6.888  1.00  0.00     0.014 C 
BRANCH   7   9
ATOM      9  C   UNL     1       4.415  13.761   6.093  1.00  0.00     0.044 C 
ATOM     10  O   UNL     1       3.545  12.857   6.213  1.00  0.00    -0.550 OA
ATOM     11  O   UNL     1       4.665  14.308   4.840  1.00  0.00    -0.550 OA
ENDBRANCH   7   9
ENDBRANCH   6   7
ENDBRANCH   5   6
ENDBRANCH   4   5
ENDBRANCH   3   4
ENDBRANCH   2   3
ENDBRANCH   1   2
BRANCH   1  12
ATOM     12  C   UNL     1       2.320  19.686   9.722  1.00  0.00     0.000 C 
BRANCH  12  13
ATOM     13  C   UNL     1       3.616  19.963   8.933  1.00  0.00    -0.000 C 
BRANCH  13  14
ATOM     14  C   UNL     1       3.899  18.989   7.771  1.00  0.00    -0.000 C 
BRANCH  14  15
ATOM     15  C   UNL     1       2.869  19.027   6.627  1.00  0.00    -0.000 C 
BRANCH  15  16
ATOM     16  C   UNL     1       2.891  20.351   5.849  1.00  0.00    -0.000 C 
BRANCH  16  17
ATOM     17  C   UNL     1       1.466  20.807   5.503  1.00  0.00    -0.000 C 
BRANCH  17  18
ATOM     18  C   UNL     1       0.482  20.610   6.666  1.00  0.00    -0.003 C 
ATOM     19  C   UNL     1      -0.975  20.564   6.207  1.00  0.00     0.004 C 
ENDBRANCH  17  18
ENDBRANCH  16  17
ENDBRANCH  15  16
ENDBRANCH  14  15
ENDBRANCH  13  14
ENDBRANCH  12  13
ENDBRANCH   1  12
TORSDOF 14
ENDMDL
MODEL 6
REMARK VINA RESULT:    -2.908      1.359      2.499
REMARK INTER + INTRA:          -7.408
REMARK INTER:                  -5.023
REMARK INTRA:                  -2.385
REMARK UNBOUND:                -2.120
REMARK SMILES CCCCCCCCCCCCCC[C@H](C)C(=O)[O-]
REMARK SMILES IDX 9 1 10 2 11 3 12 4 13 5 14 6 15 7 16 8 17 9 18 10 19 11 8 12
REMARK SMILES IDX 7 13 6 14 5 15 4 16 3 17 2 18 1 19
REMARK H PARENT
REMARK Flexibility Score: inf
ROOT
ATOM      1  C   UNL     1       1.088  21.445   7.517  1.00  0.00     0.000 C 
ENDROOT
BRANCH   1   2
ATOM      2  C   UNL     1       1.377  20.716   6.193  1.00  0.00     0.000 C 
BRANCH   2   3
ATOM      3  C   UNL     1       2.204  19.436   6.393  1.00  0.00     0.000 C 
BRANCH   3   4
ATOM      4  C   UNL     1       3.602  19.527   5.765  1.00  0.00     0.000 C 
BRANCH   4   5
ATOM      5  C   UNL     1       4.455  18.312   6.149  1.00  0.00     0.001 C 
BRANCH   5   6
ATOM      6  C   UNL     1       3.732  17.434   7.183  1.00  0.00     0.009 C 
BRANCH   6   7
ATOM      7  C   UNL     1       4.643  16.320   7.739  1.00  0.00     0.032 C 
ATOM      8  C   UNL     1       6.076  16.833   7.919  1.00  0.00     0.014 C 
BRANCH   7   9
ATOM      9  C   UNL     1       4.640  15.108   6.847  1.00  0.00     0.044 C 
ATOM     10  O   UNL     1       5.515  14.970   5.950  1.00  0.00    -0.550 OA
ATOM     11  O   UNL     1       3.668  14.129   7.010  1.00  0.00    -0.550 OA
ENDBRANCH   7   9
ENDBRANCH   6   7
ENDBRANCH   5   6
ENDBRANCH   4   5
ENDBRANCH   3   4
ENDBRANCH   2   3
ENDBRANCH   1   2
BRANCH   1  12
ATOM     12  C   UNL     1       2.213  22.413   7.924  1.00  0.00     0.000 C 
BRANCH  12  13
ATOM     13  C   UNL     1       2.944  22.053   9.234  1.00  0.00    -0.000 C 
BRANCH  13  14
ATOM     14  C   UNL     1       4.197  21.169   9.066  1.00  0.00    -0.000 C 
BRANCH  14  15
ATOM     15  C   UNL     1       4.147  19.824   9.812  1.00  0.00    -0.000 C 
BRANCH  15  16
ATOM     16  C   UNL     1       2.713  19.360  10.109  1.00  0.00    -0.000 C 
BRANCH  16  17
ATOM     17  C   UNL     1       2.582  18.880  11.562  1.00  0.00    -0.000 C 
BRANCH  17  18
ATOM     18  C   UNL     1       1.265  19.327  12.216  1.00  0.00    -0.003 C 
ATOM     19  C   UNL     1       0.593  20.476  11.464  1.00  0.00     0.004 C 
ENDBRANCH  17  18
ENDBRANCH  16  17
ENDBRANCH  15  16
ENDBRANCH  14  15
ENDBRANCH  13  14
ENDBRANCH  12  13
ENDBRANCH   1  12
TORSDOF 14
ENDMDL
MODEL 7
REMARK VINA RESULT:    -2.883      1.736      3.699
REMARK INTER + INTRA:          -7.363
REMARK INTER:                  -5.295
REMARK INTRA:                  -2.068
REMARK UNBOUND:                -2.120
REMARK SMILES CCCCCCCCCCCCCC[C@H](C)C(=O)[O-]
REMARK SMILES IDX 9 1 10 2 11 3 12 4 13 5 14 6 15 7 16 8 17 9 18 10 19 11 8 12
REMARK SMILES IDX 7 13 6 14 5 15 4 16 3 17 2 18 1 19
REMARK H PARENT
REMARK Flexibility Score: inf
ROOT
ATOM      1  C   UNL     1       4.019  17.541   7.415  1.00  0.00     0.000 C 
ENDROOT
BRANCH   1   2
ATOM      2  C   UNL     1       5.353  17.689   6.664  1.00  0.00     0.000 C 
BRANCH   2   3
ATOM      3  C   UNL     1       5.188  17.570   5.140  1.00  0.00     0.000 C 
BRANCH   3   4
ATOM      4  C   UNL     1       5.868  16.318   4.566  1.00  0.00     0.000 C 
BRANCH   4   5
ATOM      5  C   UNL     1       4.893  15.135   4.527  1.00  0.00     0.001 C 
BRANCH   5   6
ATOM      6  C   UNL     1       5.391  13.981   5.413  1.00  0.00     0.009 C 
BRANCH   6   7
ATOM      7  C   UNL     1       4.434  13.696   6.589  1.00  0.00     0.032 C 
ATOM      8  C   UNL     1       5.116  14.000   7.927  1.00  0.00     0.014 C 
BRANCH   7   9
ATOM      9  C   UNL     1       3.948  12.271   6.573  1.00  0.00     0.044 C 
ATOM     10  O   UNL     1       4.251  11.480   7.507  1.00  0.00    -0.550 OA
ATOM     11  O   UNL     1       3.159  11.820   5.522  1.00  0.00    -0.550 OA
ENDBRANCH   7   9
ENDBRANCH   6   7
ENDBRANCH   5   6
ENDBRANCH   4   5
ENDBRANCH   3   4
ENDBRANCH   2   3
ENDBRANCH   1   2
BRANCH   1  12
ATOM     12  C   UNL     1       4.200  17.441   8.940  1.00  0.00     0.000 C 
BRANCH  12  13
ATOM     13  C   UNL     1       3.550  18.579   9.753  1.00  0.00    -0.000 C 
BRANCH  13  14
ATOM     14  C   UNL     1       4.135  19.984   9.499  1.00  0.00    -0.000 C 
BRANCH  14  15
ATOM     15  C   UNL     1       3.090  21.086   9.247  1.00  0.00    -0.000 C 
BRANCH  15  16
ATOM     16  C   UNL     1       1.710  20.524   8.875  1.00  0.00    -0.000 C 
BRANCH  16  17
ATOM     17  C   UNL     1       1.265  21.030   7.495  1.00  0.00    -0.000 C 
BRANCH  17  18
ATOM     18  C   UNL     1       1.491  19.994   6.384  1.00  0.00    -0.003 C 
ATOM     19  C   UNL     1       2.632  20.378   5.442  1.00  0.00     0.004 C 
ENDBRANCH  17  18
ENDBRANCH  16  17
ENDBRANCH  15  16
ENDBRANCH  14  15
ENDBRANCH  13  14
ENDBRANCH  12  13
ENDBRANCH   1  12
TORSDOF 14
ENDMDL
MODEL 8
REMARK VINA RESULT:    -2.860      1.279      4.080
REMARK INTER + INTRA:          -7.320
REMARK INTER:                  -5.202
REMARK INTRA:                  -2.118
REMARK UNBOUND:                -2.120
REMARK SMILES CCCCCCCCCCCCCC[C@H](C)C(=O)[O-]
REMARK SMILES IDX 9 1 10 2 11 3 12 4 13 5 14 6 15 7 16 8 17 9 18 10 19 11 8 12
REMARK SMILES IDX 7 13 6 14 5 15 4 16 3 17 2 18 1 19
REMARK H PARENT
REMARK Flexibility Score: inf
ROOT
ATOM      1  C   UNL     1       2.599  21.339   9.514  1.00  0.00     0.000 C 
ENDROOT
BRANCH   1   2
ATOM      2  C   UNL     1       2.093  19.976  10.017  1.00  0.00     0.000 C 
BRANCH   2   3
ATOM      3  C   UNL     1       3.147  18.866   9.871  1.00  0.00     0.000 C 
BRANCH   3   4
ATOM      4  C   UNL     1       4.329  19.282   8.985  1.00  0.00     0.000 C 
BRANCH   4   5
ATOM      5  C   UNL     1       4.955  18.062   8.297  1.00  0.00     0.001 C 
BRANCH   5   6
ATOM      6  C   UNL     1       3.887  17.232   7.567  1.00  0.00     0.009 C 
BRANCH   6   7
ATOM      7  C   UNL     1       4.097  15.716   7.761  1.00  0.00     0.032 C 
ATOM      8  C   UNL     1       4.495  15.405   9.208  1.00  0.00     0.014 C 
BRANCH   7   9
ATOM      9  C   UNL     1       5.136  15.177   6.816  1.00  0.00     0.044 C 
ATOM     10  O   UNL     1       6.321  14.990   7.204  1.00  0.00    -0.550 OA
ATOM     11  O   UNL     1       4.793  14.881   5.502  1.00  0.00    -0.550 OA
ENDBRANCH   7   9
ENDBRANCH   6   7
ENDBRANCH   5   6
ENDBRANCH   4   5
ENDBRANCH   3   4
ENDBRANCH   2   3
ENDBRANCH   1   2
BRANCH   1  12
ATOM     12  C   UNL     1       1.797  21.866   8.311  1.00  0.00     0.000 C 
BRANCH  12  13
ATOM     13  C   UNL     1       0.625  20.970   7.861  1.00  0.00    -0.000 C 
BRANCH  13  14
ATOM     14  C   UNL     1       0.776  20.346   6.458  1.00  0.00    -0.000 C 
BRANCH  14  15
ATOM     15  C   UNL     1       2.228  20.183   5.974  1.00  0.00    -0.000 C 
BRANCH  15  16
ATOM     16  C   UNL     1       2.518  20.966   4.684  1.00  0.00    -0.000 C 
BRANCH  16  17
ATOM     17  C   UNL     1       3.945  20.692   4.186  1.00  0.00    -0.000 C 
BRANCH  17  18
ATOM     18  C   UNL     1       4.633  19.556   4.958  1.00  0.00    -0.003 C 
ATOM     19  C   UNL     1       5.499  18.672   4.061  1.00  0.00     0.004 C 
ENDBRANCH  17  18
ENDBRANCH  16  17
ENDBRANCH  15  16
ENDBRANCH  14  15
ENDBRANCH  13  14
ENDBRANCH  12  13
ENDBRANCH   1  12
TORSDOF 14
ENDMDL
MODEL 9
REMARK VINA RESULT:    -2.784      1.387      3.984
REMARK INTER + INTRA:          -7.183
REMARK INTER:                  -5.125
REMARK INTRA:                  -2.058
REMARK UNBOUND:                -2.120
REMARK SMILES CCCCCCCCCCCCCC[C@H](C)C(=O)[O-]
REMARK SMILES IDX 9 1 10 2 11 3 12 4 13 5 14 6 15 7 16 8 17 9 18 10 19 11 8 12
REMARK SMILES IDX 7 13 6 14 5 15 4 16 3 17 2 18 1 19
REMARK H PARENT
REMARK Flexibility Score: inf
ROOT
ATOM      1  C   UNL     1       3.240  18.286  10.403  1.00  0.00     0.000 C 
ENDROOT
BRANCH   1   2
ATOM      2  C   UNL     1       4.768  18.371  10.246  1.00  0.00     0.000 C 
BRANCH   2   3
ATOM      3  C   UNL     1       5.383  17.058   9.734  1.00  0.00     0.000 C 
BRANCH   3   4
ATOM      4  C   UNL     1       4.378  15.898   9.722  1.00  0.00     0.000 C 
BRANCH   4   5
ATOM      5  C   UNL     1       4.322  15.236   8.339  1.00  0.00     0.001 C 
BRANCH   5   6
ATOM      6  C   UNL     1       5.168  13.952   8.307  1.00  0.00     0.009 C 
BRANCH   6   7
ATOM      7  C   UNL     1       5.695  13.638   6.892  1.00  0.00     0.032 C 
ATOM      8  C   UNL     1       6.819  14.605   6.506  1.00  0.00     0.014 C 
BRANCH   7   9
ATOM      9  C   UNL     1       4.594  13.696   5.867  1.00  0.00     0.044 C 
ATOM     10  O   UNL     1       4.630  14.544   4.934  1.00  0.00    -0.550 OA
ATOM     11  O   UNL     1       3.526  12.811   5.946  1.00  0.00    -0.550 OA
ENDBRANCH   7   9
ENDBRANCH   6   7
ENDBRANCH   5   6
ENDBRANCH   4   5
ENDBRANCH   3   4
ENDBRANCH   2   3
ENDBRANCH   1   2
BRANCH   1  12
ATOM     12  C   UNL     1       2.627  19.569  10.991  1.00  0.00     0.000 C 
BRANCH  12  13
ATOM     13  C   UNL     1       1.671  20.329  10.049  1.00  0.00    -0.000 C 
BRANCH  13  14
ATOM     14  C   UNL     1       2.277  20.742   8.692  1.00  0.00    -0.000 C 
BRANCH  14  15
ATOM     15  C   UNL     1       1.383  20.461   7.470  1.00  0.00    -0.000 C 
BRANCH  15  16
ATOM     16  C   UNL     1       2.142  19.785   6.319  1.00  0.00    -0.000 C 
BRANCH  16  17
ATOM     17  C   UNL     1       3.609  19.536   6.701  1.00  0.00    -0.000 C 
BRANCH  17  18
ATOM     18  C   UNL     1       4.141  18.199   6.165  1.00  0.00    -0.003 C 
ATOM     19  C   UNL     1       5.665  18.099   6.233  1.00  0.00     0.004 C 
ENDBRANCH  17  18
ENDBRANCH  16  17
ENDBRANCH  15  16
ENDBRANCH  14  15
ENDBRANCH  13  14
ENDBRANCH  12  13
ENDBRANCH   1  12
TORSDOF 14
ENDMDL
