MODEL 1
REMARK VINA RESULT:    -4.209      0.000      0.000
REMARK INTER + INTRA:          -9.052
REMARK INTER:                  -7.655
REMARK INTRA:                  -1.397
REMARK UNBOUND:                -1.397
REMARK SMILES CCCCCCCCCCCCCC[C@H](C)C(=O)[O-]
REMARK SMILES IDX 9 1 10 2 11 3 12 4 13 5 14 6 15 7 16 8 17 9 18 10 19 11 8 12
REMARK SMILES IDX 7 13 6 14 5 15 4 16 3 17 2 18 1 19
REMARK H PARENT
REMARK Flexibility Score: inf
ROOT
ATOM      1  C   UNL     1      59.044  34.895  50.959  1.00  0.00     0.000 C 
ENDROOT
BRANCH   1   2
ATOM      2  C   UNL     1      58.634  35.315  52.378  1.00  0.00     0.000 C 
BRANCH   2   3
ATOM      3  C   UNL     1      57.592  36.440  52.338  1.00  0.00     0.000 C 
BRANCH   3   4
ATOM      4  C   UNL     1      57.443  37.102  53.712  1.00  0.00     0.000 C 
BRANCH   4   5
ATOM      5  C   UNL     1      58.623  36.750  54.625  1.00  0.00     0.001 C 
BRANCH   5   6
ATOM      6  C   UNL     1      59.011  37.942  55.512  1.00  0.00     0.009 C 
BRANCH   6   7
ATOM      7  C   UNL     1      59.540  37.495  56.890  1.00  0.00     0.032 C 
ATOM      8  C   UNL     1      58.994  38.403  57.997  1.00  0.00     0.014 C 
BRANCH   7   9
ATOM      9  C   UNL     1      61.045  37.501  56.926  1.00  0.00     0.044 C 
ATOM     10  O   UNL     1      61.650  37.488  58.030  1.00  0.00    -0.550 OA
ATOM     11  O   UNL     1      61.776  37.523  55.744  1.00  0.00    -0.550 OA
ENDBRANCH   7   9
ENDBRANCH   6   7
ENDBRANCH   5   6
ENDBRANCH   4   5
ENDBRANCH   3   4
ENDBRANCH   2   3
ENDBRANCH   1   2
BRANCH   1  12
ATOM     12  C   UNL     1      58.607  35.908  49.885  1.00  0.00     0.000 C 
BRANCH  12  13
ATOM     13  C   UNL     1      58.325  35.307  48.494  1.00  0.00    -0.000 C 
BRANCH  13  14
ATOM     14  C   UNL     1      58.940  36.077  47.312  1.00  0.00    -0.000 C 
BRANCH  14  15
ATOM     15  C   UNL     1      59.612  37.390  47.739  1.00  0.00    -0.000 C 
BRANCH  15  16
ATOM     16  C   UNL     1      61.109  37.377  47.395  1.00  0.00    -0.000 C 
BRANCH  16  17
ATOM     17  C   UNL     1      62.001  37.610  48.624  1.00  0.00    -0.000 C 
BRANCH  17  18
ATOM     18  C   UNL     1      62.416  36.300  49.311  1.00  0.00    -0.003 C 
ATOM     19  C   UNL     1      62.411  35.136  48.324  1.00  0.00     0.004 C 
ENDBRANCH  17  18
ENDBRANCH  16  17
ENDBRANCH  15  16
ENDBRANCH  14  15
ENDBRANCH  13  14
ENDBRANCH  12  13
ENDBRANCH   1  12
TORSDOF 14
ENDMDL
MODEL 2
REMARK VINA RESULT:    -3.839      2.021      3.492
REMARK INTER + INTRA:          -8.379
REMARK INTER:                  -7.411
REMARK INTRA:                  -0.967
REMARK UNBOUND:                -1.397
REMARK SMILES CCCCCCCCCCCCCC[C@H](C)C(=O)[O-]
REMARK SMILES IDX 9 1 10 2 11 3 12 4 13 5 14 6 15 7 16 8 17 9 18 10 19 11 8 12
REMARK SMILES IDX 7 13 6 14 5 15 4 16 3 17 2 18 1 19
REMARK H PARENT
REMARK Flexibility Score: inf
ROOT
ATOM      1  C   UNL     1      58.540  36.001  50.351  1.00  0.00     0.000 C 
ENDROOT
BRANCH   1   2
ATOM      2  C   UNL     1      59.069  35.103  51.479  1.00  0.00     0.000 C 
BRANCH   2   3
ATOM      3  C   UNL     1      58.331  35.381  52.794  1.00  0.00     0.000 C 
BRANCH   3   4
ATOM      4  C   UNL     1      57.394  36.586  52.655  1.00  0.00     0.000 C 
BRANCH   4   5
ATOM      5  C   UNL     1      57.601  37.581  53.803  1.00  0.00     0.001 C 
BRANCH   5   6
ATOM      6  C   UNL     1      58.436  36.956  54.931  1.00  0.00     0.009 C 
BRANCH   6   7
ATOM      7  C   UNL     1      59.367  37.986  55.605  1.00  0.00     0.032 C 
ATOM      8  C   UNL     1      60.813  37.478  55.616  1.00  0.00     0.014 C 
BRANCH   7   9
ATOM      9  C   UNL     1      58.923  38.286  57.011  1.00  0.00     0.044 C 
ATOM     10  O   UNL     1      58.345  39.374  57.272  1.00  0.00    -0.550 OA
ATOM     11  O   UNL     1      59.151  37.369  58.031  1.00  0.00    -0.550 OA
ENDBRANCH   7   9
ENDBRANCH   6   7
ENDBRANCH   5   6
ENDBRANCH   4   5
ENDBRANCH   3   4
ENDBRANCH   2   3
ENDBRANCH   1   2
BRANCH   1  12
ATOM     12  C   UNL     1      59.115  35.630  48.972  1.00  0.00     0.000 C 
BRANCH  12  13
ATOM     13  C   UNL     1      60.260  36.536  48.475  1.00  0.00    -0.000 C 
BRANCH  13  14
ATOM     14  C   UNL     1      59.830  37.675  47.533  1.00  0.00    -0.000 C 
BRANCH  14  15
ATOM     15  C   UNL     1      58.632  37.300  46.649  1.00  0.00    -0.000 C 
BRANCH  15  16
ATOM     16  C   UNL     1      59.095  36.559  45.385  1.00  0.00    -0.000 C 
BRANCH  16  17
ATOM     17  C   UNL     1      57.973  36.404  44.346  1.00  0.00    -0.000 C 
BRANCH  17  18
ATOM     18  C   UNL     1      56.599  36.163  44.990  1.00  0.00    -0.003 C 
ATOM     19  C   UNL     1      55.483  36.775  44.148  1.00  0.00     0.004 C 
ENDBRANCH  17  18
ENDBRANCH  16  17
ENDBRANCH  15  16
ENDBRANCH  14  15
ENDBRANCH  13  14
ENDBRANCH  12  13
ENDBRANCH   1  12
TORSDOF 14
ENDMDL
MODEL 3
REMARK VINA RESULT:    -3.815      4.688      9.171
REMARK INTER + INTRA:          -8.335
REMARK INTER:                  -7.326
REMARK INTRA:                  -1.009
REMARK UNBOUND:                -1.397
REMARK SMILES CCCCCCCCCCCCCC[C@H](C)C(=O)[O-]
REMARK SMILES IDX 9 1 10 2 11 3 12 4 13 5 14 6 15 7 16 8 17 9 18 10 19 11 8 12
REMARK SMILES IDX 7 13 6 14 5 15 4 16 3 17 2 18 1 19
REMARK H PARENT
REMARK Flexibility Score: inf
ROOT
ATOM      1  C   UNL     1      58.603  35.976  50.165  1.00  0.00     0.000 C 
ENDROOT
BRANCH   1   2
ATOM      2  C   UNL     1      60.028  35.540  49.794  1.00  0.00     0.000 C 
BRANCH   2   3
ATOM      3  C   UNL     1      60.324  35.832  48.318  1.00  0.00     0.000 C 
BRANCH   3   4
ATOM      4  C   UNL     1      60.083  37.310  47.989  1.00  0.00     0.000 C 
BRANCH   4   5
ATOM      5  C   UNL     1      59.246  37.462  46.714  1.00  0.00     0.001 C 
BRANCH   5   6
ATOM      6  C   UNL     1      58.776  36.094  46.196  1.00  0.00     0.009 C 
BRANCH   6   7
ATOM      7  C   UNL     1      59.200  35.850  44.732  1.00  0.00     0.032 C 
ATOM      8  C   UNL     1      60.718  36.003  44.579  1.00  0.00     0.014 C 
BRANCH   7   9
ATOM      9  C   UNL     1      58.498  36.794  43.795  1.00  0.00     0.044 C 
ATOM     10  O   UNL     1      57.240  36.856  43.786  1.00  0.00    -0.550 OA
ATOM     11  O   UNL     1      59.229  37.601  42.931  1.00  0.00    -0.550 OA
ENDBRANCH   7   9
ENDBRANCH   6   7
ENDBRANCH   5   6
ENDBRANCH   4   5
ENDBRANCH   3   4
ENDBRANCH   2   3
ENDBRANCH   1   2
BRANCH   1  12
ATOM     12  C   UNL     1      58.284  35.768  51.657  1.00  0.00     0.000 C 
BRANCH  12  13
ATOM     13  C   UNL     1      57.349  36.823  52.280  1.00  0.00    -0.000 C 
BRANCH  13  14
ATOM     14  C   UNL     1      57.668  37.200  53.738  1.00  0.00    -0.000 C 
BRANCH  14  15
ATOM     15  C   UNL     1      58.797  36.352  54.340  1.00  0.00    -0.000 C 
BRANCH  15  16
ATOM     16  C   UNL     1      59.633  37.177  55.331  1.00  0.00    -0.000 C 
BRANCH  16  17
ATOM     17  C   UNL     1      58.789  38.199  56.109  1.00  0.00    -0.000 C 
BRANCH  17  18
ATOM     18  C   UNL     1      58.950  38.064  57.631  1.00  0.00    -0.003 C 
ATOM     19  C   UNL     1      58.841  39.423  58.318  1.00  0.00     0.004 C 
ENDBRANCH  17  18
ENDBRANCH  16  17
ENDBRANCH  15  16
ENDBRANCH  14  15
ENDBRANCH  13  14
ENDBRANCH  12  13
ENDBRANCH   1  12
TORSDOF 14
ENDMDL
MODEL 4
REMARK VINA RESULT:    -3.771     14.534     17.552
REMARK INTER + INTRA:          -8.255
REMARK INTER:                  -7.351
REMARK INTRA:                  -0.903
REMARK UNBOUND:                -1.397
REMARK SMILES CCCCCCCCCCCCCC[C@H](C)C(=O)[O-]
REMARK SMILES IDX 9 1 10 2 11 3 12 4 13 5 14 6 15 7 16 8 17 9 18 10 19 11 8 12
REMARK SMILES IDX 7 13 6 14 5 15 4 16 3 17 2 18 1 19
REMARK H PARENT
REMARK Flexibility Score: inf
ROOT
ATOM      1  C   UNL     1      69.848  50.272  56.116  1.00  0.00     0.000 C 
ENDROOT
BRANCH   1   2
ATOM      2  C   UNL     1      68.749  50.733  55.148  1.00  0.00     0.000 C 
BRANCH   2   3
ATOM      3  C   UNL     1      69.320  50.977  53.745  1.00  0.00     0.000 C 
BRANCH   3   4
ATOM      4  C   UNL     1      70.848  51.089  53.784  1.00  0.00     0.000 C 
BRANCH   4   5
ATOM      5  C   UNL     1      71.379  51.824  52.549  1.00  0.00     0.001 C 
BRANCH   5   6
ATOM      6  C   UNL     1      70.254  52.592  51.837  1.00  0.00     0.009 C 
BRANCH   6   7
ATOM      7  C   UNL     1      70.106  52.171  50.360  1.00  0.00     0.032 C 
ATOM      8  C   UNL     1      70.542  53.309  49.431  1.00  0.00     0.014 C 
BRANCH   7   9
ATOM      9  C   UNL     1      68.690  51.772  50.044  1.00  0.00     0.044 C 
ATOM     10  O   UNL     1      67.909  52.595  49.499  1.00  0.00    -0.550 OA
ATOM     11  O   UNL     1      68.234  50.496  50.354  1.00  0.00    -0.550 OA
ENDBRANCH   7   9
ENDBRANCH   6   7
ENDBRANCH   5   6
ENDBRANCH   4   5
ENDBRANCH   3   4
ENDBRANCH   2   3
ENDBRANCH   1   2
BRANCH   1  12
ATOM     12  C   UNL     1      69.343  49.252  57.153  1.00  0.00     0.000 C 
BRANCH  12  13
ATOM     13  C   UNL     1      67.943  48.671  56.871  1.00  0.00    -0.000 C 
BRANCH  13  14
ATOM     14  C   UNL     1      66.949  48.763  58.043  1.00  0.00    -0.000 C 
BRANCH  14  15
ATOM     15  C   UNL     1      65.717  47.866  57.853  1.00  0.00    -0.000 C 
BRANCH  15  16
ATOM     16  C   UNL     1      65.822  46.602  58.720  1.00  0.00    -0.000 C 
BRANCH  16  17
ATOM     17  C   UNL     1      65.052  45.412  58.127  1.00  0.00    -0.000 C 
BRANCH  17  18
ATOM     18  C   UNL     1      65.775  44.776  56.929  1.00  0.00    -0.003 C 
ATOM     19  C   UNL     1      65.559  43.266  56.896  1.00  0.00     0.004 C 
ENDBRANCH  17  18
ENDBRANCH  16  17
ENDBRANCH  15  16
ENDBRANCH  14  15
ENDBRANCH  13  14
ENDBRANCH  12  13
ENDBRANCH   1  12
TORSDOF 14
ENDMDL
MODEL 5
REMARK VINA RESULT:    -3.757      1.457      2.583
REMARK INTER + INTRA:          -8.229
REMARK INTER:                  -7.005
REMARK INTRA:                  -1.224
REMARK UNBOUND:                -1.397
REMARK SMILES CCCCCCCCCCCCCC[C@H](C)C(=O)[O-]
REMARK SMILES IDX 9 1 10 2 11 3 12 4 13 5 14 6 15 7 16 8 17 9 18 10 19 11 8 12
REMARK SMILES IDX 7 13 6 14 5 15 4 16 3 17 2 18 1 19
REMARK H PARENT
REMARK Flexibility Score: inf
ROOT
ATOM      1  C   UNL     1      58.852  34.875  50.791  1.00  0.00     0.000 C 
ENDROOT
BRANCH   1   2
ATOM      2  C   UNL     1      58.573  35.474  52.178  1.00  0.00     0.000 C 
BRANCH   2   3
ATOM      3  C   UNL     1      57.542  36.606  52.089  1.00  0.00     0.000 C 
BRANCH   3   4
ATOM      4  C   UNL     1      57.281  37.222  53.468  1.00  0.00     0.000 C 
BRANCH   4   5
ATOM      5  C   UNL     1      58.315  36.742  54.492  1.00  0.00     0.001 C 
BRANCH   5   6
ATOM      6  C   UNL     1      58.766  37.893  55.404  1.00  0.00     0.009 C 
BRANCH   6   7
ATOM      7  C   UNL     1      60.192  37.678  55.952  1.00  0.00     0.032 C 
ATOM      8  C   UNL     1      60.813  36.410  55.354  1.00  0.00     0.014 C 
BRANCH   7   9
ATOM      9  C   UNL     1      60.192  37.582  57.454  1.00  0.00     0.044 C 
ATOM     10  O   UNL     1      60.748  36.608  58.024  1.00  0.00    -0.550 OA
ATOM     11  O   UNL     1      59.577  38.566  58.221  1.00  0.00    -0.550 OA
ENDBRANCH   7   9
ENDBRANCH   6   7
ENDBRANCH   5   6
ENDBRANCH   4   5
ENDBRANCH   3   4
ENDBRANCH   2   3
ENDBRANCH   1   2
BRANCH   1  12
ATOM     12  C   UNL     1      58.637  35.885  49.649  1.00  0.00     0.000 C 
BRANCH  12  13
ATOM     13  C   UNL     1      59.917  36.313  48.905  1.00  0.00    -0.000 C 
BRANCH  13  14
ATOM     14  C   UNL     1      60.987  35.215  48.759  1.00  0.00    -0.000 C 
BRANCH  14  15
ATOM     15  C   UNL     1      61.811  35.351  47.471  1.00  0.00    -0.000 C 
BRANCH  15  16
ATOM     16  C   UNL     1      61.149  36.339  46.499  1.00  0.00    -0.000 C 
BRANCH  16  17
ATOM     17  C   UNL     1      60.686  35.668  45.196  1.00  0.00    -0.000 C 
BRANCH  17  18
ATOM     18  C   UNL     1      59.465  36.361  44.573  1.00  0.00    -0.003 C 
ATOM     19  C   UNL     1      58.367  36.576  45.611  1.00  0.00     0.004 C 
ENDBRANCH  17  18
ENDBRANCH  16  17
ENDBRANCH  15  16
ENDBRANCH  14  15
ENDBRANCH  13  14
ENDBRANCH  12  13
ENDBRANCH   1  12
TORSDOF 14
ENDMDL
MODEL 6
REMARK VINA RESULT:    -3.741     14.621     17.584
REMARK INTER + INTRA:          -8.199
REMARK INTER:                  -7.367
REMARK INTRA:                  -0.832
REMARK UNBOUND:                -1.397
REMARK SMILES CCCCCCCCCCCCCC[C@H](C)C(=O)[O-]
REMARK SMILES IDX 9 1 10 2 11 3 12 4 13 5 14 6 15 7 16 8 17 9 18 10 19 11 8 12
REMARK SMILES IDX 7 13 6 14 5 15 4 16 3 17 2 18 1 19
REMARK H PARENT
REMARK Flexibility Score: inf
ROOT
ATOM      1  C   UNL     1      68.418  50.821  55.916  1.00  0.00     0.000 C 
ENDROOT
BRANCH   1   2
ATOM      2  C   UNL     1      69.104  50.968  54.550  1.00  0.00     0.000 C 
BRANCH   2   3
ATOM      3  C   UNL     1      70.620  51.134  54.712  1.00  0.00     0.000 C 
BRANCH   3   4
ATOM      4  C   UNL     1      71.331  51.054  53.356  1.00  0.00     0.000 C 
BRANCH   4   5
ATOM      5  C   UNL     1      71.052  52.303  52.512  1.00  0.00     0.001 C 
BRANCH   5   6
ATOM      6  C   UNL     1      70.654  51.922  51.078  1.00  0.00     0.009 C 
BRANCH   6   7
ATOM      7  C   UNL     1      69.130  52.006  50.855  1.00  0.00     0.032 C 
ATOM      8  C   UNL     1      68.562  50.629  50.493  1.00  0.00     0.014 C 
BRANCH   7   9
ATOM      9  C   UNL     1      68.789  52.996  49.774  1.00  0.00     0.044 C 
ATOM     10  O   UNL     1      67.946  53.905  49.993  1.00  0.00    -0.550 OA
ATOM     11  O   UNL     1      69.397  52.912  48.527  1.00  0.00    -0.550 OA
ENDBRANCH   7   9
ENDBRANCH   6   7
ENDBRANCH   5   6
ENDBRANCH   4   5
ENDBRANCH   3   4
ENDBRANCH   2   3
ENDBRANCH   1   2
BRANCH   1  12
ATOM     12  C   UNL     1      68.891  49.579  56.692  1.00  0.00     0.000 C 
BRANCH  12  13
ATOM     13  C   UNL     1      67.843  48.458  56.835  1.00  0.00    -0.000 C 
BRANCH  13  14
ATOM     14  C   UNL     1      66.955  48.549  58.089  1.00  0.00    -0.000 C 
BRANCH  14  15
ATOM     15  C   UNL     1      65.696  47.675  57.994  1.00  0.00    -0.000 C 
BRANCH  15  16
ATOM     16  C   UNL     1      65.993  46.236  58.442  1.00  0.00    -0.000 C 
BRANCH  16  17
ATOM     17  C   UNL     1      65.038  45.211  57.810  1.00  0.00    -0.000 C 
BRANCH  17  18
ATOM     18  C   UNL     1      65.733  44.315  56.773  1.00  0.00    -0.003 C 
ATOM     19  C   UNL     1      65.635  42.843  57.165  1.00  0.00     0.004 C 
ENDBRANCH  17  18
ENDBRANCH  16  17
ENDBRANCH  15  16
ENDBRANCH  14  15
ENDBRANCH  13  14
ENDBRANCH  12  13
ENDBRANCH   1  12
TORSDOF 14
ENDMDL
MODEL 7
REMARK VINA RESULT:    -3.661      4.995      9.543
REMARK INTER + INTRA:          -8.054
REMARK INTER:                  -6.895
REMARK INTRA:                  -1.160
REMARK UNBOUND:                -1.397
REMARK SMILES CCCCCCCCCCCCCC[C@H](C)C(=O)[O-]
REMARK SMILES IDX 9 1 10 2 11 3 12 4 13 5 14 6 15 7 16 8 17 9 18 10 19 11 8 12
REMARK SMILES IDX 7 13 6 14 5 15 4 16 3 17 2 18 1 19
REMARK H PARENT
REMARK Flexibility Score: inf
ROOT
ATOM      1  C   UNL     1      60.360  36.830  48.555  1.00  0.00     0.000 C 
ENDROOT
BRANCH   1   2
ATOM      2  C   UNL     1      61.622  36.408  47.788  1.00  0.00     0.000 C 
BRANCH   2   3
ATOM      3  C   UNL     1      61.380  35.113  47.004  1.00  0.00     0.000 C 
BRANCH   3   4
ATOM      4  C   UNL     1      61.174  35.402  45.513  1.00  0.00     0.000 C 
BRANCH   4   5
ATOM      5  C   UNL     1      59.697  35.266  45.125  1.00  0.00     0.001 C 
BRANCH   5   6
ATOM      6  C   UNL     1      59.076  36.639  44.825  1.00  0.00     0.009 C 
BRANCH   6   7
ATOM      7  C   UNL     1      58.495  36.716  43.398  1.00  0.00     0.032 C 
ATOM      8  C   UNL     1      58.294  35.309  42.822  1.00  0.00     0.014 C 
BRANCH   7   9
ATOM      9  C   UNL     1      59.388  37.514  42.486  1.00  0.00     0.044 C 
ATOM     10  O   UNL     1      58.935  38.521  41.881  1.00  0.00    -0.550 OA
ATOM     11  O   UNL     1      60.716  37.144  42.302  1.00  0.00    -0.550 OA
ENDBRANCH   7   9
ENDBRANCH   6   7
ENDBRANCH   5   6
ENDBRANCH   4   5
ENDBRANCH   3   4
ENDBRANCH   2   3
ENDBRANCH   1   2
BRANCH   1  12
ATOM     12  C   UNL     1      59.463  35.637  48.931  1.00  0.00     0.000 C 
BRANCH  12  13
ATOM     13  C   UNL     1      58.649  35.813  50.229  1.00  0.00    -0.000 C 
BRANCH  13  14
ATOM     14  C   UNL     1      59.052  34.879  51.385  1.00  0.00    -0.000 C 
BRANCH  14  15
ATOM     15  C   UNL     1      58.251  35.138  52.669  1.00  0.00    -0.000 C 
BRANCH  15  16
ATOM     16  C   UNL     1      57.532  36.494  52.602  1.00  0.00    -0.000 C 
BRANCH  16  17
ATOM     17  C   UNL     1      57.558  37.245  53.943  1.00  0.00    -0.000 C 
BRANCH  17  18
ATOM     18  C   UNL     1      58.856  37.007  54.729  1.00  0.00    -0.003 C 
ATOM     19  C   UNL     1      58.964  37.964  55.913  1.00  0.00     0.004 C 
ENDBRANCH  17  18
ENDBRANCH  16  17
ENDBRANCH  15  16
ENDBRANCH  14  15
ENDBRANCH  13  14
ENDBRANCH  12  13
ENDBRANCH   1  12
TORSDOF 14
ENDMDL
MODEL 8
REMARK VINA RESULT:    -3.643     17.003     19.437
REMARK INTER + INTRA:          -8.022
REMARK INTER:                  -6.032
REMARK INTRA:                  -1.990
REMARK UNBOUND:                -1.397
REMARK SMILES CCCCCCCCCCCCCC[C@H](C)C(=O)[O-]
REMARK SMILES IDX 9 1 10 2 11 3 12 4 13 5 14 6 15 7 16 8 17 9 18 10 19 11 8 12
REMARK SMILES IDX 7 13 6 14 5 15 4 16 3 17 2 18 1 19
REMARK H PARENT
REMARK Flexibility Score: inf
ROOT
ATOM      1  C   UNL     1      69.070  50.659  54.687  1.00  0.00     0.000 C 
ENDROOT
BRANCH   1   2
ATOM      2  C   UNL     1      70.407  51.358  54.400  1.00  0.00     0.000 C 
BRANCH   2   3
ATOM      3  C   UNL     1      70.204  52.863  54.185  1.00  0.00     0.000 C 
BRANCH   3   4
ATOM      4  C   UNL     1      70.566  53.269  52.752  1.00  0.00     0.000 C 
BRANCH   4   5
ATOM      5  C   UNL     1      71.360  52.162  52.049  1.00  0.00     0.001 C 
BRANCH   5   6
ATOM      6  C   UNL     1      70.742  51.822  50.684  1.00  0.00     0.009 C 
BRANCH   6   7
ATOM      7  C   UNL     1      69.207  51.975  50.686  1.00  0.00     0.032 C 
ATOM      8  C   UNL     1      68.529  50.601  50.725  1.00  0.00     0.014 C 
BRANCH   7   9
ATOM      9  C   UNL     1      68.733  52.740  49.480  1.00  0.00     0.044 C 
ATOM     10  O   UNL     1      69.515  52.944  48.514  1.00  0.00    -0.550 OA
ATOM     11  O   UNL     1      67.432  53.228  49.423  1.00  0.00    -0.550 OA
ENDBRANCH   7   9
ENDBRANCH   6   7
ENDBRANCH   5   6
ENDBRANCH   4   5
ENDBRANCH   3   4
ENDBRANCH   2   3
ENDBRANCH   1   2
BRANCH   1  12
ATOM     12  C   UNL     1      68.285  51.319  55.835  1.00  0.00     0.000 C 
BRANCH  12  13
ATOM     13  C   UNL     1      68.564  50.742  57.237  1.00  0.00    -0.000 C 
BRANCH  13  14
ATOM     14  C   UNL     1      69.635  51.490  58.050  1.00  0.00    -0.000 C 
BRANCH  14  15
ATOM     15  C   UNL     1      70.856  50.618  58.376  1.00  0.00    -0.000 C 
BRANCH  15  16
ATOM     16  C   UNL     1      70.781  49.273  57.638  1.00  0.00    -0.000 C 
BRANCH  16  17
ATOM     17  C   UNL     1      72.146  48.816  57.099  1.00  0.00    -0.000 C 
BRANCH  17  18
ATOM     18  C   UNL     1      72.950  49.966  56.473  1.00  0.00    -0.003 C 
ATOM     19  C   UNL     1      74.365  50.020  57.042  1.00  0.00     0.004 C 
ENDBRANCH  17  18
ENDBRANCH  16  17
ENDBRANCH  15  16
ENDBRANCH  14  15
ENDBRANCH  13  14
ENDBRANCH  12  13
ENDBRANCH   1  12
TORSDOF 14
ENDMDL
MODEL 9
REMARK VINA RESULT:    -3.569      2.838      4.788
REMARK INTER + INTRA:          -7.887
REMARK INTER:                  -6.503
REMARK INTRA:                  -1.384
REMARK UNBOUND:                -1.397
REMARK SMILES CCCCCCCCCCCCCC[C@H](C)C(=O)[O-]
REMARK SMILES IDX 9 1 10 2 11 3 12 4 13 5 14 6 15 7 16 8 17 9 18 10 19 11 8 12
REMARK SMILES IDX 7 13 6 14 5 15 4 16 3 17 2 18 1 19
REMARK H PARENT
REMARK Flexibility Score: inf
ROOT
ATOM      1  C   UNL     1      60.156  37.529  47.592  1.00  0.00     0.000 C 
ENDROOT
BRANCH   1   2
ATOM      2  C   UNL     1      60.689  36.103  47.794  1.00  0.00     0.000 C 
BRANCH   2   3
ATOM      3  C   UNL     1      60.709  35.730  49.282  1.00  0.00     0.000 C 
BRANCH   3   4
ATOM      4  C   UNL     1      59.469  34.913  49.661  1.00  0.00     0.000 C 
BRANCH   4   5
ATOM      5  C   UNL     1      58.598  35.669  50.671  1.00  0.00     0.001 C 
BRANCH   5   6
ATOM      6  C   UNL     1      58.794  35.117  52.091  1.00  0.00     0.009 C 
BRANCH   6   7
ATOM      7  C   UNL     1      57.913  35.848  53.126  1.00  0.00     0.032 C 
ATOM      8  C   UNL     1      57.121  36.977  52.457  1.00  0.00     0.014 C 
BRANCH   7   9
ATOM      9  C   UNL     1      58.742  36.407  54.251  1.00  0.00     0.044 C 
ATOM     10  O   UNL     1      59.828  35.856  54.570  1.00  0.00    -0.550 OA
ATOM     11  O   UNL     1      58.315  37.533  54.946  1.00  0.00    -0.550 OA
ENDBRANCH   7   9
ENDBRANCH   6   7
ENDBRANCH   5   6
ENDBRANCH   4   5
ENDBRANCH   3   4
ENDBRANCH   2   3
ENDBRANCH   1   2
BRANCH   1  12
ATOM     12  C   UNL     1      58.692  37.558  47.118  1.00  0.00     0.000 C 
BRANCH  12  13
ATOM     13  C   UNL     1      58.201  36.270  46.428  1.00  0.00    -0.000 C 
BRANCH  13  14
ATOM     14  C   UNL     1      57.234  36.487  45.250  1.00  0.00    -0.000 C 
BRANCH  14  15
ATOM     15  C   UNL     1      57.900  36.273  43.883  1.00  0.00    -0.000 C 
BRANCH  15  16
ATOM     16  C   UNL     1      59.288  35.635  44.044  1.00  0.00    -0.000 C 
BRANCH  16  17
ATOM     17  C   UNL     1      60.408  36.491  43.430  1.00  0.00    -0.000 C 
BRANCH  17  18
ATOM     18  C   UNL     1      59.960  37.228  42.159  1.00  0.00    -0.003 C 
ATOM     19  C   UNL     1      60.572  36.595  40.913  1.00  0.00     0.004 C 
ENDBRANCH  17  18
ENDBRANCH  16  17
ENDBRANCH  15  16
ENDBRANCH  14  15
ENDBRANCH  13  14
ENDBRANCH  12  13
ENDBRANCH   1  12
TORSDOF 14
ENDMDL
