MODEL 1
REMARK VINA RESULT:    -3.524      0.000      0.000
REMARK INTER + INTRA:          -3.853
REMARK INTER:                  -3.833
REMARK INTRA:                  -0.020
REMARK UNBOUND:                -0.020
REMARK SMILES OCc1ccco1
REMARK SMILES IDX 2 1 3 2 5 3 6 4 4 5 7 6 1 7
REMARK H PARENT 1 8
REMARK Flexibility Score: inf
ROOT
ATOM      1  C   UNL     1      14.036  50.680  97.177  1.00  0.00     0.231 C 
ENDROOT
BRANCH   1   2
ATOM      2  C   UNL     1      14.807  50.157  96.007  1.00  0.00     0.129 A 
ATOM      3  C   UNL     1      15.724  49.940  94.023  1.00  0.00     0.042 A 
ATOM      4  C   UNL     1      15.956  48.824  94.803  1.00  0.00     0.195 A 
ATOM      5  C   UNL     1      14.978  50.801  94.800  1.00  0.00     0.048 A 
ATOM      6  O   UNL     1      15.395  48.982  95.980  1.00  0.00    -0.467 OA
ENDBRANCH   1   2
BRANCH   1   7
ATOM      7  O   UNL     1      13.479  49.617  97.898  1.00  0.00    -0.388 OA
ATOM      8  H   UNL     1      12.920  50.020  98.613  1.00  0.00     0.211 HD
ENDBRANCH   1   7
TORSDOF 2
ENDMDL
MODEL 2
REMARK VINA RESULT:    -3.333      2.396      3.125
REMARK INTER + INTRA:          -3.645
REMARK INTER:                  -3.629
REMARK INTRA:                  -0.016
REMARK UNBOUND:                -0.020
REMARK SMILES OCc1ccco1
REMARK SMILES IDX 2 1 3 2 5 3 6 4 4 5 7 6 1 7
REMARK H PARENT 1 8
REMARK Flexibility Score: inf
ROOT
ATOM      1  C   UNL     1      10.852  48.676  97.554  1.00  0.00     0.231 C 
ENDROOT
BRANCH   1   2
ATOM      2  C   UNL     1      12.125  49.137  96.920  1.00  0.00     0.129 A 
ATOM      3  C   UNL     1      14.082  50.075  96.577  1.00  0.00     0.042 A 
ATOM      4  C   UNL     1      13.598  49.497  95.421  1.00  0.00     0.195 A 
ATOM      5  C   UNL     1      13.129  49.846  97.547  1.00  0.00     0.048 A 
ATOM      6  O   UNL     1      12.428  48.947  95.656  1.00  0.00    -0.467 OA
ENDBRANCH   1   2
BRANCH   1   7
ATOM      7  O   UNL     1      10.740  49.205  98.845  1.00  0.00    -0.388 OA
ATOM      8  H   UNL     1      11.433  49.911  98.925  1.00  0.00     0.211 HD
ENDBRANCH   1   7
TORSDOF 2
ENDMDL
MODEL 3
REMARK VINA RESULT:    -3.249      2.607      3.679
REMARK INTER + INTRA:          -3.554
REMARK INTER:                  -3.540
REMARK INTRA:                  -0.014
REMARK UNBOUND:                -0.020
REMARK SMILES OCc1ccco1
REMARK SMILES IDX 2 1 3 2 5 3 6 4 4 5 7 6 1 7
REMARK H PARENT 1 8
REMARK Flexibility Score: inf
ROOT
ATOM      1  C   UNL     1      14.369  50.365  96.063  1.00  0.00     0.231 C 
ENDROOT
BRANCH   1   2
ATOM      2  C   UNL     1      13.079  49.658  96.329  1.00  0.00     0.129 A 
ATOM      3  C   UNL     1      11.320  48.801  97.326  1.00  0.00     0.042 A 
ATOM      4  C   UNL     1      11.336  48.479  95.984  1.00  0.00     0.195 A 
ATOM      5  C   UNL     1      12.448  49.560  97.552  1.00  0.00     0.048 A 
ATOM      6  O   UNL     1      12.399  49.003  95.416  1.00  0.00    -0.467 OA
ENDBRANCH   1   2
BRANCH   1   7
ATOM      7  O   UNL     1      14.133  51.537  95.335  1.00  0.00    -0.388 OA
ATOM      8  H   UNL     1      13.622  51.272  94.527  1.00  0.00     0.211 HD
ENDBRANCH   1   7
TORSDOF 2
ENDMDL
MODEL 4
REMARK VINA RESULT:    -3.209      1.580      3.226
REMARK INTER + INTRA:          -3.511
REMARK INTER:                  -3.490
REMARK INTRA:                  -0.021
REMARK UNBOUND:                -0.020
REMARK SMILES OCc1ccco1
REMARK SMILES IDX 2 1 3 2 5 3 6 4 4 5 7 6 1 7
REMARK H PARENT 1 8
REMARK Flexibility Score: inf
ROOT
ATOM      1  C   UNL     1      15.464  50.476  94.992  1.00  0.00     0.231 C 
ENDROOT
BRANCH   1   2
ATOM      2  C   UNL     1      14.294  50.055  95.824  1.00  0.00     0.129 A 
ATOM      3  C   UNL     1      12.884  49.801  97.489  1.00  0.00     0.042 A 
ATOM      4  C   UNL     1      12.511  49.038  96.400  1.00  0.00     0.195 A 
ATOM      5  C   UNL     1      14.039  50.456  97.119  1.00  0.00     0.048 A 
ATOM      6  O   UNL     1      13.373  49.209  95.423  1.00  0.00    -0.467 OA
ENDBRANCH   1   2
BRANCH   1   7
ATOM      7  O   UNL     1      15.677  49.551  93.963  1.00  0.00    -0.388 OA
ATOM      8  H   UNL     1      16.295  48.863  94.322  1.00  0.00     0.211 HD
ENDBRANCH   1   7
TORSDOF 2
ENDMDL
MODEL 5
REMARK VINA RESULT:    -3.182      3.367      4.680
REMARK INTER + INTRA:          -3.481
REMARK INTER:                  -3.466
REMARK INTRA:                  -0.016
REMARK UNBOUND:                -0.020
REMARK SMILES OCc1ccco1
REMARK SMILES IDX 2 1 3 2 5 3 6 4 4 5 7 6 1 7
REMARK H PARENT 1 8
REMARK Flexibility Score: inf
ROOT
ATOM      1  C   UNL     1      13.218  49.380  96.705  1.00  0.00     0.231 C 
ENDROOT
BRANCH   1   2
ATOM      2  C   UNL     1      11.789  49.003  96.935  1.00  0.00     0.129 A 
ATOM      3  C   UNL     1       9.808  48.734  97.845  1.00  0.00     0.042 A 
ATOM      4  C   UNL     1       9.874  48.124  96.609  1.00  0.00     0.195 A 
ATOM      5  C   UNL     1      11.047  49.300  98.060  1.00  0.00     0.048 A 
ATOM      6  O   UNL     1      11.069  48.300  96.091  1.00  0.00    -0.467 OA
ENDBRANCH   1   2
BRANCH   1   7
ATOM      7  O   UNL     1      13.853  49.622  97.929  1.00  0.00    -0.388 OA
ATOM      8  H   UNL     1      14.796  49.332  97.822  1.00  0.00     0.211 HD
ENDBRANCH   1   7
TORSDOF 2
ENDMDL
MODEL 6
REMARK VINA RESULT:    -3.121     10.669     11.744
REMARK INTER + INTRA:          -3.415
REMARK INTER:                  -3.401
REMARK INTRA:                  -0.014
REMARK UNBOUND:                -0.020
REMARK SMILES OCc1ccco1
REMARK SMILES IDX 2 1 3 2 5 3 6 4 4 5 7 6 1 7
REMARK H PARENT 1 8
REMARK Flexibility Score: inf
ROOT
ATOM      1  C   UNL     1      18.988  38.757  97.392  1.00  0.00     0.231 C 
ENDROOT
BRANCH   1   2
ATOM      2  C   UNL     1      17.909  38.712  96.358  1.00  0.00     0.129 A 
ATOM      3  C   UNL     1      16.585  38.059  94.732  1.00  0.00     0.042 A 
ATOM      4  C   UNL     1      16.305  39.357  95.110  1.00  0.00     0.195 A 
ATOM      5  C   UNL     1      17.625  37.641  95.535  1.00  0.00     0.048 A 
ATOM      6  O   UNL     1      17.114  39.719  96.081  1.00  0.00    -0.467 OA
ENDBRANCH   1   2
BRANCH   1   7
ATOM      7  O   UNL     1      20.201  39.135  96.804  1.00  0.00    -0.388 OA
ATOM      8  H   UNL     1      20.510  39.946  97.286  1.00  0.00     0.211 HD
ENDBRANCH   1   7
TORSDOF 2
ENDMDL
MODEL 7
REMARK VINA RESULT:    -3.100      7.694      7.906
REMARK INTER + INTRA:          -3.392
REMARK INTER:                  -3.376
REMARK INTRA:                  -0.016
REMARK UNBOUND:                -0.020
REMARK SMILES OCc1ccco1
REMARK SMILES IDX 2 1 3 2 5 3 6 4 4 5 7 6 1 7
REMARK H PARENT 1 8
REMARK Flexibility Score: inf
ROOT
ATOM      1  C   UNL     1      11.519  42.067  96.384  1.00  0.00     0.231 C 
ENDROOT
BRANCH   1   2
ATOM      2  C   UNL     1      12.629  42.276  95.404  1.00  0.00     0.129 A 
ATOM      3  C   UNL     1      14.618  42.454  94.490  1.00  0.00     0.042 A 
ATOM      4  C   UNL     1      13.625  42.773  93.586  1.00  0.00     0.195 A 
ATOM      5  C   UNL     1      13.976  42.135  95.668  1.00  0.00     0.048 A 
ATOM      6  O   UNL     1      12.449  42.660  94.161  1.00  0.00    -0.467 OA
ENDBRANCH   1   2
BRANCH   1   7
ATOM      7  O   UNL     1      12.027  42.057  97.689  1.00  0.00    -0.388 OA
ATOM      8  H   UNL     1      11.818  42.944  98.082  1.00  0.00     0.211 HD
ENDBRANCH   1   7
TORSDOF 2
ENDMDL
MODEL 8
REMARK VINA RESULT:    -2.970      2.856      3.549
REMARK INTER + INTRA:          -3.251
REMARK INTER:                  -3.237
REMARK INTRA:                  -0.014
REMARK UNBOUND:                -0.020
REMARK SMILES OCc1ccco1
REMARK SMILES IDX 2 1 3 2 5 3 6 4 4 5 7 6 1 7
REMARK H PARENT 1 8
REMARK Flexibility Score: inf
ROOT
ATOM      1  C   UNL     1      10.912  48.345  95.473  1.00  0.00     0.231 C 
ENDROOT
BRANCH   1   2
ATOM      2  C   UNL     1      12.164  48.959  96.011  1.00  0.00     0.129 A 
ATOM      3  C   UNL     1      13.647  49.881  97.344  1.00  0.00     0.042 A 
ATOM      4  C   UNL     1      14.125  49.796  96.052  1.00  0.00     0.195 A 
ATOM      5  C   UNL     1      12.377  49.344  97.319  1.00  0.00     0.048 A 
ATOM      6  O   UNL     1      13.217  49.243  95.279  1.00  0.00    -0.467 OA
ENDBRANCH   1   2
BRANCH   1   7
ATOM      7  O   UNL     1       9.999  49.346  95.121  1.00  0.00    -0.388 OA
ATOM      8  H   UNL     1      10.369  50.201  95.462  1.00  0.00     0.211 HD
ENDBRANCH   1   7
TORSDOF 2
ENDMDL
MODEL 9
REMARK VINA RESULT:    -2.955     18.413     18.829
REMARK INTER + INTRA:          -3.234
REMARK INTER:                  -3.217
REMARK INTRA:                  -0.017
REMARK UNBOUND:                -0.020
REMARK SMILES OCc1ccco1
REMARK SMILES IDX 2 1 3 2 5 3 6 4 4 5 7 6 1 7
REMARK H PARENT 1 8
REMARK Flexibility Score: inf
ROOT
ATOM      1  C   UNL     1      12.675  34.593  85.706  1.00  0.00     0.231 C 
ENDROOT
BRANCH   1   2
ATOM      2  C   UNL     1      13.630  34.928  84.606  1.00  0.00     0.129 A 
ATOM      3  C   UNL     1      14.650  35.011  82.662  1.00  0.00     0.042 A 
ATOM      4  C   UNL     1      15.326  35.750  83.611  1.00  0.00     0.195 A 
ATOM      5  C   UNL     1      13.554  34.475  83.305  1.00  0.00     0.048 A 
ATOM      6  O   UNL     1      14.695  35.680  84.761  1.00  0.00    -0.467 OA
ENDBRANCH   1   2
BRANCH   1   7
ATOM      7  O   UNL     1      13.336  33.885  86.717  1.00  0.00    -0.388 OA
ATOM      8  H   UNL     1      14.252  33.699  86.382  1.00  0.00     0.211 HD
ENDBRANCH   1   7
TORSDOF 2
ENDMDL
