MODEL 1
REMARK VINA RESULT:    -0.136      0.000      0.000
REMARK INTER + INTRA:           0.983
REMARK INTER:                  -0.235
REMARK INTRA:                   1.218
REMARK UNBOUND:                 1.218
REMARK SMILES OC[C@@H]1O[C@@H](O[C@H]2[C@@H](O)[C@@H](O)[C@H](O[C@@H]3[C@@H](O)[C@@H](O)[C@H](O)O[C@@H]3CO)O[C@@H]2CO)[C@H](O)[C@H](O)[C@@H]1O
REMARK SMILES IDX 7 1 26 2 25 3 12 4 10 5 8 6 6 7 5 8 3 9 33 10 4 11 31 12
REMARK SMILES IDX 29 13 2 14 1 15 34 17 32 19 30 21 27 23 28 24 9 26 11 28
REMARK SMILES IDX 13 30 14 31 22 32 15 33 21 34 17 35 19 36 23 37 24 38 16 40
REMARK SMILES IDX 18 42 20 44
REMARK H PARENT 1 16 34 18 32 20 30 22 28 25 9 27 11 29 24 39 16 41 18 43
REMARK H PARENT 20 45
REMARK Flexibility Score: inf
ROOT
ATOM      1  C   UNL     1      12.282  -7.956  -2.511  1.00  0.00     0.184 C 
ATOM      2  C   UNL     1      12.170  -6.419  -2.318  1.00  0.00     0.178 C 
ATOM      3  O   UNL     1      10.876  -6.043  -2.739  1.00  0.00    -0.341 OA
ATOM      4  C   UNL     1       9.891  -6.593  -1.879  1.00  0.00     0.282 C 
ATOM      5  C   UNL     1      10.008  -8.109  -1.536  1.00  0.00     0.202 C 
ATOM      6  C   UNL     1      11.481  -8.563  -1.325  1.00  0.00     0.180 C 
ENDROOT
BRANCH   1   7
ATOM      7  O   UNL     1      13.615  -8.495  -2.655  1.00  0.00    -0.341 OA
BRANCH   7   8
ATOM      8  C   UNL     1      14.542  -7.513  -2.142  1.00  0.00     0.282 C 
ATOM      9  C   UNL     1      16.687  -8.662  -2.354  1.00  0.00     0.178 C 
ATOM     10  C   UNL     1      16.857  -8.826  -0.805  1.00  0.00     0.177 C 
ATOM     11  O   UNL     1      15.860  -7.542  -2.716  1.00  0.00    -0.341 OA
ATOM     12  C   UNL     1      15.478  -8.905  -0.220  1.00  0.00     0.179 C 
ATOM     13  C   UNL     1      14.676  -7.598  -0.542  1.00  0.00     0.202 C 
BRANCH   9  14
ATOM     14  C   UNL     1      18.018  -8.511  -3.125  1.00  0.00     0.191 C 
BRANCH  14  15
ATOM     15  O   UNL     1      19.144  -9.073  -2.470  1.00  0.00    -0.394 OA
ATOM     16  H   UNL     1      19.648  -8.298  -2.084  1.00  0.00     0.210 HD
ENDBRANCH  14  15
ENDBRANCH   9  14
BRANCH  10  17
ATOM     17  O   UNL     1      17.556  -7.740  -0.223  1.00  0.00    -0.387 OA
ATOM     18  H   UNL     1      17.308  -6.898  -0.649  1.00  0.00     0.211 HD
ENDBRANCH  10  17
BRANCH  12  19
ATOM     19  O   UNL     1      15.531  -9.122   1.189  1.00  0.00    -0.387 OA
ATOM     20  H   UNL     1      14.898  -8.442   1.560  1.00  0.00     0.211 HD
ENDBRANCH  12  19
BRANCH  13  21
ATOM     21  O   UNL     1      15.274  -6.427  -0.105  1.00  0.00    -0.385 OA
ATOM     22  H   UNL     1      14.561  -5.923   0.367  1.00  0.00     0.211 HD
ENDBRANCH  13  21
ENDBRANCH   7   8
ENDBRANCH   1   7
BRANCH   2  23
ATOM     23  C   UNL     1      13.131  -5.579  -3.125  1.00  0.00     0.191 C 
BRANCH  23  24
ATOM     24  O   UNL     1      13.478  -4.383  -2.477  1.00  0.00    -0.394 OA
ATOM     25  H   UNL     1      13.842  -4.659  -1.572  1.00  0.00     0.210 HD
ENDBRANCH  23  24
ENDBRANCH   2  23
BRANCH   6  26
ATOM     26  O   UNL     1      11.940  -8.133  -0.069  1.00  0.00    -0.387 OA
ATOM     27  H   UNL     1      12.085  -8.955   0.496  1.00  0.00     0.211 HD
ENDBRANCH   6  26
BRANCH   5  28
ATOM     28  O   UNL     1       9.166  -8.511  -0.476  1.00  0.00    -0.385 OA
ATOM     29  H   UNL     1       9.739  -8.589   0.335  1.00  0.00     0.211 HD
ENDBRANCH   5  28
BRANCH   4  30
ATOM     30  O   UNL     1       8.626  -6.241  -2.390  1.00  0.00    -0.341 OA
BRANCH  30  31
ATOM     31  C   UNL     1       8.597  -4.919  -2.911  1.00  0.00     0.184 C 
ATOM     32  C   UNL     1       7.085  -4.454  -3.097  1.00  0.00     0.178 C 
ATOM     33  C   UNL     1       9.292  -4.062  -1.836  1.00  0.00     0.180 C 
ATOM     34  O   UNL     1       6.753  -3.377  -2.190  1.00  0.00    -0.342 OA
ATOM     35  C   UNL     1       8.455  -4.118  -0.510  1.00  0.00     0.201 C 
ATOM     36  C   UNL     1       6.966  -3.674  -0.792  1.00  0.00     0.279 C 
BRANCH  32  37
ATOM     37  C   UNL     1       5.987  -5.555  -3.125  1.00  0.00     0.191 C 
BRANCH  37  38
ATOM     38  O   UNL     1       4.687  -4.941  -2.969  1.00  0.00    -0.394 OA
ATOM     39  H   UNL     1       4.056  -5.520  -3.517  1.00  0.00     0.210 HD
ENDBRANCH  37  38
ENDBRANCH  32  37
BRANCH  33  40
ATOM     40  O   UNL     1       9.772  -2.790  -2.218  1.00  0.00    -0.387 OA
ATOM     41  H   UNL     1       9.640  -2.153  -1.474  1.00  0.00     0.211 HD
ENDBRANCH  33  40
BRANCH  35  42
ATOM     42  O   UNL     1       8.996  -3.347   0.537  1.00  0.00    -0.385 OA
ATOM     43  H   UNL     1       8.448  -3.454   1.360  1.00  0.00     0.211 HD
ENDBRANCH  35  42
BRANCH  36  44
ATOM     44  O   UNL     1       6.064  -4.652  -0.334  1.00  0.00    -0.366 OA
ATOM     45  H   UNL     1       6.186  -5.444  -0.914  1.00  0.00     0.213 HD
ENDBRANCH  36  44
ENDBRANCH  30  31
ENDBRANCH   4  30
TORSDOF 18
ENDMDL
MODEL 2
REMARK VINA RESULT:     0.064      1.515      8.599
REMARK INTER + INTRA:           1.328
REMARK INTER:                  -0.424
REMARK INTRA:                   1.751
REMARK UNBOUND:                 1.218
REMARK SMILES OC[C@@H]1O[C@@H](O[C@H]2[C@@H](O)[C@@H](O)[C@H](O[C@@H]3[C@@H](O)[C@@H](O)[C@H](O)O[C@@H]3CO)O[C@@H]2CO)[C@H](O)[C@H](O)[C@@H]1O
REMARK SMILES IDX 7 1 26 2 25 3 12 4 10 5 8 6 6 7 5 8 3 9 33 10 4 11 31 12
REMARK SMILES IDX 29 13 2 14 1 15 34 17 32 19 30 21 27 23 28 24 9 26 11 28
REMARK SMILES IDX 13 30 14 31 22 32 15 33 21 34 17 35 19 36 23 37 24 38 16 40
REMARK SMILES IDX 18 42 20 44
REMARK H PARENT 1 16 34 18 32 20 30 22 28 25 9 27 11 29 24 39 16 41 18 43
REMARK H PARENT 20 45
REMARK Flexibility Score: inf
ROOT
ATOM      1  C   UNL     1      11.922  -5.596  -1.836  1.00  0.00     0.184 C 
ATOM      2  C   UNL     1      13.171  -5.153  -2.646  1.00  0.00     0.178 C 
ATOM      3  O   UNL     1      14.289  -5.305  -1.799  1.00  0.00    -0.341 OA
ATOM      4  C   UNL     1      14.509  -6.674  -1.502  1.00  0.00     0.282 C 
ATOM      5  C   UNL     1      13.278  -7.515  -1.049  1.00  0.00     0.202 C 
ATOM      6  C   UNL     1      11.982  -7.149  -1.830  1.00  0.00     0.180 C 
ENDROOT
BRANCH   1   7
ATOM      7  O   UNL     1      10.649  -5.060  -2.264  1.00  0.00    -0.341 OA
BRANCH   7   8
ATOM      8  C   UNL     1       9.753  -5.105  -1.132  1.00  0.00     0.282 C 
ATOM      9  C   UNL     1       7.766  -6.159  -2.083  1.00  0.00     0.178 C 
ATOM     10  C   UNL     1       6.918  -4.845  -2.003  1.00  0.00     0.177 C 
ATOM     11  O   UNL     1       8.828  -6.206  -1.114  1.00  0.00    -0.341 OA
ATOM     12  C   UNL     1       7.875  -3.698  -2.132  1.00  0.00     0.179 C 
ATOM     13  C   UNL     1       8.926  -3.736  -0.970  1.00  0.00     0.202 C 
BRANCH   9  14
ATOM     14  C   UNL     1       6.942  -7.457  -1.915  1.00  0.00     0.191 C 
BRANCH  14  15
ATOM     15  O   UNL     1       7.690  -8.653  -2.074  1.00  0.00    -0.394 OA
ATOM     16  H   UNL     1       7.655  -9.113  -1.185  1.00  0.00     0.210 HD
ENDBRANCH  14  15
ENDBRANCH   9  14
BRANCH  10  17
ATOM     17  O   UNL     1       6.209  -4.736  -0.781  1.00  0.00    -0.387 OA
ATOM     18  H   UNL     1       5.697  -5.547  -0.602  1.00  0.00     0.211 HD
ENDBRANCH  10  17
BRANCH  12  19
ATOM     19  O   UNL     1       7.183  -2.450  -2.135  1.00  0.00    -0.387 OA
ATOM     20  H   UNL     1       6.348  -2.641  -2.650  1.00  0.00     0.211 HD
ENDBRANCH  12  19
BRANCH  13  21
ATOM     21  O   UNL     1       8.384  -3.718   0.305  1.00  0.00    -0.385 OA
ATOM     22  H   UNL     1       8.812  -4.473   0.787  1.00  0.00     0.211 HD
ENDBRANCH  13  21
ENDBRANCH   7   8
ENDBRANCH   1   7
BRANCH   2  23
ATOM     23  C   UNL     1      13.187  -3.715  -3.104  1.00  0.00     0.191 C 
BRANCH  23  24
ATOM     24  O   UNL     1      14.253  -2.986  -2.556  1.00  0.00    -0.394 OA
ATOM     25  H   UNL     1      14.109  -2.027  -2.851  1.00  0.00     0.210 HD
ENDBRANCH  23  24
ENDBRANCH   2  23
BRANCH   6  26
ATOM     26  O   UNL     1      12.025  -7.706  -3.118  1.00  0.00    -0.387 OA
ATOM     27  H   UNL     1      12.828  -7.316  -3.588  1.00  0.00     0.211 HD
ENDBRANCH   6  26
BRANCH   5  28
ATOM     28  O   UNL     1      13.522  -8.907  -1.039  1.00  0.00    -0.385 OA
ATOM     29  H   UNL     1      14.457  -9.039  -1.357  1.00  0.00     0.211 HD
ENDBRANCH   5  28
BRANCH   4  30
ATOM     30  O   UNL     1      15.590  -6.753  -0.601  1.00  0.00    -0.341 OA
BRANCH  30  31
ATOM     31  C   UNL     1      15.949  -8.094  -0.295  1.00  0.00     0.184 C 
ATOM     32  C   UNL     1      16.636  -8.763  -1.566  1.00  0.00     0.178 C 
ATOM     33  C   UNL     1      16.963  -7.972   0.858  1.00  0.00     0.180 C 
ATOM     34  O   UNL     1      18.033  -9.049  -1.318  1.00  0.00    -0.342 OA
ATOM     35  C   UNL     1      18.230  -7.195   0.353  1.00  0.00     0.201 C 
ATOM     36  C   UNL     1      18.825  -7.907  -0.925  1.00  0.00     0.279 C 
BRANCH  32  37
ATOM     37  C   UNL     1      16.415  -8.087  -2.949  1.00  0.00     0.191 C 
BRANCH  37  38
ATOM     38  O   UNL     1      16.554  -6.654  -2.812  1.00  0.00    -0.394 OA
ATOM     39  H   UNL     1      17.235  -6.388  -3.517  1.00  0.00     0.210 HD
ENDBRANCH  37  38
ENDBRANCH  32  37
BRANCH  33  40
ATOM     40  O   UNL     1      17.206  -9.119   1.644  1.00  0.00    -0.387 OA
ATOM     41  H   UNL     1      16.615  -9.852   1.343  1.00  0.00     0.211 HD
ENDBRANCH  33  40
BRANCH  35  42
ATOM     42  O   UNL     1      19.233  -7.046   1.330  1.00  0.00    -0.385 OA
ATOM     43  H   UNL     1      18.825  -7.019   2.237  1.00  0.00     0.211 HD
ENDBRANCH  35  42
BRANCH  36  44
ATOM     44  O   UNL     1      18.959  -6.989  -1.983  1.00  0.00    -0.366 OA
ATOM     45  H   UNL     1      18.385  -7.318  -2.719  1.00  0.00     0.213 HD
ENDBRANCH  36  44
ENDBRANCH  30  31
ENDBRANCH   4  30
TORSDOF 18
ENDMDL
MODEL 3
REMARK VINA RESULT:     1.200      1.381      2.756
REMARK INTER + INTRA:           3.294
REMARK INTER:                   3.147
REMARK INTRA:                   0.147
REMARK UNBOUND:                 1.218
REMARK SMILES OC[C@@H]1O[C@@H](O[C@H]2[C@@H](O)[C@@H](O)[C@H](O[C@@H]3[C@@H](O)[C@@H](O)[C@H](O)O[C@@H]3CO)O[C@@H]2CO)[C@H](O)[C@H](O)[C@@H]1O
REMARK SMILES IDX 7 1 26 2 25 3 12 4 10 5 8 6 6 7 5 8 3 9 33 10 4 11 31 12
REMARK SMILES IDX 29 13 2 14 1 15 34 17 32 19 30 21 27 23 28 24 9 26 11 28
REMARK SMILES IDX 13 30 14 31 22 32 15 33 21 34 17 35 19 36 23 37 24 38 16 40
REMARK SMILES IDX 18 42 20 44
REMARK H PARENT 1 16 34 18 32 20 30 22 28 25 9 27 11 29 24 39 16 41 18 43
REMARK H PARENT 20 45
REMARK Flexibility Score: inf
ROOT
ATOM      1  C   UNL     1      12.702  -6.614  -1.691  1.00  0.00     0.184 C 
ATOM      2  C   UNL     1      11.919  -6.947  -2.990  1.00  0.00     0.178 C 
ATOM      3  O   UNL     1      10.767  -6.132  -2.999  1.00  0.00    -0.341 OA
ATOM      4  C   UNL     1      11.123  -4.764  -3.125  1.00  0.00     0.282 C 
ATOM      5  C   UNL     1      12.246  -4.229  -2.186  1.00  0.00     0.202 C 
ATOM      6  C   UNL     1      13.398  -5.256  -1.984  1.00  0.00     0.180 C 
ENDROOT
BRANCH   1   7
ATOM      7  O   UNL     1      13.597  -7.635  -1.194  1.00  0.00    -0.341 OA
BRANCH   7   8
ATOM      8  C   UNL     1      14.908  -7.044  -1.067  1.00  0.00     0.282 C 
ATOM      9  C   UNL     1      16.358  -8.804  -1.943  1.00  0.00     0.178 C 
ATOM     10  C   UNL     1      16.971  -9.125  -0.538  1.00  0.00     0.177 C 
ATOM     11  O   UNL     1      15.873  -7.455  -2.052  1.00  0.00    -0.341 OA
ATOM     12  C   UNL     1      15.921  -8.799   0.482  1.00  0.00     0.179 C 
ATOM     13  C   UNL     1      15.533  -7.283   0.395  1.00  0.00     0.202 C 
BRANCH   9  14
ATOM     14  C   UNL     1      17.327  -9.034  -3.125  1.00  0.00     0.191 C 
BRANCH  14  15
ATOM     15  O   UNL     1      18.494  -8.226  -3.094  1.00  0.00    -0.394 OA
ATOM     16  H   UNL     1      18.803  -8.234  -2.141  1.00  0.00     0.210 HD
ENDBRANCH  14  15
ENDBRANCH   9  14
BRANCH  10  17
ATOM     17  O   UNL     1      18.139  -8.367  -0.274  1.00  0.00    -0.387 OA
ATOM     18  H   UNL     1      18.616  -8.723   0.499  1.00  0.00     0.211 HD
ENDBRANCH  10  17
BRANCH  12  19
ATOM     19  O   UNL     1      16.367  -9.122   1.799  1.00  0.00    -0.387 OA
ATOM     20  H   UNL     1      16.292 -10.118   1.839  1.00  0.00     0.211 HD
ENDBRANCH  12  19
BRANCH  13  21
ATOM     21  O   UNL     1      16.590  -6.402   0.551  1.00  0.00    -0.385 OA
ATOM     22  H   UNL     1      17.352  -6.954   0.871  1.00  0.00     0.211 HD
ENDBRANCH  13  21
ENDBRANCH   7   8
ENDBRANCH   1   7
BRANCH   2  23
ATOM     23  C   UNL     1      11.425  -8.368  -3.119  1.00  0.00     0.191 C 
BRANCH  23  24
ATOM     24  O   UNL     1      10.975  -8.896  -1.899  1.00  0.00    -0.394 OA
ATOM     25  H   UNL     1      11.455  -9.781  -1.791  1.00  0.00     0.210 HD
ENDBRANCH  23  24
ENDBRANCH   2  23
BRANCH   6  26
ATOM     26  O   UNL     1      14.217  -5.288  -3.125  1.00  0.00    -0.387 OA
ATOM     27  H   UNL     1      15.173  -5.220  -2.812  1.00  0.00     0.211 HD
ENDBRANCH   6  26
BRANCH   5  28
ATOM     28  O   UNL     1      12.725  -2.952  -2.557  1.00  0.00    -0.385 OA
ATOM     29  H   UNL     1      13.219  -2.590  -1.771  1.00  0.00     0.211 HD
ENDBRANCH   5  28
BRANCH   4  30
ATOM     30  O   UNL     1       9.940  -4.002  -3.057  1.00  0.00    -0.341 OA
BRANCH  30  31
ATOM     31  C   UNL     1       9.550  -3.719  -1.720  1.00  0.00     0.184 C 
ATOM     32  C   UNL     1       8.144  -2.970  -1.723  1.00  0.00     0.178 C 
ATOM     33  C   UNL     1       9.417  -5.102  -1.052  1.00  0.00     0.180 C 
ATOM     34  O   UNL     1       7.111  -3.792  -1.131  1.00  0.00    -0.342 OA
ATOM     35  C   UNL     1       8.280  -5.913  -1.767  1.00  0.00     0.201 C 
ATOM     36  C   UNL     1       6.935  -5.085  -1.752  1.00  0.00     0.279 C 
BRANCH  32  37
ATOM     37  C   UNL     1       7.678  -2.311  -3.052  1.00  0.00     0.191 C 
BRANCH  37  38
ATOM     38  O   UNL     1       6.287  -1.934  -2.939  1.00  0.00    -0.394 OA
ATOM     39  H   UNL     1       6.280  -0.924  -3.049  1.00  0.00     0.210 HD
ENDBRANCH  37  38
ENDBRANCH  32  37
BRANCH  33  40
ATOM     40  O   UNL     1       9.431  -5.154   0.359  1.00  0.00    -0.387 OA
ATOM     41  H   UNL     1       9.102  -6.038   0.657  1.00  0.00     0.211 HD
ENDBRANCH  33  40
BRANCH  35  42
ATOM     42  O   UNL     1       8.062  -7.191  -1.216  1.00  0.00    -0.385 OA
ATOM     43  H   UNL     1       8.118  -7.884  -1.927  1.00  0.00     0.211 HD
ENDBRANCH  35  42
BRANCH  36  44
ATOM     44  O   UNL     1       6.419  -4.961  -3.055  1.00  0.00    -0.366 OA
ATOM     45  H   UNL     1       5.829  -4.167  -3.052  1.00  0.00     0.213 HD
ENDBRANCH  36  44
ENDBRANCH  30  31
ENDBRANCH   4  30
TORSDOF 18
ENDMDL
MODEL 4
REMARK VINA RESULT:     2.066      2.500      4.852
REMARK INTER + INTRA:           4.794
REMARK INTER:                   4.693
REMARK INTRA:                   0.101
REMARK UNBOUND:                 1.218
REMARK SMILES OC[C@@H]1O[C@@H](O[C@H]2[C@@H](O)[C@@H](O)[C@H](O[C@@H]3[C@@H](O)[C@@H](O)[C@H](O)O[C@@H]3CO)O[C@@H]2CO)[C@H](O)[C@H](O)[C@@H]1O
REMARK SMILES IDX 7 1 26 2 25 3 12 4 10 5 8 6 6 7 5 8 3 9 33 10 4 11 31 12
REMARK SMILES IDX 29 13 2 14 1 15 34 17 32 19 30 21 27 23 28 24 9 26 11 28
REMARK SMILES IDX 13 30 14 31 22 32 15 33 21 34 17 35 19 36 23 37 24 38 16 40
REMARK SMILES IDX 18 42 20 44
REMARK H PARENT 1 16 34 18 32 20 30 22 28 25 9 27 11 29 24 39 16 41 18 43
REMARK H PARENT 20 45
REMARK Flexibility Score: inf
ROOT
ATOM      1  C   UNL     1      16.413  -6.901  -0.353  1.00  0.00     0.184 C 
ATOM      2  C   UNL     1      15.451  -8.120  -0.371  1.00  0.00     0.178 C 
ATOM      3  O   UNL     1      14.140  -7.614  -0.228  1.00  0.00    -0.341 OA
ATOM      4  C   UNL     1      13.776  -6.841  -1.360  1.00  0.00     0.282 C 
ATOM      5  C   UNL     1      14.795  -5.770  -1.853  1.00  0.00     0.202 C 
ATOM      6  C   UNL     1      16.270  -6.261  -1.762  1.00  0.00     0.180 C 
ENDROOT
BRANCH   1   7
ATOM      7  O   UNL     1      17.780  -7.161   0.036  1.00  0.00    -0.341 OA
BRANCH   7   8
ATOM      8  C   UNL     1      18.639  -6.424  -0.861  1.00  0.00     0.282 C 
ATOM      9  C   UNL     1      20.483  -7.984  -1.217  1.00  0.00     0.178 C 
ATOM     10  C   UNL     1      21.500  -7.110  -0.409  1.00  0.00     0.177 C 
ATOM     11  O   UNL     1      19.404  -7.219  -1.783  1.00  0.00    -0.341 OA
ATOM     12  C   UNL     1      20.710  -6.364   0.625  1.00  0.00     0.179 C 
ATOM     13  C   UNL     1      19.641  -5.451  -0.065  1.00  0.00     0.202 C 
BRANCH   9  14
ATOM     14  C   UNL     1      21.118  -8.792  -2.372  1.00  0.00     0.191 C 
BRANCH  14  15
ATOM     15  O   UNL     1      22.088  -8.079  -3.124  1.00  0.00    -0.394 OA
ATOM     16  H   UNL     1      21.621  -7.790  -3.962  1.00  0.00     0.210 HD
ENDBRANCH  14  15
ENDBRANCH   9  14
BRANCH  10  17
ATOM     17  O   UNL     1      22.191  -6.188  -1.233  1.00  0.00    -0.387 OA
ATOM     18  H   UNL     1      23.043  -5.933  -0.831  1.00  0.00     0.211 HD
ENDBRANCH  10  17
BRANCH  12  19
ATOM     19  O   UNL     1      21.566  -5.584   1.460  1.00  0.00    -0.387 OA
ATOM     20  H   UNL     1      21.115  -4.692   1.496  1.00  0.00     0.211 HD
ENDBRANCH  12  19
BRANCH  13  21
ATOM     21  O   UNL     1      20.154  -4.539  -0.973  1.00  0.00    -0.385 OA
ATOM     22  H   UNL     1      19.364  -4.104  -1.390  1.00  0.00     0.211 HD
ENDBRANCH  13  21
ENDBRANCH   7   8
ENDBRANCH   1   7
BRANCH   2  23
ATOM     23  C   UNL     1      15.634  -9.125   0.740  1.00  0.00     0.191 C 
BRANCH  23  24
ATOM     24  O   UNL     1      16.867  -8.986   1.395  1.00  0.00    -0.394 OA
ATOM     25  H   UNL     1      17.419  -9.787   1.113  1.00  0.00     0.210 HD
ENDBRANCH  23  24
ENDBRANCH   2  23
BRANCH   6  26
ATOM     26  O   UNL     1      16.542  -7.158  -2.808  1.00  0.00    -0.387 OA
ATOM     27  H   UNL     1      15.994  -6.868  -3.603  1.00  0.00     0.211 HD
ENDBRANCH   6  26
BRANCH   5  28
ATOM     28  O   UNL     1      14.483  -5.243  -3.125  1.00  0.00    -0.385 OA
ATOM     29  H   UNL     1      13.685  -5.739  -3.456  1.00  0.00     0.211 HD
ENDBRANCH   5  28
BRANCH   4  30
ATOM     30  O   UNL     1      12.492  -6.310  -1.125  1.00  0.00    -0.341 OA
BRANCH  30  31
ATOM     31  C   UNL     1      11.872  -5.836  -2.313  1.00  0.00     0.184 C 
ATOM     32  C   UNL     1      10.988  -6.997  -2.951  1.00  0.00     0.178 C 
ATOM     33  C   UNL     1      10.972  -4.675  -1.846  1.00  0.00     0.180 C 
ATOM     34  O   UNL     1       9.579  -6.674  -2.896  1.00  0.00    -0.342 OA
ATOM     35  C   UNL     1       9.875  -5.232  -0.871  1.00  0.00     0.201 C 
ATOM     36  C   UNL     1       9.072  -6.397  -1.572  1.00  0.00     0.279 C 
BRANCH  32  37
ATOM     37  C   UNL     1      11.272  -8.457  -2.496  1.00  0.00     0.191 C 
BRANCH  37  38
ATOM     38  O   UNL     1      12.602  -8.840  -2.912  1.00  0.00    -0.394 OA
ATOM     39  H   UNL     1      13.165  -8.796  -2.067  1.00  0.00     0.210 HD
ENDBRANCH  37  38
ENDBRANCH  32  37
BRANCH  33  40
ATOM     40  O   UNL     1      10.534  -3.752  -2.819  1.00  0.00    -0.387 OA
ATOM     41  H   UNL     1      11.313  -3.417  -3.327  1.00  0.00     0.211 HD
ENDBRANCH  33  40
BRANCH  35  42
ATOM     42  O   UNL     1       8.983  -4.249  -0.400  1.00  0.00    -0.385 OA
ATOM     43  H   UNL     1       8.977  -3.469  -1.016  1.00  0.00     0.211 HD
ENDBRANCH  35  42
BRANCH  36  44
ATOM     44  O   UNL     1       9.079  -7.552  -0.769  1.00  0.00    -0.366 OA
ATOM     45  H   UNL     1       8.412  -7.405  -0.054  1.00  0.00     0.213 HD
ENDBRANCH  36  44
ENDBRANCH  30  31
ENDBRANCH   4  30
TORSDOF 18
ENDMDL
MODEL 5
REMARK VINA RESULT:     2.290      1.550      8.191
REMARK INTER + INTRA:           5.182
REMARK INTER:                   0.064
REMARK INTRA:                   5.118
REMARK UNBOUND:                 1.218
REMARK SMILES OC[C@@H]1O[C@@H](O[C@H]2[C@@H](O)[C@@H](O)[C@H](O[C@@H]3[C@@H](O)[C@@H](O)[C@H](O)O[C@@H]3CO)O[C@@H]2CO)[C@H](O)[C@H](O)[C@@H]1O
REMARK SMILES IDX 7 1 26 2 25 3 12 4 10 5 8 6 6 7 5 8 3 9 33 10 4 11 31 12
REMARK SMILES IDX 29 13 2 14 1 15 34 17 32 19 30 21 27 23 28 24 9 26 11 28
REMARK SMILES IDX 13 30 14 31 22 32 15 33 21 34 17 35 19 36 23 37 24 38 16 40
REMARK SMILES IDX 18 42 20 44
REMARK H PARENT 1 16 34 18 32 20 30 22 28 25 9 27 11 29 24 39 16 41 18 43
REMARK H PARENT 20 45
REMARK Flexibility Score: inf
ROOT
ATOM      1  C   UNL     1      10.416  -5.379  -1.697  1.00  0.00     0.184 C 
ATOM      2  C   UNL     1      11.734  -5.380  -2.518  1.00  0.00     0.178 C 
ATOM      3  O   UNL     1      12.763  -5.801  -1.649  1.00  0.00    -0.341 OA
ATOM      4  C   UNL     1      12.569  -7.152  -1.262  1.00  0.00     0.282 C 
ATOM      5  C   UNL     1      11.147  -7.559  -0.772  1.00  0.00     0.202 C 
ATOM      6  C   UNL     1      10.013  -6.877  -1.591  1.00  0.00     0.180 C 
ENDROOT
BRANCH   1   7
ATOM      7  O   UNL     1       9.356  -4.520  -2.174  1.00  0.00    -0.341 OA
BRANCH   7   8
ATOM      8  C   UNL     1       8.195  -4.756  -1.347  1.00  0.00     0.282 C 
ATOM      9  C   UNL     1       6.638  -5.791  -2.918  1.00  0.00     0.178 C 
ATOM     10  C   UNL     1       5.688  -4.546  -2.939  1.00  0.00     0.177 C 
ATOM     11  O   UNL     1       7.400  -5.900  -1.703  1.00  0.00    -0.341 OA
ATOM     12  C   UNL     1       6.540  -3.341  -2.676  1.00  0.00     0.179 C 
ATOM     13  C   UNL     1       7.238  -3.465  -1.278  1.00  0.00     0.202 C 
BRANCH   9  14
ATOM     14  C   UNL     1       5.917  -7.143  -3.123  1.00  0.00     0.191 C 
BRANCH  14  15
ATOM     15  O   UNL     1       6.024  -8.038  -2.027  1.00  0.00    -0.394 OA
ATOM     16  H   UNL     1       6.963  -7.943  -1.690  1.00  0.00     0.210 HD
ENDBRANCH  14  15
ENDBRANCH   9  14
BRANCH  10  17
ATOM     17  O   UNL     1       4.670  -4.630  -1.957  1.00  0.00    -0.387 OA
ATOM     18  H   UNL     1       5.049  -4.830  -1.081  1.00  0.00     0.211 HD
ENDBRANCH  10  17
BRANCH  12  19
ATOM     19  O   UNL     1       5.768  -2.142  -2.740  1.00  0.00    -0.387 OA
ATOM     20  H   UNL     1       5.635  -1.892  -1.782  1.00  0.00     0.211 HD
ENDBRANCH  12  19
BRANCH  13  21
ATOM     21  O   UNL     1       6.374  -3.637  -0.210  1.00  0.00    -0.385 OA
ATOM     22  H   UNL     1       5.464  -3.472  -0.574  1.00  0.00     0.211 HD
ENDBRANCH  13  21
ENDBRANCH   7   8
ENDBRANCH   1   7
BRANCH   2  23
ATOM     23  C   UNL     1      12.173  -4.044  -3.067  1.00  0.00     0.191 C 
BRANCH  23  24
ATOM     24  O   UNL     1      13.335  -3.561  -2.446  1.00  0.00    -0.394 OA
ATOM     25  H   UNL     1      13.517  -2.659  -2.871  1.00  0.00     0.210 HD
ENDBRANCH  23  24
ENDBRANCH   2  23
BRANCH   6  26
ATOM     26  O   UNL     1       9.880  -7.504  -2.841  1.00  0.00    -0.387 OA
ATOM     27  H   UNL     1       9.898  -6.781  -3.543  1.00  0.00     0.211 HD
ENDBRANCH   6  26
BRANCH   5  28
ATOM     28  O   UNL     1      10.968  -8.957  -0.670  1.00  0.00    -0.385 OA
ATOM     29  H   UNL     1      10.699  -9.281  -1.573  1.00  0.00     0.211 HD
ENDBRANCH   5  28
BRANCH   4  30
ATOM     30  O   UNL     1      13.584  -7.488  -0.345  1.00  0.00    -0.341 OA
BRANCH  30  31
ATOM     31  C   UNL     1      14.432  -8.524  -0.824  1.00  0.00     0.184 C 
ATOM     32  C   UNL     1      14.371  -8.567  -2.415  1.00  0.00     0.178 C 
ATOM     33  C   UNL     1      15.843  -8.120  -0.354  1.00  0.00     0.180 C 
ATOM     34  O   UNL     1      15.639  -8.186  -2.999  1.00  0.00    -0.342 OA
ATOM     35  C   UNL     1      16.244  -6.762  -1.031  1.00  0.00     0.201 C 
ATOM     36  C   UNL     1      16.123  -6.885  -2.601  1.00  0.00     0.279 C 
BRANCH  32  37
ATOM     37  C   UNL     1      13.172  -7.865  -3.113  1.00  0.00     0.191 C 
BRANCH  37  38
ATOM     38  O   UNL     1      11.991  -8.689  -2.985  1.00  0.00    -0.394 OA
ATOM     39  H   UNL     1      12.001  -9.290  -3.805  1.00  0.00     0.210 HD
ENDBRANCH  37  38
ENDBRANCH  32  37
BRANCH  33  40
ATOM     40  O   UNL     1      16.838  -9.122  -0.325  1.00  0.00    -0.387 OA
ATOM     41  H   UNL     1      16.829  -9.565   0.558  1.00  0.00     0.211 HD
ENDBRANCH  33  40
BRANCH  35  42
ATOM     42  O   UNL     1      17.532  -6.312  -0.682  1.00  0.00    -0.385 OA
ATOM     43  H   UNL     1      17.470  -5.474  -0.150  1.00  0.00     0.211 HD
ENDBRANCH  35  42
BRANCH  36  44
ATOM     44  O   UNL     1      15.311  -5.857  -3.114  1.00  0.00    -0.366 OA
ATOM     45  H   UNL     1      15.567  -5.029  -2.639  1.00  0.00     0.213 HD
ENDBRANCH  36  44
ENDBRANCH  30  31
ENDBRANCH   4  30
TORSDOF 18
ENDMDL
MODEL 6
REMARK VINA RESULT:     2.601      1.577      3.728
REMARK INTER + INTRA:           5.719
REMARK INTER:                   2.862
REMARK INTRA:                   2.856
REMARK UNBOUND:                 1.218
REMARK SMILES OC[C@@H]1O[C@@H](O[C@H]2[C@@H](O)[C@@H](O)[C@H](O[C@@H]3[C@@H](O)[C@@H](O)[C@H](O)O[C@@H]3CO)O[C@@H]2CO)[C@H](O)[C@H](O)[C@@H]1O
REMARK SMILES IDX 7 1 26 2 25 3 12 4 10 5 8 6 6 7 5 8 3 9 33 10 4 11 31 12
REMARK SMILES IDX 29 13 2 14 1 15 34 17 32 19 30 21 27 23 28 24 9 26 11 28
REMARK SMILES IDX 13 30 14 31 22 32 15 33 21 34 17 35 19 36 23 37 24 38 16 40
REMARK SMILES IDX 18 42 20 44
REMARK H PARENT 1 16 34 18 32 20 30 22 28 25 9 27 11 29 24 39 16 41 18 43
REMARK H PARENT 20 45
REMARK Flexibility Score: inf
ROOT
ATOM      1  C   UNL     1      13.404  -5.867  -1.568  1.00  0.00     0.184 C 
ATOM      2  C   UNL     1      13.083  -6.721  -2.825  1.00  0.00     0.178 C 
ATOM      3  O   UNL     1      11.683  -6.897  -2.858  1.00  0.00    -0.341 OA
ATOM      4  C   UNL     1      11.028  -5.659  -3.078  1.00  0.00     0.282 C 
ATOM      5  C   UNL     1      11.473  -4.449  -2.202  1.00  0.00     0.202 C 
ATOM      6  C   UNL     1      13.010  -4.416  -1.963  1.00  0.00     0.180 C 
ENDROOT
BRANCH   1   7
ATOM      7  O   UNL     1      14.740  -5.986  -1.029  1.00  0.00    -0.341 OA
BRANCH   7   8
ATOM      8  C   UNL     1      15.259  -7.273  -1.426  1.00  0.00     0.282 C 
ATOM      9  C   UNL     1      16.442  -7.999   0.584  1.00  0.00     0.178 C 
ATOM     10  C   UNL     1      17.853  -7.841  -0.078  1.00  0.00     0.177 C 
ATOM     11  O   UNL     1      15.394  -8.241  -0.371  1.00  0.00    -0.341 OA
ATOM     12  C   UNL     1      17.735  -6.753  -1.103  1.00  0.00     0.179 C 
ATOM     13  C   UNL     1      16.670  -7.140  -2.185  1.00  0.00     0.202 C 
BRANCH   9  14
ATOM     14  C   UNL     1      16.361  -9.123   1.641  1.00  0.00     0.191 C 
BRANCH  14  15
ATOM     15  O   UNL     1      15.557  -8.813   2.769  1.00  0.00    -0.394 OA
ATOM     16  H   UNL     1      14.988  -8.036   2.490  1.00  0.00     0.210 HD
ENDBRANCH  14  15
ENDBRANCH   9  14
BRANCH  10  17
ATOM     17  O   UNL     1      18.291  -9.035  -0.703  1.00  0.00    -0.387 OA
ATOM     18  H   UNL     1      17.690  -9.287  -1.429  1.00  0.00     0.211 HD
ENDBRANCH  10  17
BRANCH  12  19
ATOM     19  O   UNL     1      18.996  -6.489  -1.719  1.00  0.00    -0.387 OA
ATOM     20  H   UNL     1      19.476  -7.364  -1.664  1.00  0.00     0.211 HD
ENDBRANCH  12  19
BRANCH  13  21
ATOM     21  O   UNL     1      16.913  -8.338  -2.838  1.00  0.00    -0.385 OA
ATOM     22  H   UNL     1      16.019  -8.701  -3.070  1.00  0.00     0.211 HD
ENDBRANCH  13  21
ENDBRANCH   7   8
ENDBRANCH   1   7
BRANCH   2  23
ATOM     23  C   UNL     1      13.678  -8.108  -2.853  1.00  0.00     0.191 C 
BRANCH  23  24
ATOM     24  O   UNL     1      12.896  -9.045  -2.161  1.00  0.00    -0.394 OA
ATOM     25  H   UNL     1      13.552  -9.632  -1.659  1.00  0.00     0.210 HD
ENDBRANCH  23  24
ENDBRANCH   2  23
BRANCH   6  26
ATOM     26  O   UNL     1      13.666  -3.960  -3.118  1.00  0.00    -0.387 OA
ATOM     27  H   UNL     1      13.646  -4.710  -3.791  1.00  0.00     0.211 HD
ENDBRANCH   6  26
BRANCH   5  28
ATOM     28  O   UNL     1      10.976  -3.210  -2.663  1.00  0.00    -0.385 OA
ATOM     29  H   UNL     1      10.470  -3.395  -3.501  1.00  0.00     0.211 HD
ENDBRANCH   5  28
BRANCH   4  30
ATOM     30  O   UNL     1       9.639  -5.890  -3.030  1.00  0.00    -0.341 OA
BRANCH  30  31
ATOM     31  C   UNL     1       9.178  -6.176  -1.716  1.00  0.00     0.184 C 
ATOM     32  C   UNL     1       8.381  -4.920  -1.147  1.00  0.00     0.178 C 
ATOM     33  C   UNL     1       8.229  -7.378  -1.889  1.00  0.00     0.180 C 
ATOM     34  O   UNL     1       6.977  -5.224  -0.973  1.00  0.00    -0.342 OA
ATOM     35  C   UNL     1       7.014  -6.951  -2.786  1.00  0.00     0.201 C 
ATOM     36  C   UNL     1       6.305  -5.683  -2.166  1.00  0.00     0.279 C 
BRANCH  32  37
ATOM     37  C   UNL     1       8.600  -3.547  -1.844  1.00  0.00     0.191 C 
BRANCH  37  38
ATOM     38  O   UNL     1       8.688  -2.508  -0.842  1.00  0.00    -0.394 OA
ATOM     39  H   UNL     1       9.113  -1.718  -1.320  1.00  0.00     0.210 HD
ENDBRANCH  37  38
ENDBRANCH  32  37
BRANCH  33  40
ATOM     40  O   UNL     1       7.922  -8.143  -0.743  1.00  0.00    -0.387 OA
ATOM     41  H   UNL     1       6.962  -8.380  -0.755  1.00  0.00     0.211 HD
ENDBRANCH  33  40
BRANCH  35  42
ATOM     42  O   UNL     1       6.071  -7.977  -2.990  1.00  0.00    -0.385 OA
ATOM     43  H   UNL     1       5.525  -7.784  -3.798  1.00  0.00     0.211 HD
ENDBRANCH  35  42
BRANCH  36  44
ATOM     44  O   UNL     1       6.205  -4.657  -3.124  1.00  0.00    -0.366 OA
ATOM     45  H   UNL     1       6.023  -3.822  -2.627  1.00  0.00     0.213 HD
ENDBRANCH  36  44
ENDBRANCH  30  31
ENDBRANCH   4  30
TORSDOF 18
ENDMDL
MODEL 7
REMARK VINA RESULT:     2.863      1.872      8.415
REMARK INTER + INTRA:           6.172
REMARK INTER:                   2.195
REMARK INTRA:                   3.977
REMARK UNBOUND:                 1.218
REMARK SMILES OC[C@@H]1O[C@@H](O[C@H]2[C@@H](O)[C@@H](O)[C@H](O[C@@H]3[C@@H](O)[C@@H](O)[C@H](O)O[C@@H]3CO)O[C@@H]2CO)[C@H](O)[C@H](O)[C@@H]1O
REMARK SMILES IDX 7 1 26 2 25 3 12 4 10 5 8 6 6 7 5 8 3 9 33 10 4 11 31 12
REMARK SMILES IDX 29 13 2 14 1 15 34 17 32 19 30 21 27 23 28 24 9 26 11 28
REMARK SMILES IDX 13 30 14 31 22 32 15 33 21 34 17 35 19 36 23 37 24 38 16 40
REMARK SMILES IDX 18 42 20 44
REMARK H PARENT 1 16 34 18 32 20 30 22 28 25 9 27 11 29 24 39 16 41 18 43
REMARK H PARENT 20 45
REMARK Flexibility Score: inf
ROOT
ATOM      1  C   UNL     1       8.026  -5.874  -0.747  1.00  0.00     0.184 C 
ATOM      2  C   UNL     1       9.215  -4.982  -1.197  1.00  0.00     0.178 C 
ATOM      3  O   UNL     1      10.400  -5.667  -0.851  1.00  0.00    -0.341 OA
ATOM      4  C   UNL     1      10.528  -6.859  -1.609  1.00  0.00     0.282 C 
ATOM      5  C   UNL     1       9.282  -7.792  -1.690  1.00  0.00     0.202 C 
ATOM      6  C   UNL     1       7.948  -7.000  -1.816  1.00  0.00     0.180 C 
ENDROOT
BRANCH   1   7
ATOM      7  O   UNL     1       6.767  -5.204  -0.508  1.00  0.00    -0.341 OA
BRANCH   7   8
ATOM      8  C   UNL     1       6.215  -4.840  -1.792  1.00  0.00     0.282 C 
ATOM      9  C   UNL     1       6.993  -2.540  -2.059  1.00  0.00     0.178 C 
ATOM     10  C   UNL     1       5.557  -1.938  -1.887  1.00  0.00     0.177 C 
ATOM     11  O   UNL     1       6.983  -3.891  -2.552  1.00  0.00    -0.341 OA
ATOM     12  C   UNL     1       4.792  -2.876  -1.002  1.00  0.00     0.179 C 
ATOM     13  C   UNL     1       4.708  -4.295  -1.661  1.00  0.00     0.202 C 
BRANCH   9  14
ATOM     14  C   UNL     1       7.915  -1.723  -2.992  1.00  0.00     0.191 C 
BRANCH  14  15
ATOM     15  O   UNL     1       8.316  -0.466  -2.469  1.00  0.00    -0.394 OA
ATOM     16  H   UNL     1       7.489  -0.063  -2.071  1.00  0.00     0.210 HD
ENDBRANCH  14  15
ENDBRANCH   9  14
BRANCH  10  17
ATOM     17  O   UNL     1       4.881  -1.796  -3.124  1.00  0.00    -0.387 OA
ATOM     18  H   UNL     1       4.250  -1.054  -3.092  1.00  0.00     0.211 HD
ENDBRANCH  10  17
BRANCH  12  19
ATOM     19  O   UNL     1       3.483  -2.376  -0.733  1.00  0.00    -0.387 OA
ATOM     20  H   UNL     1       3.428  -2.375   0.265  1.00  0.00     0.211 HD
ENDBRANCH  12  19
BRANCH  13  21
ATOM     21  O   UNL     1       4.140  -4.317  -2.925  1.00  0.00    -0.385 OA
ATOM     22  H   UNL     1       4.891  -4.164  -3.557  1.00  0.00     0.211 HD
ENDBRANCH  13  21
ENDBRANCH   7   8
ENDBRANCH   1   7
BRANCH   2  23
ATOM     23  C   UNL     1       9.310  -3.626  -0.540  1.00  0.00     0.191 C 
BRANCH  23  24
ATOM     24  O   UNL     1       8.677  -3.587   0.711  1.00  0.00    -0.394 OA
ATOM     25  H   UNL     1       8.255  -2.668   0.776  1.00  0.00     0.210 HD
ENDBRANCH  23  24
ENDBRANCH   2  23
BRANCH   6  26
ATOM     26  O   UNL     1       7.802  -6.511  -3.125  1.00  0.00    -0.387 OA
ATOM     27  H   UNL     1       7.797  -5.504  -3.071  1.00  0.00     0.211 HD
ENDBRANCH   6  26
BRANCH   5  28
ATOM     28  O   UNL     1       9.400  -8.802  -2.671  1.00  0.00    -0.385 OA
ATOM     29  H   UNL     1       9.530  -8.342  -3.545  1.00  0.00     0.211 HD
ENDBRANCH   5  28
BRANCH   4  30
ATOM     30  O   UNL     1      11.687  -7.528  -1.170  1.00  0.00    -0.341 OA
BRANCH  30  31
ATOM     31  C   UNL     1      12.558  -7.870  -2.240  1.00  0.00     0.184 C 
ATOM     32  C   UNL     1      12.850  -6.577  -3.123  1.00  0.00     0.178 C 
ATOM     33  C   UNL     1      13.851  -8.351  -1.552  1.00  0.00     0.180 C 
ATOM     34  O   UNL     1      14.236  -6.175  -3.022  1.00  0.00    -0.342 OA
ATOM     35  C   UNL     1      14.471  -7.164  -0.734  1.00  0.00     0.201 C 
ATOM     36  C   UNL     1      14.696  -5.918  -1.677  1.00  0.00     0.279 C 
BRANCH  32  37
ATOM     37  C   UNL     1      11.879  -5.370  -2.982  1.00  0.00     0.191 C 
BRANCH  37  38
ATOM     38  O   UNL     1      12.633  -4.185  -2.640  1.00  0.00    -0.394 OA
ATOM     39  H   UNL     1      11.982  -3.415  -2.766  1.00  0.00     0.210 HD
ENDBRANCH  37  38
ENDBRANCH  32  37
BRANCH  33  40
ATOM     40  O   UNL     1      14.753  -9.124  -2.314  1.00  0.00    -0.387 OA
ATOM     41  H   UNL     1      14.847  -8.724  -3.213  1.00  0.00     0.211 HD
ENDBRANCH  33  40
BRANCH  35  42
ATOM     42  O   UNL     1      15.674  -7.494  -0.079  1.00  0.00    -0.385 OA
ATOM     43  H   UNL     1      15.936  -6.764   0.544  1.00  0.00     0.211 HD
ENDBRANCH  35  42
BRANCH  36  44
ATOM     44  O   UNL     1      14.081  -4.774  -1.137  1.00  0.00    -0.366 OA
ATOM     45  H   UNL     1      14.556  -3.992  -1.512  1.00  0.00     0.213 HD
ENDBRANCH  36  44
ENDBRANCH  30  31
ENDBRANCH   4  30
TORSDOF 18
ENDMDL
