MODEL 1
REMARK VINA RESULT:    -2.827      0.000      0.000
REMARK INTER + INTRA:          -5.490
REMARK INTER:                  -4.314
REMARK INTRA:                  -1.176
REMARK UNBOUND:                -1.176
REMARK SMILES CCCCCCCCCCC(=O)[O-]
REMARK SMILES IDX 7 1 8 2 9 3 10 4 11 5 12 6 13 7 6 8 5 9 4 10 3 11 2 12 1 13
REMARK H PARENT
REMARK Flexibility Score: inf
ROOT
ATOM      1  C   UNL     1     167.862 169.381 152.707  1.00  0.00     0.000 C 
ENDROOT
BRANCH   1   2
ATOM      2  C   UNL     1     168.373 170.723 152.159  1.00  0.00     0.000 C 
BRANCH   2   3
ATOM      3  C   UNL     1     169.407 170.549 151.033  1.00  0.00     0.006 C 
BRANCH   3   4
ATOM      4  C   UNL     1     169.655 169.072 150.698  1.00  0.00     0.053 C 
BRANCH   4   5
ATOM      5  C   UNL     1     170.349 168.910 149.380  1.00  0.00     0.041 C 
ATOM      6  O   UNL     1     169.725 168.449 148.389  1.00  0.00    -0.550 OA
ATOM      7  O   UNL     1     171.694 169.236 149.256  1.00  0.00    -0.550 OA
ENDBRANCH   4   5
ENDBRANCH   3   4
ENDBRANCH   2   3
ENDBRANCH   1   2
BRANCH   1   8
ATOM      8  C   UNL     1     166.553 169.530 153.504  1.00  0.00     0.000 C 
BRANCH   8   9
ATOM      9  C   UNL     1     165.722 170.742 153.053  1.00  0.00    -0.000 C 
BRANCH   9  10
ATOM     10  C   UNL     1     164.522 170.348 152.179  1.00  0.00    -0.000 C 
BRANCH  10  11
ATOM     11  C   UNL     1     164.804 170.641 150.697  1.00  0.00    -0.000 C 
BRANCH  11  12
ATOM     12  C   UNL     1     165.186 169.379 149.908  1.00  0.00    -0.003 C 
ATOM     13  C   UNL     1     166.371 169.605 148.968  1.00  0.00     0.004 C 
ENDBRANCH  11  12
ENDBRANCH  10  11
ENDBRANCH   9  10
ENDBRANCH   8   9
ENDBRANCH   1   8
TORSDOF 9
ENDMDL
MODEL 2
REMARK VINA RESULT:    -2.821      2.707      4.165
REMARK INTER + INTRA:          -5.480
REMARK INTER:                  -4.353
REMARK INTRA:                  -1.128
REMARK UNBOUND:                -1.176
REMARK SMILES CCCCCCCCCCC(=O)[O-]
REMARK SMILES IDX 7 1 8 2 9 3 10 4 11 5 12 6 13 7 6 8 5 9 4 10 3 11 2 12 1 13
REMARK H PARENT
REMARK Flexibility Score: inf
ROOT
ATOM      1  C   UNL     1     169.732 169.120 150.175  1.00  0.00     0.000 C 
ENDROOT
BRANCH   1   2
ATOM      2  C   UNL     1     169.531 170.556 150.687  1.00  0.00     0.000 C 
BRANCH   2   3
ATOM      3  C   UNL     1     168.636 170.621 151.936  1.00  0.00     0.006 C 
BRANCH   3   4
ATOM      4  C   UNL     1     168.119 169.237 152.350  1.00  0.00     0.053 C 
BRANCH   4   5
ATOM      5  C   UNL     1     167.447 169.272 153.689  1.00  0.00     0.041 C 
ATOM      6  O   UNL     1     166.484 168.499 153.934  1.00  0.00    -0.550 OA
ATOM      7  O   UNL     1     167.861 170.183 154.653  1.00  0.00    -0.550 OA
ENDBRANCH   4   5
ENDBRANCH   3   4
ENDBRANCH   2   3
ENDBRANCH   1   2
BRANCH   1   8
ATOM      8  C   UNL     1     169.258 168.941 148.722  1.00  0.00     0.000 C 
BRANCH   8   9
ATOM      9  C   UNL     1     167.983 169.744 148.413  1.00  0.00    -0.000 C 
BRANCH   9  10
ATOM     10  C   UNL     1     166.715 168.877 148.439  1.00  0.00    -0.000 C 
BRANCH  10  11
ATOM     11  C   UNL     1     165.510 169.684 148.946  1.00  0.00    -0.000 C 
BRANCH  11  12
ATOM     12  C   UNL     1     165.142 169.345 150.399  1.00  0.00    -0.003 C 
ATOM     13  C   UNL     1     164.770 170.580 151.219  1.00  0.00     0.004 C 
ENDBRANCH  11  12
ENDBRANCH  10  11
ENDBRANCH   9  10
ENDBRANCH   8   9
ENDBRANCH   1   8
TORSDOF 9
ENDMDL
MODEL 3
REMARK VINA RESULT:    -2.787      2.568      4.550
REMARK INTER + INTRA:          -5.430
REMARK INTER:                  -4.486
REMARK INTRA:                  -0.944
REMARK UNBOUND:                -1.176
REMARK SMILES CCCCCCCCCCC(=O)[O-]
REMARK SMILES IDX 7 1 8 2 9 3 10 4 11 5 12 6 13 7 6 8 5 9 4 10 3 11 2 12 1 13
REMARK H PARENT
REMARK Flexibility Score: inf
ROOT
ATOM      1  C   UNL     1     166.706 169.617 154.510  1.00  0.00     0.000 C 
ENDROOT
BRANCH   1   2
ATOM      2  C   UNL     1     165.325 170.257 154.294  1.00  0.00     0.000 C 
BRANCH   2   3
ATOM      3  C   UNL     1     164.601 169.704 153.054  1.00  0.00     0.006 C 
BRANCH   3   4
ATOM      4  C   UNL     1     164.568 170.720 151.903  1.00  0.00     0.053 C 
BRANCH   4   5
ATOM      5  C   UNL     1     164.942 170.091 150.596  1.00  0.00     0.041 C 
ATOM      6  O   UNL     1     165.055 168.840 150.506  1.00  0.00    -0.550 OA
ATOM      7  O   UNL     1     165.201 170.888 149.488  1.00  0.00    -0.550 OA
ENDBRANCH   4   5
ENDBRANCH   3   4
ENDBRANCH   2   3
ENDBRANCH   1   2
BRANCH   1   8
ATOM      8  C   UNL     1     167.859 170.600 154.242  1.00  0.00     0.000 C 
BRANCH   8   9
ATOM      9  C   UNL     1     168.326 170.579 152.777  1.00  0.00    -0.000 C 
BRANCH   9  10
ATOM     10  C   UNL     1     168.242 169.181 152.148  1.00  0.00    -0.000 C 
BRANCH  10  11
ATOM     11  C   UNL     1     168.629 169.225 150.661  1.00  0.00    -0.000 C 
BRANCH  11  12
ATOM     12  C   UNL     1     170.114 168.907 150.428  1.00  0.00    -0.003 C 
ATOM     13  C   UNL     1     170.923 170.133 150.008  1.00  0.00     0.004 C 
ENDBRANCH  11  12
ENDBRANCH  10  11
ENDBRANCH   9  10
ENDBRANCH   8   9
ENDBRANCH   1   8
TORSDOF 9
ENDMDL
MODEL 4
REMARK VINA RESULT:    -2.725      3.315      5.532
REMARK INTER + INTRA:          -5.334
REMARK INTER:                  -4.015
REMARK INTRA:                  -1.319
REMARK UNBOUND:                -1.176
REMARK SMILES CCCCCCCCCCC(=O)[O-]
REMARK SMILES IDX 7 1 8 2 9 3 10 4 11 5 12 6 13 7 6 8 5 9 4 10 3 11 2 12 1 13
REMARK H PARENT
REMARK Flexibility Score: inf
ROOT
ATOM      1  C   UNL     1     164.875 168.588 149.550  1.00  0.00     0.000 C 
ENDROOT
BRANCH   1   2
ATOM      2  C   UNL     1     164.550 168.813 151.036  1.00  0.00     0.000 C 
BRANCH   2   3
ATOM      3  C   UNL     1     164.334 170.297 151.378  1.00  0.00     0.006 C 
BRANCH   3   4
ATOM      4  C   UNL     1     165.124 170.725 152.622  1.00  0.00     0.053 C 
BRANCH   4   5
ATOM      5  C   UNL     1     164.822 169.850 153.800  1.00  0.00     0.041 C 
ATOM      6  O   UNL     1     165.748 169.218 154.373  1.00  0.00    -0.550 OA
ATOM      7  O   UNL     1     163.513 169.705 154.243  1.00  0.00    -0.550 OA
ENDBRANCH   4   5
ENDBRANCH   3   4
ENDBRANCH   2   3
ENDBRANCH   1   2
BRANCH   1   8
ATOM      8  C   UNL     1     165.793 169.682 148.976  1.00  0.00     0.000 C 
BRANCH   8   9
ATOM      9  C   UNL     1     167.124 169.120 148.449  1.00  0.00    -0.000 C 
BRANCH   9  10
ATOM     10  C   UNL     1     168.345 169.878 148.993  1.00  0.00    -0.000 C 
BRANCH  10  11
ATOM     11  C   UNL     1     167.950 170.776 150.176  1.00  0.00    -0.000 C 
BRANCH  11  12
ATOM     12  C   UNL     1     168.662 170.382 151.480  1.00  0.00    -0.003 C 
ATOM     13  C   UNL     1     168.335 168.957 151.926  1.00  0.00     0.004 C 
ENDBRANCH  11  12
ENDBRANCH  10  11
ENDBRANCH   9  10
ENDBRANCH   8   9
ENDBRANCH   1   8
TORSDOF 9
ENDMDL
MODEL 5
REMARK VINA RESULT:    -2.721     15.990     17.314
REMARK INTER + INTRA:          -5.329
REMARK INTER:                  -4.262
REMARK INTRA:                  -1.067
REMARK UNBOUND:                -1.176
REMARK SMILES CCCCCCCCCCC(=O)[O-]
REMARK SMILES IDX 7 1 8 2 9 3 10 4 11 5 12 6 13 7 6 8 5 9 4 10 3 11 2 12 1 13
REMARK H PARENT
REMARK Flexibility Score: inf
ROOT
ATOM      1  C   UNL     1     171.889 152.425 151.471  1.00  0.00     0.000 C 
ENDROOT
BRANCH   1   2
ATOM      2  C   UNL     1     173.120 152.567 152.382  1.00  0.00     0.000 C 
BRANCH   2   3
ATOM      3  C   UNL     1     172.745 152.737 153.864  1.00  0.00     0.006 C 
BRANCH   3   4
ATOM      4  C   UNL     1     171.282 152.361 154.138  1.00  0.00     0.053 C 
BRANCH   4   5
ATOM      5  C   UNL     1     171.128 151.644 155.444  1.00  0.00     0.041 C 
ATOM      6  O   UNL     1     172.136 151.412 156.161  1.00  0.00    -0.550 OA
ATOM      7  O   UNL     1     169.876 151.201 155.853  1.00  0.00    -0.550 OA
ENDBRANCH   4   5
ENDBRANCH   3   4
ENDBRANCH   2   3
ENDBRANCH   1   2
BRANCH   1   8
ATOM      8  C   UNL     1     171.727 153.615 150.509  1.00  0.00     0.000 C 
BRANCH   8   9
ATOM      9  C   UNL     1     170.334 154.259 150.595  1.00  0.00    -0.000 C 
BRANCH   9  10
ATOM     10  C   UNL     1     170.306 155.491 151.513  1.00  0.00    -0.000 C 
BRANCH  10  11
ATOM     11  C   UNL     1     171.718 156.069 151.698  1.00  0.00    -0.000 C 
BRANCH  11  12
ATOM     12  C   UNL     1     171.805 157.049 152.877  1.00  0.00    -0.003 C 
ATOM     13  C   UNL     1     172.465 156.434 154.111  1.00  0.00     0.004 C 
ENDBRANCH  11  12
ENDBRANCH  10  11
ENDBRANCH   9  10
ENDBRANCH   8   9
ENDBRANCH   1   8
TORSDOF 9
ENDMDL
MODEL 6
REMARK VINA RESULT:    -2.704     13.457     15.721
REMARK INTER + INTRA:          -5.302
REMARK INTER:                  -4.054
REMARK INTRA:                  -1.248
REMARK UNBOUND:                -1.176
REMARK SMILES CCCCCCCCCCC(=O)[O-]
REMARK SMILES IDX 7 1 8 2 9 3 10 4 11 5 12 6 13 7 6 8 5 9 4 10 3 11 2 12 1 13
REMARK H PARENT
REMARK Flexibility Score: inf
ROOT
ATOM      1  C   UNL     1     154.301 169.713 141.996  1.00  0.00     0.000 C 
ENDROOT
BRANCH   1   2
ATOM      2  C   UNL     1     155.073 171.031 142.168  1.00  0.00     0.000 C 
BRANCH   2   3
ATOM      3  C   UNL     1     156.454 170.830 142.816  1.00  0.00     0.006 C 
BRANCH   3   4
ATOM      4  C   UNL     1     157.387 169.985 141.939  1.00  0.00     0.053 C 
BRANCH   4   5
ATOM      5  C   UNL     1     157.861 168.757 142.655  1.00  0.00     0.041 C 
ATOM      6  O   UNL     1     158.943 168.208 142.320  1.00  0.00    -0.550 OA
ATOM      7  O   UNL     1     157.090 168.199 143.667  1.00  0.00    -0.550 OA
ENDBRANCH   4   5
ENDBRANCH   3   4
ENDBRANCH   2   3
ENDBRANCH   1   2
BRANCH   1   8
ATOM      8  C   UNL     1     153.528 169.653 140.667  1.00  0.00     0.000 C 
BRANCH   8   9
ATOM      9  C   UNL     1     154.075 170.637 139.620  1.00  0.00    -0.000 C 
BRANCH   9  10
ATOM     10  C   UNL     1     154.618 169.931 138.368  1.00  0.00    -0.000 C 
BRANCH  10  11
ATOM     11  C   UNL     1     156.035 169.392 138.614  1.00  0.00    -0.000 C 
BRANCH  11  12
ATOM     12  C   UNL     1     156.122 167.866 138.461  1.00  0.00    -0.003 C 
ATOM     13  C   UNL     1     156.159 167.137 139.804  1.00  0.00     0.004 C 
ENDBRANCH  11  12
ENDBRANCH  10  11
ENDBRANCH   9  10
ENDBRANCH   8   9
ENDBRANCH   1   8
TORSDOF 9
ENDMDL
MODEL 7
REMARK VINA RESULT:    -2.678      1.897      3.957
REMARK INTER + INTRA:          -5.262
REMARK INTER:                  -4.150
REMARK INTRA:                  -1.112
REMARK UNBOUND:                -1.176
REMARK SMILES CCCCCCCCCCC(=O)[O-]
REMARK SMILES IDX 7 1 8 2 9 3 10 4 11 5 12 6 13 7 6 8 5 9 4 10 3 11 2 12 1 13
REMARK H PARENT
REMARK Flexibility Score: inf
ROOT
ATOM      1  C   UNL     1     164.784 170.332 151.268  1.00  0.00     0.000 C 
ENDROOT
BRANCH   1   2
ATOM      2  C   UNL     1     165.388 170.673 149.896  1.00  0.00     0.000 C 
BRANCH   2   3
ATOM      3  C   UNL     1     165.254 169.521 148.885  1.00  0.00     0.006 C 
BRANCH   3   4
ATOM      4  C   UNL     1     166.604 168.857 148.583  1.00  0.00     0.053 C 
BRANCH   4   5
ATOM      5  C   UNL     1     166.476 167.783 147.547  1.00  0.00     0.041 C 
ATOM      6  O   UNL     1     167.480 167.426 146.877  1.00  0.00    -0.550 OA
ATOM      7  O   UNL     1     165.239 167.201 147.296  1.00  0.00    -0.550 OA
ENDBRANCH   4   5
ENDBRANCH   3   4
ENDBRANCH   2   3
ENDBRANCH   1   2
BRANCH   1   8
ATOM      8  C   UNL     1     165.582 170.945 152.432  1.00  0.00     0.000 C 
BRANCH   8   9
ATOM      9  C   UNL     1     166.223 169.879 153.335  1.00  0.00    -0.000 C 
BRANCH   9  10
ATOM     10  C   UNL     1     167.747 169.792 153.162  1.00  0.00    -0.000 C 
BRANCH  10  11
ATOM     11  C   UNL     1     168.115 168.814 152.036  1.00  0.00    -0.000 C 
BRANCH  11  12
ATOM     12  C   UNL     1     169.273 169.324 151.164  1.00  0.00    -0.003 C 
ATOM     13  C   UNL     1     169.061 170.757 150.678  1.00  0.00     0.004 C 
ENDBRANCH  11  12
ENDBRANCH  10  11
ENDBRANCH   9  10
ENDBRANCH   8   9
ENDBRANCH   1   8
TORSDOF 9
ENDMDL
MODEL 8
REMARK VINA RESULT:    -2.599      3.485      4.734
REMARK INTER + INTRA:          -5.143
REMARK INTER:                  -3.901
REMARK INTRA:                  -1.242
REMARK UNBOUND:                -1.176
REMARK SMILES CCCCCCCCCCC(=O)[O-]
REMARK SMILES IDX 7 1 8 2 9 3 10 4 11 5 12 6 13 7 6 8 5 9 4 10 3 11 2 12 1 13
REMARK H PARENT
REMARK Flexibility Score: inf
ROOT
ATOM      1  C   UNL     1     167.913 168.828 151.993  1.00  0.00     0.000 C 
ENDROOT
BRANCH   1   2
ATOM      2  C   UNL     1     167.127 168.850 153.314  1.00  0.00     0.000 C 
BRANCH   2   3
ATOM      3  C   UNL     1     166.526 170.232 153.625  1.00  0.00     0.006 C 
BRANCH   3   4
ATOM      4  C   UNL     1     165.151 170.127 154.298  1.00  0.00     0.053 C 
BRANCH   4   5
ATOM      5  C   UNL     1     164.102 169.642 153.345  1.00  0.00     0.041 C 
ATOM      6  O   UNL     1     163.695 170.390 152.418  1.00  0.00    -0.550 OA
ATOM      7  O   UNL     1     163.549 168.377 153.502  1.00  0.00    -0.550 OA
ENDBRANCH   4   5
ENDBRANCH   3   4
ENDBRANCH   2   3
ENDBRANCH   1   2
BRANCH   1   8
ATOM      8  C   UNL     1     168.194 170.240 151.450  1.00  0.00     0.000 C 
BRANCH   8   9
ATOM      9  C   UNL     1     167.605 170.462 150.048  1.00  0.00    -0.000 C 
BRANCH   9  10
ATOM     10  C   UNL     1     166.219 171.125 150.084  1.00  0.00    -0.000 C 
BRANCH  10  11
ATOM     11  C   UNL     1     165.211 170.332 149.238  1.00  0.00    -0.000 C 
BRANCH  11  12
ATOM     12  C   UNL     1     165.571 168.842 149.133  1.00  0.00    -0.003 C 
ATOM     13  C   UNL     1     164.761 167.968 150.090  1.00  0.00     0.004 C 
ENDBRANCH  11  12
ENDBRANCH  10  11
ENDBRANCH   9  10
ENDBRANCH   8   9
ENDBRANCH   1   8
TORSDOF 9
ENDMDL
MODEL 9
REMARK VINA RESULT:    -2.589      3.458      4.632
REMARK INTER + INTRA:          -5.127
REMARK INTER:                  -4.078
REMARK INTRA:                  -1.050
REMARK UNBOUND:                -1.176
REMARK SMILES CCCCCCCCCCC(=O)[O-]
REMARK SMILES IDX 7 1 8 2 9 3 10 4 11 5 12 6 13 7 6 8 5 9 4 10 3 11 2 12 1 13
REMARK H PARENT
REMARK Flexibility Score: inf
ROOT
ATOM      1  C   UNL     1     167.768 170.353 150.583  1.00  0.00     0.000 C 
ENDROOT
BRANCH   1   2
ATOM      2  C   UNL     1     168.487 169.863 151.850  1.00  0.00     0.000 C 
BRANCH   2   3
ATOM      3  C   UNL     1     167.522 169.262 152.887  1.00  0.00     0.006 C 
BRANCH   3   4
ATOM      4  C   UNL     1     167.598 169.988 154.237  1.00  0.00     0.053 C 
BRANCH   4   5
ATOM      5  C   UNL     1     166.237 170.302 154.776  1.00  0.00     0.041 C 
ATOM      6  O   UNL     1     166.101 170.686 155.967  1.00  0.00    -0.550 OA
ATOM      7  O   UNL     1     165.114 170.138 153.974  1.00  0.00    -0.550 OA
ENDBRANCH   4   5
ENDBRANCH   3   4
ENDBRANCH   2   3
ENDBRANCH   1   2
BRANCH   1   8
ATOM      8  C   UNL     1     166.475 171.125 150.902  1.00  0.00     0.000 C 
BRANCH   8   9
ATOM      9  C   UNL     1     165.270 170.617 150.093  1.00  0.00    -0.000 C 
BRANCH   9  10
ATOM     10  C   UNL     1     165.672 169.640 148.978  1.00  0.00    -0.000 C 
BRANCH  10  11
ATOM     11  C   UNL     1     165.238 168.207 149.321  1.00  0.00    -0.000 C 
BRANCH  11  12
ATOM     12  C   UNL     1     164.306 168.148 150.541  1.00  0.00    -0.003 C 
ATOM     13  C   UNL     1     164.786 167.164 151.606  1.00  0.00     0.004 C 
ENDBRANCH  11  12
ENDBRANCH  10  11
ENDBRANCH   9  10
ENDBRANCH   8   9
ENDBRANCH   1   8
TORSDOF 9
ENDMDL
