MODEL 1
REMARK VINA RESULT:    -3.823      0.000      0.000
REMARK INTER + INTRA:          -5.038
REMARK INTER:                  -5.388
REMARK INTRA:                   0.350
REMARK UNBOUND:                 0.350
REMARK SMILES CC1=CCC(=C(C)C)C(=O)CC(C)=CCC1
REMARK SMILES IDX 12 1 14 2 13 3 15 4 16 5 2 6 1 7 3 8 11 10 9 11 10 12 5 13
REMARK SMILES IDX 6 14 7 15 8 16 4 17
REMARK H PARENT
REMARK Flexibility Score: 60.00
ROOT
ATOM      1  C   UNL     1      18.517  12.557  51.986  1.00  0.00    -0.070 C 
ATOM      2  C   UNL     1      17.872  11.456  52.441  1.00  0.00    -0.027 C 
ATOM      3  C   UNL     1      18.991  13.558  53.011  1.00  0.00     0.039 C 
ENDROOT
BRANCH   2   4
ATOM      4  C   UNL     1      17.225  10.385  51.594  1.00  0.00     0.032 C 
BRANCH   4   5
ATOM      5  C   UNL     1      15.859  10.820  51.032  1.00  0.00     0.034 C 
BRANCH   5   6
ATOM      6  C   UNL     1      15.757  10.589  49.535  1.00  0.00    -0.077 C 
ATOM      7  C   UNL     1      15.763   9.169  49.029  1.00  0.00     0.039 C 
ATOM      8  C   UNL     1      15.634  11.585  48.629  1.00  0.00    -0.023 CG0
ATOM      9  G   UNL     1      15.574  13.061  48.942  1.00  0.00     0.000 G0
ENDBRANCH   5   6
ENDBRANCH   4   5
ENDBRANCH   2   4
BRANCH   1  10
ATOM     10  C   UNL     1      18.729  12.864  50.513  1.00  0.00     0.111 C 
BRANCH  10  11
ATOM     11  C   UNL     1      17.753  13.901  50.016  1.00  0.00     0.163 C 
ATOM     12  O   UNL     1      17.657  14.982  50.660  1.00  0.00    -0.294 OA
BRANCH  11  13
ATOM     13  C   UNL     1      16.950  13.701  48.770  1.00  0.00    -0.002 C 
ATOM     14  C   UNL     1      17.398  14.126  47.550  1.00  0.00    -0.069 C 
ATOM     15  C   UNL     1      18.697  14.886  47.403  1.00  0.00     0.039 C 
ATOM     16  C   UNL     1      16.597  13.886  46.289  1.00  0.00     0.039 C 
BRANCH  13  17
ATOM     17  C   UNL     1      15.578  13.072  48.927  1.00  0.00     0.066 CG0
ATOM     18  G   UNL     1      15.655  11.594  48.630  1.00  0.00     0.000 G0
ENDBRANCH  13  17
ENDBRANCH  11  13
ENDBRANCH  10  11
ENDBRANCH   1  10
TORSDOF 0
ENDMDL
MODEL 2
REMARK VINA RESULT:    -3.766      5.646      7.870
REMARK INTER + INTRA:          -4.957
REMARK INTER:                  -5.215
REMARK INTRA:                   0.258
REMARK UNBOUND:                 0.350
REMARK SMILES CC1=CCC(=C(C)C)C(=O)CC(C)=CCC1
REMARK SMILES IDX 12 1 14 2 13 3 15 4 16 5 2 6 1 7 3 8 11 10 9 11 10 12 5 13
REMARK SMILES IDX 6 14 7 15 8 16 4 17
REMARK H PARENT
REMARK Flexibility Score: 60.00
ROOT
ATOM      1  C   UNL     1       9.191   8.379  48.121  1.00  0.00    -0.070 C 
ATOM      2  C   UNL     1       8.121   9.210  48.132  1.00  0.00    -0.027 C 
ATOM      3  C   UNL     1       8.976   6.961  48.591  1.00  0.00     0.039 C 
ENDROOT
BRANCH   2   4
ATOM      4  C   UNL     1       8.131  10.684  47.807  1.00  0.00     0.032 C 
BRANCH   4   5
ATOM      5  C   UNL     1       8.624  11.546  48.983  1.00  0.00     0.034 C 
BRANCH   5   6
ATOM      6  C   UNL     1       9.662  12.566  48.550  1.00  0.00    -0.077 C 
ATOM      7  C   UNL     1       9.219  13.704  47.665  1.00  0.00     0.039 C 
ATOM      8  C   UNL     1      10.957  12.527  48.934  1.00  0.00    -0.023 CG0
ATOM      9  G   UNL     1      11.578  11.493  49.842  1.00  0.00     0.000 G0
ENDBRANCH   5   6
ENDBRANCH   4   5
ENDBRANCH   2   4
BRANCH   1  10
ATOM     10  C   UNL     1      10.594   8.813  47.727  1.00  0.00     0.111 C 
BRANCH  10  11
ATOM     11  C   UNL     1      11.444   9.104  48.938  1.00  0.00     0.163 C 
ATOM     12  O   UNL     1      11.512   8.227  49.841  1.00  0.00    -0.294 OA
BRANCH  11  13
ATOM     13  C   UNL     1      12.237  10.367  49.064  1.00  0.00    -0.002 C 
ATOM     14  C   UNL     1      13.499  10.479  48.548  1.00  0.00    -0.069 C 
ATOM     15  C   UNL     1      14.190   9.308  47.886  1.00  0.00     0.039 C 
ATOM     16  C   UNL     1      14.279  11.771  48.646  1.00  0.00     0.039 C 
BRANCH  13  17
ATOM     17  C   UNL     1      11.611  11.499  49.858  1.00  0.00     0.066 CG0
ATOM     18  G   UNL     1      11.003  12.509  48.916  1.00  0.00     0.000 G0
ENDBRANCH  13  17
ENDBRANCH  11  13
ENDBRANCH  10  11
ENDBRANCH   1  10
TORSDOF 0
ENDMDL
MODEL 3
REMARK VINA RESULT:    -3.701     13.477     16.145
REMARK INTER + INTRA:          -4.866
REMARK INTER:                  -5.231
REMARK INTRA:                   0.365
REMARK UNBOUND:                 0.350
REMARK SMILES CC1=CCC(=C(C)C)C(=O)CC(C)=CCC1
REMARK SMILES IDX 12 1 14 2 13 3 15 4 16 5 2 6 1 7 3 8 11 10 9 11 10 12 5 13
REMARK SMILES IDX 6 14 7 15 8 16 4 17
REMARK H PARENT
REMARK Flexibility Score: 60.00
ROOT
ATOM      1  C   UNL     1      13.160  24.279  37.441  1.00  0.00    -0.070 C 
ATOM      2  C   UNL     1      12.698  23.998  38.683  1.00  0.00    -0.027 C 
ATOM      3  C   UNL     1      12.151  24.703  36.403  1.00  0.00     0.039 C 
ENDROOT
BRANCH   2   4
ATOM      4  C   UNL     1      13.508  23.459  39.838  1.00  0.00     0.032 C 
BRANCH   4   5
ATOM      5  C   UNL     1      13.849  21.966  39.676  1.00  0.00     0.034 C 
BRANCH   5   6
ATOM      6  C   UNL     1      15.329  21.693  39.865  1.00  0.00    -0.077 C 
ATOM      7  C   UNL     1      15.943  21.979  41.213  1.00  0.00     0.039 C 
ATOM      8  C   UNL     1      16.127  21.181  38.901  1.00  0.00    -0.023 CG0
ATOM      9  G   UNL     1      15.692  20.799  37.507  1.00  0.00     0.000 G0
ENDBRANCH   5   6
ENDBRANCH   4   5
ENDBRANCH   2   4
BRANCH   1  10
ATOM     10  C   UNL     1      14.615  24.128  37.027  1.00  0.00     0.111 C 
BRANCH  10  11
ATOM     11  C   UNL     1      14.835  22.871  36.223  1.00  0.00     0.163 C 
ATOM     12  O   UNL     1      14.061  22.643  35.253  1.00  0.00    -0.294 OA
BRANCH  11  13
ATOM     13  C   UNL     1      15.962  21.931  36.514  1.00  0.00    -0.002 C 
ATOM     14  C   UNL     1      17.169  22.038  35.880  1.00  0.00    -0.069 C 
ATOM     15  C   UNL     1      17.407  23.066  34.796  1.00  0.00     0.039 C 
ATOM     16  C   UNL     1      18.317  21.108  36.208  1.00  0.00     0.039 C 
BRANCH  13  17
ATOM     17  C   UNL     1      15.686  20.803  37.491  1.00  0.00     0.066 CG0
ATOM     18  G   UNL     1      16.123  21.209  38.878  1.00  0.00     0.000 G0
ENDBRANCH  13  17
ENDBRANCH  11  13
ENDBRANCH  10  11
ENDBRANCH   1  10
TORSDOF 0
ENDMDL
MODEL 4
REMARK VINA RESULT:    -3.312     13.207     15.889
REMARK INTER + INTRA:          -4.317
REMARK INTER:                  -4.906
REMARK INTRA:                   0.589
REMARK UNBOUND:                 0.350
REMARK SMILES CC1=CCC(=C(C)C)C(=O)CC(C)=CCC1
REMARK SMILES IDX 12 1 14 2 13 3 15 4 16 5 2 6 1 7 3 8 11 10 9 11 10 12 5 13
REMARK SMILES IDX 6 14 7 15 8 16 4 17
REMARK H PARENT
REMARK Flexibility Score: 60.00
ROOT
ATOM      1  C   UNL     1      14.682  21.505  39.919  1.00  0.00    -0.070 C 
ATOM      2  C   UNL     1      13.923  22.625  39.842  1.00  0.00    -0.027 C 
ATOM      3  C   UNL     1      14.152  20.362  40.749  1.00  0.00     0.039 C 
ENDROOT
BRANCH   2   4
ATOM      4  C   UNL     1      14.304  23.917  39.160  1.00  0.00     0.032 C 
BRANCH   4   5
ATOM      5  C   UNL     1      13.336  24.295  38.024  1.00  0.00     0.034 C 
BRANCH   5   6
ATOM      6  C   UNL     1      13.113  23.146  37.057  1.00  0.00    -0.077 C 
ATOM      7  C   UNL     1      11.708  22.631  36.871  1.00  0.00     0.039 C 
ATOM      8  C   UNL     1      14.100  22.574  36.332  1.00  0.00    -0.023 CG0
ATOM      9  G   UNL     1      15.556  22.972  36.354  1.00  0.00     0.000 G0
ENDBRANCH   5   6
ENDBRANCH   4   5
ENDBRANCH   2   4
BRANCH   1  10
ATOM     10  C   UNL     1      16.052  21.366  39.275  1.00  0.00     0.111 C 
BRANCH  10  11
ATOM     11  C   UNL     1      15.948  20.887  37.848  1.00  0.00     0.163 C 
ATOM     12  O   UNL     1      15.426  19.759  37.638  1.00  0.00    -0.294 OA
BRANCH  11  13
ATOM     13  C   UNL     1      16.395  21.728  36.695  1.00  0.00    -0.002 C 
ATOM     14  C   UNL     1      17.550  21.460  36.014  1.00  0.00    -0.069 C 
ATOM     15  C   UNL     1      18.476  20.342  36.435  1.00  0.00     0.039 C 
ATOM     16  C   UNL     1      17.976  22.293  34.824  1.00  0.00     0.039 C 
BRANCH  13  17
ATOM     17  C   UNL     1      15.549  22.943  36.359  1.00  0.00     0.066 CG0
ATOM     18  G   UNL     1      14.091  22.556  36.315  1.00  0.00     0.000 G0
ENDBRANCH  13  17
ENDBRANCH  11  13
ENDBRANCH  10  11
ENDBRANCH   1  10
TORSDOF 0
ENDMDL
MODEL 5
REMARK VINA RESULT:    -3.254      2.714      4.863
REMARK INTER + INTRA:          -4.235
REMARK INTER:                  -4.980
REMARK INTRA:                   0.745
REMARK UNBOUND:                 0.350
REMARK SMILES CC1=CCC(=C(C)C)C(=O)CC(C)=CCC1
REMARK SMILES IDX 12 1 14 2 13 3 15 4 16 5 2 6 1 7 3 8 11 10 9 11 10 12 5 13
REMARK SMILES IDX 6 14 7 15 8 16 4 17
REMARK H PARENT
REMARK Flexibility Score: 60.00
ROOT
ATOM      1  C   UNL     1      13.096  13.291  48.221  1.00  0.00    -0.070 C 
ATOM      2  C   UNL     1      11.980  12.576  48.501  1.00  0.00    -0.027 C 
ATOM      3  C   UNL     1      13.184  13.939  46.861  1.00  0.00     0.039 C 
ENDROOT
BRANCH   2   4
ATOM      4  C   UNL     1      11.729  11.763  49.748  1.00  0.00     0.032 C 
BRANCH   4   5
ATOM      5  C   UNL     1      11.563  10.261  49.453  1.00  0.00     0.034 C 
BRANCH   5   6
ATOM      6  C   UNL     1      12.691   9.719  48.594  1.00  0.00    -0.077 C 
ATOM      7  C   UNL     1      12.357   9.207  47.215  1.00  0.00     0.039 C 
ATOM      8  C   UNL     1      13.985   9.693  48.984  1.00  0.00    -0.023 CG0
ATOM      9  G   UNL     1      14.518  10.190  50.306  1.00  0.00     0.000 G0
ENDBRANCH   5   6
ENDBRANCH   4   5
ENDBRANCH   2   4
BRANCH   1  10
ATOM     10  C   UNL     1      14.278  13.419  49.169  1.00  0.00     0.111 C 
BRANCH  10  11
ATOM     11  C   UNL     1      15.252  12.280  48.997  1.00  0.00     0.163 C 
ATOM     12  O   UNL     1      15.873  12.190  47.903  1.00  0.00    -0.294 OA
BRANCH  11  13
ATOM     13  C   UNL     1      15.531  11.305  50.096  1.00  0.00    -0.002 C 
ATOM     14  C   UNL     1      16.682  11.360  50.832  1.00  0.00    -0.069 C 
ATOM     15  C   UNL     1      17.770  12.366  50.527  1.00  0.00     0.039 C 
ATOM     16  C   UNL     1      16.941  10.393  51.967  1.00  0.00     0.039 C 
BRANCH  13  17
ATOM     17  C   UNL     1      14.514  10.199  50.312  1.00  0.00     0.066 CG0
ATOM     18  G   UNL     1      14.000   9.708  48.980  1.00  0.00     0.000 G0
ENDBRANCH  13  17
ENDBRANCH  11  13
ENDBRANCH  10  11
ENDBRANCH   1  10
TORSDOF 0
ENDMDL
MODEL 6
REMARK VINA RESULT:    -3.241      1.911      4.726
REMARK INTER + INTRA:          -4.217
REMARK INTER:                  -4.910
REMARK INTRA:                   0.692
REMARK UNBOUND:                 0.350
REMARK SMILES CC1=CCC(=C(C)C)C(=O)CC(C)=CCC1
REMARK SMILES IDX 12 1 14 2 13 3 15 4 16 5 2 6 1 7 3 8 11 10 9 11 10 12 5 13
REMARK SMILES IDX 6 14 7 15 8 16 4 17
REMARK H PARENT
REMARK Flexibility Score: 60.00
ROOT
ATOM      1  C   UNL     1      14.560  10.044  48.398  1.00  0.00    -0.070 C 
ATOM      2  C   UNL     1      14.337  10.542  47.158  1.00  0.00    -0.027 C 
ATOM      3  C   UNL     1      13.359   9.584  49.188  1.00  0.00     0.039 C 
ENDROOT
BRANCH   2   4
ATOM      4  C   UNL     1      15.371  11.152  46.241  1.00  0.00     0.032 C 
BRANCH   4   5
ATOM      5  C   UNL     1      15.566  12.659  46.489  1.00  0.00     0.034 C 
BRANCH   5   6
ATOM      6  C   UNL     1      16.972  12.985  46.956  1.00  0.00    -0.077 C 
ATOM      7  C   UNL     1      18.064  13.085  45.920  1.00  0.00     0.039 C 
ATOM      8  C   UNL     1      17.300  13.218  48.247  1.00  0.00    -0.023 CG0
ATOM      9  G   UNL     1      16.345  13.199  49.416  1.00  0.00     0.000 G0
ENDBRANCH   5   6
ENDBRANCH   4   5
ENDBRANCH   2   4
BRANCH   1  10
ATOM     10  C   UNL     1      15.930   9.987  49.053  1.00  0.00     0.111 C 
BRANCH  10  11
ATOM     11  C   UNL     1      15.974  10.806  50.319  1.00  0.00     0.163 C 
ATOM     12  O   UNL     1      15.381  10.356  51.337  1.00  0.00    -0.294 OA
BRANCH  11  13
ATOM     13  C   UNL     1      16.737  12.089  50.406  1.00  0.00    -0.002 C 
ATOM     14  C   UNL     1      17.698  12.293  51.358  1.00  0.00    -0.069 C 
ATOM     15  C   UNL     1      17.991  11.257  52.421  1.00  0.00     0.039 C 
ATOM     16  C   UNL     1      18.491  13.579  51.416  1.00  0.00     0.039 C 
BRANCH  13  17
ATOM     17  C   UNL     1      16.346  13.191  49.438  1.00  0.00     0.066 CG0
ATOM     18  G   UNL     1      17.292  13.197  48.261  1.00  0.00     0.000 G0
ENDBRANCH  13  17
ENDBRANCH  11  13
ENDBRANCH  10  11
ENDBRANCH   1  10
TORSDOF 0
ENDMDL
MODEL 7
REMARK VINA RESULT:    -3.197      5.741      7.685
REMARK INTER + INTRA:          -4.155
REMARK INTER:                  -4.766
REMARK INTRA:                   0.611
REMARK UNBOUND:                 0.350
REMARK SMILES CC1=CCC(=C(C)C)C(=O)CC(C)=CCC1
REMARK SMILES IDX 12 1 14 2 13 3 15 4 16 5 2 6 1 7 3 8 11 10 9 11 10 12 5 13
REMARK SMILES IDX 6 14 7 15 8 16 4 17
REMARK H PARENT
REMARK Flexibility Score: 60.00
ROOT
ATOM      1  C   UNL     1       8.949  12.444  48.195  1.00  0.00    -0.070 C 
ATOM      2  C   UNL     1       7.890  11.709  47.779  1.00  0.00    -0.027 C 
ATOM      3  C   UNL     1       8.965  13.908  47.828  1.00  0.00     0.039 C 
ENDROOT
BRANCH   2   4
ATOM      4  C   UNL     1       7.719  10.217  47.940  1.00  0.00     0.032 C 
BRANCH   4   5
ATOM      5  C   UNL     1       8.539   9.413  46.914  1.00  0.00     0.034 C 
BRANCH   5   6
ATOM      6  C   UNL     1       9.507   8.453  47.581  1.00  0.00    -0.077 C 
ATOM      7  C   UNL     1       8.942   7.271  48.329  1.00  0.00     0.039 C 
ATOM      8  C   UNL     1      10.852   8.582  47.522  1.00  0.00    -0.023 CG0
ATOM      9  G   UNL     1      11.602   9.672  46.795  1.00  0.00     0.000 G0
ENDBRANCH   5   6
ENDBRANCH   4   5
ENDBRANCH   2   4
BRANCH   1  10
ATOM     10  C   UNL     1      10.137  11.866  48.946  1.00  0.00     0.111 C 
BRANCH  10  11
ATOM     11  C   UNL     1      11.391  11.897  48.109  1.00  0.00     0.163 C 
ATOM     12  O   UNL     1      11.793  13.014  47.684  1.00  0.00    -0.294 OA
BRANCH  11  13
ATOM     13  C   UNL     1      12.182  10.661  47.822  1.00  0.00    -0.002 C 
ATOM     14  C   UNL     1      13.405  10.440  48.394  1.00  0.00    -0.069 C 
ATOM     15  C   UNL     1      14.056  11.467  49.292  1.00  0.00     0.039 C 
ATOM     16  C   UNL     1      14.182   9.169  48.128  1.00  0.00     0.039 C 
BRANCH  13  17
ATOM     17  C   UNL     1      11.605   9.692  46.805  1.00  0.00     0.066 CG0
ATOM     18  G   UNL     1      10.852   8.594  47.516  1.00  0.00     0.000 G0
ENDBRANCH  13  17
ENDBRANCH  11  13
ENDBRANCH  10  11
ENDBRANCH   1  10
TORSDOF 0
ENDMDL
MODEL 8
REMARK VINA RESULT:    -3.161     12.906     15.370
REMARK INTER + INTRA:          -4.104
REMARK INTER:                  -4.531
REMARK INTRA:                   0.427
REMARK UNBOUND:                 0.350
REMARK SMILES CC1=CCC(=C(C)C)C(=O)CC(C)=CCC1
REMARK SMILES IDX 12 1 14 2 13 3 15 4 16 5 2 6 1 7 3 8 11 10 9 11 10 12 5 13
REMARK SMILES IDX 6 14 7 15 8 16 4 17
REMARK H PARENT
REMARK Flexibility Score: 60.00
ROOT
ATOM      1  C   UNL     1      17.552  20.984  36.646  1.00  0.00    -0.070 C 
ATOM      2  C   UNL     1      17.387  22.219  36.113  1.00  0.00    -0.027 C 
ATOM      3  C   UNL     1      18.917  20.352  36.523  1.00  0.00     0.039 C 
ENDROOT
BRANCH   2   4
ATOM      4  C   UNL     1      16.090  22.989  36.028  1.00  0.00     0.032 C 
BRANCH   4   5
ATOM      5  C   UNL     1      15.843  23.870  37.267  1.00  0.00     0.034 C 
BRANCH   5   6
ATOM      6  C   UNL     1      14.429  23.727  37.798  1.00  0.00    -0.077 C 
ATOM      7  C   UNL     1      13.302  24.341  37.005  1.00  0.00     0.039 C 
ATOM      8  C   UNL     1      14.117  23.057  38.930  1.00  0.00    -0.023 CG0
ATOM      9  G   UNL     1      15.097  22.348  39.834  1.00  0.00     0.000 G0
ENDBRANCH   5   6
ENDBRANCH   4   5
ENDBRANCH   2   4
BRANCH   1  10
ATOM     10  C   UNL     1      16.433  20.186  37.294  1.00  0.00     0.111 C 
BRANCH  10  11
ATOM     11  C   UNL     1      16.398  20.392  38.787  1.00  0.00     0.163 C 
ATOM     12  O   UNL     1      17.461  20.198  39.438  1.00  0.00    -0.294 OA
BRANCH  11  13
ATOM     13  C   UNL     1      15.166  20.862  39.494  1.00  0.00    -0.002 C 
ATOM     14  C   UNL     1      14.117  20.023  39.747  1.00  0.00    -0.069 C 
ATOM     15  C   UNL     1      14.113  18.591  39.261  1.00  0.00     0.039 C 
ATOM     16  C   UNL     1      12.890  20.497  40.496  1.00  0.00     0.039 C 
BRANCH  13  17
ATOM     17  C   UNL     1      15.097  22.336  39.853  1.00  0.00     0.066 CG0
ATOM     18  G   UNL     1      14.135  23.043  38.930  1.00  0.00     0.000 G0
ENDBRANCH  13  17
ENDBRANCH  11  13
ENDBRANCH  10  11
ENDBRANCH   1  10
TORSDOF 0
ENDMDL
MODEL 9
REMARK VINA RESULT:    -3.145     15.116     16.671
REMARK INTER + INTRA:          -4.081
REMARK INTER:                  -4.838
REMARK INTRA:                   0.757
REMARK UNBOUND:                 0.350
REMARK SMILES CC1=CCC(=C(C)C)C(=O)CC(C)=CCC1
REMARK SMILES IDX 12 1 14 2 13 3 15 4 16 5 2 6 1 7 3 8 11 10 9 11 10 12 5 13
REMARK SMILES IDX 6 14 7 15 8 16 4 17
REMARK H PARENT
REMARK Flexibility Score: 60.00
ROOT
ATOM      1  C   UNL     1      11.542  21.282  38.008  1.00  0.00    -0.070 C 
ATOM      2  C   UNL     1      12.732  20.735  38.353  1.00  0.00    -0.027 C 
ATOM      3  C   UNL     1      10.318  20.809  38.753  1.00  0.00     0.039 C 
ENDROOT
BRANCH   2   4
ATOM      4  C   UNL     1      14.058  20.981  37.674  1.00  0.00     0.032 C 
BRANCH   4   5
ATOM      5  C   UNL     1      15.042  21.764  38.563  1.00  0.00     0.034 C 
BRANCH   5   6
ATOM      6  C   UNL     1      15.108  23.233  38.187  1.00  0.00    -0.077 C 
ATOM      7  C   UNL     1      16.201  23.683  37.250  1.00  0.00     0.039 C 
ATOM      8  C   UNL     1      14.226  24.160  38.624  1.00  0.00    -0.023 CG0
ATOM      9  G   UNL     1      13.050  23.898  39.534  1.00  0.00     0.000 G0
ENDBRANCH   5   6
ENDBRANCH   4   5
ENDBRANCH   2   4
BRANCH   1  10
ATOM     10  C   UNL     1      11.367  22.286  36.880  1.00  0.00     0.111 C 
BRANCH  10  11
ATOM     11  C   UNL     1      11.751  23.679  37.314  1.00  0.00     0.163 C 
ATOM     12  O   UNL     1      12.038  24.521  36.419  1.00  0.00    -0.294 OA
BRANCH  11  13
ATOM     13  C   UNL     1      11.746  24.091  38.751  1.00  0.00    -0.002 C 
ATOM     14  C   UNL     1      10.654  24.677  39.329  1.00  0.00    -0.069 C 
ATOM     15  C   UNL     1       9.415  25.008  38.526  1.00  0.00     0.039 C 
ATOM     16  C   UNL     1      10.643  25.056  40.794  1.00  0.00     0.039 C 
BRANCH  13  17
ATOM     17  C   UNL     1      13.036  23.900  39.528  1.00  0.00     0.066 CG0
ATOM     18  G   UNL     1      14.219  24.172  38.631  1.00  0.00     0.000 G0
ENDBRANCH  13  17
ENDBRANCH  11  13
ENDBRANCH  10  11
ENDBRANCH   1  10
TORSDOF 0
ENDMDL
