MODEL 1
REMARK VINA RESULT:    -2.926      0.000      0.000
REMARK INTER + INTRA:          -3.473
REMARK INTER:                  -3.439
REMARK INTRA:                  -0.034
REMARK UNBOUND:                -0.034
REMARK SMILES CCCCC(=O)[O-]
REMARK SMILES IDX 4 1 5 2 6 3 7 4 3 5 2 6 1 7
REMARK H PARENT
REMARK Flexibility Score: inf
ROOT
ATOM      1  C   UNL     1     -45.099 -37.162  14.574  1.00  0.00     0.053 C 
ENDROOT
BRANCH   1   2
ATOM      2  C   UNL     1     -44.252 -38.040  15.439  1.00  0.00     0.041 C 
ATOM      3  O   UNL     1     -43.111 -38.402  15.048  1.00  0.00    -0.550 OA
ATOM      4  O   UNL     1     -44.701 -38.419  16.698  1.00  0.00    -0.550 OA
ENDBRANCH   1   2
BRANCH   1   5
ATOM      5  C   UNL     1     -44.691 -37.308  13.103  1.00  0.00     0.006 C 
BRANCH   5   6
ATOM      6  C   UNL     1     -44.724 -35.970  12.347  1.00  0.00    -0.003 C 
ATOM      7  C   UNL     1     -46.124 -35.605  11.852  1.00  0.00     0.004 C 
ENDBRANCH   5   6
ENDBRANCH   1   5
TORSDOF 3
ENDMDL
MODEL 2
REMARK VINA RESULT:    -2.866     12.767     14.236
REMARK INTER + INTRA:          -3.403
REMARK INTER:                  -3.354
REMARK INTRA:                  -0.049
REMARK UNBOUND:                -0.034
REMARK SMILES CCCCC(=O)[O-]
REMARK SMILES IDX 4 1 5 2 6 3 7 4 3 5 2 6 1 7
REMARK H PARENT
REMARK Flexibility Score: inf
ROOT
ATOM      1  C   UNL     1     -37.541 -32.871  25.333  1.00  0.00     0.053 C 
ENDROOT
BRANCH   1   2
ATOM      2  C   UNL     1     -38.264 -32.816  24.025  1.00  0.00     0.041 C 
ATOM      3  O   UNL     1     -39.501 -32.583  23.996  1.00  0.00    -0.550 OA
ATOM      4  O   UNL     1     -37.565 -32.975  22.835  1.00  0.00    -0.550 OA
ENDBRANCH   1   2
BRANCH   1   5
ATOM      5  C   UNL     1     -37.909 -34.151  26.094  1.00  0.00     0.006 C 
BRANCH   5   6
ATOM      6  C   UNL     1     -37.818 -33.977  27.618  1.00  0.00    -0.003 C 
ATOM      7  C   UNL     1     -38.164 -32.560  28.074  1.00  0.00     0.004 C 
ENDBRANCH   5   6
ENDBRANCH   1   5
TORSDOF 3
ENDMDL
MODEL 3
REMARK VINA RESULT:    -2.833      2.487      3.923
REMARK INTER + INTRA:          -3.365
REMARK INTER:                  -3.344
REMARK INTRA:                  -0.021
REMARK UNBOUND:                -0.034
REMARK SMILES CCCCC(=O)[O-]
REMARK SMILES IDX 4 1 5 2 6 3 7 4 3 5 2 6 1 7
REMARK H PARENT
REMARK Flexibility Score: inf
ROOT
ATOM      1  C   UNL     1     -43.858 -38.199  14.660  1.00  0.00     0.053 C 
ENDROOT
BRANCH   1   2
ATOM      2  C   UNL     1     -44.522 -37.932  13.347  1.00  0.00     0.041 C 
ATOM      3  O   UNL     1     -44.309 -36.851  12.738  1.00  0.00    -0.550 OA
ATOM      4  O   UNL     1     -45.338 -38.898  12.770  1.00  0.00    -0.550 OA
ENDBRANCH   1   2
BRANCH   1   5
ATOM      5  C   UNL     1     -44.497 -37.347  15.764  1.00  0.00     0.006 C 
BRANCH   5   6
ATOM      6  C   UNL     1     -44.502 -38.055  17.128  1.00  0.00    -0.003 C 
ATOM      7  C   UNL     1     -45.868 -38.640  17.486  1.00  0.00     0.004 C 
ENDBRANCH   5   6
ENDBRANCH   1   5
TORSDOF 3
ENDMDL
MODEL 4
REMARK VINA RESULT:    -2.795      2.465      3.960
REMARK INTER + INTRA:          -3.320
REMARK INTER:                  -3.290
REMARK INTRA:                  -0.030
REMARK UNBOUND:                -0.034
REMARK SMILES CCCCC(=O)[O-]
REMARK SMILES IDX 4 1 5 2 6 3 7 4 3 5 2 6 1 7
REMARK H PARENT
REMARK Flexibility Score: inf
ROOT
ATOM      1  C   UNL     1     -43.925 -38.152  14.611  1.00  0.00     0.053 C 
ENDROOT
BRANCH   1   2
ATOM      2  C   UNL     1     -44.655 -37.883  13.334  1.00  0.00     0.041 C 
ATOM      3  O   UNL     1     -45.511 -38.703  12.908  1.00  0.00    -0.550 OA
ATOM      4  O   UNL     1     -44.425 -36.704  12.636  1.00  0.00    -0.550 OA
ENDBRANCH   1   2
BRANCH   1   5
ATOM      5  C   UNL     1     -44.540 -37.339  15.758  1.00  0.00     0.006 C 
BRANCH   5   6
ATOM      6  C   UNL     1     -44.680 -38.158  17.051  1.00  0.00    -0.003 C 
ATOM      7  C   UNL     1     -46.125 -38.568  17.337  1.00  0.00     0.004 C 
ENDBRANCH   5   6
ENDBRANCH   1   5
TORSDOF 3
ENDMDL
MODEL 5
REMARK VINA RESULT:    -2.699      1.465      2.065
REMARK INTER + INTRA:          -3.207
REMARK INTER:                  -3.167
REMARK INTRA:                  -0.040
REMARK UNBOUND:                -0.034
REMARK SMILES CCCCC(=O)[O-]
REMARK SMILES IDX 4 1 5 2 6 3 7 4 3 5 2 6 1 7
REMARK H PARENT
REMARK Flexibility Score: inf
ROOT
ATOM      1  C   UNL     1     -44.596 -36.941  15.500  1.00  0.00     0.053 C 
ENDROOT
BRANCH   1   2
ATOM      2  C   UNL     1     -44.785 -37.359  16.923  1.00  0.00     0.041 C 
ATOM      3  O   UNL     1     -44.978 -38.570  17.208  1.00  0.00    -0.550 OA
ATOM      4  O   UNL     1     -44.701 -36.418  17.942  1.00  0.00    -0.550 OA
ENDBRANCH   1   2
BRANCH   1   5
ATOM      5  C   UNL     1     -44.075 -38.117  14.663  1.00  0.00     0.006 C 
BRANCH   5   6
ATOM      6  C   UNL     1     -44.473 -38.009  13.183  1.00  0.00    -0.003 C 
ATOM      7  C   UNL     1     -44.747 -36.570  12.747  1.00  0.00     0.004 C 
ENDBRANCH   5   6
ENDBRANCH   1   5
TORSDOF 3
ENDMDL
MODEL 6
REMARK VINA RESULT:    -2.640     13.441     14.141
REMARK INTER + INTRA:          -3.138
REMARK INTER:                  -3.041
REMARK INTRA:                  -0.097
REMARK UNBOUND:                -0.034
REMARK SMILES CCCCC(=O)[O-]
REMARK SMILES IDX 4 1 5 2 6 3 7 4 3 5 2 6 1 7
REMARK H PARENT
REMARK Flexibility Score: inf
ROOT
ATOM      1  C   UNL     1     -38.205 -33.818  25.637  1.00  0.00     0.053 C 
ENDROOT
BRANCH   1   2
ATOM      2  C   UNL     1     -37.571 -33.548  26.964  1.00  0.00     0.041 C 
ATOM      3  O   UNL     1     -37.709 -34.367  27.910  1.00  0.00    -0.550 OA
ATOM      4  O   UNL     1     -36.786 -32.415  27.142  1.00  0.00    -0.550 OA
ENDBRANCH   1   2
BRANCH   1   5
ATOM      5  C   UNL     1     -39.023 -32.604  25.179  1.00  0.00     0.006 C 
BRANCH   5   6
ATOM      6  C   UNL     1     -38.603 -32.101  23.789  1.00  0.00    -0.003 C 
ATOM      7  C   UNL     1     -37.260 -32.672  23.334  1.00  0.00     0.004 C 
ENDBRANCH   5   6
ENDBRANCH   1   5
TORSDOF 3
ENDMDL
MODEL 7
REMARK VINA RESULT:    -2.571      1.587      1.967
REMARK INTER + INTRA:          -3.056
REMARK INTER:                  -3.032
REMARK INTRA:                  -0.025
REMARK UNBOUND:                -0.034
REMARK SMILES CCCCC(=O)[O-]
REMARK SMILES IDX 4 1 5 2 6 3 7 4 3 5 2 6 1 7
REMARK H PARENT
REMARK Flexibility Score: inf
ROOT
ATOM      1  C   UNL     1     -45.092 -36.352  13.929  1.00  0.00     0.053 C 
ENDROOT
BRANCH   1   2
ATOM      2  C   UNL     1     -44.380 -37.667  13.915  1.00  0.00     0.041 C 
ATOM      3  O   UNL     1     -44.240 -38.299  12.835  1.00  0.00    -0.550 OA
ATOM      4  O   UNL     1     -43.828 -38.173  15.086  1.00  0.00    -0.550 OA
ENDBRANCH   1   2
BRANCH   1   5
ATOM      5  C   UNL     1     -45.336 -35.861  12.496  1.00  0.00     0.006 C 
BRANCH   5   6
ATOM      6  C   UNL     1     -46.125 -34.543  12.452  1.00  0.00    -0.003 C 
ATOM      7  C   UNL     1     -45.346 -33.367  13.040  1.00  0.00     0.004 C 
ENDBRANCH   5   6
ENDBRANCH   1   5
TORSDOF 3
ENDMDL
MODEL 8
REMARK VINA RESULT:    -2.549      2.673      3.763
REMARK INTER + INTRA:          -3.030
REMARK INTER:                  -2.937
REMARK INTRA:                  -0.093
REMARK UNBOUND:                -0.034
REMARK SMILES CCCCC(=O)[O-]
REMARK SMILES IDX 4 1 5 2 6 3 7 4 3 5 2 6 1 7
REMARK H PARENT
REMARK Flexibility Score: inf
ROOT
ATOM      1  C   UNL     1     -45.726 -37.311  13.508  1.00  0.00     0.053 C 
ENDROOT
BRANCH   1   2
ATOM      2  C   UNL     1     -45.686 -35.913  12.976  1.00  0.00     0.041 C 
ATOM      3  O   UNL     1     -45.871 -35.697  11.750  1.00  0.00    -0.550 OA
ATOM      4  O   UNL     1     -45.492 -34.844  13.843  1.00  0.00    -0.550 OA
ENDBRANCH   1   2
BRANCH   1   5
ATOM      5  C   UNL     1     -44.318 -37.921  13.512  1.00  0.00     0.006 C 
BRANCH   5   6
ATOM      6  C   UNL     1     -43.797 -38.190  14.933  1.00  0.00    -0.003 C 
ATOM      7  C   UNL     1     -44.857 -37.949  16.007  1.00  0.00     0.004 C 
ENDBRANCH   5   6
ENDBRANCH   1   5
TORSDOF 3
ENDMDL
