MODEL 1
REMARK VINA RESULT:    -5.755      0.000      0.000
REMARK INTER + INTRA:          -6.287
REMARK INTER:                  -6.260
REMARK INTRA:                  -0.027
REMARK UNBOUND:                -0.027
REMARK SMILES COc1ccccc1O
REMARK SMILES IDX 3 1 4 2 5 3 6 4 7 5 8 6 2 7 1 8 9 9
REMARK H PARENT 9 10
REMARK Flexibility Score: inf
ROOT
ATOM      1  C   UNL     1      11.987 -12.167  28.279  1.00  0.00     0.160 A 
ATOM      2  C   UNL     1      13.302 -11.769  28.595  1.00  0.00     0.050 A 
ATOM      3  C   UNL     1      14.393 -12.527  28.159  1.00  0.00     0.004 A 
ATOM      4  C   UNL     1      14.186 -13.685  27.406  1.00  0.00     0.004 A 
ATOM      5  C   UNL     1      12.887 -14.087  27.086  1.00  0.00     0.050 A 
ATOM      6  C   UNL     1      11.788 -13.332  27.520  1.00  0.00     0.157 A 
ENDROOT
BRANCH   1   7
ATOM      7  O   UNL     1      10.863 -11.437  28.695  1.00  0.00    -0.493 OA
ATOM      8  C   UNL     1      10.902 -10.364  29.630  1.00  0.00     0.278 C 
ENDBRANCH   1   7
BRANCH   6   9
ATOM      9  O   UNL     1      10.491 -13.733  27.202  1.00  0.00    -0.504 OA
ATOM     10  H   UNL     1      10.010 -13.374  26.386  1.00  0.00     0.293 HD
ENDBRANCH   6   9
TORSDOF 2
ENDMDL
MODEL 2
REMARK VINA RESULT:    -5.352      1.481      2.411
REMARK INTER + INTRA:          -5.848
REMARK INTER:                  -5.821
REMARK INTRA:                  -0.027
REMARK UNBOUND:                -0.027
REMARK SMILES COc1ccccc1O
REMARK SMILES IDX 3 1 4 2 5 3 6 4 7 5 8 6 2 7 1 8 9 9
REMARK H PARENT 9 10
REMARK Flexibility Score: inf
ROOT
ATOM      1  C   UNL     1      12.385 -12.089  28.716  1.00  0.00     0.160 A 
ATOM      2  C   UNL     1      11.561 -12.758  27.788  1.00  0.00     0.050 A 
ATOM      3  C   UNL     1      12.093 -13.750  26.960  1.00  0.00     0.004 A 
ATOM      4  C   UNL     1      13.445 -14.088  27.049  1.00  0.00     0.004 A 
ATOM      5  C   UNL     1      14.270 -13.433  27.967  1.00  0.00     0.050 A 
ATOM      6  C   UNL     1      13.744 -12.435  28.800  1.00  0.00     0.157 A 
ENDROOT
BRANCH   1   7
ATOM      7  O   UNL     1      11.895 -11.086  29.566  1.00  0.00    -0.493 OA
ATOM      8  C   UNL     1      10.576 -10.554  29.505  1.00  0.00     0.278 C 
ENDBRANCH   1   7
BRANCH   6   9
ATOM      9  O   UNL     1      14.565 -11.780  29.716  1.00  0.00    -0.504 OA
ATOM     10  H   UNL     1      15.574 -11.791  29.627  1.00  0.00     0.293 HD
ENDBRANCH   6   9
TORSDOF 2
ENDMDL
MODEL 3
REMARK VINA RESULT:    -5.316      1.351      3.120
REMARK INTER + INTRA:          -5.809
REMARK INTER:                  -5.782
REMARK INTRA:                  -0.027
REMARK UNBOUND:                -0.027
REMARK SMILES COc1ccccc1O
REMARK SMILES IDX 3 1 4 2 5 3 6 4 7 5 8 6 2 7 1 8 9 9
REMARK H PARENT 9 10
REMARK Flexibility Score: inf
ROOT
ATOM      1  C   UNL     1      12.770 -13.219  27.903  1.00  0.00     0.160 A 
ATOM      2  C   UNL     1      13.655 -12.283  28.475  1.00  0.00     0.050 A 
ATOM      3  C   UNL     1      13.205 -11.006  28.821  1.00  0.00     0.004 A 
ATOM      4  C   UNL     1      11.871 -10.650  28.605  1.00  0.00     0.004 A 
ATOM      5  C   UNL     1      10.986 -11.571  28.040  1.00  0.00     0.050 A 
ATOM      6  C   UNL     1      11.431 -12.854  27.688  1.00  0.00     0.157 A 
ENDROOT
BRANCH   1   7
ATOM      7  O   UNL     1      13.179 -14.511  27.538  1.00  0.00    -0.493 OA
ATOM      8  C   UNL     1      14.433 -15.088  27.890  1.00  0.00     0.278 C 
ENDBRANCH   1   7
BRANCH   6   9
ATOM      9  O   UNL     1      10.548 -13.774  27.124  1.00  0.00    -0.504 OA
ATOM     10  H   UNL     1      10.443 -14.708  27.502  1.00  0.00     0.293 HD
ENDBRANCH   6   9
TORSDOF 2
ENDMDL
MODEL 4
REMARK VINA RESULT:    -5.238      2.110      3.955
REMARK INTER + INTRA:          -5.725
REMARK INTER:                  -5.687
REMARK INTRA:                  -0.037
REMARK UNBOUND:                -0.027
REMARK SMILES COc1ccccc1O
REMARK SMILES IDX 3 1 4 2 5 3 6 4 7 5 8 6 2 7 1 8 9 9
REMARK H PARENT 9 10
REMARK Flexibility Score: inf
ROOT
ATOM      1  C   UNL     1      13.506 -13.452  27.872  1.00  0.00     0.160 A 
ATOM      2  C   UNL     1      12.428 -13.871  27.065  1.00  0.00     0.050 A 
ATOM      3  C   UNL     1      11.249 -13.121  27.019  1.00  0.00     0.004 A 
ATOM      4  C   UNL     1      11.133 -11.949  27.771  1.00  0.00     0.004 A 
ATOM      5  C   UNL     1      12.196 -11.526  28.572  1.00  0.00     0.050 A 
ATOM      6  C   UNL     1      13.382 -12.274  28.624  1.00  0.00     0.157 A 
ENDROOT
BRANCH   1   7
ATOM      7  O   UNL     1      14.707 -14.174  27.949  1.00  0.00    -0.493 OA
ATOM      8  C   UNL     1      14.793 -15.564  28.245  1.00  0.00     0.278 C 
ENDBRANCH   1   7
BRANCH   6   9
ATOM      9  O   UNL     1      14.443 -11.852  29.424  1.00  0.00    -0.504 OA
ATOM     10  H   UNL     1      14.343 -11.747  30.426  1.00  0.00     0.293 HD
ENDBRANCH   6   9
TORSDOF 2
ENDMDL
MODEL 5
REMARK VINA RESULT:    -5.172      1.221      1.803
REMARK INTER + INTRA:          -5.652
REMARK INTER:                  -5.612
REMARK INTRA:                  -0.041
REMARK UNBOUND:                -0.027
REMARK SMILES COc1ccccc1O
REMARK SMILES IDX 3 1 4 2 5 3 6 4 7 5 8 6 2 7 1 8 9 9
REMARK H PARENT 9 10
REMARK Flexibility Score: inf
ROOT
ATOM      1  C   UNL     1      12.962 -11.975  28.561  1.00  0.00     0.160 A 
ATOM      2  C   UNL     1      14.105 -12.706  28.179  1.00  0.00     0.050 A 
ATOM      3  C   UNL     1      13.992 -13.776  27.286  1.00  0.00     0.004 A 
ATOM      4  C   UNL     1      12.744 -14.126  26.765  1.00  0.00     0.004 A 
ATOM      5  C   UNL     1      11.606 -13.407  27.137  1.00  0.00     0.050 A 
ATOM      6  C   UNL     1      11.711 -12.333  28.033  1.00  0.00     0.157 A 
ENDROOT
BRANCH   1   7
ATOM      7  O   UNL     1      13.028 -10.895  29.455  1.00  0.00    -0.493 OA
ATOM      8  C   UNL     1      13.021 -11.022  30.873  1.00  0.00     0.278 C 
ENDBRANCH   1   7
BRANCH   6   9
ATOM      9  O   UNL     1      10.575 -11.615  28.405  1.00  0.00    -0.504 OA
ATOM     10  H   UNL     1      10.643 -10.697  28.828  1.00  0.00     0.293 HD
ENDBRANCH   6   9
TORSDOF 2
ENDMDL
MODEL 6
REMARK VINA RESULT:    -4.777      1.410      2.861
REMARK INTER + INTRA:          -5.223
REMARK INTER:                  -5.178
REMARK INTRA:                  -0.045
REMARK UNBOUND:                -0.027
REMARK SMILES COc1ccccc1O
REMARK SMILES IDX 3 1 4 2 5 3 6 4 7 5 8 6 2 7 1 8 9 9
REMARK H PARENT 9 10
REMARK Flexibility Score: inf
ROOT
ATOM      1  C   UNL     1      12.275 -12.924  28.687  1.00  0.00     0.160 A 
ATOM      2  C   UNL     1      13.614 -13.077  28.272  1.00  0.00     0.050 A 
ATOM      3  C   UNL     1      14.646 -12.451  28.976  1.00  0.00     0.004 A 
ATOM      4  C   UNL     1      14.358 -11.671  30.098  1.00  0.00     0.004 A 
ATOM      5  C   UNL     1      13.035 -11.514  30.518  1.00  0.00     0.050 A 
ATOM      6  C   UNL     1      11.993 -12.138  29.816  1.00  0.00     0.157 A 
ENDROOT
BRANCH   1   7
ATOM      7  O   UNL     1      11.207 -13.533  28.010  1.00  0.00    -0.493 OA
ATOM      8  C   UNL     1      10.767 -13.168  26.706  1.00  0.00     0.278 C 
ENDBRANCH   1   7
BRANCH   6   9
ATOM      9  O   UNL     1      10.672 -11.982  30.234  1.00  0.00    -0.504 OA
ATOM     10  H   UNL     1       9.932 -12.582  29.888  1.00  0.00     0.293 HD
ENDBRANCH   6   9
TORSDOF 2
ENDMDL
MODEL 7
REMARK VINA RESULT:    -4.756      1.782      4.013
REMARK INTER + INTRA:          -5.201
REMARK INTER:                  -5.173
REMARK INTRA:                  -0.028
REMARK UNBOUND:                -0.027
REMARK SMILES COc1ccccc1O
REMARK SMILES IDX 3 1 4 2 5 3 6 4 7 5 8 6 2 7 1 8 9 9
REMARK H PARENT 9 10
REMARK Flexibility Score: inf
ROOT
ATOM      1  C   UNL     1      12.546 -12.126  28.398  1.00  0.00     0.160 A 
ATOM      2  C   UNL     1      11.247 -11.837  27.933  1.00  0.00     0.050 A 
ATOM      3  C   UNL     1      10.481 -10.845  28.551  1.00  0.00     0.004 A 
ATOM      4  C   UNL     1      10.999 -10.132  29.634  1.00  0.00     0.004 A 
ATOM      5  C   UNL     1      12.286 -10.409  30.102  1.00  0.00     0.050 A 
ATOM      6  C   UNL     1      13.061 -11.404  29.486  1.00  0.00     0.157 A 
ENDROOT
BRANCH   1   7
ATOM      7  O   UNL     1      13.351 -13.113  27.807  1.00  0.00    -0.493 OA
ATOM      8  C   UNL     1      12.868 -14.127  26.932  1.00  0.00     0.278 C 
ENDBRANCH   1   7
BRANCH   6   9
ATOM      9  O   UNL     1      14.345 -11.682  29.952  1.00  0.00    -0.504 OA
ATOM     10  H   UNL     1      14.577 -12.577  30.365  1.00  0.00     0.293 HD
ENDBRANCH   6   9
TORSDOF 2
ENDMDL
MODEL 8
REMARK VINA RESULT:    -4.550      1.762      2.723
REMARK INTER + INTRA:          -4.976
REMARK INTER:                  -4.948
REMARK INTRA:                  -0.028
REMARK UNBOUND:                -0.027
REMARK SMILES COc1ccccc1O
REMARK SMILES IDX 3 1 4 2 5 3 6 4 7 5 8 6 2 7 1 8 9 9
REMARK H PARENT 9 10
REMARK Flexibility Score: inf
ROOT
ATOM      1  C   UNL     1      12.664 -13.231  28.063  1.00  0.00     0.160 A 
ATOM      2  C   UNL     1      13.162 -14.174  27.140  1.00  0.00     0.050 A 
ATOM      3  C   UNL     1      14.277 -14.954  27.460  1.00  0.00     0.004 A 
ATOM      4  C   UNL     1      14.903 -14.805  28.700  1.00  0.00     0.004 A 
ATOM      5  C   UNL     1      14.417 -13.875  29.622  1.00  0.00     0.050 A 
ATOM      6  C   UNL     1      13.299 -13.089  29.307  1.00  0.00     0.157 A 
ENDROOT
BRANCH   1   7
ATOM      7  O   UNL     1      11.548 -12.427  27.783  1.00  0.00    -0.493 OA
ATOM      8  C   UNL     1      10.565 -12.729  26.798  1.00  0.00     0.278 C 
ENDBRANCH   1   7
BRANCH   6   9
ATOM      9  O   UNL     1      12.812 -12.160  30.225  1.00  0.00    -0.504 OA
ATOM     10  H   UNL     1      11.905 -11.724  30.109  1.00  0.00     0.293 HD
ENDBRANCH   6   9
TORSDOF 2
ENDMDL
MODEL 9
REMARK VINA RESULT:    -4.316      1.883      3.054
REMARK INTER + INTRA:          -4.722
REMARK INTER:                  -4.682
REMARK INTRA:                  -0.040
REMARK UNBOUND:                -0.027
REMARK SMILES COc1ccccc1O
REMARK SMILES IDX 3 1 4 2 5 3 6 4 7 5 8 6 2 7 1 8 9 9
REMARK H PARENT 9 10
REMARK Flexibility Score: inf
ROOT
ATOM      1  C   UNL     1      12.535 -12.918  28.414  1.00  0.00     0.160 A 
ATOM      2  C   UNL     1      11.904 -12.315  29.521  1.00  0.00     0.050 A 
ATOM      3  C   UNL     1      12.655 -11.598  30.456  1.00  0.00     0.004 A 
ATOM      4  C   UNL     1      14.037 -11.471  30.298  1.00  0.00     0.004 A 
ATOM      5  C   UNL     1      14.671 -12.064  29.203  1.00  0.00     0.050 A 
ATOM      6  C   UNL     1      13.924 -12.787  28.262  1.00  0.00     0.157 A 
ENDROOT
BRANCH   1   7
ATOM      7  O   UNL     1      11.821 -13.649  27.452  1.00  0.00    -0.493 OA
ATOM      8  C   UNL     1      10.745 -13.126  26.679  1.00  0.00     0.278 C 
ENDBRANCH   1   7
BRANCH   6   9
ATOM      9  O   UNL     1      14.556 -13.379  27.169  1.00  0.00    -0.504 OA
ATOM     10  H   UNL     1      15.363 -13.981  27.285  1.00  0.00     0.293 HD
ENDBRANCH   6   9
TORSDOF 2
ENDMDL
