MODEL 1
REMARK VINA RESULT:    -5.465      0.000      0.000
REMARK INTER + INTRA:          -8.994
REMARK INTER:                  -7.541
REMARK INTRA:                  -1.453
REMARK UNBOUND:                -1.453
REMARK SMILES O=C([O-])[C@H]1O[C@@H](Oc2cc3oc(-c4ccccc4)cc(=O)c3c(O)c2O)[C@H](O)[C@@H](O)[C@H]1O
REMARK SMILES IDX 7 1 6 2 4 3 31 4 5 5 29 6 27 7 2 8 1 9 3 10 32 11 30 13
REMARK SMILES IDX 28 15 8 17 25 18 9 19 23 20 10 21 22 22 11 23 20 24 12 25
REMARK SMILES IDX 19 26 21 27 26 28 24 30 13 32 14 33 18 34 15 35 17 36 16 37
REMARK H PARENT 32 12 30 14 28 16 26 29 24 31
REMARK Flexibility Score: inf
ROOT
ATOM      1  O   UNL     1     -34.418  14.122  57.264  1.00  0.00    -0.458 OA
ENDROOT
BRANCH   1   2
ATOM      2  C   UNL     1     -35.537  14.604  56.513  1.00  0.00     0.339 C 
ATOM      3  C   UNL     1     -36.966  12.760  56.998  1.00  0.00     0.199 C 
ATOM      4  C   UNL     1     -36.914  12.269  55.527  1.00  0.00     0.180 C 
ATOM      5  O   UNL     1     -36.762  14.167  57.092  1.00  0.00    -0.328 OA
ATOM      6  C   UNL     1     -35.622  12.710  54.827  1.00  0.00     0.181 C 
ATOM      7  C   UNL     1     -35.414  14.220  55.023  1.00  0.00     0.214 C 
BRANCH   3   8
ATOM      8  C   UNL     1     -36.102  12.002  57.983  1.00  0.00     0.073 C 
ATOM      9  O   UNL     1     -36.094  12.344  59.195  1.00  0.00    -0.547 OA
ATOM     10  O   UNL     1     -35.376  10.881  57.596  1.00  0.00    -0.547 OA
ENDBRANCH   3   8
BRANCH   4  11
ATOM     11  O   UNL     1     -37.060  10.875  55.437  1.00  0.00    -0.387 OA
ATOM     12  H   UNL     1     -37.973  10.704  55.084  1.00  0.00     0.211 HD
ENDBRANCH   4  11
BRANCH   6  13
ATOM     13  O   UNL     1     -34.525  11.992  55.330  1.00  0.00    -0.387 OA
ATOM     14  H   UNL     1     -34.861  11.094  55.586  1.00  0.00     0.211 HD
ENDBRANCH   6  13
BRANCH   7  15
ATOM     15  O   UNL     1     -36.372  14.919  54.270  1.00  0.00    -0.384 OA
ATOM     16  H   UNL     1     -35.897  15.308  53.488  1.00  0.00     0.211 HD
ENDBRANCH   7  15
ENDBRANCH   1   2
BRANCH   1  17
ATOM     17  C   UNL     1     -33.149  14.698  57.169  1.00  0.00     0.172 A 
ATOM     18  C   UNL     1     -32.043  13.948  56.734  1.00  0.00     0.201 A 
ATOM     19  C   UNL     1     -32.987  16.040  57.506  1.00  0.00     0.098 A 
ATOM     20  C   UNL     1     -30.765  14.529  56.683  1.00  0.00     0.176 A 
ATOM     21  C   UNL     1     -31.735  16.648  57.426  1.00  0.00     0.146 A 
ATOM     22  C   UNL     1     -30.603  15.912  56.992  1.00  0.00     0.111 A 
ATOM     23  O   UNL     1     -31.629  17.930  57.758  1.00  0.00    -0.456 OA
ATOM     24  C   UNL     1     -29.390  16.629  56.860  1.00  0.00     0.197 A 
ATOM     25  C   UNL     1     -30.491  18.612  57.699  1.00  0.00     0.138 A 
ATOM     26  C   UNL     1     -29.334  17.973  57.230  1.00  0.00     0.100 A 
ATOM     27  O   UNL     1     -28.351  16.102  56.382  1.00  0.00    -0.289 OA
BRANCH  18  28
ATOM     28  O   UNL     1     -32.192  12.616  56.344  1.00  0.00    -0.502 OA
ATOM     29  H   UNL     1     -31.402  12.020  56.130  1.00  0.00     0.293 HD
ENDBRANCH  18  28
BRANCH  20  30
ATOM     30  O   UNL     1     -29.705  13.682  56.341  1.00  0.00    -0.504 OA
ATOM     31  H   UNL     1     -28.832  13.986  55.941  1.00  0.00     0.293 HD
ENDBRANCH  20  30
BRANCH  25  32
ATOM     32  C   UNL     1     -30.490  20.040  58.106  1.00  0.00     0.017 A 
ATOM     33  C   UNL     1     -30.530  20.425  59.462  1.00  0.00     0.012 A 
ATOM     34  C   UNL     1     -30.481  21.043  57.118  1.00  0.00     0.012 A 
ATOM     35  C   UNL     1     -30.541  21.779  59.813  1.00  0.00     0.001 A 
ATOM     36  C   UNL     1     -30.491  22.394  57.476  1.00  0.00     0.001 A 
ATOM     37  C   UNL     1     -30.519  22.762  58.822  1.00  0.00     0.000 A 
ENDBRANCH  25  32
ENDBRANCH   1  17
TORSDOF 9
ENDMDL
MODEL 2
REMARK VINA RESULT:    -5.328      2.490      8.853
REMARK INTER + INTRA:          -8.805
REMARK INTER:                  -8.065
REMARK INTRA:                  -0.740
REMARK UNBOUND:                -1.453
REMARK SMILES O=C([O-])[C@H]1O[C@@H](Oc2cc3oc(-c4ccccc4)cc(=O)c3c(O)c2O)[C@H](O)[C@@H](O)[C@H]1O
REMARK SMILES IDX 7 1 6 2 4 3 31 4 5 5 29 6 27 7 2 8 1 9 3 10 32 11 30 13
REMARK SMILES IDX 28 15 8 17 25 18 9 19 23 20 10 21 22 22 11 23 20 24 12 25
REMARK SMILES IDX 19 26 21 27 26 28 24 30 13 32 14 33 18 34 15 35 17 36 16 37
REMARK H PARENT 32 12 30 14 28 16 26 29 24 31
REMARK Flexibility Score: inf
ROOT
ATOM      1  O   UNL     1     -30.146  18.119  56.106  1.00  0.00    -0.458 OA
ENDROOT
BRANCH   1   2
ATOM      2  C   UNL     1     -28.753  17.846  56.285  1.00  0.00     0.339 C 
ATOM      3  C   UNL     1     -28.205  19.975  57.204  1.00  0.00     0.199 C 
ATOM      4  C   UNL     1     -27.386  20.363  55.943  1.00  0.00     0.180 C 
ATOM      5  O   UNL     1     -28.234  18.564  57.399  1.00  0.00    -0.328 OA
ATOM      6  C   UNL     1     -27.879  19.620  54.695  1.00  0.00     0.181 C 
ATOM      7  C   UNL     1     -27.962  18.113  54.986  1.00  0.00     0.214 C 
BRANCH   3   8
ATOM      8  C   UNL     1     -29.586  20.584  57.311  1.00  0.00     0.073 C 
ATOM      9  O   UNL     1     -30.148  20.656  58.437  1.00  0.00    -0.547 OA
ATOM     10  O   UNL     1     -30.220  21.143  56.207  1.00  0.00    -0.547 OA
ENDBRANCH   3   8
BRANCH   4  11
ATOM     11  O   UNL     1     -27.402  21.749  55.718  1.00  0.00    -0.387 OA
ATOM     12  H   UNL     1     -26.757  21.928  54.984  1.00  0.00     0.211 HD
ENDBRANCH   4  11
BRANCH   6  13
ATOM     13  O   UNL     1     -29.131  20.115  54.296  1.00  0.00    -0.387 OA
ATOM     14  H   UNL     1     -29.256  19.851  53.347  1.00  0.00     0.211 HD
ENDBRANCH   6  13
BRANCH   7  15
ATOM     15  O   UNL     1     -26.662  17.594  55.104  1.00  0.00    -0.384 OA
ATOM     16  H   UNL     1     -26.063  18.358  55.315  1.00  0.00     0.211 HD
ENDBRANCH   7  15
ENDBRANCH   1   2
BRANCH   1  17
ATOM     17  C   UNL     1     -31.144  17.345  56.704  1.00  0.00     0.172 A 
ATOM     18  C   UNL     1     -31.303  17.321  58.100  1.00  0.00     0.201 A 
ATOM     19  C   UNL     1     -31.993  16.593  55.896  1.00  0.00     0.098 A 
ATOM     20  C   UNL     1     -32.283  16.506  58.690  1.00  0.00     0.176 A 
ATOM     21  C   UNL     1     -32.998  15.806  56.457  1.00  0.00     0.146 A 
ATOM     22  C   UNL     1     -33.178  15.763  57.864  1.00  0.00     0.111 A 
ATOM     23  O   UNL     1     -33.784  15.105  55.648  1.00  0.00    -0.456 OA
ATOM     24  C   UNL     1     -34.274  15.006  58.343  1.00  0.00     0.197 A 
ATOM     25  C   UNL     1     -34.784  14.341  56.075  1.00  0.00     0.138 A 
ATOM     26  C   UNL     1     -35.063  14.284  57.447  1.00  0.00     0.100 A 
ATOM     27  O   UNL     1     -34.591  14.986  59.561  1.00  0.00    -0.289 OA
BRANCH  18  28
ATOM     28  O   UNL     1     -30.495  18.106  58.925  1.00  0.00    -0.502 OA
ATOM     29  H   UNL     1     -30.872  18.820  59.536  1.00  0.00     0.293 HD
ENDBRANCH  18  28
BRANCH  20  30
ATOM     30  O   UNL     1     -32.303  16.462  60.088  1.00  0.00    -0.504 OA
ATOM     31  H   UNL     1     -31.965  15.693  60.645  1.00  0.00     0.293 HD
ENDBRANCH  20  30
BRANCH  25  32
ATOM     32  C   UNL     1     -35.590  13.594  55.076  1.00  0.00     0.017 A 
ATOM     33  C   UNL     1     -36.366  14.256  54.103  1.00  0.00     0.012 A 
ATOM     34  C   UNL     1     -35.610  12.186  55.116  1.00  0.00     0.012 A 
ATOM     35  C   UNL     1     -37.125  13.523  53.184  1.00  0.00     0.001 A 
ATOM     36  C   UNL     1     -36.370  11.460  54.194  1.00  0.00     0.001 A 
ATOM     37  C   UNL     1     -37.125  12.128  53.228  1.00  0.00     0.000 A 
ENDBRANCH  25  32
ENDBRANCH   1  17
TORSDOF 9
ENDMDL
MODEL 3
REMARK VINA RESULT:    -5.205      2.540      8.835
REMARK INTER + INTRA:          -8.635
REMARK INTER:                  -7.589
REMARK INTRA:                  -1.047
REMARK UNBOUND:                -1.453
REMARK SMILES O=C([O-])[C@H]1O[C@@H](Oc2cc3oc(-c4ccccc4)cc(=O)c3c(O)c2O)[C@H](O)[C@@H](O)[C@H]1O
REMARK SMILES IDX 7 1 6 2 4 3 31 4 5 5 29 6 27 7 2 8 1 9 3 10 32 11 30 13
REMARK SMILES IDX 28 15 8 17 25 18 9 19 23 20 10 21 22 22 11 23 20 24 12 25
REMARK SMILES IDX 19 26 21 27 26 28 24 30 13 32 14 33 18 34 15 35 17 36 16 37
REMARK H PARENT 32 12 30 14 28 16 26 29 24 31
REMARK Flexibility Score: inf
ROOT
ATOM      1  O   UNL     1     -30.168  18.095  56.042  1.00  0.00    -0.458 OA
ENDROOT
BRANCH   1   2
ATOM      2  C   UNL     1     -30.364  19.468  55.687  1.00  0.00     0.339 C 
ATOM      3  C   UNL     1     -28.158  19.823  54.861  1.00  0.00     0.199 C 
ATOM      4  C   UNL     1     -27.813  20.767  56.044  1.00  0.00     0.180 C 
ATOM      5  O   UNL     1     -29.554  19.825  54.574  1.00  0.00    -0.328 OA
ATOM      6  C   UNL     1     -28.656  20.451  57.286  1.00  0.00     0.181 C 
ATOM      7  C   UNL     1     -30.144  20.393  56.904  1.00  0.00     0.214 C 
BRANCH   3   8
ATOM      8  C   UNL     1     -27.608  18.415  54.953  1.00  0.00     0.073 C 
ATOM      9  O   UNL     1     -27.860  17.588  54.036  1.00  0.00    -0.547 OA
ATOM     10  O   UNL     1     -26.760  18.035  55.986  1.00  0.00    -0.547 OA
ENDBRANCH   3   8
BRANCH   4  11
ATOM     11  O   UNL     1     -26.447  20.724  56.364  1.00  0.00    -0.387 OA
ATOM     12  H   UNL     1     -26.018  20.111  55.710  1.00  0.00     0.211 HD
ENDBRANCH   4  11
BRANCH   6  13
ATOM     13  O   UNL     1     -28.247  19.236  57.858  1.00  0.00    -0.387 OA
ATOM     14  H   UNL     1     -27.408  18.970  57.399  1.00  0.00     0.211 HD
ENDBRANCH   6  13
BRANCH   7  15
ATOM     15  O   UNL     1     -30.594  21.690  56.604  1.00  0.00    -0.384 OA
ATOM     16  H   UNL     1     -29.786  22.252  56.466  1.00  0.00     0.211 HD
ENDBRANCH   7  15
ENDBRANCH   1   2
BRANCH   1  17
ATOM     17  C   UNL     1     -31.162  17.333  56.660  1.00  0.00     0.172 A 
ATOM     18  C   UNL     1     -31.319  17.340  58.057  1.00  0.00     0.201 A 
ATOM     19  C   UNL     1     -32.011  16.560  55.872  1.00  0.00     0.098 A 
ATOM     20  C   UNL     1     -32.295  16.537  58.668  1.00  0.00     0.176 A 
ATOM     21  C   UNL     1     -33.013  15.783  56.453  1.00  0.00     0.146 A 
ATOM     22  C   UNL     1     -33.190  15.772  57.861  1.00  0.00     0.111 A 
ATOM     23  O   UNL     1     -33.798  15.061  55.661  1.00  0.00    -0.456 OA
ATOM     24  C   UNL     1     -34.282  15.024  58.359  1.00  0.00     0.197 A 
ATOM     25  C   UNL     1     -34.794  14.305  56.108  1.00  0.00     0.138 A 
ATOM     26  C   UNL     1     -35.071  14.278  57.481  1.00  0.00     0.100 A 
ATOM     27  O   UNL     1     -34.597  15.031  59.578  1.00  0.00    -0.289 OA
BRANCH  18  28
ATOM     28  O   UNL     1     -30.512  18.147  58.862  1.00  0.00    -0.502 OA
ATOM     29  H   UNL     1     -30.645  19.148  58.936  1.00  0.00     0.293 HD
ENDBRANCH  18  28
BRANCH  20  30
ATOM     30  O   UNL     1     -32.312  16.525  60.066  1.00  0.00    -0.504 OA
ATOM     31  H   UNL     1     -32.303  17.347  60.650  1.00  0.00     0.293 HD
ENDBRANCH  20  30
BRANCH  25  32
ATOM     32  C   UNL     1     -35.600  13.532  55.129  1.00  0.00     0.017 A 
ATOM     33  C   UNL     1     -35.600  12.122  55.116  1.00  0.00     0.012 A 
ATOM     34  C   UNL     1     -36.361  14.218  54.163  1.00  0.00     0.012 A 
ATOM     35  C   UNL     1     -36.360  11.423  54.173  1.00  0.00     0.001 A 
ATOM     36  C   UNL     1     -37.119  13.513  53.223  1.00  0.00     0.001 A 
ATOM     37  C   UNL     1     -37.120  12.117  53.229  1.00  0.00     0.000 A 
ENDBRANCH  25  32
ENDBRANCH   1  17
TORSDOF 9
ENDMDL
MODEL 4
REMARK VINA RESULT:    -4.539      2.355      3.904
REMARK INTER + INTRA:          -7.716
REMARK INTER:                  -6.328
REMARK INTRA:                  -1.388
REMARK UNBOUND:                -1.453
REMARK SMILES O=C([O-])[C@H]1O[C@@H](Oc2cc3oc(-c4ccccc4)cc(=O)c3c(O)c2O)[C@H](O)[C@@H](O)[C@H]1O
REMARK SMILES IDX 7 1 6 2 4 3 31 4 5 5 29 6 27 7 2 8 1 9 3 10 32 11 30 13
REMARK SMILES IDX 28 15 8 17 25 18 9 19 23 20 10 21 22 22 11 23 20 24 12 25
REMARK SMILES IDX 19 26 21 27 26 28 24 30 13 32 14 33 18 34 15 35 17 36 16 37
REMARK H PARENT 32 12 30 14 28 16 26 29 24 31
REMARK Flexibility Score: inf
ROOT
ATOM      1  O   UNL     1     -34.003  14.410  56.430  1.00  0.00    -0.458 OA
ENDROOT
BRANCH   1   2
ATOM      2  C   UNL     1     -33.571  13.133  55.950  1.00  0.00     0.339 C 
ATOM      3  C   UNL     1     -35.744  12.162  55.851  1.00  0.00     0.199 C 
ATOM      4  C   UNL     1     -35.421  11.198  57.023  1.00  0.00     0.180 C 
ATOM      5  O   UNL     1     -34.570  12.532  55.134  1.00  0.00    -0.328 OA
ATOM      6  C   UNL     1     -34.340  11.771  57.949  1.00  0.00     0.181 C 
ATOM      7  C   UNL     1     -33.129  12.222  57.117  1.00  0.00     0.214 C 
BRANCH   3   8
ATOM      8  C   UNL     1     -36.592  13.367  56.197  1.00  0.00     0.073 C 
ATOM      9  O   UNL     1     -36.904  14.188  55.293  1.00  0.00    -0.547 OA
ATOM     10  O   UNL     1     -37.107  13.548  57.476  1.00  0.00    -0.547 OA
ENDBRANCH   3   8
BRANCH   4  11
ATOM     11  O   UNL     1     -36.569  10.875  57.764  1.00  0.00    -0.387 OA
ATOM     12  H   UNL     1     -36.484   9.920  58.024  1.00  0.00     0.211 HD
ENDBRANCH   4  11
BRANCH   6  13
ATOM     13  O   UNL     1     -34.854  12.846  58.693  1.00  0.00    -0.387 OA
ATOM     14  H   UNL     1     -35.126  13.542  58.041  1.00  0.00     0.211 HD
ENDBRANCH   6  13
BRANCH   7  15
ATOM     15  O   UNL     1     -32.468  11.090  56.612  1.00  0.00    -0.384 OA
ATOM     16  H   UNL     1     -32.111  10.591  57.394  1.00  0.00     0.211 HD
ENDBRANCH   7  15
ENDBRANCH   1   2
BRANCH   1  17
ATOM     17  C   UNL     1     -33.106  15.396  56.848  1.00  0.00     0.172 A 
ATOM     18  C   UNL     1     -33.031  15.784  58.197  1.00  0.00     0.201 A 
ATOM     19  C   UNL     1     -32.272  15.995  55.907  1.00  0.00     0.098 A 
ATOM     20  C   UNL     1     -32.155  16.806  58.596  1.00  0.00     0.176 A 
ATOM     21  C   UNL     1     -31.366  16.985  56.286  1.00  0.00     0.146 A 
ATOM     22  C   UNL     1     -31.273  17.396  57.642  1.00  0.00     0.111 A 
ATOM     23  O   UNL     1     -30.592  17.529  55.354  1.00  0.00    -0.456 OA
ATOM     24  C   UNL     1     -30.270  18.344  57.952  1.00  0.00     0.197 A 
ATOM     25  C   UNL     1     -29.681  18.463  55.609  1.00  0.00     0.138 A 
ATOM     26  C   UNL     1     -29.488  18.887  56.931  1.00  0.00     0.100 A 
ATOM     27  O   UNL     1     -30.028  18.697  59.136  1.00  0.00    -0.289 OA
BRANCH  18  28
ATOM     28  O   UNL     1     -33.823  15.161  59.164  1.00  0.00    -0.502 OA
ATOM     29  H   UNL     1     -34.717  14.738  58.945  1.00  0.00     0.293 HD
ENDBRANCH  18  28
BRANCH  20  30
ATOM     30  O   UNL     1     -32.220  17.200  59.936  1.00  0.00    -0.504 OA
ATOM     31  H   UNL     1     -32.030  18.131  60.273  1.00  0.00     0.293 HD
ENDBRANCH  20  30
BRANCH  25  32
ATOM     32  C   UNL     1     -28.879  19.006  54.484  1.00  0.00     0.017 A 
ATOM     33  C   UNL     1     -29.444  19.858  53.513  1.00  0.00     0.012 A 
ATOM     34  C   UNL     1     -27.526  18.639  54.358  1.00  0.00     0.012 A 
ATOM     35  C   UNL     1     -28.665  20.343  52.458  1.00  0.00     0.001 A 
ATOM     36  C   UNL     1     -26.752  19.128  53.301  1.00  0.00     0.001 A 
ATOM     37  C   UNL     1     -27.321  19.980  52.353  1.00  0.00     0.000 A 
ENDBRANCH  25  32
ENDBRANCH   1  17
TORSDOF 9
ENDMDL
MODEL 5
REMARK VINA RESULT:    -4.158      2.324      3.808
REMARK INTER + INTRA:          -7.191
REMARK INTER:                  -5.871
REMARK INTRA:                  -1.320
REMARK UNBOUND:                -1.453
REMARK SMILES O=C([O-])[C@H]1O[C@@H](Oc2cc3oc(-c4ccccc4)cc(=O)c3c(O)c2O)[C@H](O)[C@@H](O)[C@H]1O
REMARK SMILES IDX 7 1 6 2 4 3 31 4 5 5 29 6 27 7 2 8 1 9 3 10 32 11 30 13
REMARK SMILES IDX 28 15 8 17 25 18 9 19 23 20 10 21 22 22 11 23 20 24 12 25
REMARK SMILES IDX 19 26 21 27 26 28 24 30 13 32 14 33 18 34 15 35 17 36 16 37
REMARK H PARENT 32 12 30 14 28 16 26 29 24 31
REMARK Flexibility Score: inf
ROOT
ATOM      1  O   UNL     1     -33.598  13.717  57.217  1.00  0.00    -0.458 OA
ENDROOT
BRANCH   1   2
ATOM      2  C   UNL     1     -33.905  13.410  58.581  1.00  0.00     0.339 C 
ATOM      3  C   UNL     1     -34.723  11.213  58.158  1.00  0.00     0.199 C 
ATOM      4  C   UNL     1     -36.174  11.631  58.519  1.00  0.00     0.180 C 
ATOM      5  O   UNL     1     -33.760  12.018  58.833  1.00  0.00    -0.328 OA
ATOM      6  C   UNL     1     -36.409  13.128  58.283  1.00  0.00     0.181 C 
ATOM      7  C   UNL     1     -35.302  13.943  58.970  1.00  0.00     0.214 C 
BRANCH   3   8
ATOM      8  C   UNL     1     -34.415  11.092  56.681  1.00  0.00     0.073 C 
ATOM      9  O   UNL     1     -35.341  11.239  55.839  1.00  0.00    -0.547 OA
ATOM     10  O   UNL     1     -33.116  10.901  56.225  1.00  0.00    -0.547 OA
ENDBRANCH   3   8
BRANCH   4  11
ATOM     11  O   UNL     1     -37.124  10.875  57.813  1.00  0.00    -0.387 OA
ATOM     12  H   UNL     1     -37.548  10.262  58.470  1.00  0.00     0.211 HD
ENDBRANCH   4  11
BRANCH   6  13
ATOM     13  O   UNL     1     -36.444  13.406  56.907  1.00  0.00    -0.387 OA
ATOM     14  H   UNL     1     -37.392  13.584  56.674  1.00  0.00     0.211 HD
ENDBRANCH   6  13
BRANCH   7  15
ATOM     15  O   UNL     1     -35.469  13.867  60.362  1.00  0.00    -0.384 OA
ATOM     16  H   UNL     1     -36.172  13.186  60.533  1.00  0.00     0.211 HD
ENDBRANCH   7  15
ENDBRANCH   1   2
BRANCH   1  17
ATOM     17  C   UNL     1     -32.884  14.859  56.848  1.00  0.00     0.172 A 
ATOM     18  C   UNL     1     -33.394  15.758  55.896  1.00  0.00     0.201 A 
ATOM     19  C   UNL     1     -31.650  15.107  57.444  1.00  0.00     0.098 A 
ATOM     20  C   UNL     1     -32.647  16.880  55.504  1.00  0.00     0.176 A 
ATOM     21  C   UNL     1     -30.907  16.236  57.099  1.00  0.00     0.146 A 
ATOM     22  C   UNL     1     -31.399  17.157  56.139  1.00  0.00     0.111 A 
ATOM     23  O   UNL     1     -29.734  16.431  57.693  1.00  0.00    -0.456 OA
ATOM     24  C   UNL     1     -30.620  18.316  55.911  1.00  0.00     0.197 A 
ATOM     25  C   UNL     1     -28.957  17.481  57.455  1.00  0.00     0.138 A 
ATOM     26  C   UNL     1     -29.393  18.466  56.558  1.00  0.00     0.100 A 
ATOM     27  O   UNL     1     -31.014  19.249  55.162  1.00  0.00    -0.289 OA
BRANCH  18  28
ATOM     28  O   UNL     1     -34.652  15.555  55.324  1.00  0.00    -0.502 OA
ATOM     29  H   UNL     1     -34.856  14.763  54.726  1.00  0.00     0.293 HD
ENDBRANCH  18  28
BRANCH  20  30
ATOM     30  O   UNL     1     -33.182  17.663  54.475  1.00  0.00    -0.504 OA
ATOM     31  H   UNL     1     -33.531  18.601  54.587  1.00  0.00     0.293 HD
ENDBRANCH  20  30
BRANCH  25  32
ATOM     32  C   UNL     1     -27.660  17.589  58.171  1.00  0.00     0.017 A 
ATOM     33  C   UNL     1     -26.549  16.795  57.818  1.00  0.00     0.012 A 
ATOM     34  C   UNL     1     -27.539  18.480  59.254  1.00  0.00     0.012 A 
ATOM     35  C   UNL     1     -25.345  16.911  58.520  1.00  0.00     0.001 A 
ATOM     36  C   UNL     1     -26.332  18.591  59.951  1.00  0.00     0.001 A 
ATOM     37  C   UNL     1     -25.236  17.809  59.584  1.00  0.00     0.000 A 
ENDBRANCH  25  32
ENDBRANCH   1  17
TORSDOF 9
ENDMDL
MODEL 6
REMARK VINA RESULT:    -4.067      2.258      3.338
REMARK INTER + INTRA:          -7.065
REMARK INTER:                  -5.606
REMARK INTRA:                  -1.459
REMARK UNBOUND:                -1.453
REMARK SMILES O=C([O-])[C@H]1O[C@@H](Oc2cc3oc(-c4ccccc4)cc(=O)c3c(O)c2O)[C@H](O)[C@@H](O)[C@H]1O
REMARK SMILES IDX 7 1 6 2 4 3 31 4 5 5 29 6 27 7 2 8 1 9 3 10 32 11 30 13
REMARK SMILES IDX 28 15 8 17 25 18 9 19 23 20 10 21 22 22 11 23 20 24 12 25
REMARK SMILES IDX 19 26 21 27 26 28 24 30 13 32 14 33 18 34 15 35 17 36 16 37
REMARK H PARENT 32 12 30 14 28 16 26 29 24 31
REMARK Flexibility Score: inf
ROOT
ATOM      1  O   UNL     1     -34.017  14.486  56.466  1.00  0.00    -0.458 OA
ENDROOT
BRANCH   1   2
ATOM      2  C   UNL     1     -35.353  14.798  56.056  1.00  0.00     0.339 C 
ATOM      3  C   UNL     1     -36.380  12.939  57.134  1.00  0.00     0.199 C 
ATOM      4  C   UNL     1     -36.723  12.276  55.773  1.00  0.00     0.180 C 
ATOM      5  O   UNL     1     -36.298  14.356  57.024  1.00  0.00    -0.328 OA
ATOM      6  C   UNL     1     -35.751  12.711  54.668  1.00  0.00     0.181 C 
ATOM      7  C   UNL     1     -35.645  14.244  54.644  1.00  0.00     0.214 C 
BRANCH   3   8
ATOM      8  C   UNL     1     -35.188  12.364  57.870  1.00  0.00     0.073 C 
ATOM      9  O   UNL     1     -34.883  12.816  59.006  1.00  0.00    -0.547 OA
ATOM     10  O   UNL     1     -34.469  11.290  57.359  1.00  0.00    -0.547 OA
ENDBRANCH   3   8
BRANCH   4  11
ATOM     11  O   UNL     1     -36.750  10.875  55.867  1.00  0.00    -0.387 OA
ATOM     12  H   UNL     1     -36.850  10.527  54.942  1.00  0.00     0.211 HD
ENDBRANCH   4  11
BRANCH   6  13
ATOM     13  O   UNL     1     -34.488  12.133  54.874  1.00  0.00    -0.387 OA
ATOM     14  H   UNL     1     -34.590  11.471  55.606  1.00  0.00     0.211 HD
ENDBRANCH   6  13
BRANCH   7  15
ATOM     15  O   UNL     1     -36.849  14.783  54.161  1.00  0.00    -0.384 OA
ATOM     16  H   UNL     1     -36.756  14.862  53.175  1.00  0.00     0.211 HD
ENDBRANCH   7  15
ENDBRANCH   1   2
BRANCH   1  17
ATOM     17  C   UNL     1     -33.109  15.467  56.868  1.00  0.00     0.172 A 
ATOM     18  C   UNL     1     -33.008  15.853  58.216  1.00  0.00     0.201 A 
ATOM     19  C   UNL     1     -32.290  16.065  55.913  1.00  0.00     0.098 A 
ATOM     20  C   UNL     1     -32.120  16.870  58.601  1.00  0.00     0.176 A 
ATOM     21  C   UNL     1     -31.373  17.050  56.278  1.00  0.00     0.146 A 
ATOM     22  C   UNL     1     -31.254  17.458  57.632  1.00  0.00     0.111 A 
ATOM     23  O   UNL     1     -30.613  17.592  55.333  1.00  0.00    -0.456 OA
ATOM     24  C   UNL     1     -30.241  18.402  57.925  1.00  0.00     0.197 A 
ATOM     25  C   UNL     1     -29.695  18.522  55.572  1.00  0.00     0.138 A 
ATOM     26  C   UNL     1     -29.476  18.943  56.891  1.00  0.00     0.100 A 
ATOM     27  O   UNL     1     -29.976  18.752  59.105  1.00  0.00    -0.289 OA
BRANCH  18  28
ATOM     28  O   UNL     1     -33.784  15.231  59.197  1.00  0.00    -0.502 OA
ATOM     29  H   UNL     1     -33.914  15.627  60.120  1.00  0.00     0.293 HD
ENDBRANCH  18  28
BRANCH  20  30
ATOM     30  O   UNL     1     -32.159  17.263  59.943  1.00  0.00    -0.504 OA
ATOM     31  H   UNL     1     -32.011  16.649  60.728  1.00  0.00     0.293 HD
ENDBRANCH  20  30
BRANCH  25  32
ATOM     32  C   UNL     1     -28.911  19.064  54.433  1.00  0.00     0.017 A 
ATOM     33  C   UNL     1     -29.521  19.794  53.393  1.00  0.00     0.012 A 
ATOM     34  C   UNL     1     -27.526  18.818  54.366  1.00  0.00     0.012 A 
ATOM     35  C   UNL     1     -28.757  20.281  52.327  1.00  0.00     0.001 A 
ATOM     36  C   UNL     1     -26.769  19.307  53.298  1.00  0.00     0.001 A 
ATOM     37  C   UNL     1     -27.383  20.039  52.281  1.00  0.00     0.000 A 
ENDBRANCH  25  32
ENDBRANCH   1  17
TORSDOF 9
ENDMDL
MODEL 7
REMARK VINA RESULT:    -3.747      1.104      2.331
REMARK INTER + INTRA:          -6.624
REMARK INTER:                  -5.654
REMARK INTRA:                  -0.970
REMARK UNBOUND:                -1.453
REMARK SMILES O=C([O-])[C@H]1O[C@@H](Oc2cc3oc(-c4ccccc4)cc(=O)c3c(O)c2O)[C@H](O)[C@@H](O)[C@H]1O
REMARK SMILES IDX 7 1 6 2 4 3 31 4 5 5 29 6 27 7 2 8 1 9 3 10 32 11 30 13
REMARK SMILES IDX 28 15 8 17 25 18 9 19 23 20 10 21 22 22 11 23 20 24 12 25
REMARK SMILES IDX 19 26 21 27 26 28 24 30 13 32 14 33 18 34 15 35 17 36 16 37
REMARK H PARENT 32 12 30 14 28 16 26 29 24 31
REMARK Flexibility Score: inf
ROOT
ATOM      1  O   UNL     1     -33.811  14.332  57.093  1.00  0.00    -0.458 OA
ENDROOT
BRANCH   1   2
ATOM      2  C   UNL     1     -34.187  13.497  58.192  1.00  0.00     0.339 C 
ATOM      3  C   UNL     1     -34.790  11.610  56.870  1.00  0.00     0.199 C 
ATOM      4  C   UNL     1     -36.292  11.781  57.221  1.00  0.00     0.180 C 
ATOM      5  O   UNL     1     -33.946  12.127  57.895  1.00  0.00    -0.328 OA
ATOM      6  C   UNL     1     -36.632  13.236  57.566  1.00  0.00     0.181 C 
ATOM      7  C   UNL     1     -35.647  13.765  58.620  1.00  0.00     0.214 C 
BRANCH   3   8
ATOM      8  C   UNL     1     -34.369  12.097  55.499  1.00  0.00     0.073 C 
ATOM      9  O   UNL     1     -33.179  11.932  55.119  1.00  0.00    -0.547 OA
ATOM     10  O   UNL     1     -35.287  12.650  54.614  1.00  0.00    -0.547 OA
ENDBRANCH   3   8
BRANCH   4  11
ATOM     11  O   UNL     1     -37.125  11.322  56.188  1.00  0.00    -0.387 OA
ATOM     12  H   UNL     1     -36.534  10.899  55.510  1.00  0.00     0.211 HD
ENDBRANCH   4  11
BRANCH   6  13
ATOM     13  O   UNL     1     -36.592  14.034  56.411  1.00  0.00    -0.387 OA
ATOM     14  H   UNL     1     -37.426  14.571  56.403  1.00  0.00     0.211 HD
ENDBRANCH   6  13
BRANCH   7  15
ATOM     15  O   UNL     1     -35.905  13.137  59.850  1.00  0.00    -0.384 OA
ATOM     16  H   UNL     1     -36.526  12.383  59.665  1.00  0.00     0.211 HD
ENDBRANCH   7  15
ENDBRANCH   1   2
BRANCH   1  17
ATOM     17  C   UNL     1     -32.596  15.021  57.057  1.00  0.00     0.172 A 
ATOM     18  C   UNL     1     -31.410  14.380  56.657  1.00  0.00     0.201 A 
ATOM     19  C   UNL     1     -32.569  16.366  57.418  1.00  0.00     0.098 A 
ATOM     20  C   UNL     1     -30.189  15.073  56.666  1.00  0.00     0.176 A 
ATOM     21  C   UNL     1     -31.375  17.085  57.397  1.00  0.00     0.146 A 
ATOM     22  C   UNL     1     -30.164  16.460  57.000  1.00  0.00     0.111 A 
ATOM     23  O   UNL     1     -31.397  18.365  57.751  1.00  0.00    -0.456 OA
ATOM     24  C   UNL     1     -29.016  17.285  56.928  1.00  0.00     0.197 A 
ATOM     25  C   UNL     1     -30.323  19.147  57.747  1.00  0.00     0.138 A 
ATOM     26  C   UNL     1     -29.096  18.622  57.317  1.00  0.00     0.100 A 
ATOM     27  O   UNL     1     -27.917  16.861  56.485  1.00  0.00    -0.289 OA
BRANCH  18  28
ATOM     28  O   UNL     1     -31.424  13.047  56.243  1.00  0.00    -0.502 OA
ATOM     29  H   UNL     1     -31.997  12.722  55.474  1.00  0.00     0.293 HD
ENDBRANCH  18  28
BRANCH  20  30
ATOM     30  O   UNL     1     -29.045  14.331  56.356  1.00  0.00    -0.504 OA
ATOM     31  H   UNL     1     -28.347  14.042  57.024  1.00  0.00     0.293 HD
ENDBRANCH  20  30
BRANCH  25  32
ATOM     32  C   UNL     1     -30.467  20.562  58.173  1.00  0.00     0.017 A 
ATOM     33  C   UNL     1     -30.369  21.628  57.255  1.00  0.00     0.012 A 
ATOM     34  C   UNL     1     -30.674  20.858  59.534  1.00  0.00     0.012 A 
ATOM     35  C   UNL     1     -30.496  22.951  57.690  1.00  0.00     0.001 A 
ATOM     36  C   UNL     1     -30.800  22.183  59.962  1.00  0.00     0.001 A 
ATOM     37  C   UNL     1     -30.713  23.228  59.041  1.00  0.00     0.000 A 
ENDBRANCH  25  32
ENDBRANCH   1  17
TORSDOF 9
ENDMDL
MODEL 8
REMARK VINA RESULT:    -3.603      1.449      2.403
REMARK INTER + INTRA:          -6.425
REMARK INTER:                  -5.136
REMARK INTRA:                  -1.289
REMARK UNBOUND:                -1.453
REMARK SMILES O=C([O-])[C@H]1O[C@@H](Oc2cc3oc(-c4ccccc4)cc(=O)c3c(O)c2O)[C@H](O)[C@@H](O)[C@H]1O
REMARK SMILES IDX 7 1 6 2 4 3 31 4 5 5 29 6 27 7 2 8 1 9 3 10 32 11 30 13
REMARK SMILES IDX 28 15 8 17 25 18 9 19 23 20 10 21 22 22 11 23 20 24 12 25
REMARK SMILES IDX 19 26 21 27 26 28 24 30 13 32 14 33 18 34 15 35 17 36 16 37
REMARK H PARENT 32 12 30 14 28 16 26 29 24 31
REMARK Flexibility Score: inf
ROOT
ATOM      1  O   UNL     1     -32.617  15.300  56.695  1.00  0.00    -0.458 OA
ENDROOT
BRANCH   1   2
ATOM      2  C   UNL     1     -33.904  15.821  56.349  1.00  0.00     0.339 C 
ATOM      3  C   UNL     1     -35.134  14.456  57.865  1.00  0.00     0.199 C 
ATOM      4  C   UNL     1     -35.774  13.654  56.701  1.00  0.00     0.180 C 
ATOM      5  O   UNL     1     -34.786  15.778  57.465  1.00  0.00    -0.328 OA
ATOM      6  C   UNL     1     -34.885  13.660  55.451  1.00  0.00     0.181 C 
ATOM      7  C   UNL     1     -34.480  15.103  55.109  1.00  0.00     0.214 C 
BRANCH   3   8
ATOM      8  C   UNL     1     -33.997  13.774  58.595  1.00  0.00     0.073 C 
ATOM      9  O   UNL     1     -33.386  14.390  59.508  1.00  0.00    -0.547 OA
ATOM     10  O   UNL     1     -33.661  12.450  58.337  1.00  0.00    -0.547 OA
ENDBRANCH   3   8
BRANCH   4  11
ATOM     11  O   UNL     1     -36.068  12.333  57.078  1.00  0.00    -0.387 OA
ATOM     12  H   UNL     1     -35.918  11.766  56.276  1.00  0.00     0.211 HD
ENDBRANCH   4  11
BRANCH   6  13
ATOM     13  O   UNL     1     -33.747  12.864  55.657  1.00  0.00    -0.387 OA
ATOM     14  H   UNL     1     -33.408  12.609  54.760  1.00  0.00     0.211 HD
ENDBRANCH   6  13
BRANCH   7  15
ATOM     15  O   UNL     1     -35.604  15.798  54.635  1.00  0.00    -0.384 OA
ATOM     16  H   UNL     1     -35.342  16.754  54.557  1.00  0.00     0.211 HD
ENDBRANCH   7  15
ENDBRANCH   1   2
BRANCH   1  17
ATOM     17  C   UNL     1     -31.522  16.126  56.960  1.00  0.00     0.172 A 
ATOM     18  C   UNL     1     -30.206  15.660  56.799  1.00  0.00     0.201 A 
ATOM     19  C   UNL     1     -31.746  17.433  57.385  1.00  0.00     0.098 A 
ATOM     20  C   UNL     1     -29.114  16.487  57.110  1.00  0.00     0.176 A 
ATOM     21  C   UNL     1     -30.678  18.286  57.662  1.00  0.00     0.146 A 
ATOM     22  C   UNL     1     -29.341  17.838  57.510  1.00  0.00     0.111 A 
ATOM     23  O   UNL     1     -30.941  19.524  58.065  1.00  0.00    -0.456 OA
ATOM     24  C   UNL     1     -28.320  18.793  57.731  1.00  0.00     0.197 A 
ATOM     25  C   UNL     1     -30.001  20.423  58.336  1.00  0.00     0.138 A 
ATOM     26  C   UNL     1     -28.654  20.078  58.160  1.00  0.00     0.100 A 
ATOM     27  O   UNL     1     -27.106  18.534  57.520  1.00  0.00    -0.289 OA
BRANCH  18  28
ATOM     28  O   UNL     1     -29.958  14.369  56.327  1.00  0.00    -0.502 OA
ATOM     29  H   UNL     1     -30.528  13.575  56.591  1.00  0.00     0.293 HD
ENDBRANCH  18  28
BRANCH  20  30
ATOM     30  O   UNL     1     -27.844  15.908  57.022  1.00  0.00    -0.504 OA
ATOM     31  H   UNL     1     -27.317  15.553  57.804  1.00  0.00     0.293 HD
ENDBRANCH  20  30
BRANCH  25  32
ATOM     32  C   UNL     1     -30.414  21.775  58.790  1.00  0.00     0.017 A 
ATOM     33  C   UNL     1     -30.275  22.910  57.964  1.00  0.00     0.012 A 
ATOM     34  C   UNL     1     -30.929  21.942  60.090  1.00  0.00     0.012 A 
ATOM     35  C   UNL     1     -30.662  24.173  58.426  1.00  0.00     0.001 A 
ATOM     36  C   UNL     1     -31.314  23.207  60.544  1.00  0.00     0.001 A 
ATOM     37  C   UNL     1     -31.182  24.321  59.713  1.00  0.00     0.000 A 
ENDBRANCH  25  32
ENDBRANCH   1  17
TORSDOF 9
ENDMDL
MODEL 9
REMARK VINA RESULT:    -3.421      2.178      3.827
REMARK INTER + INTRA:          -6.174
REMARK INTER:                  -6.320
REMARK INTRA:                   0.146
REMARK UNBOUND:                -1.453
REMARK SMILES O=C([O-])[C@H]1O[C@@H](Oc2cc3oc(-c4ccccc4)cc(=O)c3c(O)c2O)[C@H](O)[C@@H](O)[C@H]1O
REMARK SMILES IDX 7 1 6 2 4 3 31 4 5 5 29 6 27 7 2 8 1 9 3 10 32 11 30 13
REMARK SMILES IDX 28 15 8 17 25 18 9 19 23 20 10 21 22 22 11 23 20 24 12 25
REMARK SMILES IDX 19 26 21 27 26 28 24 30 13 32 14 33 18 34 15 35 17 36 16 37
REMARK H PARENT 32 12 30 14 28 16 26 29 24 31
REMARK Flexibility Score: inf
ROOT
ATOM      1  O   UNL     1     -33.696  13.572  57.249  1.00  0.00    -0.458 OA
ENDROOT
BRANCH   1   2
ATOM      2  C   UNL     1     -34.227  12.705  58.258  1.00  0.00     0.339 C 
ATOM      3  C   UNL     1     -34.845  10.950  56.770  1.00  0.00     0.199 C 
ATOM      4  C   UNL     1     -36.356  11.215  57.005  1.00  0.00     0.180 C 
ATOM      5  O   UNL     1     -34.060  11.340  57.893  1.00  0.00    -0.328 OA
ATOM      6  C   UNL     1     -36.620  12.670  57.414  1.00  0.00     0.181 C 
ATOM      7  C   UNL     1     -35.695  13.059  58.578  1.00  0.00     0.214 C 
BRANCH   3   8
ATOM      8  C   UNL     1     -34.271  11.482  55.474  1.00  0.00     0.073 C 
ATOM      9  O   UNL     1     -33.040  11.353  55.239  1.00  0.00    -0.547 OA
ATOM     10  O   UNL     1     -35.086  12.040  54.496  1.00  0.00    -0.547 OA
ENDBRANCH   3   8
BRANCH   4  11
ATOM     11  O   UNL     1     -37.125  10.883  55.879  1.00  0.00    -0.387 OA
ATOM     12  H   UNL     1     -37.877  11.531  55.844  1.00  0.00     0.211 HD
ENDBRANCH   4  11
BRANCH   6  13
ATOM     13  O   UNL     1     -36.421  13.528  56.319  1.00  0.00    -0.387 OA
ATOM     14  H   UNL     1     -36.955  14.345  56.494  1.00  0.00     0.211 HD
ENDBRANCH   6  13
BRANCH   7  15
ATOM     15  O   UNL     1     -36.106  12.383  59.739  1.00  0.00    -0.384 OA
ATOM     16  H   UNL     1     -35.293  11.969  60.135  1.00  0.00     0.211 HD
ENDBRANCH   7  15
ENDBRANCH   1   2
BRANCH   1  17
ATOM     17  C   UNL     1     -33.008  14.747  57.558  1.00  0.00     0.172 A 
ATOM     18  C   UNL     1     -33.084  15.316  58.842  1.00  0.00     0.201 A 
ATOM     19  C   UNL     1     -32.232  15.356  56.575  1.00  0.00     0.098 A 
ATOM     20  C   UNL     1     -32.422  16.520  59.127  1.00  0.00     0.176 A 
ATOM     21  C   UNL     1     -31.534  16.533  56.846  1.00  0.00     0.146 A 
ATOM     22  C   UNL     1     -31.596  17.127  58.133  1.00  0.00     0.111 A 
ATOM     23  O   UNL     1     -30.808  17.078  55.878  1.00  0.00    -0.456 OA
ATOM     24  C   UNL     1     -30.791  18.271  58.346  1.00  0.00     0.197 A 
ATOM     25  C   UNL     1     -30.088  18.184  56.034  1.00  0.00     0.138 A 
ATOM     26  C   UNL     1     -30.052  18.806  57.289  1.00  0.00     0.100 A 
ATOM     27  O   UNL     1     -30.686  18.814  59.477  1.00  0.00    -0.289 OA
BRANCH  18  28
ATOM     28  O   UNL     1     -33.816  14.694  59.856  1.00  0.00    -0.502 OA
ATOM     29  H   UNL     1     -33.783  13.694  60.016  1.00  0.00     0.293 HD
ENDBRANCH  18  28
BRANCH  20  30
ATOM     30  O   UNL     1     -32.636  17.069  60.395  1.00  0.00    -0.504 OA
ATOM     31  H   UNL     1     -33.315  17.784  60.607  1.00  0.00     0.293 HD
ENDBRANCH  20  30
BRANCH  25  32
ATOM     32  C   UNL     1     -29.322  18.709  54.874  1.00  0.00     0.017 A 
ATOM     33  C   UNL     1     -28.000  18.295  54.609  1.00  0.00     0.012 A 
ATOM     34  C   UNL     1     -29.913  19.670  54.032  1.00  0.00     0.012 A 
ATOM     35  C   UNL     1     -27.301  18.818  53.516  1.00  0.00     0.001 A 
ATOM     36  C   UNL     1     -29.209  20.187  52.941  1.00  0.00     0.001 A 
ATOM     37  C   UNL     1     -27.905  19.761  52.682  1.00  0.00     0.000 A 
ENDBRANCH  25  32
ENDBRANCH   1  17
TORSDOF 9
ENDMDL
