MODEL 1
REMARK VINA RESULT:    -3.996      0.000      0.000
REMARK INTER + INTRA:          -5.888
REMARK INTER:                  -5.631
REMARK INTRA:                  -0.257
REMARK UNBOUND:                -0.257
REMARK SMILES CCCCCCCCC(=O)[O-]
REMARK SMILES IDX 6 1 7 2 8 3 9 4 10 5 11 6 5 7 4 8 3 9 2 10 1 11
REMARK H PARENT
REMARK Flexibility Score: inf
ROOT
ATOM      1  C   UNL     1      23.728  -5.009  53.288  1.00  0.00     0.000 C 
ENDROOT
BRANCH   1   2
ATOM      2  C   UNL     1      23.934  -4.048  54.469  1.00  0.00     0.006 C 
BRANCH   2   3
ATOM      3  C   UNL     1      23.117  -2.757  54.318  1.00  0.00     0.053 C 
BRANCH   3   4
ATOM      4  C   UNL     1      23.052  -1.986  55.601  1.00  0.00     0.041 C 
ATOM      5  O   UNL     1      23.681  -2.390  56.614  1.00  0.00    -0.550 OA
ATOM      6  O   UNL     1      22.324  -0.806  55.667  1.00  0.00    -0.550 OA
ENDBRANCH   3   4
ENDBRANCH   2   3
ENDBRANCH   1   2
BRANCH   1   7
ATOM      7  C   UNL     1      25.067  -5.607  52.829  1.00  0.00     0.000 C 
BRANCH   7   8
ATOM      8  C   UNL     1      26.143  -5.563  53.925  1.00  0.00    -0.000 C 
BRANCH   8   9
ATOM      9  C   UNL     1      27.334  -6.484  53.623  1.00  0.00    -0.000 C 
BRANCH   9  10
ATOM     10  C   UNL     1      28.175  -5.931  52.466  1.00  0.00    -0.003 C 
ATOM     11  C   UNL     1      29.414  -6.790  52.225  1.00  0.00     0.004 C 
ENDBRANCH   9  10
ENDBRANCH   8   9
ENDBRANCH   7   8
ENDBRANCH   1   7
TORSDOF 7
ENDMDL
MODEL 2
REMARK VINA RESULT:    -3.859      2.060      3.288
REMARK INTER + INTRA:          -5.695
REMARK INTER:                  -5.063
REMARK INTRA:                  -0.632
REMARK UNBOUND:                -0.257
REMARK SMILES CCCCCCCCC(=O)[O-]
REMARK SMILES IDX 6 1 7 2 8 3 9 4 10 5 11 6 5 7 4 8 3 9 2 10 1 11
REMARK H PARENT
REMARK Flexibility Score: inf
ROOT
ATOM      1  C   UNL     1      23.605  -2.218  55.083  1.00  0.00     0.000 C 
ENDROOT
BRANCH   1   2
ATOM      2  C   UNL     1      24.391  -3.171  55.997  1.00  0.00     0.006 C 
BRANCH   2   3
ATOM      3  C   UNL     1      23.949  -3.067  57.463  1.00  0.00     0.053 C 
BRANCH   3   4
ATOM      4  C   UNL     1      22.470  -3.253  57.612  1.00  0.00     0.041 C 
ATOM      5  O   UNL     1      21.955  -4.391  57.451  1.00  0.00    -0.550 OA
ATOM      6  O   UNL     1      21.665  -2.177  57.961  1.00  0.00    -0.550 OA
ENDBRANCH   3   4
ENDBRANCH   2   3
ENDBRANCH   1   2
BRANCH   1   7
ATOM      7  C   UNL     1      23.079  -2.956  53.843  1.00  0.00     0.000 C 
BRANCH   7   8
ATOM      8  C   UNL     1      23.109  -4.485  54.006  1.00  0.00    -0.000 C 
BRANCH   8   9
ATOM      9  C   UNL     1      23.168  -5.222  52.659  1.00  0.00    -0.000 C 
BRANCH   9  10
ATOM     10  C   UNL     1      24.620  -5.412  52.202  1.00  0.00    -0.003 C 
ATOM     11  C   UNL     1      25.517  -5.817  53.368  1.00  0.00     0.004 C 
ENDBRANCH   9  10
ENDBRANCH   8   9
ENDBRANCH   7   8
ENDBRANCH   1   7
TORSDOF 7
ENDMDL
MODEL 3
REMARK VINA RESULT:    -3.851     15.831     16.494
REMARK INTER + INTRA:          -5.684
REMARK INTER:                  -5.418
REMARK INTRA:                  -0.266
REMARK UNBOUND:                -0.257
REMARK SMILES CCCCCCCCC(=O)[O-]
REMARK SMILES IDX 6 1 7 2 8 3 9 4 10 5 11 6 5 7 4 8 3 9 2 10 1 11
REMARK H PARENT
REMARK Flexibility Score: inf
ROOT
ATOM      1  C   UNL     1      25.408   4.495  40.746  1.00  0.00     0.000 C 
ENDROOT
BRANCH   1   2
ATOM      2  C   UNL     1      26.709   4.137  41.481  1.00  0.00     0.006 C 
BRANCH   2   3
ATOM      3  C   UNL     1      27.815   5.175  41.246  1.00  0.00     0.053 C 
BRANCH   3   4
ATOM      4  C   UNL     1      28.965   4.598  40.479  1.00  0.00     0.041 C 
ATOM      5  O   UNL     1      30.137   4.693  40.930  1.00  0.00    -0.550 OA
ATOM      6  O   UNL     1      28.739   3.928  39.284  1.00  0.00    -0.550 OA
ENDBRANCH   3   4
ENDBRANCH   2   3
ENDBRANCH   1   2
BRANCH   1   7
ATOM      7  C   UNL     1      25.066   3.434  39.690  1.00  0.00     0.000 C 
BRANCH   7   8
ATOM      8  C   UNL     1      23.690   2.789  39.921  1.00  0.00    -0.000 C 
BRANCH   8   9
ATOM      9  C   UNL     1      23.488   1.510  39.094  1.00  0.00    -0.000 C 
BRANCH   9  10
ATOM     10  C   UNL     1      23.571   0.264  39.983  1.00  0.00    -0.003 C 
ATOM     11  C   UNL     1      23.928  -0.974  39.164  1.00  0.00     0.004 C 
ENDBRANCH   9  10
ENDBRANCH   8   9
ENDBRANCH   7   8
ENDBRANCH   1   7
TORSDOF 7
ENDMDL
MODEL 4
REMARK VINA RESULT:    -3.821     15.562     16.115
REMARK INTER + INTRA:          -5.642
REMARK INTER:                  -5.144
REMARK INTRA:                  -0.498
REMARK UNBOUND:                -0.257
REMARK SMILES CCCCCCCCC(=O)[O-]
REMARK SMILES IDX 6 1 7 2 8 3 9 4 10 5 11 6 5 7 4 8 3 9 2 10 1 11
REMARK H PARENT
REMARK Flexibility Score: inf
ROOT
ATOM      1  C   UNL     1      24.979   4.253  40.465  1.00  0.00     0.000 C 
ENDROOT
BRANCH   1   2
ATOM      2  C   UNL     1      25.127   3.132  39.425  1.00  0.00     0.006 C 
BRANCH   2   3
ATOM      3  C   UNL     1      23.785   2.465  39.094  1.00  0.00     0.053 C 
BRANCH   3   4
ATOM      4  C   UNL     1      23.538   1.258  39.948  1.00  0.00     0.041 C 
ATOM      5  O   UNL     1      23.183   1.394  41.148  1.00  0.00    -0.550 OA
ATOM      6  O   UNL     1      23.668  -0.015  39.409  1.00  0.00    -0.550 OA
ENDBRANCH   3   4
ENDBRANCH   2   3
ENDBRANCH   1   2
BRANCH   1   7
ATOM      7  C   UNL     1      25.905   4.013  41.667  1.00  0.00     0.000 C 
BRANCH   7   8
ATOM      8  C   UNL     1      27.141   4.927  41.656  1.00  0.00    -0.000 C 
BRANCH   8   9
ATOM      9  C   UNL     1      28.454   4.147  41.494  1.00  0.00    -0.000 C 
BRANCH   9  10
ATOM     10  C   UNL     1      29.253   4.662  40.292  1.00  0.00    -0.003 C 
ATOM     11  C   UNL     1      28.939   3.856  39.034  1.00  0.00     0.004 C 
ENDBRANCH   9  10
ENDBRANCH   8   9
ENDBRANCH   7   8
ENDBRANCH   1   7
TORSDOF 7
ENDMDL
MODEL 5
REMARK VINA RESULT:    -3.774      1.252      2.026
REMARK INTER + INTRA:          -5.576
REMARK INTER:                  -5.104
REMARK INTRA:                  -0.472
REMARK UNBOUND:                -0.257
REMARK SMILES CCCCCCCCC(=O)[O-]
REMARK SMILES IDX 6 1 7 2 8 3 9 4 10 5 11 6 5 7 4 8 3 9 2 10 1 11
REMARK H PARENT
REMARK Flexibility Score: inf
ROOT
ATOM      1  C   UNL     1      22.428  -3.951  54.167  1.00  0.00     0.000 C 
ENDROOT
BRANCH   1   2
ATOM      2  C   UNL     1      23.448  -2.873  54.563  1.00  0.00     0.006 C 
BRANCH   2   3
ATOM      3  C   UNL     1      24.056  -3.128  55.949  1.00  0.00     0.053 C 
BRANCH   3   4
ATOM      4  C   UNL     1      23.037  -2.981  57.038  1.00  0.00     0.041 C 
ATOM      5  O   UNL     1      22.943  -3.857  57.939  1.00  0.00    -0.550 OA
ATOM      6  O   UNL     1      22.216  -1.862  57.077  1.00  0.00    -0.550 OA
ENDBRANCH   3   4
ENDBRANCH   2   3
ENDBRANCH   1   2
BRANCH   1   7
ATOM      7  C   UNL     1      22.882  -4.701  52.906  1.00  0.00     0.000 C 
BRANCH   7   8
ATOM      8  C   UNL     1      23.889  -5.822  53.212  1.00  0.00    -0.000 C 
BRANCH   8   9
ATOM      9  C   UNL     1      25.281  -5.544  52.625  1.00  0.00    -0.000 C 
BRANCH   9  10
ATOM     10  C   UNL     1      26.381  -5.923  53.623  1.00  0.00    -0.003 C 
ATOM     11  C   UNL     1      27.691  -6.241  52.905  1.00  0.00     0.004 C 
ENDBRANCH   9  10
ENDBRANCH   8   9
ENDBRANCH   7   8
ENDBRANCH   1   7
TORSDOF 7
ENDMDL
MODEL 6
REMARK VINA RESULT:    -3.709     13.939     14.633
REMARK INTER + INTRA:          -5.484
REMARK INTER:                  -4.849
REMARK INTRA:                  -0.635
REMARK UNBOUND:                -0.257
REMARK SMILES CCCCCCCCC(=O)[O-]
REMARK SMILES IDX 6 1 7 2 8 3 9 4 10 5 11 6 5 7 4 8 3 9 2 10 1 11
REMARK H PARENT
REMARK Flexibility Score: inf
ROOT
ATOM      1  C   UNL     1      31.491   5.081  46.265  1.00  0.00     0.000 C 
ENDROOT
BRANCH   1   2
ATOM      2  C   UNL     1      30.818   5.927  47.357  1.00  0.00     0.006 C 
BRANCH   2   3
ATOM      3  C   UNL     1      31.477   5.736  48.730  1.00  0.00     0.053 C 
BRANCH   3   4
ATOM      4  C   UNL     1      30.999   4.488  49.407  1.00  0.00     0.041 C 
ATOM      5  O   UNL     1      31.828   3.646  49.842  1.00  0.00    -0.550 OA
ATOM      6  O   UNL     1      29.639   4.270  49.587  1.00  0.00    -0.550 OA
ENDBRANCH   3   4
ENDBRANCH   2   3
ENDBRANCH   1   2
BRANCH   1   7
ATOM      7  C   UNL     1      31.058   5.544  44.867  1.00  0.00     0.000 C 
BRANCH   7   8
ATOM      8  C   UNL     1      32.229   6.086  44.031  1.00  0.00    -0.000 C 
BRANCH   8   9
ATOM      9  C   UNL     1      32.467   7.588  44.249  1.00  0.00    -0.000 C 
BRANCH   9  10
ATOM     10  C   UNL     1      33.729   7.827  45.087  1.00  0.00    -0.003 C 
ATOM     11  C   UNL     1      33.392   8.513  46.408  1.00  0.00     0.004 C 
ENDBRANCH   9  10
ENDBRANCH   8   9
ENDBRANCH   7   8
ENDBRANCH   1   7
TORSDOF 7
ENDMDL
MODEL 7
REMARK VINA RESULT:    -3.707      3.421      6.016
REMARK INTER + INTRA:          -5.481
REMARK INTER:                  -4.878
REMARK INTRA:                  -0.604
REMARK UNBOUND:                -0.257
REMARK SMILES CCCCCCCCC(=O)[O-]
REMARK SMILES IDX 6 1 7 2 8 3 9 4 10 5 11 6 5 7 4 8 3 9 2 10 1 11
REMARK H PARENT
REMARK Flexibility Score: inf
ROOT
ATOM      1  C   UNL     1      23.605  -2.124  55.202  1.00  0.00     0.000 C 
ENDROOT
BRANCH   1   2
ATOM      2  C   UNL     1      23.145  -2.871  53.941  1.00  0.00     0.006 C 
BRANCH   2   3
ATOM      3  C   UNL     1      23.300  -4.392  54.078  1.00  0.00     0.053 C 
BRANCH   3   4
ATOM      4  C   UNL     1      24.120  -4.970  52.965  1.00  0.00     0.041 C 
ATOM      5  O   UNL     1      24.890  -5.942  53.186  1.00  0.00    -0.550 OA
ATOM      6  O   UNL     1      24.010  -4.458  51.680  1.00  0.00    -0.550 OA
ENDBRANCH   3   4
ENDBRANCH   2   3
ENDBRANCH   1   2
BRANCH   1   7
ATOM      7  C   UNL     1      24.223  -3.094  56.220  1.00  0.00     0.000 C 
BRANCH   7   8
ATOM      8  C   UNL     1      23.501  -3.070  57.577  1.00  0.00    -0.000 C 
BRANCH   8   9
ATOM      9  C   UNL     1      22.226  -3.926  57.586  1.00  0.00    -0.000 C 
BRANCH   9  10
ATOM     10  C   UNL     1      20.974  -3.043  57.628  1.00  0.00    -0.003 C 
ATOM     11  C   UNL     1      21.323  -1.609  58.018  1.00  0.00     0.004 C 
ENDBRANCH   9  10
ENDBRANCH   8   9
ENDBRANCH   7   8
ENDBRANCH   1   7
TORSDOF 7
ENDMDL
MODEL 8
REMARK VINA RESULT:    -3.669      3.479      5.550
REMARK INTER + INTRA:          -5.428
REMARK INTER:                  -4.675
REMARK INTRA:                  -0.752
REMARK UNBOUND:                -0.257
REMARK SMILES CCCCCCCCC(=O)[O-]
REMARK SMILES IDX 6 1 7 2 8 3 9 4 10 5 11 6 5 7 4 8 3 9 2 10 1 11
REMARK H PARENT
REMARK Flexibility Score: inf
ROOT
ATOM      1  C   UNL     1      23.273  -2.854  53.775  1.00  0.00     0.000 C 
ENDROOT
BRANCH   1   2
ATOM      2  C   UNL     1      22.212  -3.962  53.688  1.00  0.00     0.006 C 
BRANCH   2   3
ATOM      3  C   UNL     1      22.827  -5.365  53.785  1.00  0.00     0.053 C 
BRANCH   3   4
ATOM      4  C   UNL     1      24.006  -5.520  52.873  1.00  0.00     0.041 C 
ATOM      5  O   UNL     1      25.155  -5.711  53.352  1.00  0.00    -0.550 OA
ATOM      6  O   UNL     1      23.831  -5.485  51.496  1.00  0.00    -0.550 OA
ENDBRANCH   3   4
ENDBRANCH   2   3
ENDBRANCH   1   2
BRANCH   1   7
ATOM      7  C   UNL     1      23.274  -2.203  55.166  1.00  0.00     0.000 C 
BRANCH   7   8
ATOM      8  C   UNL     1      24.290  -2.848  56.122  1.00  0.00    -0.000 C 
BRANCH   8   9
ATOM      9  C   UNL     1      23.663  -3.259  57.463  1.00  0.00    -0.000 C 
BRANCH   9  10
ATOM     10  C   UNL     1      22.134  -3.164  57.405  1.00  0.00    -0.003 C 
ATOM     11  C   UNL     1      21.498  -4.549  57.325  1.00  0.00     0.004 C 
ENDBRANCH   9  10
ENDBRANCH   8   9
ENDBRANCH   7   8
ENDBRANCH   1   7
TORSDOF 7
ENDMDL
MODEL 9
REMARK VINA RESULT:    -3.668     13.585     14.378
REMARK INTER + INTRA:          -5.427
REMARK INTER:                  -4.909
REMARK INTRA:                  -0.518
REMARK UNBOUND:                -0.257
REMARK SMILES CCCCCCCCC(=O)[O-]
REMARK SMILES IDX 6 1 7 2 8 3 9 4 10 5 11 6 5 7 4 8 3 9 2 10 1 11
REMARK H PARENT
REMARK Flexibility Score: inf
ROOT
ATOM      1  C   UNL     1      30.294   6.463  45.758  1.00  0.00     0.000 C 
ENDROOT
BRANCH   1   2
ATOM      2  C   UNL     1      31.150   5.228  45.439  1.00  0.00     0.006 C 
BRANCH   2   3
ATOM      3  C   UNL     1      30.436   4.253  44.493  1.00  0.00     0.053 C 
BRANCH   3   4
ATOM      4  C   UNL     1      30.411   4.762  43.084  1.00  0.00     0.041 C 
ATOM      5  O   UNL     1      31.489   4.954  42.461  1.00  0.00    -0.550 OA
ATOM      6  O   UNL     1      29.198   4.994  42.449  1.00  0.00    -0.550 OA
ENDBRANCH   3   4
ENDBRANCH   2   3
ENDBRANCH   1   2
BRANCH   1   7
ATOM      7  C   UNL     1      30.130   6.640  47.274  1.00  0.00     0.000 C 
BRANCH   7   8
ATOM      8  C   UNL     1      29.137   5.637  47.885  1.00  0.00    -0.000 C 
BRANCH   8   9
ATOM      9  C   UNL     1      29.644   5.029  49.201  1.00  0.00    -0.000 C 
BRANCH   9  10
ATOM     10  C   UNL     1      31.177   5.029  49.250  1.00  0.00    -0.003 C 
ATOM     11  C   UNL     1      31.705   3.788  49.965  1.00  0.00     0.004 C 
ENDBRANCH   9  10
ENDBRANCH   8   9
ENDBRANCH   7   8
ENDBRANCH   1   7
TORSDOF 7
ENDMDL
