MODEL 1
REMARK VINA RESULT:    -1.944      0.000      0.000
REMARK INTER + INTRA:          -1.944
REMARK INTER:                  -1.944
REMARK INTRA:                   0.000
REMARK UNBOUND:                 0.000
REMARK SMILES CC(=O)[O-]
REMARK SMILES IDX 1 1 2 2 3 3 4 4
REMARK H PARENT
REMARK Flexibility Score: inf
ROOT
ATOM      1  C   UNL     1       1.022  -1.751  10.782  1.00  0.00     0.063 C 
ATOM      2  C   UNL     1       1.439  -1.872  12.208  1.00  0.00     0.038 C 
ATOM      3  O   UNL     1       1.720  -0.841  12.874  1.00  0.00    -0.550 OA
ATOM      4  O   UNL     1       1.466  -3.117  12.821  1.00  0.00    -0.550 OA
ENDROOT
TORSDOF 0
ENDMDL
MODEL 2
REMARK VINA RESULT:    -1.933      0.082      1.621
REMARK INTER + INTRA:          -1.933
REMARK INTER:                  -1.933
REMARK INTRA:                   0.000
REMARK UNBOUND:                 0.000
REMARK SMILES CC(=O)[O-]
REMARK SMILES IDX 1 1 2 2 3 3 4 4
REMARK H PARENT
REMARK Flexibility Score: inf
ROOT
ATOM      1  C   UNL     1       1.021  -1.814  10.796  1.00  0.00     0.063 C 
ATOM      2  C   UNL     1       1.418  -1.908  12.230  1.00  0.00     0.038 C 
ATOM      3  O   UNL     1       1.479  -3.031  12.796  1.00  0.00    -0.550 OA
ATOM      4  O   UNL     1       1.775  -0.763  12.929  1.00  0.00    -0.550 OA
ENDROOT
TORSDOF 0
ENDMDL
MODEL 3
REMARK VINA RESULT:    -1.915      1.943      2.603
REMARK INTER + INTRA:          -1.915
REMARK INTER:                  -1.915
REMARK INTRA:                   0.000
REMARK UNBOUND:                 0.000
REMARK SMILES CC(=O)[O-]
REMARK SMILES IDX 1 1 2 2 3 3 4 4
REMARK H PARENT
REMARK Flexibility Score: inf
ROOT
ATOM      1  C   UNL     1       1.278  -3.064  11.544  1.00  0.00     0.063 C 
ATOM      2  C   UNL     1       2.570  -3.503  12.145  1.00  0.00     0.038 C 
ATOM      3  O   UNL     1       3.027  -4.649  11.891  1.00  0.00    -0.550 OA
ATOM      4  O   UNL     1       3.299  -2.631  12.941  1.00  0.00    -0.550 OA
ENDROOT
TORSDOF 0
ENDMDL
MODEL 4
REMARK VINA RESULT:    -1.911      5.875      6.379
REMARK INTER + INTRA:          -1.911
REMARK INTER:                  -1.911
REMARK INTRA:                   0.000
REMARK UNBOUND:                 0.000
REMARK SMILES CC(=O)[O-]
REMARK SMILES IDX 1 1 2 2 3 3 4 4
REMARK H PARENT
REMARK Flexibility Score: inf
ROOT
ATOM      1  C   UNL     1       5.349  -1.587  17.720  1.00  0.00     0.063 C 
ATOM      2  C   UNL     1       5.786  -1.876  16.324  1.00  0.00     0.038 C 
ATOM      3  O   UNL     1       6.913  -2.394  16.110  1.00  0.00    -0.550 OA
ATOM      4  O   UNL     1       4.929  -1.625  15.261  1.00  0.00    -0.550 OA
ENDROOT
TORSDOF 0
ENDMDL
MODEL 5
REMARK VINA RESULT:    -1.891     15.155     15.630
REMARK INTER + INTRA:          -1.891
REMARK INTER:                  -1.891
REMARK INTRA:                   0.000
REMARK UNBOUND:                 0.000
REMARK SMILES CC(=O)[O-]
REMARK SMILES IDX 1 1 2 2 3 3 4 4
REMARK H PARENT
REMARK Flexibility Score: inf
ROOT
ATOM      1  C   UNL     1       6.067  -2.878  27.957  1.00  0.00     0.063 C 
ATOM      2  C   UNL     1       6.357  -3.677  26.732  1.00  0.00     0.038 C 
ATOM      3  O   UNL     1       7.294  -4.517  26.733  1.00  0.00    -0.550 OA
ATOM      4  O   UNL     1       5.558  -3.537  25.605  1.00  0.00    -0.550 OA
ENDROOT
TORSDOF 0
ENDMDL
MODEL 6
REMARK VINA RESULT:    -1.887     15.089     15.533
REMARK INTER + INTRA:          -1.887
REMARK INTER:                  -1.887
REMARK INTRA:                   0.000
REMARK UNBOUND:                 0.000
REMARK SMILES CC(=O)[O-]
REMARK SMILES IDX 1 1 2 2 3 3 4 4
REMARK H PARENT
REMARK Flexibility Score: inf
ROOT
ATOM      1  C   UNL     1       5.904  -2.746  27.848  1.00  0.00     0.063 C 
ATOM      2  C   UNL     1       6.232  -3.606  26.675  1.00  0.00     0.038 C 
ATOM      3  O   UNL     1       5.575  -3.495  25.607  1.00  0.00    -0.550 OA
ATOM      4  O   UNL     1       7.299  -4.492  26.740  1.00  0.00    -0.550 OA
ENDROOT
TORSDOF 0
ENDMDL
MODEL 7
REMARK VINA RESULT:    -1.873      1.946      2.236
REMARK INTER + INTRA:          -1.873
REMARK INTER:                  -1.873
REMARK INTRA:                   0.000
REMARK UNBOUND:                 0.000
REMARK SMILES CC(=O)[O-]
REMARK SMILES IDX 1 1 2 2 3 3 4 4
REMARK H PARENT
REMARK Flexibility Score: inf
ROOT
ATOM      1  C   UNL     1       1.545  -1.477  12.148  1.00  0.00     0.063 C 
ATOM      2  C   UNL     1       2.936  -2.012  12.127  1.00  0.00     0.038 C 
ATOM      3  O   UNL     1       3.418  -2.478  11.062  1.00  0.00    -0.550 OA
ATOM      4  O   UNL     1       3.723  -1.946  13.269  1.00  0.00    -0.550 OA
ENDROOT
TORSDOF 0
ENDMDL
MODEL 8
REMARK VINA RESULT:    -1.830      1.903      2.222
REMARK INTER + INTRA:          -1.830
REMARK INTER:                  -1.830
REMARK INTRA:                   0.000
REMARK UNBOUND:                 0.000
REMARK SMILES CC(=O)[O-]
REMARK SMILES IDX 1 1 2 2 3 3 4 4
REMARK H PARENT
REMARK Flexibility Score: inf
ROOT
ATOM      1  C   UNL     1       3.252  -1.977  11.795  1.00  0.00     0.063 C 
ATOM      2  C   UNL     1       2.537  -3.222  12.197  1.00  0.00     0.038 C 
ATOM      3  O   UNL     1       1.454  -3.150  12.835  1.00  0.00    -0.550 OA
ATOM      4  O   UNL     1       3.035  -4.462  11.821  1.00  0.00    -0.550 OA
ENDROOT
TORSDOF 0
ENDMDL
MODEL 9
REMARK VINA RESULT:    -1.734      2.365      2.667
REMARK INTER + INTRA:          -1.734
REMARK INTER:                  -1.734
REMARK INTRA:                   0.000
REMARK UNBOUND:                 0.000
REMARK SMILES CC(=O)[O-]
REMARK SMILES IDX 1 1 2 2 3 3 4 4
REMARK H PARENT
REMARK Flexibility Score: inf
ROOT
ATOM      1  C   UNL     1       2.212  -0.710  11.922  1.00  0.00     0.063 C 
ATOM      2  C   UNL     1       3.484  -1.429  12.216  1.00  0.00     0.038 C 
ATOM      3  O   UNL     1       3.573  -2.168  13.231  1.00  0.00    -0.550 OA
ATOM      4  O   UNL     1       4.558  -1.328  11.341  1.00  0.00    -0.550 OA
ENDROOT
TORSDOF 0
ENDMDL
