MODEL 1
REMARK VINA RESULT:    -3.144      0.000      0.000
REMARK INTER + INTRA:          -3.728
REMARK INTER:                  -3.696
REMARK INTRA:                  -0.032
REMARK UNBOUND:                -0.032
REMARK SMILES O=C([O-])CCC(=O)[O-]
REMARK SMILES IDX 4 1 2 2 1 3 3 4 5 5 6 6 7 7 8 8
REMARK H PARENT
REMARK Flexibility Score: inf
ROOT
ATOM      1  C   UNL     1     107.269  50.551 231.405  1.00  0.00     0.059 C 
ENDROOT
BRANCH   1   2
ATOM      2  C   UNL     1     106.433  50.474 230.164  1.00  0.00     0.042 C 
ATOM      3  O   UNL     1     105.899  49.384 229.827  1.00  0.00    -0.550 OA
ATOM      4  O   UNL     1     106.210  51.614 229.402  1.00  0.00    -0.550 OA
ENDBRANCH   1   2
BRANCH   1   5
ATOM      5  C   UNL     1     107.755  49.167 231.846  1.00  0.00     0.059 C 
BRANCH   5   6
ATOM      6  C   UNL     1     108.667  49.253 233.030  1.00  0.00     0.042 C 
ATOM      7  O   UNL     1     109.859  49.633 232.887  1.00  0.00    -0.550 OA
ATOM      8  O   UNL     1     108.213  48.875 234.288  1.00  0.00    -0.550 OA
ENDBRANCH   5   6
ENDBRANCH   1   5
TORSDOF 3
ENDMDL
MODEL 2
REMARK VINA RESULT:    -3.083      0.640      4.268
REMARK INTER + INTRA:          -3.656
REMARK INTER:                  -3.627
REMARK INTRA:                  -0.029
REMARK UNBOUND:                -0.032
REMARK SMILES O=C([O-])CCC(=O)[O-]
REMARK SMILES IDX 4 1 2 2 1 3 3 4 5 5 6 6 7 7 8 8
REMARK H PARENT
REMARK Flexibility Score: inf
ROOT
ATOM      1  C   UNL     1     107.812  50.233 232.282  1.00  0.00     0.059 C 
ENDROOT
BRANCH   1   2
ATOM      2  C   UNL     1     108.612  49.411 233.248  1.00  0.00     0.042 C 
ATOM      3  O   UNL     1     109.844  49.234 233.059  1.00  0.00    -0.550 OA
ATOM      4  O   UNL     1     108.004  48.875 234.377  1.00  0.00    -0.550 OA
ENDBRANCH   1   2
BRANCH   1   5
ATOM      5  C   UNL     1     107.485  49.447 231.008  1.00  0.00     0.059 C 
BRANCH   5   6
ATOM      6  C   UNL     1     106.465  50.155 230.170  1.00  0.00     0.042 C 
ATOM      7  O   UNL     1     106.486  51.410 230.071  1.00  0.00    -0.550 OA
ATOM      8  O   UNL     1     105.467  49.431 229.530  1.00  0.00    -0.550 OA
ENDBRANCH   5   6
ENDBRANCH   1   5
TORSDOF 3
ENDMDL
MODEL 3
REMARK VINA RESULT:    -3.079     16.227     16.837
REMARK INTER + INTRA:          -3.652
REMARK INTER:                  -3.572
REMARK INTRA:                  -0.080
REMARK UNBOUND:                -0.032
REMARK SMILES O=C([O-])CCC(=O)[O-]
REMARK SMILES IDX 4 1 2 2 1 3 3 4 5 5 6 6 7 7 8 8
REMARK H PARENT
REMARK Flexibility Score: inf
ROOT
ATOM      1  C   UNL     1     101.116  58.600 219.603  1.00  0.00     0.059 C 
ENDROOT
BRANCH   1   2
ATOM      2  C   UNL     1     101.873  59.886 219.741  1.00  0.00     0.042 C 
ATOM      3  O   UNL     1     103.131  59.878 219.791  1.00  0.00    -0.550 OA
ATOM      4  O   UNL     1     101.191  61.096 219.774  1.00  0.00    -0.550 OA
ENDBRANCH   1   2
BRANCH   1   5
ATOM      5  C   UNL     1      99.650  58.845 219.233  1.00  0.00     0.059 C 
BRANCH   5   6
ATOM      6  C   UNL     1      98.719  58.166 220.191  1.00  0.00     0.042 C 
ATOM      7  O   UNL     1      98.014  57.194 219.810  1.00  0.00    -0.550 OA
ATOM      8  O   UNL     1      98.599  58.633 221.493  1.00  0.00    -0.550 OA
ENDBRANCH   5   6
ENDBRANCH   1   5
TORSDOF 3
ENDMDL
MODEL 4
REMARK VINA RESULT:    -3.046     16.269     16.777
REMARK INTER + INTRA:          -3.612
REMARK INTER:                  -3.516
REMARK INTRA:                  -0.096
REMARK UNBOUND:                -0.032
REMARK SMILES O=C([O-])CCC(=O)[O-]
REMARK SMILES IDX 4 1 2 2 1 3 3 4 5 5 6 6 7 7 8 8
REMARK H PARENT
REMARK Flexibility Score: inf
ROOT
ATOM      1  C   UNL     1      99.531  58.911 219.282  1.00  0.00     0.059 C 
ENDROOT
BRANCH   1   2
ATOM      2  C   UNL     1      98.699  58.215 220.316  1.00  0.00     0.042 C 
ATOM      3  O   UNL     1      98.724  58.601 221.514  1.00  0.00    -0.550 OA
ATOM      4  O   UNL     1      97.864  57.167 219.948  1.00  0.00    -0.550 OA
ENDBRANCH   1   2
BRANCH   1   5
ATOM      5  C   UNL     1     101.026  58.657 219.496  1.00  0.00     0.059 C 
BRANCH   5   6
ATOM      6  C   UNL     1     101.779  59.936 219.702  1.00  0.00     0.042 C 
ATOM      7  O   UNL     1     101.162  61.031 219.772  1.00  0.00    -0.550 OA
ATOM      8  O   UNL     1     103.166  59.922 219.775  1.00  0.00    -0.550 OA
ENDBRANCH   5   6
ENDBRANCH   1   5
TORSDOF 3
ENDMDL
MODEL 5
REMARK VINA RESULT:    -2.913     20.673     22.113
REMARK INTER + INTRA:          -3.456
REMARK INTER:                  -3.296
REMARK INTRA:                  -0.160
REMARK UNBOUND:                -0.032
REMARK SMILES O=C([O-])CCC(=O)[O-]
REMARK SMILES IDX 4 1 2 2 1 3 3 4 5 5 6 6 7 7 8 8
REMARK H PARENT
REMARK Flexibility Score: inf
ROOT
ATOM      1  C   UNL     1     112.270  65.226 218.648  1.00  0.00     0.059 C 
ENDROOT
BRANCH   1   2
ATOM      2  C   UNL     1     112.341  66.168 219.811  1.00  0.00     0.042 C 
ATOM      3  O   UNL     1     111.396  66.970 220.034  1.00  0.00    -0.550 OA
ATOM      4  O   UNL     1     113.431  66.133 220.672  1.00  0.00    -0.550 OA
ENDBRANCH   1   2
BRANCH   1   5
ATOM      5  C   UNL     1     112.203  65.978 217.315  1.00  0.00     0.059 C 
BRANCH   5   6
ATOM      6  C   UNL     1     113.436  66.794 217.078  1.00  0.00     0.042 C 
ATOM      7  O   UNL     1     113.382  68.052 217.114  1.00  0.00    -0.550 OA
ATOM      8  O   UNL     1     114.639  66.166 216.778  1.00  0.00    -0.550 OA
ENDBRANCH   5   6
ENDBRANCH   1   5
TORSDOF 3
ENDMDL
MODEL 6
REMARK VINA RESULT:    -2.913     20.582     21.940
REMARK INTER + INTRA:          -3.456
REMARK INTER:                  -3.293
REMARK INTRA:                  -0.162
REMARK UNBOUND:                -0.032
REMARK SMILES O=C([O-])CCC(=O)[O-]
REMARK SMILES IDX 4 1 2 2 1 3 3 4 5 5 6 6 7 7 8 8
REMARK H PARENT
REMARK Flexibility Score: inf
ROOT
ATOM      1  C   UNL     1     112.185  65.859 217.121  1.00  0.00     0.059 C 
ENDROOT
BRANCH   1   2
ATOM      2  C   UNL     1     113.429  66.661 216.887  1.00  0.00     0.042 C 
ATOM      3  O   UNL     1     114.475  66.100 216.466  1.00  0.00    -0.550 OA
ATOM      4  O   UNL     1     113.422  68.035 217.094  1.00  0.00    -0.550 OA
ENDBRANCH   1   2
BRANCH   1   5
ATOM      5  C   UNL     1     112.272  65.049 218.418  1.00  0.00     0.059 C 
BRANCH   5   6
ATOM      6  C   UNL     1     112.370  65.939 219.619  1.00  0.00     0.042 C 
ATOM      7  O   UNL     1     113.321  65.804 220.433  1.00  0.00    -0.550 OA
ATOM      8  O   UNL     1     111.388  66.891 219.861  1.00  0.00    -0.550 OA
ENDBRANCH   5   6
ENDBRANCH   1   5
TORSDOF 3
ENDMDL
MODEL 7
REMARK VINA RESULT:    -2.789     18.085     18.943
REMARK INTER + INTRA:          -3.311
REMARK INTER:                  -3.247
REMARK INTRA:                  -0.063
REMARK UNBOUND:                -0.032
REMARK SMILES O=C([O-])CCC(=O)[O-]
REMARK SMILES IDX 4 1 2 2 1 3 3 4 5 5 6 6 7 7 8 8
REMARK H PARENT
REMARK Flexibility Score: inf
ROOT
ATOM      1  C   UNL     1      98.576  64.651 225.458  1.00  0.00     0.059 C 
ENDROOT
BRANCH   1   2
ATOM      2  C   UNL     1      97.184  64.973 225.007  1.00  0.00     0.042 C 
ATOM      3  O   UNL     1      96.962  65.278 223.806  1.00  0.00    -0.550 OA
ATOM      4  O   UNL     1      96.125  64.896 225.904  1.00  0.00    -0.550 OA
ENDBRANCH   1   2
BRANCH   1   5
ATOM      5  C   UNL     1      99.504  65.863 225.336  1.00  0.00     0.059 C 
BRANCH   5   6
ATOM      6  C   UNL     1     100.855  65.474 224.820  1.00  0.00     0.042 C 
ATOM      7  O   UNL     1     101.000  64.415 224.155  1.00  0.00    -0.550 OA
ATOM      8  O   UNL     1     101.963  66.262 225.107  1.00  0.00    -0.550 OA
ENDBRANCH   5   6
ENDBRANCH   1   5
TORSDOF 3
ENDMDL
MODEL 8
REMARK VINA RESULT:    -2.771     18.439     19.520
REMARK INTER + INTRA:          -3.289
REMARK INTER:                  -3.168
REMARK INTRA:                  -0.121
REMARK UNBOUND:                -0.032
REMARK SMILES O=C([O-])CCC(=O)[O-]
REMARK SMILES IDX 4 1 2 2 1 3 3 4 5 5 6 6 7 7 8 8
REMARK H PARENT
REMARK Flexibility Score: inf
ROOT
ATOM      1  C   UNL     1      97.523  65.298 227.450  1.00  0.00     0.059 C 
ENDROOT
BRANCH   1   2
ATOM      2  C   UNL     1      96.074  65.581 227.709  1.00  0.00     0.042 C 
ATOM      3  O   UNL     1      95.741  66.474 228.531  1.00  0.00    -0.550 OA
ATOM      4  O   UNL     1      95.093  64.887 227.011  1.00  0.00    -0.550 OA
ENDBRANCH   1   2
BRANCH   1   5
ATOM      5  C   UNL     1      97.705  64.211 226.385  1.00  0.00     0.059 C 
BRANCH   5   6
ATOM      6  C   UNL     1      98.086  64.795 225.060  1.00  0.00     0.042 C 
ATOM      7  O   UNL     1      97.196  65.121 224.230  1.00  0.00    -0.550 OA
ATOM      8  O   UNL     1      99.425  64.943 224.724  1.00  0.00    -0.550 OA
ENDBRANCH   5   6
ENDBRANCH   1   5
TORSDOF 3
ENDMDL
MODEL 9
REMARK VINA RESULT:    -2.747     18.499     19.457
REMARK INTER + INTRA:          -3.261
REMARK INTER:                  -3.145
REMARK INTRA:                  -0.116
REMARK UNBOUND:                -0.032
REMARK SMILES O=C([O-])CCC(=O)[O-]
REMARK SMILES IDX 4 1 2 2 1 3 3 4 5 5 6 6 7 7 8 8
REMARK H PARENT
REMARK Flexibility Score: inf
ROOT
ATOM      1  C   UNL     1      97.649  64.174 226.267  1.00  0.00     0.059 C 
ENDROOT
BRANCH   1   2
ATOM      2  C   UNL     1      98.075  64.844 224.996  1.00  0.00     0.042 C 
ATOM      3  O   UNL     1      99.299  64.982 224.733  1.00  0.00    -0.550 OA
ATOM      4  O   UNL     1      97.122  65.280 224.084  1.00  0.00    -0.550 OA
ENDBRANCH   1   2
BRANCH   1   5
ATOM      5  C   UNL     1      97.481  65.182 227.408  1.00  0.00     0.059 C 
BRANCH   5   6
ATOM      6  C   UNL     1      96.036  65.456 227.694  1.00  0.00     0.042 C 
ATOM      7  O   UNL     1      95.137  64.896 227.014  1.00  0.00    -0.550 OA
ATOM      8  O   UNL     1      95.684  66.363 228.686  1.00  0.00    -0.550 OA
ENDBRANCH   5   6
ENDBRANCH   1   5
TORSDOF 3
ENDMDL
