MODEL 1
REMARK VINA RESULT:    -5.280      0.000      0.000
REMARK INTER + INTRA:          -5.680
REMARK INTER:                  -5.589
REMARK INTRA:                  -0.091
REMARK UNBOUND:                -0.091
REMARK SMILES C=C(C)[C@H]1CC=C(C)C(=O)C1
REMARK SMILES IDX 8 1 7 2 6 3 5 4 4 5 11 6 9 7 10 8 2 9 1 10 3 11
REMARK H PARENT
REMARK Flexibility Score: inf
ROOT
ATOM      1  C   UNL     1       3.713  17.550  -5.759  1.00  0.00     0.048 C 
ATOM      2  C   UNL     1       3.603  16.174  -6.359  1.00  0.00    -0.012 C 
ATOM      3  C   UNL     1       3.780  16.006  -7.681  1.00  0.00    -0.019 C 
ATOM      4  C   UNL     1       3.664  14.655  -8.336  1.00  0.00     0.036 C 
ATOM      5  C   UNL     1       4.126  13.535  -7.384  1.00  0.00     0.025 C 
ATOM      6  C   UNL     1       3.349  13.609  -6.056  1.00  0.00     0.089 C 
ATOM      7  C   UNL     1       3.422  14.995  -5.476  1.00  0.00     0.158 C 
ATOM      8  O   UNL     1       3.291  15.148  -4.232  1.00  0.00    -0.295 OA
ENDROOT
BRANCH   5   9
ATOM      9  C   UNL     1       4.004  12.162  -8.030  1.00  0.00    -0.077 C 
ATOM     10  C   UNL     1       4.837  11.774  -9.011  1.00  0.00     0.008 C 
ATOM     11  C   UNL     1       2.935  11.203  -7.572  1.00  0.00     0.039 C 
ENDBRANCH   5   9
TORSDOF 1
ENDMDL
MODEL 2
REMARK VINA RESULT:    -4.699      1.268      1.316
REMARK INTER + INTRA:          -5.064
REMARK INTER:                  -4.972
REMARK INTRA:                  -0.092
REMARK UNBOUND:                -0.091
REMARK SMILES C=C(C)[C@H]1CC=C(C)C(=O)C1
REMARK SMILES IDX 8 1 7 2 6 3 5 4 4 5 11 6 9 7 10 8 2 9 1 10 3 11
REMARK H PARENT
REMARK Flexibility Score: inf
ROOT
ATOM      1  C   UNL     1       3.423  17.268  -6.051  1.00  0.00     0.048 C 
ATOM      2  C   UNL     1       3.453  15.819  -6.453  1.00  0.00    -0.012 C 
ATOM      3  C   UNL     1       2.414  15.289  -7.122  1.00  0.00    -0.019 C 
ATOM      4  C   UNL     1       2.384  13.840  -7.533  1.00  0.00     0.036 C 
ATOM      5  C   UNL     1       3.802  13.324  -7.847  1.00  0.00     0.025 C 
ATOM      6  C   UNL     1       4.739  13.572  -6.650  1.00  0.00     0.089 C 
ATOM      7  C   UNL     1       4.677  15.012  -6.220  1.00  0.00     0.158 C 
ATOM      8  O   UNL     1       5.666  15.518  -5.624  1.00  0.00    -0.295 OA
ENDROOT
BRANCH   5   9
ATOM      9  C   UNL     1       3.788  11.857  -8.254  1.00  0.00    -0.077 C 
ATOM     10  C   UNL     1       4.688  11.363  -9.123  1.00  0.00     0.008 C 
ATOM     11  C   UNL     1       2.753  10.923  -7.681  1.00  0.00     0.039 C 
ENDBRANCH   5   9
TORSDOF 1
ENDMDL
MODEL 3
REMARK VINA RESULT:    -4.648      1.581      2.161
REMARK INTER + INTRA:          -5.010
REMARK INTER:                  -4.913
REMARK INTRA:                  -0.097
REMARK UNBOUND:                -0.091
REMARK SMILES C=C(C)[C@H]1CC=C(C)C(=O)C1
REMARK SMILES IDX 8 1 7 2 6 3 5 4 4 5 11 6 9 7 10 8 2 9 1 10 3 11
REMARK H PARENT
REMARK Flexibility Score: inf
ROOT
ATOM      1  C   UNL     1       3.375  17.170  -6.125  1.00  0.00     0.048 C 
ATOM      2  C   UNL     1       3.581  15.759  -6.602  1.00  0.00    -0.012 C 
ATOM      3  C   UNL     1       3.159  14.730  -5.847  1.00  0.00    -0.019 C 
ATOM      4  C   UNL     1       3.356  13.297  -6.268  1.00  0.00     0.036 C 
ATOM      5  C   UNL     1       3.296  13.156  -7.801  1.00  0.00     0.025 C 
ATOM      6  C   UNL     1       4.312  14.105  -8.465  1.00  0.00     0.089 C 
ATOM      7  C   UNL     1       4.136  15.509  -7.956  1.00  0.00     0.158 C 
ATOM      8  O   UNL     1       4.499  16.475  -8.680  1.00  0.00    -0.295 OA
ENDROOT
BRANCH   5   9
ATOM      9  C   UNL     1       3.504  11.714  -8.242  1.00  0.00    -0.077 C 
ATOM     10  C   UNL     1       4.467  11.383  -9.119  1.00  0.00     0.008 C 
ATOM     11  C   UNL     1       2.623  10.621  -7.693  1.00  0.00     0.039 C 
ENDBRANCH   5   9
TORSDOF 1
ENDMDL
MODEL 4
REMARK VINA RESULT:    -4.506      1.994      4.658
REMARK INTER + INTRA:          -4.860
REMARK INTER:                  -4.770
REMARK INTRA:                  -0.090
REMARK UNBOUND:                -0.091
REMARK SMILES C=C(C)[C@H]1CC=C(C)C(=O)C1
REMARK SMILES IDX 8 1 7 2 6 3 5 4 4 5 11 6 9 7 10 8 2 9 1 10 3 11
REMARK H PARENT
REMARK Flexibility Score: inf
ROOT
ATOM      1  C   UNL     1       4.445  11.139  -9.125  1.00  0.00     0.048 C 
ATOM      2  C   UNL     1       4.098  12.360  -8.317  1.00  0.00    -0.012 C 
ATOM      3  C   UNL     1       3.029  12.341  -7.502  1.00  0.00    -0.019 C 
ATOM      4  C   UNL     1       2.626  13.539  -6.684  1.00  0.00     0.036 C 
ATOM      5  C   UNL     1       3.859  14.361  -6.260  1.00  0.00     0.025 C 
ATOM      6  C   UNL     1       4.693  14.749  -7.496  1.00  0.00     0.089 C 
ATOM      7  C   UNL     1       5.004  13.536  -8.327  1.00  0.00     0.158 C 
ATOM      8  O   UNL     1       6.026  13.542  -9.064  1.00  0.00    -0.295 OA
ENDROOT
BRANCH   5   9
ATOM      9  C   UNL     1       3.466  15.583  -5.441  1.00  0.00    -0.077 C 
ATOM     10  C   UNL     1       3.100  15.472  -4.152  1.00  0.00     0.008 C 
ATOM     11  C   UNL     1       3.482  16.952  -6.071  1.00  0.00     0.039 C 
ENDBRANCH   5   9
TORSDOF 1
ENDMDL
MODEL 5
REMARK VINA RESULT:    -4.112      1.811      4.440
REMARK INTER + INTRA:          -4.444
REMARK INTER:                  -4.348
REMARK INTRA:                  -0.096
REMARK UNBOUND:                -0.091
REMARK SMILES C=C(C)[C@H]1CC=C(C)C(=O)C1
REMARK SMILES IDX 8 1 7 2 6 3 5 4 4 5 11 6 9 7 10 8 2 9 1 10 3 11
REMARK H PARENT
REMARK Flexibility Score: inf
ROOT
ATOM      1  C   UNL     1       4.871  11.340  -9.125  1.00  0.00     0.048 C 
ATOM      2  C   UNL     1       4.576  12.405  -8.105  1.00  0.00    -0.012 C 
ATOM      3  C   UNL     1       5.343  13.508  -8.050  1.00  0.00    -0.019 C 
ATOM      4  C   UNL     1       5.103  14.598  -7.038  1.00  0.00     0.036 C 
ATOM      5  C   UNL     1       3.604  14.728  -6.707  1.00  0.00     0.025 C 
ATOM      6  C   UNL     1       3.038  13.370  -6.249  1.00  0.00     0.089 C 
ATOM      7  C   UNL     1       3.369  12.295  -7.247  1.00  0.00     0.158 C 
ATOM      8  O   UNL     1       2.629  11.278  -7.323  1.00  0.00    -0.295 OA
ENDROOT
BRANCH   5   9
ATOM      9  C   UNL     1       3.348  15.819  -5.677  1.00  0.00    -0.077 C 
ATOM     10  C   UNL     1       3.052  15.519  -4.400  1.00  0.00     0.008 C 
ATOM     11  C   UNL     1       3.426  17.270  -6.077  1.00  0.00     0.039 C 
ENDBRANCH   5   9
TORSDOF 1
ENDMDL
MODEL 6
REMARK VINA RESULT:    -4.006      1.481      2.121
REMARK INTER + INTRA:          -4.331
REMARK INTER:                  -4.235
REMARK INTRA:                  -0.096
REMARK UNBOUND:                -0.091
REMARK SMILES C=C(C)[C@H]1CC=C(C)C(=O)C1
REMARK SMILES IDX 8 1 7 2 6 3 5 4 4 5 11 6 9 7 10 8 2 9 1 10 3 11
REMARK H PARENT
REMARK Flexibility Score: inf
ROOT
ATOM      1  C   UNL     1       1.748  16.069  -5.072  1.00  0.00     0.048 C 
ATOM      2  C   UNL     1       2.614  15.132  -5.868  1.00  0.00    -0.012 C 
ATOM      3  C   UNL     1       2.046  14.181  -6.630  1.00  0.00    -0.019 C 
ATOM      4  C   UNL     1       2.866  13.205  -7.432  1.00  0.00     0.036 C 
ATOM      5  C   UNL     1       4.178  13.851  -7.919  1.00  0.00     0.025 C 
ATOM      6  C   UNL     1       4.962  14.431  -6.726  1.00  0.00     0.089 C 
ATOM      7  C   UNL     1       4.084  15.335  -5.906  1.00  0.00     0.158 C 
ATOM      8  O   UNL     1       4.615  16.249  -5.219  1.00  0.00    -0.295 OA
ENDROOT
BRANCH   5   9
ATOM      9  C   UNL     1       5.022  12.871  -8.723  1.00  0.00    -0.077 C 
ATOM     10  C   UNL     1       4.539  11.673  -9.094  1.00  0.00     0.008 C 
ATOM     11  C   UNL     1       6.429  13.235  -9.120  1.00  0.00     0.039 C 
ENDBRANCH   5   9
TORSDOF 1
ENDMDL
MODEL 7
REMARK VINA RESULT:    -3.723      1.760      4.307
REMARK INTER + INTRA:          -4.031
REMARK INTER:                  -3.937
REMARK INTRA:                  -0.094
REMARK UNBOUND:                -0.091
REMARK SMILES C=C(C)[C@H]1CC=C(C)C(=O)C1
REMARK SMILES IDX 8 1 7 2 6 3 5 4 4 5 11 6 9 7 10 8 2 9 1 10 3 11
REMARK H PARENT
REMARK Flexibility Score: inf
ROOT
ATOM      1  C   UNL     1       4.497  11.347  -8.779  1.00  0.00     0.048 C 
ATOM      2  C   UNL     1       4.194  12.701  -8.198  1.00  0.00    -0.012 C 
ATOM      3  C   UNL     1       3.120  13.386  -8.625  1.00  0.00    -0.019 C 
ATOM      4  C   UNL     1       2.780  14.753  -8.092  1.00  0.00     0.036 C 
ATOM      5  C   UNL     1       3.203  14.893  -6.616  1.00  0.00     0.025 C 
ATOM      6  C   UNL     1       4.697  14.557  -6.455  1.00  0.00     0.089 C 
ATOM      7  C   UNL     1       5.010  13.222  -7.073  1.00  0.00     0.158 C 
ATOM      8  O   UNL     1       5.997  12.565  -6.647  1.00  0.00    -0.295 OA
ENDROOT
BRANCH   5   9
ATOM      9  C   UNL     1       2.875  16.275  -6.067  1.00  0.00    -0.077 C 
ATOM     10  C   UNL     1       3.758  17.286  -6.145  1.00  0.00     0.008 C 
ATOM     11  C   UNL     1       1.539  16.534  -5.419  1.00  0.00     0.039 C 
ENDBRANCH   5   9
TORSDOF 1
ENDMDL
MODEL 8
REMARK VINA RESULT:    -3.437      1.966      4.695
REMARK INTER + INTRA:          -3.729
REMARK INTER:                  -3.635
REMARK INTRA:                  -0.094
REMARK UNBOUND:                -0.091
REMARK SMILES C=C(C)[C@H]1CC=C(C)C(=O)C1
REMARK SMILES IDX 8 1 7 2 6 3 5 4 4 5 11 6 9 7 10 8 2 9 1 10 3 11
REMARK H PARENT
REMARK Flexibility Score: inf
ROOT
ATOM      1  C   UNL     1       5.122  11.887  -7.777  1.00  0.00     0.048 C 
ATOM      2  C   UNL     1       4.510  13.214  -7.420  1.00  0.00    -0.012 C 
ATOM      3  C   UNL     1       3.683  13.306  -6.364  1.00  0.00    -0.019 C 
ATOM      4  C   UNL     1       3.028  14.605  -5.973  1.00  0.00     0.036 C 
ATOM      5  C   UNL     1       3.938  15.805  -6.301  1.00  0.00     0.025 C 
ATOM      6  C   UNL     1       4.341  15.778  -7.788  1.00  0.00     0.089 C 
ATOM      7  C   UNL     1       4.914  14.438  -8.157  1.00  0.00     0.158 C 
ATOM      8  O   UNL     1       5.717  14.358  -9.125  1.00  0.00    -0.295 OA
ENDROOT
BRANCH   5   9
ATOM      9  C   UNL     1       3.284  17.127  -5.921  1.00  0.00    -0.077 C 
ATOM     10  C   UNL     1       4.005  18.255  -5.800  1.00  0.00     0.008 C 
ATOM     11  C   UNL     1       1.799  17.191  -5.672  1.00  0.00     0.039 C 
ENDBRANCH   5   9
TORSDOF 1
ENDMDL
