MODEL 1
REMARK VINA RESULT:    -2.538      0.000      0.000
REMARK INTER + INTRA:          -2.760
REMARK INTER:                  -2.760
REMARK INTRA:                   0.000
REMARK UNBOUND:                 0.000
REMARK SMILES [NH3+]CC(=O)[O-]
REMARK SMILES IDX 2 1 1 2 3 6 4 7 5 8
REMARK H PARENT 1 3 1 4 1 5
REMARK Flexibility Score: inf
ROOT
ATOM      1  C   UNL     1     125.860 123.970 130.446  1.00  0.00     0.312 C 
ENDROOT
BRANCH   1   2
ATOM      2  N   UNL     1     126.624 123.308 129.390  1.00  0.00    -0.353 N 
ATOM      3  H   UNL     1     126.679 123.925 128.546  1.00  0.00     0.344 HD
ATOM      4  H   UNL     1     127.588 123.086 129.730  1.00  0.00     0.344 HD
ATOM      5  H   UNL     1     126.143 122.417 129.128  1.00  0.00     0.344 HD
ENDBRANCH   1   2
BRANCH   1   6
ATOM      6  C   UNL     1     126.122 123.324 131.772  1.00  0.00     0.096 C 
ATOM      7  O   UNL     1     125.165 122.875 132.457  1.00  0.00    -0.544 OA
ATOM      8  O   UNL     1     127.415 123.263 132.272  1.00  0.00    -0.544 OA
ENDBRANCH   1   6
TORSDOF 2
ENDMDL
MODEL 2
REMARK VINA RESULT:    -2.185     12.050     12.223
REMARK INTER + INTRA:          -2.377
REMARK INTER:                  -2.377
REMARK INTRA:                   0.000
REMARK UNBOUND:                 0.000
REMARK SMILES [NH3+]CC(=O)[O-]
REMARK SMILES IDX 2 1 1 2 3 6 4 7 5 8
REMARK H PARENT 1 3 1 4 1 5
REMARK Flexibility Score: inf
ROOT
ATOM      1  C   UNL     1     133.230 128.133 123.381  1.00  0.00     0.312 C 
ENDROOT
BRANCH   1   2
ATOM      2  N   UNL     1     134.027 129.018 124.228  1.00  0.00    -0.353 N 
ATOM      3  H   UNL     1     133.540 129.174 125.141  1.00  0.00     0.344 HD
ATOM      4  H   UNL     1     134.971 128.601 124.397  1.00  0.00     0.344 HD
ATOM      5  H   UNL     1     134.144 129.938 123.745  1.00  0.00     0.344 HD
ENDBRANCH   1   2
BRANCH   1   6
ATOM      6  C   UNL     1     134.067 127.001 122.866  1.00  0.00     0.096 C 
ATOM      7  O   UNL     1     135.159 126.717 123.425  1.00  0.00    -0.544 OA
ATOM      8  O   UNL     1     133.665 126.296 121.740  1.00  0.00    -0.544 OA
ENDBRANCH   1   6
TORSDOF 2
ENDMDL
MODEL 3
REMARK VINA RESULT:    -2.180     11.577     11.850
REMARK INTER + INTRA:          -2.371
REMARK INTER:                  -2.371
REMARK INTRA:                   0.000
REMARK UNBOUND:                 0.000
REMARK SMILES [NH3+]CC(=O)[O-]
REMARK SMILES IDX 2 1 1 2 3 6 4 7 5 8
REMARK H PARENT 1 3 1 4 1 5
REMARK Flexibility Score: inf
ROOT
ATOM      1  C   UNL     1     134.151 127.065 122.865  1.00  0.00     0.312 C 
ENDROOT
BRANCH   1   2
ATOM      2  N   UNL     1     135.293 126.821 123.744  1.00  0.00    -0.353 N 
ATOM      3  H   UNL     1     135.148 125.936 124.283  1.00  0.00     0.344 HD
ATOM      4  H   UNL     1     136.172 126.753 123.181  1.00  0.00     0.344 HD
ATOM      5  H   UNL     1     135.382 127.617 124.416  1.00  0.00     0.344 HD
ENDBRANCH   1   2
BRANCH   1   6
ATOM      6  C   UNL     1     133.274 128.143 123.424  1.00  0.00     0.096 C 
ATOM      7  O   UNL     1     132.027 128.096 123.254  1.00  0.00    -0.544 OA
ATOM      8  O   UNL     1     133.839 129.224 124.087  1.00  0.00    -0.544 OA
ENDBRANCH   1   6
TORSDOF 2
ENDMDL
MODEL 4
REMARK VINA RESULT:    -2.134     19.180     19.603
REMARK INTER + INTRA:          -2.321
REMARK INTER:                  -2.321
REMARK INTRA:                   0.000
REMARK UNBOUND:                 0.000
REMARK SMILES [NH3+]CC(=O)[O-]
REMARK SMILES IDX 2 1 1 2 3 6 4 7 5 8
REMARK H PARENT 1 3 1 4 1 5
REMARK Flexibility Score: inf
ROOT
ATOM      1  C   UNL     1     137.457 135.693 123.217  1.00  0.00     0.312 C 
ENDROOT
BRANCH   1   2
ATOM      2  N   UNL     1     136.336 135.901 124.132  1.00  0.00    -0.353 N 
ATOM      3  H   UNL     1     135.666 135.100 124.067  1.00  0.00     0.344 HD
ATOM      4  H   UNL     1     136.686 135.991 125.114  1.00  0.00     0.344 HD
ATOM      5  H   UNL     1     135.838 136.782 123.868  1.00  0.00     0.344 HD
ENDBRANCH   1   2
BRANCH   1   6
ATOM      6  C   UNL     1     137.970 137.004 122.705  1.00  0.00     0.096 C 
ATOM      7  O   UNL     1     138.700 137.041 121.679  1.00  0.00    -0.544 OA
ATOM      8  O   UNL     1     137.685 138.178 123.389  1.00  0.00    -0.544 OA
ENDBRANCH   1   6
TORSDOF 2
ENDMDL
MODEL 5
REMARK VINA RESULT:    -2.114     18.397     18.800
REMARK INTER + INTRA:          -2.299
REMARK INTER:                  -2.299
REMARK INTRA:                   0.000
REMARK UNBOUND:                 0.000
REMARK SMILES [NH3+]CC(=O)[O-]
REMARK SMILES IDX 2 1 1 2 3 6 4 7 5 8
REMARK H PARENT 1 3 1 4 1 5
REMARK Flexibility Score: inf
ROOT
ATOM      1  C   UNL     1     137.818 136.956 122.781  1.00  0.00     0.312 C 
ENDROOT
BRANCH   1   2
ATOM      2  N   UNL     1     137.474 138.077 123.653  1.00  0.00    -0.353 N 
ATOM      3  H   UNL     1     137.636 137.816 124.654  1.00  0.00     0.344 HD
ATOM      4  H   UNL     1     138.053 138.913 123.408  1.00  0.00     0.344 HD
ATOM      5  H   UNL     1     136.464 138.314 123.524  1.00  0.00     0.344 HD
ENDBRANCH   1   2
BRANCH   1   6
ATOM      6  C   UNL     1     137.344 135.663 123.371  1.00  0.00     0.096 C 
ATOM      7  O   UNL     1     136.223 135.601 123.941  1.00  0.00    -0.544 OA
ATOM      8  O   UNL     1     138.162 134.541 123.336  1.00  0.00    -0.544 OA
ENDBRANCH   1   6
TORSDOF 2
ENDMDL
MODEL 6
REMARK VINA RESULT:    -2.102     13.946     14.366
REMARK INTER + INTRA:          -2.286
REMARK INTER:                  -2.286
REMARK INTRA:                   0.000
REMARK UNBOUND:                 0.000
REMARK SMILES [NH3+]CC(=O)[O-]
REMARK SMILES IDX 2 1 1 2 3 6 4 7 5 8
REMARK H PARENT 1 3 1 4 1 5
REMARK Flexibility Score: inf
ROOT
ATOM      1  C   UNL     1     127.451 134.870 122.761  1.00  0.00     0.312 C 
ENDROOT
BRANCH   1   2
ATOM      2  N   UNL     1     126.493 134.376 123.749  1.00  0.00    -0.353 N 
ATOM      3  H   UNL     1     126.734 134.744 124.698  1.00  0.00     0.344 HD
ATOM      4  H   UNL     1     125.524 134.673 123.489  1.00  0.00     0.344 HD
ATOM      5  H   UNL     1     126.532 133.331 123.770  1.00  0.00     0.344 HD
ENDBRANCH   1   2
BRANCH   1   6
ATOM      6  C   UNL     1     128.749 135.226 123.418  1.00  0.00     0.096 C 
ATOM      7  O   UNL     1     129.346 134.383 124.139  1.00  0.00    -0.544 OA
ATOM      8  O   UNL     1     129.274 136.503 123.275  1.00  0.00    -0.544 OA
ENDBRANCH   1   6
TORSDOF 2
ENDMDL
MODEL 7
REMARK VINA RESULT:    -2.054     22.491     22.751
REMARK INTER + INTRA:          -2.234
REMARK INTER:                  -2.234
REMARK INTRA:                   0.000
REMARK UNBOUND:                 0.000
REMARK SMILES [NH3+]CC(=O)[O-]
REMARK SMILES IDX 2 1 1 2 3 6 4 7 5 8
REMARK H PARENT 1 3 1 4 1 5
REMARK Flexibility Score: inf
ROOT
ATOM      1  C   UNL     1     139.310 134.844 118.108  1.00  0.00     0.312 C 
ENDROOT
BRANCH   1   2
ATOM      2  N   UNL     1     140.041 133.611 118.395  1.00  0.00    -0.353 N 
ATOM      3  H   UNL     1     140.744 133.427 117.642  1.00  0.00     0.344 HD
ATOM      4  H   UNL     1     140.523 133.686 119.319  1.00  0.00     0.344 HD
ATOM      5  H   UNL     1     139.365 132.814 118.429  1.00  0.00     0.344 HD
ENDBRANCH   1   2
BRANCH   1   6
ATOM      6  C   UNL     1     140.229 136.026 118.161  1.00  0.00     0.096 C 
ATOM      7  O   UNL     1     141.463 135.861 118.347  1.00  0.00    -0.544 OA
ATOM      8  O   UNL     1     139.715 137.312 118.056  1.00  0.00    -0.544 OA
ENDBRANCH   1   6
TORSDOF 2
ENDMDL
MODEL 8
REMARK VINA RESULT:    -2.041     13.954     14.287
REMARK INTER + INTRA:          -2.220
REMARK INTER:                  -2.220
REMARK INTRA:                   0.000
REMARK UNBOUND:                 0.000
REMARK SMILES [NH3+]CC(=O)[O-]
REMARK SMILES IDX 2 1 1 2 3 6 4 7 5 8
REMARK H PARENT 1 3 1 4 1 5
REMARK Flexibility Score: inf
ROOT
ATOM      1  C   UNL     1     128.291 134.073 122.997  1.00  0.00     0.312 C 
ENDROOT
BRANCH   1   2
ATOM      2  N   UNL     1     129.099 134.450 124.155  1.00  0.00    -0.353 N 
ATOM      3  H   UNL     1     128.688 134.045 125.027  1.00  0.00     0.344 HD
ATOM      4  H   UNL     1     130.080 134.109 124.034  1.00  0.00     0.344 HD
ATOM      5  H   UNL     1     129.111 135.492 124.238  1.00  0.00     0.344 HD
ENDBRANCH   1   2
BRANCH   1   6
ATOM      6  C   UNL     1     127.064 134.928 122.909  1.00  0.00     0.096 C 
ATOM      7  O   UNL     1     126.058 134.668 123.620  1.00  0.00    -0.544 OA
ATOM      8  O   UNL     1     127.013 135.981 122.005  1.00  0.00    -0.544 OA
ENDBRANCH   1   6
TORSDOF 2
ENDMDL
MODEL 9
REMARK VINA RESULT:    -1.992     19.396     19.713
REMARK INTER + INTRA:          -2.167
REMARK INTER:                  -2.167
REMARK INTRA:                   0.000
REMARK UNBOUND:                 0.000
REMARK SMILES [NH3+]CC(=O)[O-]
REMARK SMILES IDX 2 1 1 2 3 6 4 7 5 8
REMARK H PARENT 1 3 1 4 1 5
REMARK Flexibility Score: inf
ROOT
ATOM      1  C   UNL     1     128.490 137.448 118.147  1.00  0.00     0.312 C 
ENDROOT
BRANCH   1   2
ATOM      2  N   UNL     1     129.228 138.694 118.345  1.00  0.00    -0.353 N 
ATOM      3  H   UNL     1     128.634 139.384 118.862  1.00  0.00     0.344 HD
ATOM      4  H   UNL     1     130.106 138.510 118.881  1.00  0.00     0.344 HD
ATOM      5  H   UNL     1     129.478 139.094 117.412  1.00  0.00     0.344 HD
ENDBRANCH   1   2
BRANCH   1   6
ATOM      6  C   UNL     1     127.013 137.699 118.170  1.00  0.00     0.096 C 
ATOM      7  O   UNL     1     126.206 136.737 118.068  1.00  0.00    -0.544 OA
ATOM      8  O   UNL     1     126.530 138.998 118.253  1.00  0.00    -0.544 OA
ENDBRANCH   1   6
TORSDOF 2
ENDMDL
