MODEL 1
REMARK VINA RESULT:    -4.443      0.000      0.000
REMARK INTER + INTRA:          -5.532
REMARK INTER:                  -5.222
REMARK INTRA:                  -0.309
REMARK UNBOUND:                -0.309
REMARK SMILES O=c1cc(-c2ccc(O)c(O)c2)oc2cc(O)cc(O)c12
REMARK SMILES IDX 4 1 3 2 2 3 1 4 21 5 19 6 18 7 16 8 15 9 14 10 13 11 5 12
REMARK SMILES IDX 6 13 7 14 8 15 12 16 10 17 9 18 11 20 20 22 17 24
REMARK H PARENT 9 19 11 21 20 23 17 25
REMARK Flexibility Score: inf
ROOT
ATOM      1  C   UNL     1     -13.664  30.386  11.420  1.00  0.00     0.138 A 
ATOM      2  C   UNL     1     -12.656  29.520  11.875  1.00  0.00     0.100 A 
ATOM      3  C   UNL     1     -12.785  28.911  13.124  1.00  0.00     0.197 A 
ATOM      4  O   UNL     1     -11.875  28.137  13.525  1.00  0.00    -0.289 OA
ATOM      5  C   UNL     1     -13.923  29.177  13.913  1.00  0.00     0.107 A 
ATOM      6  C   UNL     1     -14.132  28.601  15.189  1.00  0.00     0.134 A 
ATOM      7  C   UNL     1     -15.290  28.921  15.913  1.00  0.00     0.093 A 
ATOM      8  C   UNL     1     -16.240  29.804  15.387  1.00  0.00     0.123 A 
ATOM      9  C   UNL     1     -16.037  30.374  14.128  1.00  0.00     0.094 A 
ATOM     10  C   UNL     1     -14.891  30.068  13.389  1.00  0.00     0.146 A 
ATOM     11  O   UNL     1     -14.722  30.623  12.193  1.00  0.00    -0.456 OA
ENDROOT
BRANCH   1  12
ATOM     12  C   UNL     1     -13.580  31.062  10.101  1.00  0.00     0.021 A 
ATOM     13  C   UNL     1     -12.319  31.302   9.527  1.00  0.00     0.016 A 
ATOM     14  C   UNL     1     -12.213  31.941   8.289  1.00  0.00     0.051 A 
ATOM     15  C   UNL     1     -13.362  32.362   7.610  1.00  0.00     0.157 A 
ATOM     16  C   UNL     1     -14.732  31.500   9.418  1.00  0.00     0.062 A 
ATOM     17  C   UNL     1     -14.623  32.144   8.177  1.00  0.00     0.158 A 
BRANCH  15  18
ATOM     18  O   UNL     1     -13.259  33.000   6.376  1.00  0.00    -0.504 OA
ATOM     19  H   UNL     1     -12.782  33.889   6.276  1.00  0.00     0.293 HD
ENDBRANCH  15  18
BRANCH  17  20
ATOM     20  O   UNL     1     -15.765  32.574   7.502  1.00  0.00    -0.504 OA
ATOM     21  H   UNL     1     -16.407  33.238   7.918  1.00  0.00     0.293 HD
ENDBRANCH  17  20
ENDBRANCH   1  12
BRANCH   6  22
ATOM     22  O   UNL     1     -13.203  27.717  15.738  1.00  0.00    -0.507 OA
ATOM     23  H   UNL     1     -12.591  27.993  16.498  1.00  0.00     0.293 HD
ENDBRANCH   6  22
BRANCH   8  24
ATOM     24  O   UNL     1     -17.389  30.123  16.106  1.00  0.00    -0.508 OA
ATOM     25  H   UNL     1     -18.135  30.674  15.697  1.00  0.00     0.293 HD
ENDBRANCH   8  24
TORSDOF 5
ENDMDL
MODEL 2
REMARK VINA RESULT:    -4.289      5.157      9.014
REMARK INTER + INTRA:          -5.351
REMARK INTER:                  -5.054
REMARK INTRA:                  -0.297
REMARK UNBOUND:                -0.309
REMARK SMILES O=c1cc(-c2ccc(O)c(O)c2)oc2cc(O)cc(O)c12
REMARK SMILES IDX 4 1 3 2 2 3 1 4 21 5 19 6 18 7 16 8 15 9 14 10 13 11 5 12
REMARK SMILES IDX 6 13 7 14 8 15 12 16 10 17 9 18 11 20 20 22 17 24
REMARK H PARENT 9 19 11 21 20 23 17 25
REMARK Flexibility Score: inf
ROOT
ATOM      1  C   UNL     1     -18.624  27.117  15.928  1.00  0.00     0.138 A 
ATOM      2  C   UNL     1     -19.036  28.457  16.030  1.00  0.00     0.100 A 
ATOM      3  C   UNL     1     -18.084  29.475  15.968  1.00  0.00     0.197 A 
ATOM      4  O   UNL     1     -18.463  30.673  16.062  1.00  0.00    -0.289 OA
ATOM      5  C   UNL     1     -16.723  29.146  15.807  1.00  0.00     0.107 A 
ATOM      6  C   UNL     1     -15.695  30.115  15.734  1.00  0.00     0.134 A 
ATOM      7  C   UNL     1     -14.363  29.705  15.578  1.00  0.00     0.093 A 
ATOM      8  C   UNL     1     -14.040  28.346  15.496  1.00  0.00     0.123 A 
ATOM      9  C   UNL     1     -15.052  27.385  15.568  1.00  0.00     0.094 A 
ATOM     10  C   UNL     1     -16.386  27.773  15.721  1.00  0.00     0.146 A 
ATOM     11  O   UNL     1     -17.330  26.839  15.786  1.00  0.00    -0.456 OA
ENDROOT
BRANCH   1  12
ATOM     12  C   UNL     1     -19.592  25.993  15.988  1.00  0.00     0.021 A 
ATOM     13  C   UNL     1     -19.116  24.671  15.975  1.00  0.00     0.016 A 
ATOM     14  C   UNL     1     -20.007  23.595  16.025  1.00  0.00     0.051 A 
ATOM     15  C   UNL     1     -21.387  23.822  16.076  1.00  0.00     0.157 A 
ATOM     16  C   UNL     1     -20.983  26.214  16.026  1.00  0.00     0.062 A 
ATOM     17  C   UNL     1     -21.876  25.134  16.072  1.00  0.00     0.158 A 
BRANCH  15  18
ATOM     18  O   UNL     1     -22.278  22.752  16.125  1.00  0.00    -0.504 OA
ATOM     19  H   UNL     1     -22.172  21.945  15.521  1.00  0.00     0.293 HD
ENDBRANCH  15  18
BRANCH  17  20
ATOM     20  O   UNL     1     -23.251  25.356  16.113  1.00  0.00    -0.504 OA
ATOM     21  H   UNL     1     -23.886  24.677  16.518  1.00  0.00     0.293 HD
ENDBRANCH  17  20
ENDBRANCH   1  12
BRANCH   6  22
ATOM     22  O   UNL     1     -15.987  31.477  15.814  1.00  0.00    -0.507 OA
ATOM     23  H   UNL     1     -16.136  32.039  14.983  1.00  0.00     0.293 HD
ENDBRANCH   6  22
BRANCH   8  24
ATOM     24  O   UNL     1     -12.717  27.937  15.343  1.00  0.00    -0.508 OA
ATOM     25  H   UNL     1     -11.994  28.584  15.048  1.00  0.00     0.293 HD
ENDBRANCH   8  24
TORSDOF 5
ENDMDL
MODEL 3
REMARK VINA RESULT:    -4.227      1.203      2.704
REMARK INTER + INTRA:          -5.278
REMARK INTER:                  -4.992
REMARK INTRA:                  -0.286
REMARK UNBOUND:                -0.309
REMARK SMILES O=c1cc(-c2ccc(O)c(O)c2)oc2cc(O)cc(O)c12
REMARK SMILES IDX 4 1 3 2 2 3 1 4 21 5 19 6 18 7 16 8 15 9 14 10 13 11 5 12
REMARK SMILES IDX 6 13 7 14 8 15 12 16 10 17 9 18 11 20 20 22 17 24
REMARK H PARENT 9 19 11 21 20 23 17 25
REMARK Flexibility Score: inf
ROOT
ATOM      1  C   UNL     1     -14.145  30.343  11.600  1.00  0.00     0.138 A 
ATOM      2  C   UNL     1     -15.230  30.732  12.402  1.00  0.00     0.100 A 
ATOM      3  C   UNL     1     -15.451  30.086  13.619  1.00  0.00     0.197 A 
ATOM      4  O   UNL     1     -16.428  30.440  14.331  1.00  0.00    -0.289 OA
ATOM      5  C   UNL     1     -14.585  29.050  14.023  1.00  0.00     0.107 A 
ATOM      6  C   UNL     1     -14.738  28.344  15.240  1.00  0.00     0.134 A 
ATOM      7  C   UNL     1     -13.835  27.321  15.568  1.00  0.00     0.093 A 
ATOM      8  C   UNL     1     -12.786  26.992  14.702  1.00  0.00     0.123 A 
ATOM      9  C   UNL     1     -12.632  27.685  13.500  1.00  0.00     0.094 A 
ATOM     10  C   UNL     1     -13.520  28.709  13.155  1.00  0.00     0.146 A 
ATOM     11  O   UNL     1     -13.351  29.354  12.006  1.00  0.00    -0.456 OA
ENDROOT
BRANCH   1  12
ATOM     12  C   UNL     1     -13.861  30.994  10.296  1.00  0.00     0.021 A 
ATOM     13  C   UNL     1     -12.529  31.143   9.873  1.00  0.00     0.016 A 
ATOM     14  C   UNL     1     -12.235  31.758   8.653  1.00  0.00     0.051 A 
ATOM     15  C   UNL     1     -13.267  32.245   7.841  1.00  0.00     0.157 A 
ATOM     16  C   UNL     1     -14.893  31.498   9.479  1.00  0.00     0.062 A 
ATOM     17  C   UNL     1     -14.597  32.118   8.257  1.00  0.00     0.158 A 
BRANCH  15  18
ATOM     18  O   UNL     1     -12.977  32.859   6.624  1.00  0.00    -0.504 OA
ATOM     19  H   UNL     1     -12.315  33.624   6.560  1.00  0.00     0.293 HD
ENDBRANCH  15  18
BRANCH  17  20
ATOM     20  O   UNL     1     -15.620  32.614   7.450  1.00  0.00    -0.504 OA
ATOM     21  H   UNL     1     -15.891  32.147   6.592  1.00  0.00     0.293 HD
ENDBRANCH  17  20
ENDBRANCH   1  12
BRANCH   6  22
ATOM     22  O   UNL     1     -15.774  28.651  16.123  1.00  0.00    -0.507 OA
ATOM     23  H   UNL     1     -16.735  28.725  15.810  1.00  0.00     0.293 HD
ENDBRANCH   6  22
BRANCH   8  24
ATOM     24  O   UNL     1     -11.890  25.975  15.027  1.00  0.00    -0.508 OA
ATOM     25  H   UNL     1     -12.120  24.999  14.878  1.00  0.00     0.293 HD
ENDBRANCH   8  24
TORSDOF 5
ENDMDL
MODEL 4
REMARK VINA RESULT:    -4.187      5.120      7.439
REMARK INTER + INTRA:          -5.230
REMARK INTER:                  -4.911
REMARK INTRA:                  -0.319
REMARK UNBOUND:                -0.309
REMARK SMILES O=c1cc(-c2ccc(O)c(O)c2)oc2cc(O)cc(O)c12
REMARK SMILES IDX 4 1 3 2 2 3 1 4 21 5 19 6 18 7 16 8 15 9 14 10 13 11 5 12
REMARK SMILES IDX 6 13 7 14 8 15 12 16 10 17 9 18 11 20 20 22 17 24
REMARK H PARENT 9 19 11 21 20 23 17 25
REMARK Flexibility Score: inf
ROOT
ATOM      1  C   UNL     1     -16.877  29.349  15.732  1.00  0.00     0.138 A 
ATOM      2  C   UNL     1     -16.183  30.567  15.818  1.00  0.00     0.100 A 
ATOM      3  C   UNL     1     -14.791  30.572  15.725  1.00  0.00     0.197 A 
ATOM      4  O   UNL     1     -14.177  31.670  15.805  1.00  0.00    -0.289 OA
ATOM      5  C   UNL     1     -14.101  29.356  15.552  1.00  0.00     0.107 A 
ATOM      6  C   UNL     1     -12.692  29.272  15.449  1.00  0.00     0.134 A 
ATOM      7  C   UNL     1     -12.081  28.021  15.282  1.00  0.00     0.093 A 
ATOM      8  C   UNL     1     -12.850  26.854  15.219  1.00  0.00     0.123 A 
ATOM      9  C   UNL     1     -14.241  26.932  15.321  1.00  0.00     0.094 A 
ATOM     10  C   UNL     1     -14.870  28.169  15.485  1.00  0.00     0.146 A 
ATOM     11  O   UNL     1     -16.195  28.216  15.578  1.00  0.00    -0.456 OA
ENDROOT
BRANCH   1  12
ATOM     12  C   UNL     1     -18.358  29.282  15.824  1.00  0.00     0.021 A 
ATOM     13  C   UNL     1     -19.092  30.466  16.014  1.00  0.00     0.016 A 
ATOM     14  C   UNL     1     -20.485  30.430  16.110  1.00  0.00     0.051 A 
ATOM     15  C   UNL     1     -21.168  29.210  16.029  1.00  0.00     0.157 A 
ATOM     16  C   UNL     1     -19.051  28.057  15.757  1.00  0.00     0.062 A 
ATOM     17  C   UNL     1     -20.449  28.022  15.856  1.00  0.00     0.158 A 
BRANCH  15  18
ATOM     18  O   UNL     1     -22.557  29.171  16.125  1.00  0.00    -0.504 OA
ATOM     19  H   UNL     1     -23.031  28.477  16.691  1.00  0.00     0.293 HD
ENDBRANCH  15  18
BRANCH  17  20
ATOM     20  O   UNL     1     -21.131  26.809  15.787  1.00  0.00    -0.504 OA
ATOM     21  H   UNL     1     -20.698  25.978  15.399  1.00  0.00     0.293 HD
ENDBRANCH  17  20
ENDBRANCH   1  12
BRANCH   6  22
ATOM     22  O   UNL     1     -11.899  30.419  15.509  1.00  0.00    -0.507 OA
ATOM     23  H   UNL     1     -11.537  30.770  16.388  1.00  0.00     0.293 HD
ENDBRANCH   6  22
BRANCH   8  24
ATOM     24  O   UNL     1     -12.244  25.611  15.054  1.00  0.00    -0.508 OA
ATOM     25  H   UNL     1     -12.778  24.792  14.785  1.00  0.00     0.293 HD
ENDBRANCH   8  24
TORSDOF 5
ENDMDL
MODEL 5
REMARK VINA RESULT:    -3.768      3.404      7.180
REMARK INTER + INTRA:          -4.738
REMARK INTER:                  -4.452
REMARK INTRA:                  -0.286
REMARK UNBOUND:                -0.309
REMARK SMILES O=c1cc(-c2ccc(O)c(O)c2)oc2cc(O)cc(O)c12
REMARK SMILES IDX 4 1 3 2 2 3 1 4 21 5 19 6 18 7 16 8 15 9 14 10 13 11 5 12
REMARK SMILES IDX 6 13 7 14 8 15 12 16 10 17 9 18 11 20 20 22 17 24
REMARK H PARENT 9 19 11 21 20 23 17 25
REMARK Flexibility Score: inf
ROOT
ATOM      1  C   UNL     1     -16.894  29.087  15.312  1.00  0.00     0.138 A 
ATOM      2  C   UNL     1     -16.102  28.047  15.824  1.00  0.00     0.100 A 
ATOM      3  C   UNL     1     -14.724  28.060  15.604  1.00  0.00     0.197 A 
ATOM      4  O   UNL     1     -14.021  27.122  16.066  1.00  0.00    -0.289 OA
ATOM      5  C   UNL     1     -14.148  29.114  14.867  1.00  0.00     0.107 A 
ATOM      6  C   UNL     1     -12.761  29.204  14.598  1.00  0.00     0.134 A 
ATOM      7  C   UNL     1     -12.267  30.284  13.852  1.00  0.00     0.093 A 
ATOM      8  C   UNL     1     -13.131  31.272  13.369  1.00  0.00     0.123 A 
ATOM      9  C   UNL     1     -14.501  31.187  13.631  1.00  0.00     0.094 A 
ATOM     10  C   UNL     1     -15.013  30.121  14.374  1.00  0.00     0.146 A 
ATOM     11  O   UNL     1     -16.320  30.064  14.612  1.00  0.00    -0.456 OA
ENDROOT
BRANCH   1  12
ATOM     12  C   UNL     1     -18.364  29.125  15.515  1.00  0.00     0.021 A 
ATOM     13  C   UNL     1     -19.011  30.366  15.652  1.00  0.00     0.016 A 
ATOM     14  C   UNL     1     -20.393  30.429  15.850  1.00  0.00     0.051 A 
ATOM     15  C   UNL     1     -21.149  29.253  15.926  1.00  0.00     0.157 A 
ATOM     16  C   UNL     1     -19.131  27.946  15.605  1.00  0.00     0.062 A 
ATOM     17  C   UNL     1     -20.517  28.010  15.807  1.00  0.00     0.158 A 
BRANCH  15  18
ATOM     18  O   UNL     1     -22.527  29.313  16.124  1.00  0.00    -0.504 OA
ATOM     19  H   UNL     1     -23.178  28.936  15.445  1.00  0.00     0.293 HD
ENDBRANCH  15  18
BRANCH  17  20
ATOM     20  O   UNL     1     -21.273  26.842  15.894  1.00  0.00    -0.504 OA
ATOM     21  H   UNL     1     -21.175  26.097  15.214  1.00  0.00     0.293 HD
ENDBRANCH  17  20
ENDBRANCH   1  12
BRANCH   6  22
ATOM     22  O   UNL     1     -11.875  28.233  15.067  1.00  0.00    -0.507 OA
ATOM     23  H   UNL     1     -10.887  28.260  14.841  1.00  0.00     0.293 HD
ENDBRANCH   6  22
BRANCH   8  24
ATOM     24  O   UNL     1     -12.641  32.344  12.627  1.00  0.00    -0.508 OA
ATOM     25  H   UNL     1     -12.541  32.289  11.619  1.00  0.00     0.293 HD
ENDBRANCH   8  24
TORSDOF 5
ENDMDL
MODEL 6
REMARK VINA RESULT:    -3.698      4.623      7.026
REMARK INTER + INTRA:          -4.655
REMARK INTER:                  -4.349
REMARK INTRA:                  -0.307
REMARK UNBOUND:                -0.309
REMARK SMILES O=c1cc(-c2ccc(O)c(O)c2)oc2cc(O)cc(O)c12
REMARK SMILES IDX 4 1 3 2 2 3 1 4 21 5 19 6 18 7 16 8 15 9 14 10 13 11 5 12
REMARK SMILES IDX 6 13 7 14 8 15 12 16 10 17 9 18 11 20 20 22 17 24
REMARK H PARENT 9 19 11 21 20 23 17 25
REMARK Flexibility Score: inf
ROOT
ATOM      1  C   UNL     1     -17.137  29.103  15.643  1.00  0.00     0.138 A 
ATOM      2  C   UNL     1     -18.255  29.950  15.718  1.00  0.00     0.100 A 
ATOM      3  C   UNL     1     -19.529  29.395  15.849  1.00  0.00     0.197 A 
ATOM      4  O   UNL     1     -20.527  30.162  15.914  1.00  0.00    -0.289 OA
ATOM      5  C   UNL     1     -19.675  27.994  15.899  1.00  0.00     0.107 A 
ATOM      6  C   UNL     1     -20.929  27.351  16.030  1.00  0.00     0.134 A 
ATOM      7  C   UNL     1     -20.990  25.950  16.068  1.00  0.00     0.093 A 
ATOM      8  C   UNL     1     -19.824  25.182  15.975  1.00  0.00     0.123 A 
ATOM      9  C   UNL     1     -18.585  25.813  15.844  1.00  0.00     0.094 A 
ATOM     10  C   UNL     1     -18.501  27.208  15.807  1.00  0.00     0.146 A 
ATOM     11  O   UNL     1     -17.310  27.784  15.684  1.00  0.00    -0.456 OA
ENDROOT
BRANCH   1  12
ATOM     12  C   UNL     1     -15.758  29.637  15.503  1.00  0.00     0.021 A 
ATOM     13  C   UNL     1     -15.451  30.903  16.031  1.00  0.00     0.016 A 
ATOM     14  C   UNL     1     -14.163  31.431  15.907  1.00  0.00     0.051 A 
ATOM     15  C   UNL     1     -13.164  30.707  15.245  1.00  0.00     0.157 A 
ATOM     16  C   UNL     1     -14.751  28.920  14.827  1.00  0.00     0.062 A 
ATOM     17  C   UNL     1     -13.459  29.452  14.701  1.00  0.00     0.158 A 
BRANCH  15  18
ATOM     18  O   UNL     1     -11.879  31.231  15.121  1.00  0.00    -0.504 OA
ATOM     19  H   UNL     1     -11.716  32.229  15.055  1.00  0.00     0.293 HD
ENDBRANCH  15  18
BRANCH  17  20
ATOM     20  O   UNL     1     -12.464  28.740  14.034  1.00  0.00    -0.504 OA
ATOM     21  H   UNL     1     -12.122  27.853  14.384  1.00  0.00     0.293 HD
ENDBRANCH  17  20
ENDBRANCH   1  12
BRANCH   6  22
ATOM     22  O   UNL     1     -22.108  28.090  16.125  1.00  0.00    -0.507 OA
ATOM     23  H   UNL     1     -22.543  28.507  15.310  1.00  0.00     0.293 HD
ENDBRANCH   6  22
BRANCH   8  24
ATOM     24  O   UNL     1     -19.884  23.791  16.010  1.00  0.00    -0.508 OA
ATOM     25  H   UNL     1     -19.422  23.223  15.309  1.00  0.00     0.293 HD
ENDBRANCH   8  24
TORSDOF 5
ENDMDL
MODEL 7
REMARK VINA RESULT:    -3.491      4.194      6.349
REMARK INTER + INTRA:          -4.413
REMARK INTER:                  -4.133
REMARK INTRA:                  -0.279
REMARK UNBOUND:                -0.309
REMARK SMILES O=c1cc(-c2ccc(O)c(O)c2)oc2cc(O)cc(O)c12
REMARK SMILES IDX 4 1 3 2 2 3 1 4 21 5 19 6 18 7 16 8 15 9 14 10 13 11 5 12
REMARK SMILES IDX 6 13 7 14 8 15 12 16 10 17 9 18 11 20 20 22 17 24
REMARK H PARENT 9 19 11 21 20 23 17 25
REMARK Flexibility Score: inf
ROOT
ATOM      1  C   UNL     1     -16.766  29.510  15.553  1.00  0.00     0.138 A 
ATOM      2  C   UNL     1     -16.815  28.111  15.675  1.00  0.00     0.100 A 
ATOM      3  C   UNL     1     -18.050  27.478  15.825  1.00  0.00     0.197 A 
ATOM      4  O   UNL     1     -18.085  26.223  15.936  1.00  0.00    -0.289 OA
ATOM      5  C   UNL     1     -19.228  28.251  15.857  1.00  0.00     0.107 A 
ATOM      6  C   UNL     1     -20.519  27.689  16.006  1.00  0.00     0.134 A 
ATOM      7  C   UNL     1     -21.642  28.528  16.032  1.00  0.00     0.093 A 
ATOM      8  C   UNL     1     -21.499  29.916  15.915  1.00  0.00     0.123 A 
ATOM      9  C   UNL     1     -20.227  30.474  15.768  1.00  0.00     0.094 A 
ATOM     10  C   UNL     1     -19.095  29.656  15.737  1.00  0.00     0.146 A 
ATOM     11  O   UNL     1     -17.896  30.211  15.596  1.00  0.00    -0.456 OA
ENDROOT
BRANCH   1  12
ATOM     12  C   UNL     1     -15.481  30.237  15.391  1.00  0.00     0.021 A 
ATOM     13  C   UNL     1     -15.257  31.415  16.123  1.00  0.00     0.016 A 
ATOM     14  C   UNL     1     -14.059  32.121  15.984  1.00  0.00     0.051 A 
ATOM     15  C   UNL     1     -13.070  31.668  15.103  1.00  0.00     0.157 A 
ATOM     16  C   UNL     1     -14.486  29.793  14.496  1.00  0.00     0.062 A 
ATOM     17  C   UNL     1     -13.286  30.504  14.355  1.00  0.00     0.158 A 
BRANCH  15  18
ATOM     18  O   UNL     1     -11.875  32.370  14.962  1.00  0.00    -0.504 OA
ATOM     19  H   UNL     1     -10.985  31.892  14.885  1.00  0.00     0.293 HD
ENDBRANCH  15  18
BRANCH  17  20
ATOM     20  O   UNL     1     -12.303  30.063  13.472  1.00  0.00    -0.504 OA
ATOM     21  H   UNL     1     -12.502  29.367  12.762  1.00  0.00     0.293 HD
ENDBRANCH  17  20
ENDBRANCH   1  12
BRANCH   6  22
ATOM     22  O   UNL     1     -20.691  26.310  16.125  1.00  0.00    -0.507 OA
ATOM     23  H   UNL     1     -19.996  25.723  16.571  1.00  0.00     0.293 HD
ENDBRANCH   6  22
BRANCH   8  24
ATOM     24  O   UNL     1     -22.615  30.749  15.942  1.00  0.00    -0.508 OA
ATOM     25  H   UNL     1     -23.463  30.517  15.438  1.00  0.00     0.293 HD
ENDBRANCH   8  24
TORSDOF 5
ENDMDL
MODEL 8
REMARK VINA RESULT:    -3.486      5.116      7.692
REMARK INTER + INTRA:          -4.407
REMARK INTER:                  -4.110
REMARK INTRA:                  -0.297
REMARK UNBOUND:                -0.309
REMARK SMILES O=c1cc(-c2ccc(O)c(O)c2)oc2cc(O)cc(O)c12
REMARK SMILES IDX 4 1 3 2 2 3 1 4 21 5 19 6 18 7 16 8 15 9 14 10 13 11 5 12
REMARK SMILES IDX 6 13 7 14 8 15 12 16 10 17 9 18 11 20 20 22 17 24
REMARK H PARENT 9 19 11 21 20 23 17 25
REMARK Flexibility Score: inf
ROOT
ATOM      1  C   UNL     1     -16.842  27.832  15.737  1.00  0.00     0.138 A 
ATOM      2  C   UNL     1     -15.734  27.007  15.481  1.00  0.00     0.100 A 
ATOM      3  C   UNL     1     -14.460  27.571  15.407  1.00  0.00     0.197 A 
ATOM      4  O   UNL     1     -13.472  26.823  15.176  1.00  0.00    -0.289 OA
ATOM      5  C   UNL     1     -14.304  28.960  15.583  1.00  0.00     0.107 A 
ATOM      6  C   UNL     1     -13.049  29.612  15.523  1.00  0.00     0.134 A 
ATOM      7  C   UNL     1     -12.978  31.001  15.706  1.00  0.00     0.093 A 
ATOM      8  C   UNL     1     -14.137  31.749  15.945  1.00  0.00     0.123 A 
ATOM      9  C   UNL     1     -15.377  31.110  16.004  1.00  0.00     0.094 A 
ATOM     10  C   UNL     1     -15.469  29.727  15.827  1.00  0.00     0.146 A 
ATOM     11  O   UNL     1     -16.661  29.142  15.890  1.00  0.00    -0.456 OA
ENDROOT
BRANCH   1  12
ATOM     12  C   UNL     1     -18.220  27.287  15.827  1.00  0.00     0.021 A 
ATOM     13  C   UNL     1     -19.299  28.166  16.028  1.00  0.00     0.016 A 
ATOM     14  C   UNL     1     -20.605  27.678  16.123  1.00  0.00     0.051 A 
ATOM     15  C   UNL     1     -20.854  26.303  16.029  1.00  0.00     0.157 A 
ATOM     16  C   UNL     1     -18.477  25.904  15.746  1.00  0.00     0.062 A 
ATOM     17  C   UNL     1     -19.788  25.415  15.845  1.00  0.00     0.158 A 
BRANCH  15  18
ATOM     18  O   UNL     1     -22.155  25.814  16.123  1.00  0.00    -0.504 OA
ATOM     19  H   UNL     1     -22.353  24.911  16.538  1.00  0.00     0.293 HD
ENDBRANCH  15  18
BRANCH  17  20
ATOM     20  O   UNL     1     -20.039  24.047  15.762  1.00  0.00    -0.504 OA
ATOM     21  H   UNL     1     -19.449  23.431  15.214  1.00  0.00     0.293 HD
ENDBRANCH  17  20
ENDBRANCH   1  12
BRANCH   6  22
ATOM     22  O   UNL     1     -11.877  28.893  15.287  1.00  0.00    -0.507 OA
ATOM     23  H   UNL     1     -11.573  28.151  15.908  1.00  0.00     0.293 HD
ENDBRANCH   6  22
BRANCH   8  24
ATOM     24  O   UNL     1     -14.067  33.129  16.124  1.00  0.00    -0.508 OA
ATOM     25  H   UNL     1     -13.451  33.706  15.563  1.00  0.00     0.293 HD
ENDBRANCH   8  24
TORSDOF 5
ENDMDL
MODEL 9
REMARK VINA RESULT:    -3.393      2.794      7.050
REMARK INTER + INTRA:          -4.298
REMARK INTER:                  -4.027
REMARK INTRA:                  -0.271
REMARK UNBOUND:                -0.309
REMARK SMILES O=c1cc(-c2ccc(O)c(O)c2)oc2cc(O)cc(O)c12
REMARK SMILES IDX 4 1 3 2 2 3 1 4 21 5 19 6 18 7 16 8 15 9 14 10 13 11 5 12
REMARK SMILES IDX 6 13 7 14 8 15 12 16 10 17 9 18 11 20 20 22 17 24
REMARK H PARENT 9 19 11 21 20 23 17 25
REMARK Flexibility Score: inf
ROOT
ATOM      1  C   UNL     1     -16.285  29.865  14.690  1.00  0.00     0.138 A 
ATOM      2  C   UNL     1     -15.457  30.460  15.656  1.00  0.00     0.100 A 
ATOM      3  C   UNL     1     -14.300  31.128  15.251  1.00  0.00     0.197 A 
ATOM      4  O   UNL     1     -13.562  31.658  16.125  1.00  0.00    -0.289 OA
ATOM      5  C   UNL     1     -13.977  31.192  13.881  1.00  0.00     0.107 A 
ATOM      6  C   UNL     1     -12.825  31.848  13.386  1.00  0.00     0.134 A 
ATOM      7  C   UNL     1     -12.573  31.862  12.007  1.00  0.00     0.093 A 
ATOM      8  C   UNL     1     -13.448  31.232  11.115  1.00  0.00     0.123 A 
ATOM      9  C   UNL     1     -14.586  30.583  11.599  1.00  0.00     0.094 A 
ATOM     10  C   UNL     1     -14.857  30.559  12.969  1.00  0.00     0.146 A 
ATOM     11  O   UNL     1     -15.947  29.935  13.404  1.00  0.00    -0.456 OA
ENDROOT
BRANCH   1  12
ATOM     12  C   UNL     1     -17.528  29.142  15.062  1.00  0.00     0.021 A 
ATOM     13  C   UNL     1     -17.436  27.919  15.750  1.00  0.00     0.016 A 
ATOM     14  C   UNL     1     -18.590  27.216  16.106  1.00  0.00     0.051 A 
ATOM     15  C   UNL     1     -19.853  27.717  15.771  1.00  0.00     0.157 A 
ATOM     16  C   UNL     1     -18.803  29.633  14.717  1.00  0.00     0.062 A 
ATOM     17  C   UNL     1     -19.960  28.925  15.072  1.00  0.00     0.158 A 
BRANCH  15  18
ATOM     18  O   UNL     1     -21.006  27.018  16.125  1.00  0.00    -0.504 OA
ATOM     19  H   UNL     1     -20.959  26.115  16.583  1.00  0.00     0.293 HD
ENDBRANCH  15  18
BRANCH  17  20
ATOM     20  O   UNL     1     -21.219  29.415  14.732  1.00  0.00    -0.504 OA
ATOM     21  H   UNL     1     -21.672  30.139  15.278  1.00  0.00     0.293 HD
ENDBRANCH  17  20
ENDBRANCH   1  12
BRANCH   6  22
ATOM     22  O   UNL     1     -11.935  32.485  14.252  1.00  0.00    -0.507 OA
ATOM     23  H   UNL     1     -11.132  32.003  14.639  1.00  0.00     0.293 HD
ENDBRANCH   6  22
BRANCH   8  24
ATOM     24  O   UNL     1     -13.196  31.245   9.745  1.00  0.00    -0.508 OA
ATOM     25  H   UNL     1     -12.730  32.027   9.299  1.00  0.00     0.293 HD
ENDBRANCH   8  24
TORSDOF 5
ENDMDL
