MODEL 1
REMARK VINA RESULT:    -4.825      0.000      0.000
REMARK INTER + INTRA:          -6.165
REMARK INTER:                  -5.812
REMARK INTRA:                  -0.353
REMARK UNBOUND:                -0.353
REMARK SMILES Oc1cc(O)c2cc(O)c(-c3ccc(O)c(O)c3)[o+]c2c1
REMARK SMILES IDX 10 1 19 2 20 3 21 4 2 5 3 6 4 7 6 8 7 9 8 10 11 11 12 12
REMARK SMILES IDX 13 13 14 14 18 15 16 16 15 17 17 19 9 21 1 23 5 25
REMARK H PARENT 15 18 17 20 9 22 1 24 5 26
REMARK Flexibility Score: inf
ROOT
ATOM      1  C   UNL     1      36.562  10.262  22.325  1.00  0.00     0.402 A 
ATOM      2  O   UNL     1      37.205   9.392  23.101  1.00  0.00    -0.202 OA
ATOM      3  C   UNL     1      38.531   9.303  23.149  1.00  0.00     0.368 A 
ATOM      4  C   UNL     1      39.130   8.358  23.989  1.00  0.00     0.162 A 
ATOM      5  C   UNL     1      40.522   8.250  24.047  1.00  0.00     0.128 A 
ATOM      6  C   UNL     1      41.323   9.092  23.262  1.00  0.00     0.093 A 
ATOM      7  C   UNL     1      40.735  10.045  22.417  1.00  0.00     0.136 A 
ATOM      8  C   UNL     1      39.333  10.153  22.359  1.00  0.00     0.125 A 
ATOM      9  C   UNL     1      38.693  11.089  21.540  1.00  0.00     0.078 A 
ATOM     10  C   UNL     1      37.297  11.160  21.524  1.00  0.00     0.223 A 
ENDROOT
BRANCH   1  11
ATOM     11  C   UNL     1      35.081  10.261  22.349  1.00  0.00     0.087 A 
ATOM     12  C   UNL     1      34.406  11.047  23.296  1.00  0.00     0.022 A 
ATOM     13  C   UNL     1      33.010  11.048  23.351  1.00  0.00     0.051 A 
ATOM     14  C   UNL     1      32.269  10.249  22.470  1.00  0.00     0.157 A 
ATOM     15  C   UNL     1      34.334   9.446  21.480  1.00  0.00     0.068 A 
ATOM     16  C   UNL     1      32.934   9.441  21.534  1.00  0.00     0.158 A 
BRANCH  14  17
ATOM     17  O   UNL     1      30.875  10.253  22.526  1.00  0.00    -0.504 OA
ATOM     18  H   UNL     1      30.355  11.094  22.744  1.00  0.00     0.293 HD
ENDBRANCH  14  17
BRANCH  16  19
ATOM     19  O   UNL     1      32.225   8.625  20.653  1.00  0.00    -0.504 OA
ATOM     20  H   UNL     1      32.626   8.296  19.784  1.00  0.00     0.293 HD
ENDBRANCH  16  19
ENDBRANCH   1  11
BRANCH  10  21
ATOM     21  O   UNL     1      36.654  12.125  20.749  1.00  0.00    -0.500 OA
ATOM     22  H   UNL     1      36.194  12.925  21.169  1.00  0.00     0.294 HD
ENDBRANCH  10  21
BRANCH   5  23
ATOM     23  O   UNL     1      41.102   7.303  24.889  1.00  0.00    -0.507 OA
ATOM     24  H   UNL     1      40.959   7.327  25.891  1.00  0.00     0.293 HD
ENDBRANCH   5  23
BRANCH   7  25
ATOM     25  O   UNL     1      41.542  10.879  21.641  1.00  0.00    -0.507 OA
ATOM     26  H   UNL     1      41.626  10.755  20.639  1.00  0.00     0.293 HD
ENDBRANCH   7  25
TORSDOF 6
ENDMDL
MODEL 2
REMARK VINA RESULT:    -4.780      5.010      8.167
REMARK INTER + INTRA:          -6.112
REMARK INTER:                  -5.794
REMARK INTRA:                  -0.318
REMARK UNBOUND:                -0.353
REMARK SMILES Oc1cc(O)c2cc(O)c(-c3ccc(O)c(O)c3)[o+]c2c1
REMARK SMILES IDX 10 1 19 2 20 3 21 4 2 5 3 6 4 7 6 8 7 9 8 10 11 11 12 12
REMARK SMILES IDX 13 13 14 14 18 15 16 16 15 17 17 19 9 21 1 23 5 25
REMARK H PARENT 15 18 17 20 9 22 1 24 5 26
REMARK Flexibility Score: inf
ROOT
ATOM      1  C   UNL     1      31.749   6.536  20.583  1.00  0.00     0.402 A 
ATOM      2  O   UNL     1      32.045   5.402  21.215  1.00  0.00    -0.202 OA
ATOM      3  C   UNL     1      31.922   4.203  20.654  1.00  0.00     0.368 A 
ATOM      4  C   UNL     1      32.250   3.058  21.389  1.00  0.00     0.162 A 
ATOM      5  C   UNL     1      32.122   1.791  20.813  1.00  0.00     0.128 A 
ATOM      6  C   UNL     1      31.665   1.665  19.494  1.00  0.00     0.093 A 
ATOM      7  C   UNL     1      31.333   2.804  18.745  1.00  0.00     0.136 A 
ATOM      8  C   UNL     1      31.462   4.080  19.326  1.00  0.00     0.125 A 
ATOM      9  C   UNL     1      31.154   5.250  18.624  1.00  0.00     0.078 A 
ATOM     10  C   UNL     1      31.305   6.494  19.245  1.00  0.00     0.223 A 
ENDROOT
BRANCH   1  11
ATOM     11  C   UNL     1      31.917   7.811  21.316  1.00  0.00     0.087 A 
ATOM     12  C   UNL     1      30.903   8.248  22.183  1.00  0.00     0.022 A 
ATOM     13  C   UNL     1      31.030   9.457  22.870  1.00  0.00     0.051 A 
ATOM     14  C   UNL     1      32.167  10.256  22.689  1.00  0.00     0.157 A 
ATOM     15  C   UNL     1      33.048   8.625  21.122  1.00  0.00     0.068 A 
ATOM     16  C   UNL     1      33.177   9.839  21.807  1.00  0.00     0.158 A 
BRANCH  14  17
ATOM     17  O   UNL     1      32.293  11.462  23.378  1.00  0.00    -0.504 OA
ATOM     18  H   UNL     1      32.487  11.487  24.372  1.00  0.00     0.293 HD
ENDBRANCH  14  17
BRANCH  16  19
ATOM     19  O   UNL     1      34.314  10.619  21.595  1.00  0.00    -0.504 OA
ATOM     20  H   UNL     1      34.313  11.621  21.734  1.00  0.00     0.293 HD
ENDBRANCH  16  19
ENDBRANCH   1  11
BRANCH  10  21
ATOM     21  O   UNL     1      31.048   7.666  18.535  1.00  0.00    -0.500 OA
ATOM     22  H   UNL     1      30.182   8.180  18.652  1.00  0.00     0.294 HD
ENDBRANCH  10  21
BRANCH   5  23
ATOM     23  O   UNL     1      32.453   0.662  21.560  1.00  0.00    -0.507 OA
ATOM     24  H   UNL     1      31.740   0.053  21.943  1.00  0.00     0.293 HD
ENDBRANCH   5  23
BRANCH   7  25
ATOM     25  O   UNL     1      30.880   2.667  17.432  1.00  0.00    -0.507 OA
ATOM     26  H   UNL     1      31.242   3.244  16.682  1.00  0.00     0.293 HD
ENDBRANCH   7  25
TORSDOF 6
ENDMDL
MODEL 3
REMARK VINA RESULT:    -4.575      4.265      7.304
REMARK INTER + INTRA:          -5.864
REMARK INTER:                  -5.512
REMARK INTRA:                  -0.352
REMARK UNBOUND:                -0.353
REMARK SMILES Oc1cc(O)c2cc(O)c(-c3ccc(O)c(O)c3)[o+]c2c1
REMARK SMILES IDX 10 1 19 2 20 3 21 4 2 5 3 6 4 7 6 8 7 9 8 10 11 11 12 12
REMARK SMILES IDX 13 13 14 14 18 15 16 16 15 17 17 19 9 21 1 23 5 25
REMARK H PARENT 15 18 17 20 9 22 1 24 5 26
REMARK Flexibility Score: inf
ROOT
ATOM      1  C   UNL     1      32.942   6.480  20.521  1.00  0.00     0.402 A 
ATOM      2  O   UNL     1      32.118   7.298  21.172  1.00  0.00    -0.202 OA
ATOM      3  C   UNL     1      32.463   8.523  21.556  1.00  0.00     0.368 A 
ATOM      4  C   UNL     1      31.539   9.319  22.241  1.00  0.00     0.162 A 
ATOM      5  C   UNL     1      31.889  10.607  22.654  1.00  0.00     0.128 A 
ATOM      6  C   UNL     1      33.170  11.106  22.380  1.00  0.00     0.093 A 
ATOM      7  C   UNL     1      34.106  10.319  21.693  1.00  0.00     0.136 A 
ATOM      8  C   UNL     1      33.753   9.022  21.278  1.00  0.00     0.125 A 
ATOM      9  C   UNL     1      34.643   8.196  20.582  1.00  0.00     0.078 A 
ATOM     10  C   UNL     1      34.240   6.917  20.186  1.00  0.00     0.223 A 
ENDROOT
BRANCH   1  11
ATOM     11  C   UNL     1      32.447   5.133  20.154  1.00  0.00     0.087 A 
ATOM     12  C   UNL     1      31.785   4.951  18.929  1.00  0.00     0.022 A 
ATOM     13  C   UNL     1      31.292   3.695  18.570  1.00  0.00     0.051 A 
ATOM     14  C   UNL     1      31.440   2.604  19.437  1.00  0.00     0.157 A 
ATOM     15  C   UNL     1      32.575   4.040  21.030  1.00  0.00     0.068 A 
ATOM     16  C   UNL     1      32.080   2.780  20.675  1.00  0.00     0.158 A 
BRANCH  14  17
ATOM     17  O   UNL     1      30.948   1.350  19.075  1.00  0.00    -0.504 OA
ATOM     18  H   UNL     1      31.197   0.917  18.193  1.00  0.00     0.293 HD
ENDBRANCH  14  17
BRANCH  16  19
ATOM     19  O   UNL     1      32.229   1.718  21.566  1.00  0.00    -0.504 OA
ATOM     20  H   UNL     1      31.472   1.402  22.159  1.00  0.00     0.293 HD
ENDBRANCH  16  19
ENDBRANCH   1  11
BRANCH  10  21
ATOM     21  O   UNL     1      35.104   6.108  19.449  1.00  0.00    -0.500 OA
ATOM     22  H   UNL     1      34.769   5.299  18.938  1.00  0.00     0.294 HD
ENDBRANCH  10  21
BRANCH   5  23
ATOM     23  O   UNL     1      30.956  11.386  23.337  1.00  0.00    -0.507 OA
ATOM     24  H   UNL     1      30.514  12.186  22.900  1.00  0.00     0.293 HD
ENDBRANCH   5  23
BRANCH   7  25
ATOM     25  O   UNL     1      35.379  10.826  21.424  1.00  0.00    -0.507 OA
ATOM     26  H   UNL     1      35.640  11.770  21.684  1.00  0.00     0.293 HD
ENDBRANCH   7  25
TORSDOF 6
ENDMDL
MODEL 4
REMARK VINA RESULT:    -4.472      3.943      7.222
REMARK INTER + INTRA:          -5.740
REMARK INTER:                  -5.531
REMARK INTRA:                  -0.209
REMARK UNBOUND:                -0.353
REMARK SMILES Oc1cc(O)c2cc(O)c(-c3ccc(O)c(O)c3)[o+]c2c1
REMARK SMILES IDX 10 1 19 2 20 3 21 4 2 5 3 6 4 7 6 8 7 9 8 10 11 11 12 12
REMARK SMILES IDX 13 13 14 14 18 15 16 16 15 17 17 19 9 21 1 23 5 25
REMARK H PARENT 15 18 17 20 9 22 1 24 5 26
REMARK Flexibility Score: inf
ROOT
ATOM      1  C   UNL     1      33.204   7.076  20.663  1.00  0.00     0.402 A 
ATOM      2  O   UNL     1      34.121   7.985  20.989  1.00  0.00    -0.202 OA
ATOM      3  C   UNL     1      33.828   9.125  21.605  1.00  0.00     0.368 A 
ATOM      4  C   UNL     1      34.850  10.030  21.909  1.00  0.00     0.162 A 
ATOM      5  C   UNL     1      34.556  11.235  22.554  1.00  0.00     0.128 A 
ATOM      6  C   UNL     1      33.232  11.537  22.901  1.00  0.00     0.093 A 
ATOM      7  C   UNL     1      32.197  10.639  22.604  1.00  0.00     0.136 A 
ATOM      8  C   UNL     1      32.494   9.426  21.954  1.00  0.00     0.125 A 
ATOM      9  C   UNL     1      31.503   8.489  21.640  1.00  0.00     0.078 A 
ATOM     10  C   UNL     1      31.852   7.296  20.999  1.00  0.00     0.223 A 
ENDROOT
BRANCH   1  11
ATOM     11  C   UNL     1      33.651   5.847  19.967  1.00  0.00     0.087 A 
ATOM     12  C   UNL     1      33.210   5.596  18.659  1.00  0.00     0.022 A 
ATOM     13  C   UNL     1      33.602   4.435  17.989  1.00  0.00     0.051 A 
ATOM     14  C   UNL     1      34.430   3.499  18.624  1.00  0.00     0.157 A 
ATOM     15  C   UNL     1      34.466   4.897  20.608  1.00  0.00     0.068 A 
ATOM     16  C   UNL     1      34.859   3.730  19.942  1.00  0.00     0.158 A 
BRANCH  14  17
ATOM     17  O   UNL     1      34.822   2.341  17.954  1.00  0.00    -0.504 OA
ATOM     18  H   UNL     1      35.305   1.589  18.432  1.00  0.00     0.293 HD
ENDBRANCH  14  17
BRANCH  16  19
ATOM     19  O   UNL     1      35.671   2.811  20.606  1.00  0.00    -0.504 OA
ATOM     20  H   UNL     1      35.444   2.460  21.528  1.00  0.00     0.293 HD
ENDBRANCH  16  19
ENDBRANCH   1  11
BRANCH  10  21
ATOM     21  O   UNL     1      30.878   6.336  20.729  1.00  0.00    -0.500 OA
ATOM     22  H   UNL     1      29.917   6.594  20.535  1.00  0.00     0.294 HD
ENDBRANCH  10  21
BRANCH   5  23
ATOM     23  O   UNL     1      35.588  12.125  22.848  1.00  0.00    -0.507 OA
ATOM     24  H   UNL     1      36.382  12.238  22.229  1.00  0.00     0.293 HD
ENDBRANCH   5  23
BRANCH   7  25
ATOM     25  O   UNL     1      30.882  10.950  22.954  1.00  0.00    -0.507 OA
ATOM     26  H   UNL     1      30.496  11.874  22.802  1.00  0.00     0.293 HD
ENDBRANCH   7  25
TORSDOF 6
ENDMDL
MODEL 5
REMARK VINA RESULT:    -4.356      1.521      7.010
REMARK INTER + INTRA:          -5.600
REMARK INTER:                  -5.290
REMARK INTRA:                  -0.311
REMARK UNBOUND:                -0.353
REMARK SMILES Oc1cc(O)c2cc(O)c(-c3ccc(O)c(O)c3)[o+]c2c1
REMARK SMILES IDX 10 1 19 2 20 3 21 4 2 5 3 6 4 7 6 8 7 9 8 10 11 11 12 12
REMARK SMILES IDX 13 13 14 14 18 15 16 16 15 17 17 19 9 21 1 23 5 25
REMARK H PARENT 15 18 17 20 9 22 1 24 5 26
REMARK Flexibility Score: inf
ROOT
ATOM      1  C   UNL     1      36.775  10.244  21.791  1.00  0.00     0.402 A 
ATOM      2  O   UNL     1      35.814  10.771  22.547  1.00  0.00    -0.202 OA
ATOM      3  C   UNL     1      34.539  10.407  22.459  1.00  0.00     0.368 A 
ATOM      4  C   UNL     1      33.588  11.014  23.288  1.00  0.00     0.162 A 
ATOM      5  C   UNL     1      32.243  10.644  23.204  1.00  0.00     0.128 A 
ATOM      6  C   UNL     1      31.843   9.661  22.288  1.00  0.00     0.093 A 
ATOM      7  C   UNL     1      32.785   9.044  21.452  1.00  0.00     0.136 A 
ATOM      8  C   UNL     1      34.140   9.417  21.536  1.00  0.00     0.125 A 
ATOM      9  C   UNL     1      35.124   8.830  20.734  1.00  0.00     0.078 A 
ATOM     10  C   UNL     1      36.457   9.232  20.862  1.00  0.00     0.223 A 
ENDROOT
BRANCH   1  11
ATOM     11  C   UNL     1      38.160  10.737  21.973  1.00  0.00     0.087 A 
ATOM     12  C   UNL     1      38.709  11.617  21.026  1.00  0.00     0.022 A 
ATOM     13  C   UNL     1      40.018  12.080  21.165  1.00  0.00     0.051 A 
ATOM     14  C   UNL     1      40.805  11.659  22.246  1.00  0.00     0.157 A 
ATOM     15  C   UNL     1      38.959  10.301  23.045  1.00  0.00     0.068 A 
ATOM     16  C   UNL     1      40.274  10.762  23.186  1.00  0.00     0.158 A 
BRANCH  14  17
ATOM     17  O   UNL     1      42.112  12.125  22.385  1.00  0.00    -0.504 OA
ATOM     18  H   UNL     1      42.308  13.076  22.674  1.00  0.00     0.293 HD
ENDBRANCH  14  17
BRANCH  16  19
ATOM     19  O   UNL     1      41.036  10.313  24.265  1.00  0.00    -0.504 OA
ATOM     20  H   UNL     1      40.620   9.836  25.056  1.00  0.00     0.293 HD
ENDBRANCH  16  19
ENDBRANCH   1  11
BRANCH  10  21
ATOM     21  O   UNL     1      37.450   8.615  20.101  1.00  0.00    -0.500 OA
ATOM     22  H   UNL     1      37.628   7.619  20.166  1.00  0.00     0.294 HD
ENDBRANCH  10  21
BRANCH   5  23
ATOM     23  O   UNL     1      31.309  11.259  24.036  1.00  0.00    -0.507 OA
ATOM     24  H   UNL     1      31.370  11.185  25.045  1.00  0.00     0.293 HD
ENDBRANCH   5  23
BRANCH   7  25
ATOM     25  O   UNL     1      32.376   8.066  20.544  1.00  0.00    -0.507 OA
ATOM     26  H   UNL     1      31.448   8.074  20.137  1.00  0.00     0.293 HD
ENDBRANCH   7  25
TORSDOF 6
ENDMDL
MODEL 6
REMARK VINA RESULT:    -4.342      1.969      2.618
REMARK INTER + INTRA:          -5.584
REMARK INTER:                  -5.272
REMARK INTRA:                  -0.312
REMARK UNBOUND:                -0.353
REMARK SMILES Oc1cc(O)c2cc(O)c(-c3ccc(O)c(O)c3)[o+]c2c1
REMARK SMILES IDX 10 1 19 2 20 3 21 4 2 5 3 6 4 7 6 8 7 9 8 10 11 11 12 12
REMARK SMILES IDX 13 13 14 14 18 15 16 16 15 17 17 19 9 21 1 23 5 25
REMARK H PARENT 15 18 17 20 9 22 1 24 5 26
REMARK Flexibility Score: inf
ROOT
ATOM      1  C   UNL     1      36.585   9.768  22.304  1.00  0.00     0.402 A 
ATOM      2  O   UNL     1      36.612   8.450  22.493  1.00  0.00    -0.202 OA
ATOM      3  C   UNL     1      37.648   7.814  23.031  1.00  0.00     0.368 A 
ATOM      4  C   UNL     1      37.599   6.425  23.191  1.00  0.00     0.162 A 
ATOM      5  C   UNL     1      38.682   5.742  23.753  1.00  0.00     0.128 A 
ATOM      6  C   UNL     1      39.821   6.451  24.159  1.00  0.00     0.093 A 
ATOM      7  C   UNL     1      39.883   7.844  24.005  1.00  0.00     0.136 A 
ATOM      8  C   UNL     1      38.793   8.530  23.440  1.00  0.00     0.125 A 
ATOM      9  C   UNL     1      38.796   9.919  23.270  1.00  0.00     0.078 A 
ATOM     10  C   UNL     1      37.684  10.554  22.708  1.00  0.00     0.223 A 
ENDROOT
BRANCH   1  11
ATOM     11  C   UNL     1      35.379  10.362  21.684  1.00  0.00     0.087 A 
ATOM     12  C   UNL     1      35.416  10.753  20.337  1.00  0.00     0.022 A 
ATOM     13  C   UNL     1      34.297  11.334  19.736  1.00  0.00     0.051 A 
ATOM     14  C   UNL     1      33.128  11.547  20.478  1.00  0.00     0.157 A 
ATOM     15  C   UNL     1      34.210  10.596  22.431  1.00  0.00     0.068 A 
ATOM     16  C   UNL     1      33.087  11.180  21.833  1.00  0.00     0.158 A 
BRANCH  14  17
ATOM     17  O   UNL     1      32.011  12.125  19.875  1.00  0.00    -0.504 OA
ATOM     18  H   UNL     1      31.432  12.796  20.366  1.00  0.00     0.293 HD
ENDBRANCH  14  17
BRANCH  16  19
ATOM     19  O   UNL     1      31.943  11.392  22.602  1.00  0.00    -0.504 OA
ATOM     20  H   UNL     1      31.034  11.545  22.184  1.00  0.00     0.293 HD
ENDBRANCH  16  19
ENDBRANCH   1  11
BRANCH  10  21
ATOM     21  O   UNL     1      37.660  11.943  22.583  1.00  0.00    -0.500 OA
ATOM     22  H   UNL     1      38.506  12.497  22.650  1.00  0.00     0.294 HD
ENDBRANCH  10  21
BRANCH   5  23
ATOM     23  O   UNL     1      38.616   4.358  23.904  1.00  0.00    -0.507 OA
ATOM     24  H   UNL     1      39.430   3.815  24.165  1.00  0.00     0.293 HD
ENDBRANCH   5  23
BRANCH   7  25
ATOM     25  O   UNL     1      41.022   8.540  24.414  1.00  0.00    -0.507 OA
ATOM     26  H   UNL     1      41.826   8.061  24.802  1.00  0.00     0.293 HD
ENDBRANCH   7  25
TORSDOF 6
ENDMDL
MODEL 7
REMARK VINA RESULT:    -4.203      1.846      3.454
REMARK INTER + INTRA:          -5.416
REMARK INTER:                  -5.116
REMARK INTRA:                  -0.300
REMARK UNBOUND:                -0.353
REMARK SMILES Oc1cc(O)c2cc(O)c(-c3ccc(O)c(O)c3)[o+]c2c1
REMARK SMILES IDX 10 1 19 2 20 3 21 4 2 5 3 6 4 7 6 8 7 9 8 10 11 11 12 12
REMARK SMILES IDX 13 13 14 14 18 15 16 16 15 17 17 19 9 21 1 23 5 25
REMARK H PARENT 15 18 17 20 9 22 1 24 5 26
REMARK Flexibility Score: inf
ROOT
ATOM      1  C   UNL     1      36.400  10.492  21.485  1.00  0.00     0.402 A 
ATOM      2  O   UNL     1      36.759  10.940  20.284  1.00  0.00    -0.202 OA
ATOM      3  C   UNL     1      38.025  11.039  19.893  1.00  0.00     0.368 A 
ATOM      4  C   UNL     1      38.320  11.524  18.615  1.00  0.00     0.162 A 
ATOM      5  C   UNL     1      39.647  11.637  18.192  1.00  0.00     0.128 A 
ATOM      6  C   UNL     1      40.689  11.260  19.051  1.00  0.00     0.093 A 
ATOM      7  C   UNL     1      40.409  10.770  20.335  1.00  0.00     0.136 A 
ATOM      8  C   UNL     1      39.072  10.658  20.760  1.00  0.00     0.125 A 
ATOM      9  C   UNL     1      38.734  10.169  22.026  1.00  0.00     0.078 A 
ATOM     10  C   UNL     1      37.389  10.071  22.398  1.00  0.00     0.223 A 
ENDROOT
BRANCH   1  11
ATOM     11  C   UNL     1      34.956  10.437  21.810  1.00  0.00     0.087 A 
ATOM     12  C   UNL     1      34.407  11.396  22.676  1.00  0.00     0.022 A 
ATOM     13  C   UNL     1      33.052  11.354  23.012  1.00  0.00     0.051 A 
ATOM     14  C   UNL     1      32.229  10.342  22.500  1.00  0.00     0.157 A 
ATOM     15  C   UNL     1      34.131   9.412  21.314  1.00  0.00     0.068 A 
ATOM     16  C   UNL     1      32.773   9.364  21.652  1.00  0.00     0.158 A 
BRANCH  14  17
ATOM     17  O   UNL     1      30.876  10.303  22.836  1.00  0.00    -0.504 OA
ATOM     18  H   UNL     1      30.396   9.426  23.003  1.00  0.00     0.293 HD
ENDBRANCH  14  17
BRANCH  16  19
ATOM     19  O   UNL     1      31.983   8.337  21.137  1.00  0.00    -0.504 OA
ATOM     20  H   UNL     1      31.232   8.512  20.481  1.00  0.00     0.293 HD
ENDBRANCH  16  19
ENDBRANCH   1  11
BRANCH  10  21
ATOM     21  O   UNL     1      37.043   9.537  23.639  1.00  0.00    -0.500 OA
ATOM     22  H   UNL     1      36.970   8.536  23.785  1.00  0.00     0.294 HD
ENDBRANCH  10  21
BRANCH   5  23
ATOM     23  O   UNL     1      39.921  12.123  16.915  1.00  0.00    -0.507 OA
ATOM     24  H   UNL     1      40.253  13.069  16.769  1.00  0.00     0.293 HD
ENDBRANCH   5  23
BRANCH   7  25
ATOM     25  O   UNL     1      41.455  10.397  21.181  1.00  0.00    -0.507 OA
ATOM     26  H   UNL     1      41.281  10.038  22.112  1.00  0.00     0.293 HD
ENDBRANCH   7  25
TORSDOF 6
ENDMDL
MODEL 8
REMARK VINA RESULT:    -4.087      1.743      7.020
REMARK INTER + INTRA:          -5.276
REMARK INTER:                  -4.995
REMARK INTRA:                  -0.281
REMARK UNBOUND:                -0.353
REMARK SMILES Oc1cc(O)c2cc(O)c(-c3ccc(O)c(O)c3)[o+]c2c1
REMARK SMILES IDX 10 1 19 2 20 3 21 4 2 5 3 6 4 7 6 8 7 9 8 10 11 11 12 12
REMARK SMILES IDX 13 13 14 14 18 15 16 16 15 17 17 19 9 21 1 23 5 25
REMARK H PARENT 15 18 17 20 9 22 1 24 5 26
REMARK Flexibility Score: inf
ROOT
ATOM      1  C   UNL     1      35.821  10.203  21.955  1.00  0.00     0.402 A 
ATOM      2  O   UNL     1      35.328   9.161  21.287  1.00  0.00    -0.202 OA
ATOM      3  C   UNL     1      34.052   8.797  21.348  1.00  0.00     0.368 A 
ATOM      4  C   UNL     1      33.614   7.686  20.619  1.00  0.00     0.162 A 
ATOM      5  C   UNL     1      32.275   7.289  20.675  1.00  0.00     0.128 A 
ATOM      6  C   UNL     1      31.365   8.008  21.464  1.00  0.00     0.093 A 
ATOM      7  C   UNL     1      31.790   9.124  22.199  1.00  0.00     0.136 A 
ATOM      8  C   UNL     1      33.138   9.523  22.142  1.00  0.00     0.125 A 
ATOM      9  C   UNL     1      33.616  10.633  22.847  1.00  0.00     0.078 A 
ATOM     10  C   UNL     1      34.964  10.990  22.751  1.00  0.00     0.223 A 
ENDROOT
BRANCH   1  11
ATOM     11  C   UNL     1      37.264  10.504  21.816  1.00  0.00     0.087 A 
ATOM     12  C   UNL     1      37.758  10.963  20.585  1.00  0.00     0.022 A 
ATOM     13  C   UNL     1      39.119  11.235  20.424  1.00  0.00     0.051 A 
ATOM     14  C   UNL     1      40.009  11.039  21.489  1.00  0.00     0.157 A 
ATOM     15  C   UNL     1      38.164  10.290  22.876  1.00  0.00     0.068 A 
ATOM     16  C   UNL     1      39.529  10.559  22.718  1.00  0.00     0.158 A 
BRANCH  14  17
ATOM     17  O   UNL     1      41.366  11.314  21.327  1.00  0.00    -0.504 OA
ATOM     18  H   UNL     1      41.723  12.261  21.361  1.00  0.00     0.293 HD
ENDBRANCH  14  17
BRANCH  16  19
ATOM     19  O   UNL     1      40.391  10.340  23.792  1.00  0.00    -0.504 OA
ATOM     20  H   UNL     1      40.743   9.419  24.020  1.00  0.00     0.293 HD
ENDBRANCH  16  19
ENDBRANCH   1  11
BRANCH  10  21
ATOM     21  O   UNL     1      35.436  12.125  23.410  1.00  0.00    -0.500 OA
ATOM     22  H   UNL     1      36.427  12.333  23.467  1.00  0.00     0.294 HD
ENDBRANCH  10  21
BRANCH   5  23
ATOM     23  O   UNL     1      31.857   6.179  19.943  1.00  0.00    -0.507 OA
ATOM     24  H   UNL     1      31.095   6.240  19.278  1.00  0.00     0.293 HD
ENDBRANCH   5  23
BRANCH   7  25
ATOM     25  O   UNL     1      30.875   9.833  22.979  1.00  0.00    -0.507 OA
ATOM     26  H   UNL     1      30.987  10.823  23.161  1.00  0.00     0.293 HD
ENDBRANCH   7  25
TORSDOF 6
ENDMDL
