MODEL 1
REMARK VINA RESULT:     0.000      0.000      0.000
REMARK INTER + INTRA:          -0.436
REMARK INTER:                   0.000
REMARK INTRA:                  -0.436
REMARK UNBOUND:                -0.436
REMARK SMILES CCCCCCCO
REMARK SMILES IDX 5 1 4 2 3 3 2 4 1 5 6 6 7 7 8 8
REMARK H PARENT 8 9
REMARK Flexibility Score: inf
ROOT
ATOM      1  C   UNL     1     231.842 234.225 239.169  1.00  0.00     0.002 C 
ENDROOT
BRANCH   1   2
ATOM      2  C   UNL     1     231.369 232.796 238.860  1.00  0.00     0.000 C 
BRANCH   2   3
ATOM      3  C   UNL     1     231.882 232.285 237.502  1.00  0.00    -0.000 C 
BRANCH   3   4
ATOM      4  C   UNL     1     230.862 232.492 236.372  1.00  0.00    -0.003 C 
ATOM      5  C   UNL     1     229.417 232.478 236.871  1.00  0.00     0.004 C 
ENDBRANCH   3   4
ENDBRANCH   2   3
ENDBRANCH   1   2
BRANCH   1   6
ATOM      6  C   UNL     1     230.686 235.238 239.187  1.00  0.00     0.028 C 
BRANCH   6   7
ATOM      7  C   UNL     1     230.550 235.966 237.846  1.00  0.00     0.156 C 
BRANCH   7   8
ATOM      8  O   UNL     1     231.742 235.892 237.111  1.00  0.00    -0.396 OA
ATOM      9  H   UNL     1     231.536 236.231 236.200  1.00  0.00     0.210 HD
ENDBRANCH   7   8
ENDBRANCH   6   7
ENDBRANCH   1   6
TORSDOF 6
ENDMDL
MODEL 2
REMARK VINA RESULT:     0.000      5.236      6.374
REMARK INTER + INTRA:          -0.436
REMARK INTER:                   0.000
REMARK INTRA:                  -0.436
REMARK UNBOUND:                -0.436
REMARK SMILES CCCCCCCO
REMARK SMILES IDX 5 1 4 2 3 3 2 4 1 5 6 6 7 7 8 8
REMARK H PARENT 8 9
REMARK Flexibility Score: inf
ROOT
ATOM      1  C   UNL     1     233.160 231.130 241.702  1.00  0.00     0.002 C 
ENDROOT
BRANCH   1   2
ATOM      2  C   UNL     1     232.584 232.530 241.434  1.00  0.00     0.000 C 
BRANCH   2   3
ATOM      3  C   UNL     1     232.649 233.442 242.672  1.00  0.00    -0.000 C 
BRANCH   3   4
ATOM      4  C   UNL     1     231.339 233.439 243.474  1.00  0.00    -0.003 C 
ATOM      5  C   UNL     1     230.114 233.161 242.604  1.00  0.00     0.004 C 
ENDBRANCH   3   4
ENDBRANCH   2   3
ENDBRANCH   1   2
BRANCH   1   6
ATOM      6  C   UNL     1     232.087 230.031 241.651  1.00  0.00     0.028 C 
BRANCH   6   7
ATOM      7  C   UNL     1     231.566 229.683 243.050  1.00  0.00     0.156 C 
BRANCH   7   8
ATOM      8  O   UNL     1     232.477 230.083 244.039  1.00  0.00    -0.396 OA
ATOM      9  H   UNL     1     232.392 231.068 244.122  1.00  0.00     0.210 HD
ENDBRANCH   7   8
ENDBRANCH   6   7
ENDBRANCH   1   6
TORSDOF 6
ENDMDL
MODEL 3
REMARK VINA RESULT:     0.000      7.197      8.068
REMARK INTER + INTRA:          -0.436
REMARK INTER:                   0.000
REMARK INTRA:                  -0.436
REMARK UNBOUND:                -0.436
REMARK SMILES CCCCCCCO
REMARK SMILES IDX 5 1 4 2 3 3 2 4 1 5 6 6 7 7 8 8
REMARK H PARENT 8 9
REMARK Flexibility Score: inf
ROOT
ATOM      1  C   UNL     1     235.895 230.252 243.288  1.00  0.00     0.002 C 
ENDROOT
BRANCH   1   2
ATOM      2  C   UNL     1     236.825 229.961 242.100  1.00  0.00     0.000 C 
BRANCH   2   3
ATOM      3  C   UNL     1     238.250 230.498 242.320  1.00  0.00    -0.000 C 
BRANCH   3   4
ATOM      4  C   UNL     1     238.459 231.885 241.692  1.00  0.00    -0.003 C 
ATOM      5  C   UNL     1     237.568 232.122 240.473  1.00  0.00     0.004 C 
ENDBRANCH   3   4
ENDBRANCH   2   3
ENDBRANCH   1   2
BRANCH   1   6
ATOM      6  C   UNL     1     234.776 231.246 242.931  1.00  0.00     0.028 C 
BRANCH   6   7
ATOM      7  C   UNL     1     235.141 232.678 243.337  1.00  0.00     0.156 C 
BRANCH   7   8
ATOM      8  O   UNL     1     236.145 232.682 244.317  1.00  0.00    -0.396 OA
ATOM      9  H   UNL     1     235.691 232.832 245.187  1.00  0.00     0.210 HD
ENDBRANCH   7   8
ENDBRANCH   6   7
ENDBRANCH   1   6
TORSDOF 6
ENDMDL
MODEL 4
REMARK VINA RESULT:     0.000      8.023      8.704
REMARK INTER + INTRA:          -0.436
REMARK INTER:                   0.000
REMARK INTRA:                  -0.436
REMARK UNBOUND:                -0.436
REMARK SMILES CCCCCCCO
REMARK SMILES IDX 5 1 4 2 3 3 2 4 1 5 6 6 7 7 8 8
REMARK H PARENT 8 9
REMARK Flexibility Score: inf
ROOT
ATOM      1  C   UNL     1     230.642 226.975 241.705  1.00  0.00     0.002 C 
ENDROOT
BRANCH   1   2
ATOM      2  C   UNL     1     230.276 227.068 240.216  1.00  0.00     0.000 C 
BRANCH   2   3
ATOM      3  C   UNL     1     229.901 225.703 239.613  1.00  0.00    -0.000 C 
BRANCH   3   4
ATOM      4  C   UNL     1     231.088 225.019 238.919  1.00  0.00    -0.003 C 
ATOM      5  C   UNL     1     232.103 226.018 238.363  1.00  0.00     0.004 C 
ENDBRANCH   3   4
ENDBRANCH   2   3
ENDBRANCH   1   2
BRANCH   1   6
ATOM      6  C   UNL     1     232.125 227.282 241.969  1.00  0.00     0.028 C 
BRANCH   6   7
ATOM      7  C   UNL     1     232.960 225.999 242.060  1.00  0.00     0.156 C 
BRANCH   7   8
ATOM      8  O   UNL     1     232.149 224.891 242.345  1.00  0.00    -0.396 OA
ATOM      9  H   UNL     1     232.384 224.595 243.263  1.00  0.00     0.210 HD
ENDBRANCH   7   8
ENDBRANCH   6   7
ENDBRANCH   1   6
TORSDOF 6
ENDMDL
MODEL 5
REMARK VINA RESULT:     0.000      6.698      8.705
REMARK INTER + INTRA:          -0.436
REMARK INTER:                   0.000
REMARK INTRA:                  -0.436
REMARK UNBOUND:                -0.436
REMARK SMILES CCCCCCCO
REMARK SMILES IDX 5 1 4 2 3 3 2 4 1 5 6 6 7 7 8 8
REMARK H PARENT 8 9
REMARK Flexibility Score: inf
ROOT
ATOM      1  C   UNL     1     234.888 240.655 239.221  1.00  0.00     0.002 C 
ENDROOT
BRANCH   1   2
ATOM      2  C   UNL     1     234.746 242.178 239.366  1.00  0.00     0.000 C 
BRANCH   2   3
ATOM      3  C   UNL     1     233.550 242.738 238.576  1.00  0.00    -0.000 C 
BRANCH   3   4
ATOM      4  C   UNL     1     232.291 242.889 239.443  1.00  0.00    -0.003 C 
ATOM      5  C   UNL     1     232.614 243.140 240.915  1.00  0.00     0.004 C 
ENDBRANCH   3   4
ENDBRANCH   2   3
ENDBRANCH   1   2
BRANCH   1   6
ATOM      6  C   UNL     1     234.619 239.909 240.539  1.00  0.00     0.028 C 
BRANCH   6   7
ATOM      7  C   UNL     1     233.176 239.398 240.614  1.00  0.00     0.156 C 
BRANCH   7   8
ATOM      8  O   UNL     1     232.604 239.316 239.337  1.00  0.00    -0.396 OA
ATOM      9  H   UNL     1     232.013 238.518 239.341  1.00  0.00     0.210 HD
ENDBRANCH   7   8
ENDBRANCH   6   7
ENDBRANCH   1   6
TORSDOF 6
ENDMDL
MODEL 6
REMARK VINA RESULT:     0.000      4.897      6.082
REMARK INTER + INTRA:          -0.436
REMARK INTER:                   0.000
REMARK INTRA:                  -0.436
REMARK UNBOUND:                -0.436
REMARK SMILES CCCCCCCO
REMARK SMILES IDX 5 1 4 2 3 3 2 4 1 5 6 6 7 7 8 8
REMARK H PARENT 8 9
REMARK Flexibility Score: inf
ROOT
ATOM      1  C   UNL     1     231.695 236.452 243.941  1.00  0.00     0.002 C 
ENDROOT
BRANCH   1   2
ATOM      2  C   UNL     1     230.528 236.213 242.971  1.00  0.00     0.000 C 
BRANCH   2   3
ATOM      3  C   UNL     1     230.988 235.618 241.628  1.00  0.00    -0.000 C 
BRANCH   3   4
ATOM      4  C   UNL     1     230.871 234.087 241.592  1.00  0.00    -0.003 C 
ATOM      5  C   UNL     1     229.758 233.558 242.496  1.00  0.00     0.004 C 
ENDBRANCH   3   4
ENDBRANCH   2   3
ENDBRANCH   1   2
BRANCH   1   6
ATOM      6  C   UNL     1     231.636 235.534 245.173  1.00  0.00     0.028 C 
BRANCH   6   7
ATOM      7  C   UNL     1     232.517 234.293 244.996  1.00  0.00     0.156 C 
BRANCH   7   8
ATOM      8  O   UNL     1     233.492 234.505 244.010  1.00  0.00    -0.396 OA
ATOM      9  H   UNL     1     234.257 233.914 244.235  1.00  0.00     0.210 HD
ENDBRANCH   7   8
ENDBRANCH   6   7
ENDBRANCH   1   6
TORSDOF 6
ENDMDL
MODEL 7
REMARK VINA RESULT:     0.000      4.348      5.575
REMARK INTER + INTRA:          -0.436
REMARK INTER:                   0.000
REMARK INTRA:                  -0.436
REMARK UNBOUND:                -0.436
REMARK SMILES CCCCCCCO
REMARK SMILES IDX 5 1 4 2 3 3 2 4 1 5 6 6 7 7 8 8
REMARK H PARENT 8 9
REMARK Flexibility Score: inf
ROOT
ATOM      1  C   UNL     1     231.844 234.611 241.655  1.00  0.00     0.002 C 
ENDROOT
BRANCH   1   2
ATOM      2  C   UNL     1     230.860 235.366 240.748  1.00  0.00     0.000 C 
BRANCH   2   3
ATOM      3  C   UNL     1     229.394 234.989 241.023  1.00  0.00    -0.000 C 
BRANCH   3   4
ATOM      4  C   UNL     1     228.706 235.964 241.990  1.00  0.00    -0.003 C 
ATOM      5  C   UNL     1     229.293 237.374 241.922  1.00  0.00     0.004 C 
ENDBRANCH   3   4
ENDBRANCH   2   3
ENDBRANCH   1   2
BRANCH   1   6
ATOM      6  C   UNL     1     232.566 235.539 242.645  1.00  0.00     0.028 C 
BRANCH   6   7
ATOM      7  C   UNL     1     231.879 235.548 244.015  1.00  0.00     0.156 C 
BRANCH   7   8
ATOM      8  O   UNL     1     231.082 234.407 244.185  1.00  0.00    -0.396 OA
ATOM      9  H   UNL     1     230.866 234.351 245.152  1.00  0.00     0.210 HD
ENDBRANCH   7   8
ENDBRANCH   6   7
ENDBRANCH   1   6
TORSDOF 6
ENDMDL
MODEL 8
REMARK VINA RESULT:     0.000      5.572      7.315
REMARK INTER + INTRA:          -0.436
REMARK INTER:                   0.000
REMARK INTRA:                  -0.436
REMARK UNBOUND:                -0.436
REMARK SMILES CCCCCCCO
REMARK SMILES IDX 5 1 4 2 3 3 2 4 1 5 6 6 7 7 8 8
REMARK H PARENT 8 9
REMARK Flexibility Score: inf
ROOT
ATOM      1  C   UNL     1     236.929 234.771 241.145  1.00  0.00     0.002 C 
ENDROOT
BRANCH   1   2
ATOM      2  C   UNL     1     237.337 235.558 242.400  1.00  0.00     0.000 C 
BRANCH   2   3
ATOM      3  C   UNL     1     237.387 237.076 242.156  1.00  0.00    -0.000 C 
BRANCH   3   4
ATOM      4  C   UNL     1     236.084 237.781 242.564  1.00  0.00    -0.003 C 
ATOM      5  C   UNL     1     235.351 237.058 243.694  1.00  0.00     0.004 C 
ENDBRANCH   3   4
ENDBRANCH   2   3
ENDBRANCH   1   2
BRANCH   1   6
ATOM      6  C   UNL     1     235.558 234.092 241.294  1.00  0.00     0.028 C 
BRANCH   6   7
ATOM      7  C   UNL     1     234.438 234.939 240.680  1.00  0.00     0.156 C 
BRANCH   7   8
ATOM      8  O   UNL     1     234.952 235.857 239.754  1.00  0.00    -0.396 OA
ATOM      9  H   UNL     1     234.581 236.745 239.997  1.00  0.00     0.210 HD
ENDBRANCH   7   8
ENDBRANCH   6   7
ENDBRANCH   1   6
TORSDOF 6
ENDMDL
MODEL 9
REMARK VINA RESULT:     0.000     12.419     13.213
REMARK INTER + INTRA:          -0.436
REMARK INTER:                   0.000
REMARK INTRA:                  -0.436
REMARK UNBOUND:                -0.436
REMARK SMILES CCCCCCCO
REMARK SMILES IDX 5 1 4 2 3 3 2 4 1 5 6 6 7 7 8 8
REMARK H PARENT 8 9
REMARK Flexibility Score: inf
ROOT
ATOM      1  C   UNL     1     235.178 228.162 247.855  1.00  0.00     0.002 C 
ENDROOT
BRANCH   1   2
ATOM      2  C   UNL     1     234.253 227.024 247.394  1.00  0.00     0.000 C 
BRANCH   2   3
ATOM      3  C   UNL     1     234.377 225.768 248.273  1.00  0.00    -0.000 C 
BRANCH   3   4
ATOM      4  C   UNL     1     233.311 225.715 249.378  1.00  0.00    -0.003 C 
ATOM      5  C   UNL     1     232.022 226.437 248.989  1.00  0.00     0.004 C 
ENDBRANCH   3   4
ENDBRANCH   2   3
ENDBRANCH   1   2
BRANCH   1   6
ATOM      6  C   UNL     1     234.399 229.370 248.401  1.00  0.00     0.028 C 
BRANCH   6   7
ATOM      7  C   UNL     1     234.292 229.330 249.930  1.00  0.00     0.156 C 
BRANCH   7   8
ATOM      8  O   UNL     1     235.281 228.504 250.481  1.00  0.00    -0.396 OA
ATOM      9  H   UNL     1     236.154 228.850 250.157  1.00  0.00     0.210 HD
ENDBRANCH   7   8
ENDBRANCH   6   7
ENDBRANCH   1   6
TORSDOF 6
ENDMDL
