MODEL 1
REMARK VINA RESULT:    -5.037      0.000      0.000
REMARK INTER + INTRA:          -6.098
REMARK INTER:                  -5.774
REMARK INTRA:                  -0.325
REMARK UNBOUND:                -0.325
REMARK SMILES COc1ccc(C(C)=O)c(O)c1
REMARK SMILES IDX 6 1 10 2 12 3 3 4 4 5 5 6 7 7 8 8 9 9 11 10 2 12 1 13
REMARK H PARENT 11 11
REMARK Flexibility Score: inf
ROOT
ATOM      1  C   UNL     1     -34.558  -3.333 -11.082  1.00  0.00     0.059 A 
ATOM      2  C   UNL     1     -35.704  -3.141 -10.272  1.00  0.00     0.130 A 
ATOM      3  C   UNL     1     -35.617  -2.350  -9.119  1.00  0.00     0.093 A 
ATOM      4  C   UNL     1     -34.396  -1.770  -8.734  1.00  0.00     0.122 A 
ATOM      5  C   UNL     1     -33.263  -1.987  -9.520  1.00  0.00     0.047 A 
ATOM      6  C   UNL     1     -33.338  -2.758 -10.681  1.00  0.00     0.019 A 
ENDROOT
BRANCH   1   7
ATOM      7  C   UNL     1     -34.613  -4.088 -12.356  1.00  0.00     0.163 C 
ATOM      8  C   UNL     1     -33.850  -3.631 -13.561  1.00  0.00     0.093 C 
ATOM      9  O   UNL     1     -35.376  -5.086 -12.462  1.00  0.00    -0.294 OA
ENDBRANCH   1   7
BRANCH   2  10
ATOM     10  O   UNL     1     -36.932  -3.739 -10.561  1.00  0.00    -0.507 OA
ATOM     11  H   UNL     1     -37.394  -4.389  -9.940  1.00  0.00     0.293 HD
ENDBRANCH   2  10
BRANCH   4  12
ATOM     12  O   UNL     1     -34.267  -0.977  -7.584  1.00  0.00    -0.497 OA
ATOM     13  C   UNL     1     -34.117  -1.494  -6.265  1.00  0.00     0.278 C 
ENDBRANCH   4  12
TORSDOF 3
ENDMDL
MODEL 2
REMARK VINA RESULT:    -5.028      1.960      4.454
REMARK INTER + INTRA:          -6.088
REMARK INTER:                  -5.844
REMARK INTRA:                  -0.244
REMARK UNBOUND:                -0.325
REMARK SMILES COc1ccc(C(C)=O)c(O)c1
REMARK SMILES IDX 6 1 10 2 12 3 3 4 4 5 5 6 7 7 8 8 9 9 11 10 2 12 1 13
REMARK H PARENT 11 11
REMARK Flexibility Score: inf
ROOT
ATOM      1  C   UNL     1     -35.143  -2.853  -9.663  1.00  0.00     0.059 A 
ATOM      2  C   UNL     1     -36.315  -2.754  -8.873  1.00  0.00     0.130 A 
ATOM      3  C   UNL     1     -37.402  -3.599  -9.130  1.00  0.00     0.093 A 
ATOM      4  C   UNL     1     -37.360  -4.526 -10.186  1.00  0.00     0.122 A 
ATOM      5  C   UNL     1     -36.214  -4.599 -10.981  1.00  0.00     0.047 A 
ATOM      6  C   UNL     1     -35.117  -3.774 -10.726  1.00  0.00     0.019 A 
ENDROOT
BRANCH   1   7
ATOM      7  C   UNL     1     -33.935  -2.043  -9.382  1.00  0.00     0.163 C 
ATOM      8  C   UNL     1     -32.716  -2.146 -10.246  1.00  0.00     0.093 C 
ATOM      9  O   UNL     1     -33.891  -1.315  -8.354  1.00  0.00    -0.294 OA
ENDBRANCH   1   7
BRANCH   2  10
ATOM     10  O   UNL     1     -36.448  -1.813  -7.849  1.00  0.00    -0.507 OA
ATOM     11  H   UNL     1     -35.661  -1.390  -7.376  1.00  0.00     0.293 HD
ENDBRANCH   2  10
BRANCH   4  12
ATOM     12  O   UNL     1     -38.429  -5.385 -10.479  1.00  0.00    -0.497 OA
ATOM     13  C   UNL     1     -39.125  -5.407 -11.722  1.00  0.00     0.278 C 
ENDBRANCH   4  12
TORSDOF 3
ENDMDL
MODEL 3
REMARK VINA RESULT:    -4.772      1.164      4.502
REMARK INTER + INTRA:          -5.795
REMARK INTER:                  -5.480
REMARK INTRA:                  -0.314
REMARK UNBOUND:                -0.325
REMARK SMILES COc1ccc(C(C)=O)c(O)c1
REMARK SMILES IDX 6 1 10 2 12 3 3 4 4 5 5 6 7 7 8 8 9 9 11 10 2 12 1 13
REMARK H PARENT 11 11
REMARK Flexibility Score: inf
ROOT
ATOM      1  C   UNL     1     -34.872  -2.422  -9.176  1.00  0.00     0.059 A 
ATOM      2  C   UNL     1     -35.690  -3.317  -9.910  1.00  0.00     0.130 A 
ATOM      3  C   UNL     1     -35.226  -3.853 -11.118  1.00  0.00     0.093 A 
ATOM      4  C   UNL     1     -33.969  -3.488 -11.631  1.00  0.00     0.122 A 
ATOM      5  C   UNL     1     -33.180  -2.584 -10.919  1.00  0.00     0.047 A 
ATOM      6  C   UNL     1     -33.622  -2.055  -9.706  1.00  0.00     0.019 A 
ENDROOT
BRANCH   1   7
ATOM      7  C   UNL     1     -35.277  -1.893  -7.853  1.00  0.00     0.163 C 
ATOM      8  C   UNL     1     -34.266  -1.642  -6.776  1.00  0.00     0.093 C 
ATOM      9  O   UNL     1     -36.499  -1.725  -7.589  1.00  0.00    -0.294 OA
ENDBRANCH   1   7
BRANCH   2  10
ATOM     10  O   UNL     1     -36.973  -3.672  -9.489  1.00  0.00    -0.507 OA
ATOM     11  H   UNL     1     -37.705  -3.965 -10.122  1.00  0.00     0.293 HD
ENDBRANCH   2  10
BRANCH   4  12
ATOM     12  O   UNL     1     -33.472  -3.998 -12.840  1.00  0.00    -0.497 OA
ATOM     13  C   UNL     1     -33.890  -3.560 -14.130  1.00  0.00     0.278 C 
ENDBRANCH   4  12
TORSDOF 3
ENDMDL
MODEL 4
REMARK VINA RESULT:    -4.737      1.595      5.061
REMARK INTER + INTRA:          -5.754
REMARK INTER:                  -5.438
REMARK INTRA:                  -0.317
REMARK UNBOUND:                -0.325
REMARK SMILES COc1ccc(C(C)=O)c(O)c1
REMARK SMILES IDX 6 1 10 2 12 3 3 4 4 5 5 6 7 7 8 8 9 9 11 10 2 12 1 13
REMARK H PARENT 11 11
REMARK Flexibility Score: inf
ROOT
ATOM      1  C   UNL     1     -34.782  -2.655  -9.743  1.00  0.00     0.059 A 
ATOM      2  C   UNL     1     -33.571  -2.570 -10.473  1.00  0.00     0.130 A 
ATOM      3  C   UNL     1     -33.489  -3.131 -11.754  1.00  0.00     0.093 A 
ATOM      4  C   UNL     1     -34.585  -3.811 -12.313  1.00  0.00     0.122 A 
ATOM      5  C   UNL     1     -35.767  -3.918 -11.578  1.00  0.00     0.047 A 
ATOM      6  C   UNL     1     -35.868  -3.348 -10.307  1.00  0.00     0.019 A 
ENDROOT
BRANCH   1   7
ATOM      7  C   UNL     1     -34.951  -2.005  -8.422  1.00  0.00     0.163 C 
ATOM      8  C   UNL     1     -36.061  -2.404  -7.499  1.00  0.00     0.093 C 
ATOM      9  O   UNL     1     -34.204  -1.044  -8.094  1.00  0.00    -0.294 OA
ENDBRANCH   1   7
BRANCH   2  10
ATOM     10  O   UNL     1     -32.425  -1.965  -9.952  1.00  0.00    -0.507 OA
ATOM     11  H   UNL     1     -32.292  -0.963  -9.915  1.00  0.00     0.293 HD
ENDBRANCH   2  10
BRANCH   4  12
ATOM     12  O   UNL     1     -34.540  -4.393 -13.589  1.00  0.00    -0.497 OA
ATOM     13  C   UNL     1     -35.690  -4.767 -14.343  1.00  0.00     0.278 C 
ENDBRANCH   4  12
TORSDOF 3
ENDMDL
MODEL 5
REMARK VINA RESULT:    -4.721      2.304      5.372
REMARK INTER + INTRA:          -5.736
REMARK INTER:                  -5.412
REMARK INTRA:                  -0.323
REMARK UNBOUND:                -0.325
REMARK SMILES COc1ccc(C(C)=O)c(O)c1
REMARK SMILES IDX 6 1 10 2 12 3 3 4 4 5 5 6 7 7 8 8 9 9 11 10 2 12 1 13
REMARK H PARENT 11 11
REMARK Flexibility Score: inf
ROOT
ATOM      1  C   UNL     1     -33.919  -2.876 -11.575  1.00  0.00     0.059 A 
ATOM      2  C   UNL     1     -33.937  -2.128 -12.778  1.00  0.00     0.130 A 
ATOM      3  C   UNL     1     -34.555  -2.657 -13.918  1.00  0.00     0.093 A 
ATOM      4  C   UNL     1     -35.130  -3.939 -13.896  1.00  0.00     0.122 A 
ATOM      5  C   UNL     1     -35.084  -4.685 -12.717  1.00  0.00     0.047 A 
ATOM      6  C   UNL     1     -34.486  -4.163 -11.568  1.00  0.00     0.019 A 
ENDROOT
BRANCH   1   7
ATOM      7  C   UNL     1     -33.355  -2.331 -10.318  1.00  0.00     0.163 C 
ATOM      8  C   UNL     1     -34.237  -1.999  -9.154  1.00  0.00     0.093 C 
ATOM      9  O   UNL     1     -32.126  -2.059 -10.246  1.00  0.00    -0.294 OA
ENDBRANCH   1   7
BRANCH   2  10
ATOM     10  O   UNL     1     -33.330  -0.875 -12.888  1.00  0.00    -0.507 OA
ATOM     11  H   UNL     1     -32.350  -0.748 -13.100  1.00  0.00     0.293 HD
ENDBRANCH   2  10
BRANCH   4  12
ATOM     12  O   UNL     1     -35.752  -4.507 -15.018  1.00  0.00    -0.497 OA
ATOM     13  C   UNL     1     -36.121  -5.879 -15.125  1.00  0.00     0.278 C 
ENDBRANCH   4  12
TORSDOF 3
ENDMDL
MODEL 6
REMARK VINA RESULT:    -4.715     12.000     13.365
REMARK INTER + INTRA:          -5.729
REMARK INTER:                  -5.426
REMARK INTRA:                  -0.303
REMARK UNBOUND:                -0.325
REMARK SMILES COc1ccc(C(C)=O)c(O)c1
REMARK SMILES IDX 6 1 10 2 12 3 3 4 4 5 5 6 7 7 8 8 9 9 11 10 2 12 1 13
REMARK H PARENT 11 11
REMARK Flexibility Score: inf
ROOT
ATOM      1  C   UNL     1     -22.619  -5.372  -7.089  1.00  0.00     0.059 A 
ATOM      2  C   UNL     1     -23.030  -4.290  -7.906  1.00  0.00     0.130 A 
ATOM      3  C   UNL     1     -22.705  -4.282  -9.268  1.00  0.00     0.093 A 
ATOM      4  C   UNL     1     -21.942  -5.320  -9.831  1.00  0.00     0.122 A 
ATOM      5  C   UNL     1     -21.513  -6.369  -9.016  1.00  0.00     0.047 A 
ATOM      6  C   UNL     1     -21.846  -6.398  -7.661  1.00  0.00     0.019 A 
ENDROOT
BRANCH   1   7
ATOM      7  C   UNL     1     -23.008  -5.473  -5.663  1.00  0.00     0.163 C 
ATOM      8  C   UNL     1     -24.010  -6.487  -5.203  1.00  0.00     0.093 C 
ATOM      9  O   UNL     1     -22.558  -4.642  -4.828  1.00  0.00    -0.294 OA
ENDBRANCH   1   7
BRANCH   2  10
ATOM     10  O   UNL     1     -23.735  -3.196  -7.398  1.00  0.00    -0.507 OA
ATOM     11  H   UNL     1     -24.622  -3.279  -6.919  1.00  0.00     0.293 HD
ENDBRANCH   2  10
BRANCH   4  12
ATOM     12  O   UNL     1     -21.590  -5.345 -11.189  1.00  0.00    -0.497 OA
ATOM     13  C   UNL     1     -21.961  -6.378 -12.097  1.00  0.00     0.278 C 
ENDBRANCH   4  12
TORSDOF 3
ENDMDL
MODEL 7
REMARK VINA RESULT:    -4.697      2.124      3.629
REMARK INTER + INTRA:          -5.708
REMARK INTER:                  -5.386
REMARK INTRA:                  -0.322
REMARK UNBOUND:                -0.325
REMARK SMILES COc1ccc(C(C)=O)c(O)c1
REMARK SMILES IDX 6 1 10 2 12 3 3 4 4 5 5 6 7 7 8 8 9 9 11 10 2 12 1 13
REMARK H PARENT 11 11
REMARK Flexibility Score: inf
ROOT
ATOM      1  C   UNL     1     -34.947  -2.754 -10.043  1.00  0.00     0.059 A 
ATOM      2  C   UNL     1     -35.385  -2.236  -8.799  1.00  0.00     0.130 A 
ATOM      3  C   UNL     1     -36.527  -2.767  -8.186  1.00  0.00     0.093 A 
ATOM      4  C   UNL     1     -37.268  -3.788  -8.807  1.00  0.00     0.122 A 
ATOM      5  C   UNL     1     -36.850  -4.274 -10.046  1.00  0.00     0.047 A 
ATOM      6  C   UNL     1     -35.704  -3.766 -10.660  1.00  0.00     0.019 A 
ENDROOT
BRANCH   1   7
ATOM      7  C   UNL     1     -33.700  -2.289 -10.693  1.00  0.00     0.163 C 
ATOM      8  C   UNL     1     -33.686  -1.869 -12.131  1.00  0.00     0.093 C 
ATOM      9  O   UNL     1     -32.610  -2.322 -10.060  1.00  0.00    -0.294 OA
ENDBRANCH   1   7
BRANCH   2  10
ATOM     10  O   UNL     1     -34.732  -1.180  -8.159  1.00  0.00    -0.507 OA
ATOM     11  H   UNL     1     -35.121  -0.683  -7.369  1.00  0.00     0.293 HD
ENDBRANCH   2  10
BRANCH   4  12
ATOM     12  O   UNL     1     -38.421  -4.341  -8.229  1.00  0.00    -0.497 OA
ATOM     13  C   UNL     1     -38.416  -5.421  -7.300  1.00  0.00     0.278 C 
ENDBRANCH   4  12
TORSDOF 3
ENDMDL
MODEL 8
REMARK VINA RESULT:    -4.672     13.218     14.355
REMARK INTER + INTRA:          -5.679
REMARK INTER:                  -5.348
REMARK INTRA:                  -0.331
REMARK UNBOUND:                -0.325
REMARK SMILES COc1ccc(C(C)=O)c(O)c1
REMARK SMILES IDX 6 1 10 2 12 3 3 4 4 5 5 6 7 7 8 8 9 9 11 10 2 12 1 13
REMARK H PARENT 11 11
REMARK Flexibility Score: inf
ROOT
ATOM      1  C   UNL     1     -20.718  -3.692  -9.942  1.00  0.00     0.059 A 
ATOM      2  C   UNL     1     -21.747  -4.507 -10.475  1.00  0.00     0.130 A 
ATOM      3  C   UNL     1     -21.804  -5.865 -10.140  1.00  0.00     0.093 A 
ATOM      4  C   UNL     1     -20.831  -6.442  -9.305  1.00  0.00     0.122 A 
ATOM      5  C   UNL     1     -19.801  -5.642  -8.807  1.00  0.00     0.047 A 
ATOM      6  C   UNL     1     -19.742  -4.283  -9.119  1.00  0.00     0.019 A 
ENDROOT
BRANCH   1   7
ATOM      7  C   UNL     1     -20.659  -2.233 -10.195  1.00  0.00     0.163 C 
ATOM      8  C   UNL     1     -19.388  -1.574 -10.634  1.00  0.00     0.093 C 
ATOM      9  O   UNL     1     -21.667  -1.513  -9.961  1.00  0.00    -0.294 OA
ENDBRANCH   1   7
BRANCH   2  10
ATOM     10  O   UNL     1     -22.709  -4.012 -11.359  1.00  0.00    -0.507 OA
ATOM     11  H   UNL     1     -22.480  -3.573 -12.241  1.00  0.00     0.293 HD
ENDBRANCH   2  10
BRANCH   4  12
ATOM     12  O   UNL     1     -20.849  -7.800  -8.952  1.00  0.00    -0.497 OA
ATOM     13  C   UNL     1     -20.813  -8.282  -7.612  1.00  0.00     0.278 C 
ENDBRANCH   4  12
TORSDOF 3
ENDMDL
MODEL 9
REMARK VINA RESULT:    -4.501      2.046      4.794
REMARK INTER + INTRA:          -5.483
REMARK INTER:                  -5.241
REMARK INTRA:                  -0.242
REMARK UNBOUND:                -0.325
REMARK SMILES COc1ccc(C(C)=O)c(O)c1
REMARK SMILES IDX 6 1 10 2 12 3 3 4 4 5 5 6 7 7 8 8 9 9 11 10 2 12 1 13
REMARK H PARENT 11 11
REMARK Flexibility Score: inf
ROOT
ATOM      1  C   UNL     1     -35.046  -3.009  -9.850  1.00  0.00     0.059 A 
ATOM      2  C   UNL     1     -34.826  -3.834 -10.981  1.00  0.00     0.130 A 
ATOM      3  C   UNL     1     -35.883  -4.581 -11.514  1.00  0.00     0.093 A 
ATOM      4  C   UNL     1     -37.158  -4.549 -10.922  1.00  0.00     0.122 A 
ATOM      5  C   UNL     1     -37.362  -3.758  -9.790  1.00  0.00     0.047 A 
ATOM      6  C   UNL     1     -36.321  -2.995  -9.258  1.00  0.00     0.019 A 
ENDROOT
BRANCH   1   7
ATOM      7  C   UNL     1     -33.986  -2.134  -9.297  1.00  0.00     0.163 C 
ATOM      8  C   UNL     1     -34.230  -1.295  -8.080  1.00  0.00     0.093 C 
ATOM      9  O   UNL     1     -32.884  -2.022  -9.900  1.00  0.00    -0.294 OA
ENDBRANCH   1   7
BRANCH   2  10
ATOM     10  O   UNL     1     -33.570  -3.960 -11.580  1.00  0.00    -0.507 OA
ATOM     11  H   UNL     1     -32.704  -3.741 -11.108  1.00  0.00     0.293 HD
ENDBRANCH   2  10
BRANCH   4  12
ATOM     12  O   UNL     1     -38.241  -5.288 -11.422  1.00  0.00    -0.497 OA
ATOM     13  C   UNL     1     -38.685  -5.246 -12.775  1.00  0.00     0.278 C 
ENDBRANCH   4  12
TORSDOF 3
ENDMDL
