MODEL 1
REMARK VINA RESULT:    -5.987      0.000      0.000
REMARK INTER + INTRA:          -6.901
REMARK INTER:                  -6.687
REMARK INTRA:                  -0.214
REMARK UNBOUND:                -0.214
REMARK SMILES CC(C)c1ccc(C(=O)[O-])cc1
REMARK SMILES IDX 7 1 6 2 11 3 5 4 12 5 4 6 8 7 9 8 10 9 2 10 1 11 3 12
REMARK H PARENT
REMARK Flexibility Score: inf
ROOT
ATOM      1  C   UNL     1     153.232 149.400 149.192  1.00  0.00    -0.003 A 
ATOM      2  C   UNL     1     153.192 148.205 148.452  1.00  0.00     0.010 A 
ATOM      3  C   UNL     1     152.099 149.784 149.928  1.00  0.00     0.010 A 
ATOM      4  C   UNL     1     152.041 147.412 148.449  1.00  0.00     0.004 A 
ATOM      5  C   UNL     1     150.949 148.990 149.925  1.00  0.00     0.004 A 
ATOM      6  C   UNL     1     150.907 147.794 149.185  1.00  0.00    -0.045 A 
ENDROOT
BRANCH   1   7
ATOM      7  C   UNL     1     154.449 150.242 149.198  1.00  0.00     0.071 C 
ATOM      8  O   UNL     1     154.574 151.182 150.028  1.00  0.00    -0.545 OA
ATOM      9  O   UNL     1     155.472 150.009 148.285  1.00  0.00    -0.545 OA
ENDBRANCH   1   7
BRANCH   6  10
ATOM     10  C   UNL     1     149.665 146.923 149.173  1.00  0.00     0.013 C 
ATOM     11  C   UNL     1     148.669 147.364 150.254  1.00  0.00     0.012 C 
ATOM     12  C   UNL     1     149.007 146.918 147.787  1.00  0.00     0.012 C 
ENDBRANCH   6  10
TORSDOF 2
ENDMDL
MODEL 2
REMARK VINA RESULT:    -5.980      3.290      5.022
REMARK INTER + INTRA:          -6.893
REMARK INTER:                  -6.681
REMARK INTRA:                  -0.212
REMARK UNBOUND:                -0.214
REMARK SMILES CC(C)c1ccc(C(=O)[O-])cc1
REMARK SMILES IDX 7 1 6 2 11 3 5 4 12 5 4 6 8 7 9 8 10 9 2 10 1 11 3 12
REMARK H PARENT
REMARK Flexibility Score: inf
ROOT
ATOM      1  C   UNL     1     150.047 148.520 149.616  1.00  0.00    -0.003 A 
ATOM      2  C   UNL     1     150.762 148.002 148.522  1.00  0.00     0.010 A 
ATOM      3  C   UNL     1     150.636 149.525 150.401  1.00  0.00     0.010 A 
ATOM      4  C   UNL     1     152.041 148.480 148.221  1.00  0.00     0.004 A 
ATOM      5  C   UNL     1     151.914 150.002 150.099  1.00  0.00     0.004 A 
ATOM      6  C   UNL     1     152.632 149.484 149.005  1.00  0.00    -0.045 A 
ENDROOT
BRANCH   1   7
ATOM      7  C   UNL     1     148.693 148.017 149.938  1.00  0.00     0.071 C 
ATOM      8  O   UNL     1     148.544 146.989 150.650  1.00  0.00    -0.545 OA
ATOM      9  O   UNL     1     147.565 148.673 149.458  1.00  0.00    -0.545 OA
ENDBRANCH   1   7
BRANCH   6  10
ATOM     10  C   UNL     1     154.020 149.994 148.666  1.00  0.00     0.013 C 
ATOM     11  C   UNL     1     154.594 150.839 149.811  1.00  0.00     0.012 C 
ATOM     12  C   UNL     1     154.962 148.837 148.309  1.00  0.00     0.012 C 
ENDBRANCH   6  10
TORSDOF 2
ENDMDL
MODEL 3
REMARK VINA RESULT:    -5.969      3.318      5.186
REMARK INTER + INTRA:          -6.881
REMARK INTER:                  -6.669
REMARK INTRA:                  -0.212
REMARK UNBOUND:                -0.214
REMARK SMILES CC(C)c1ccc(C(=O)[O-])cc1
REMARK SMILES IDX 7 1 6 2 11 3 5 4 12 5 4 6 8 7 9 8 10 9 2 10 1 11 3 12
REMARK H PARENT
REMARK Flexibility Score: inf
ROOT
ATOM      1  C   UNL     1     150.020 148.556 149.596  1.00  0.00    -0.003 A 
ATOM      2  C   UNL     1     150.613 149.572 150.364  1.00  0.00     0.010 A 
ATOM      3  C   UNL     1     150.738 148.008 148.520  1.00  0.00     0.010 A 
ATOM      4  C   UNL     1     151.899 150.032 150.061  1.00  0.00     0.004 A 
ATOM      5  C   UNL     1     152.023 148.467 148.218  1.00  0.00     0.004 A 
ATOM      6  C   UNL     1     152.618 149.485 148.986  1.00  0.00    -0.045 A 
ENDROOT
BRANCH   1   7
ATOM      7  C   UNL     1     148.659 148.067 149.912  1.00  0.00     0.071 C 
ATOM      8  O   UNL     1     147.646 148.625 149.413  1.00  0.00    -0.545 OA
ATOM      9  O   UNL     1     148.481 146.985 150.767  1.00  0.00    -0.545 OA
ENDBRANCH   1   7
BRANCH   6  10
ATOM     10  C   UNL     1     154.013 149.992 148.670  1.00  0.00     0.013 C 
ATOM     11  C   UNL     1     154.575 150.825 149.829  1.00  0.00     0.012 C 
ATOM     12  C   UNL     1     154.954 148.835 148.314  1.00  0.00     0.012 C 
ENDBRANCH   6  10
TORSDOF 2
ENDMDL
MODEL 4
REMARK VINA RESULT:    -5.916      1.487      2.656
REMARK INTER + INTRA:          -6.821
REMARK INTER:                  -6.603
REMARK INTRA:                  -0.218
REMARK UNBOUND:                -0.214
REMARK SMILES CC(C)c1ccc(C(=O)[O-])cc1
REMARK SMILES IDX 7 1 6 2 11 3 5 4 12 5 4 6 8 7 9 8 10 9 2 10 1 11 3 12
REMARK H PARENT
REMARK Flexibility Score: inf
ROOT
ATOM      1  C   UNL     1     152.974 149.047 149.093  1.00  0.00    -0.003 A 
ATOM      2  C   UNL     1     152.741 149.893 150.191  1.00  0.00     0.010 A 
ATOM      3  C   UNL     1     151.900 148.323 148.551  1.00  0.00     0.010 A 
ATOM      4  C   UNL     1     151.459 150.011 150.735  1.00  0.00     0.004 A 
ATOM      5  C   UNL     1     150.618 148.443 149.094  1.00  0.00     0.004 A 
ATOM      6  C   UNL     1     150.383 149.289 150.194  1.00  0.00    -0.045 A 
ENDROOT
BRANCH   1   7
ATOM      7  C   UNL     1     154.330 148.918 148.515  1.00  0.00     0.071 C 
ATOM      8  O   UNL     1     154.714 147.827 148.016  1.00  0.00    -0.545 OA
ATOM      9  O   UNL     1     155.202 150.002 148.515  1.00  0.00    -0.545 OA
ENDBRANCH   1   7
BRANCH   6  10
ATOM     10  C   UNL     1     148.996 149.428 150.794  1.00  0.00     0.013 C 
ATOM     11  C   UNL     1     148.281 148.072 150.854  1.00  0.00     0.012 C 
ATOM     12  C   UNL     1     149.057 150.082 152.179  1.00  0.00     0.012 C 
ENDBRANCH   6  10
TORSDOF 2
ENDMDL
MODEL 5
REMARK VINA RESULT:    -5.855      2.627      3.704
REMARK INTER + INTRA:          -6.753
REMARK INTER:                  -6.544
REMARK INTRA:                  -0.209
REMARK UNBOUND:                -0.214
REMARK SMILES CC(C)c1ccc(C(=O)[O-])cc1
REMARK SMILES IDX 7 1 6 2 11 3 5 4 12 5 4 6 8 7 9 8 10 9 2 10 1 11 3 12
REMARK H PARENT
REMARK Flexibility Score: inf
ROOT
ATOM      1  C   UNL     1     151.201 147.667 148.983  1.00  0.00    -0.003 A 
ATOM      2  C   UNL     1     149.954 147.096 149.287  1.00  0.00     0.010 A 
ATOM      3  C   UNL     1     151.507 148.942 149.488  1.00  0.00     0.010 A 
ATOM      4  C   UNL     1     149.031 147.786 150.079  1.00  0.00     0.004 A 
ATOM      5  C   UNL     1     150.585 149.631 150.280  1.00  0.00     0.004 A 
ATOM      6  C   UNL     1     149.336 149.060 150.584  1.00  0.00    -0.045 A 
ENDROOT
BRANCH   1   7
ATOM      7  C   UNL     1     152.180 146.940 148.145  1.00  0.00     0.071 C 
ATOM      8  O   UNL     1     153.368 147.349 148.044  1.00  0.00    -0.545 OA
ATOM      9  O   UNL     1     151.802 145.794 147.454  1.00  0.00    -0.545 OA
ENDBRANCH   1   7
BRANCH   6  10
ATOM     10  C   UNL     1     148.325 149.798 151.443  1.00  0.00     0.013 C 
ATOM     11  C   UNL     1     149.005 150.468 152.644  1.00  0.00     0.012 C 
ATOM     12  C   UNL     1     147.537 150.819 150.615  1.00  0.00     0.012 C 
ENDBRANCH   6  10
TORSDOF 2
ENDMDL
MODEL 6
REMARK VINA RESULT:    -5.820      2.552      3.717
REMARK INTER + INTRA:          -6.715
REMARK INTER:                  -6.503
REMARK INTRA:                  -0.212
REMARK UNBOUND:                -0.214
REMARK SMILES CC(C)c1ccc(C(=O)[O-])cc1
REMARK SMILES IDX 7 1 6 2 11 3 5 4 12 5 4 6 8 7 9 8 10 9 2 10 1 11 3 12
REMARK H PARENT
REMARK Flexibility Score: inf
ROOT
ATOM      1  C   UNL     1     151.284 147.714 149.001  1.00  0.00    -0.003 A 
ATOM      2  C   UNL     1     151.569 148.970 149.561  1.00  0.00     0.010 A 
ATOM      3  C   UNL     1     150.022 147.138 149.226  1.00  0.00     0.010 A 
ATOM      4  C   UNL     1     150.612 149.637 150.333  1.00  0.00     0.004 A 
ATOM      5  C   UNL     1     149.066 147.805 149.996  1.00  0.00     0.004 A 
ATOM      6  C   UNL     1     149.351 149.063 150.559  1.00  0.00    -0.045 A 
ENDROOT
BRANCH   1   7
ATOM      7  C   UNL     1     152.294 147.005 148.184  1.00  0.00     0.071 C 
ATOM      8  O   UNL     1     151.980 145.978 147.525  1.00  0.00    -0.545 OA
ATOM      9  O   UNL     1     153.606 147.463 148.133  1.00  0.00    -0.545 OA
ENDBRANCH   1   7
BRANCH   6  10
ATOM     10  C   UNL     1     148.321 149.798 151.397  1.00  0.00     0.013 C 
ATOM     11  C   UNL     1     148.977 150.482 152.603  1.00  0.00     0.012 C 
ATOM     12  C   UNL     1     147.537 150.807 150.550  1.00  0.00     0.012 C 
ENDBRANCH   6  10
TORSDOF 2
ENDMDL
MODEL 7
REMARK VINA RESULT:    -5.748      4.243      5.871
REMARK INTER + INTRA:          -6.634
REMARK INTER:                  -6.417
REMARK INTRA:                  -0.217
REMARK UNBOUND:                -0.214
REMARK SMILES CC(C)c1ccc(C(=O)[O-])cc1
REMARK SMILES IDX 7 1 6 2 11 3 5 4 12 5 4 6 8 7 9 8 10 9 2 10 1 11 3 12
REMARK H PARENT
REMARK Flexibility Score: inf
ROOT
ATOM      1  C   UNL     1     147.381 149.339 151.453  1.00  0.00    -0.003 A 
ATOM      2  C   UNL     1     147.331 147.989 151.067  1.00  0.00     0.010 A 
ATOM      3  C   UNL     1     148.508 150.105 151.110  1.00  0.00     0.010 A 
ATOM      4  C   UNL     1     148.388 147.416 150.352  1.00  0.00     0.004 A 
ATOM      5  C   UNL     1     149.563 149.532 150.395  1.00  0.00     0.004 A 
ATOM      6  C   UNL     1     149.515 148.180 150.009  1.00  0.00    -0.045 A 
ENDROOT
BRANCH   1   7
ATOM      7  C   UNL     1     146.265 149.949 152.209  1.00  0.00     0.071 C 
ATOM      8  O   UNL     1     146.492 150.767 153.140  1.00  0.00    -0.545 OA
ATOM      9  O   UNL     1     144.947 149.626 151.903  1.00  0.00    -0.545 OA
ENDBRANCH   1   7
BRANCH   6  10
ATOM     10  C   UNL     1     150.655 147.546 149.232  1.00  0.00     0.013 C 
ATOM     11  C   UNL     1     151.962 148.323 149.435  1.00  0.00     0.012 C 
ATOM     12  C   UNL     1     150.826 146.070 149.610  1.00  0.00     0.012 C 
ENDBRANCH   6  10
TORSDOF 2
ENDMDL
MODEL 8
REMARK VINA RESULT:    -5.605      3.772      5.348
REMARK INTER + INTRA:          -6.475
REMARK INTER:                  -6.254
REMARK INTRA:                  -0.221
REMARK UNBOUND:                -0.214
REMARK SMILES CC(C)c1ccc(C(=O)[O-])cc1
REMARK SMILES IDX 7 1 6 2 11 3 5 4 12 5 4 6 8 7 9 8 10 9 2 10 1 11 3 12
REMARK H PARENT
REMARK Flexibility Score: inf
ROOT
ATOM      1  C   UNL     1     148.705 148.244 150.315  1.00  0.00    -0.003 A 
ATOM      2  C   UNL     1     149.468 147.248 149.682  1.00  0.00     0.010 A 
ATOM      3  C   UNL     1     149.312 149.473 150.626  1.00  0.00     0.010 A 
ATOM      4  C   UNL     1     150.811 147.476 149.367  1.00  0.00     0.004 A 
ATOM      5  C   UNL     1     150.654 149.700 150.310  1.00  0.00     0.004 A 
ATOM      6  C   UNL     1     151.419 148.703 149.676  1.00  0.00    -0.045 A 
ENDROOT
BRANCH   1   7
ATOM      7  C   UNL     1     147.283 148.007 150.651  1.00  0.00     0.071 C 
ATOM      8  O   UNL     1     146.668 148.788 151.425  1.00  0.00    -0.545 OA
ATOM      9  O   UNL     1     146.606 146.916 150.116  1.00  0.00    -0.545 OA
ENDBRANCH   1   7
BRANCH   6  10
ATOM     10  C   UNL     1     152.877 148.938 149.327  1.00  0.00     0.013 C 
ATOM     11  C   UNL     1     153.350 147.960 148.244  1.00  0.00     0.012 C 
ATOM     12  C   UNL     1     153.117 150.391 148.902  1.00  0.00     0.012 C 
ENDBRANCH   6  10
TORSDOF 2
ENDMDL
MODEL 9
REMARK VINA RESULT:    -5.590      3.456      4.723
REMARK INTER + INTRA:          -6.458
REMARK INTER:                  -6.248
REMARK INTRA:                  -0.211
REMARK UNBOUND:                -0.214
REMARK SMILES CC(C)c1ccc(C(=O)[O-])cc1
REMARK SMILES IDX 7 1 6 2 11 3 5 4 12 5 4 6 8 7 9 8 10 9 2 10 1 11 3 12
REMARK H PARENT
REMARK Flexibility Score: inf
ROOT
ATOM      1  C   UNL     1     149.044 149.142 150.599  1.00  0.00    -0.003 A 
ATOM      2  C   UNL     1     148.674 147.848 150.196  1.00  0.00     0.010 A 
ATOM      3  C   UNL     1     150.337 149.605 150.301  1.00  0.00     0.010 A 
ATOM      4  C   UNL     1     149.578 147.032 149.510  1.00  0.00     0.004 A 
ATOM      5  C   UNL     1     151.240 148.790 149.614  1.00  0.00     0.004 A 
ATOM      6  C   UNL     1     150.871 147.493 149.211  1.00  0.00    -0.045 A 
ENDROOT
BRANCH   1   7
ATOM      7  C   UNL     1     148.090 150.008 151.326  1.00  0.00     0.071 C 
ATOM      8  O   UNL     1     147.533 150.978 150.746  1.00  0.00    -0.545 OA
ATOM      9  O   UNL     1     147.794 149.763 152.663  1.00  0.00    -0.545 OA
ENDBRANCH   1   7
BRANCH   6  10
ATOM     10  C   UNL     1     151.842 146.598 148.464  1.00  0.00     0.013 C 
ATOM     11  C   UNL     1     151.196 146.011 147.203  1.00  0.00     0.012 C 
ATOM     12  C   UNL     1     153.135 147.349 148.122  1.00  0.00     0.012 C 
ENDBRANCH   6  10
TORSDOF 2
ENDMDL
