MODEL 1
REMARK VINA RESULT:     3.018      0.000      0.000
REMARK INTER + INTRA:           3.717
REMARK INTER:                   3.636
REMARK INTRA:                   0.081
REMARK UNBOUND:                 0.081
REMARK SMILES Oc1cc(O)c2c(c1)O[C@H](c1ccc(O)c(O)c1)[C@H](O)C2
REMARK SMILES IDX 21 1 19 2 10 3 9 4 7 5 8 6 2 7 3 8 4 9 6 10 20 11 11 13
REMARK SMILES IDX 18 14 12 15 16 16 13 17 14 18 17 19 15 21 5 23 1 25
REMARK H PARENT 20 12 17 20 15 22 5 24 1 26
REMARK Flexibility Score: inf
ROOT
ATOM      1  C   UNL     1      13.088  12.319  22.129  1.00  0.00     0.079 C 
ATOM      2  C   UNL     1      11.759  12.192  21.360  1.00  0.00     0.164 C 
ATOM      3  C   UNL     1      11.815  13.061  20.093  1.00  0.00     0.232 C 
ATOM      4  O   UNL     1      12.084  14.419  20.447  1.00  0.00    -0.482 OA
ATOM      5  C   UNL     1      12.991  14.756  21.459  1.00  0.00     0.131 A 
ATOM      6  C   UNL     1      13.355  16.095  21.625  1.00  0.00     0.093 A 
ATOM      7  C   UNL     1      14.269  16.458  22.614  1.00  0.00     0.122 A 
ATOM      8  C   UNL     1      14.833  15.475  23.435  1.00  0.00     0.092 A 
ATOM      9  C   UNL     1      14.481  14.129  23.283  1.00  0.00     0.126 A 
ATOM     10  C   UNL     1      13.520  13.761  22.311  1.00  0.00     0.039 A 
ENDROOT
BRANCH   2  11
ATOM     11  O   UNL     1      10.693  12.606  22.178  1.00  0.00    -0.389 OA
ATOM     12  H   UNL     1      10.666  11.983  22.951  1.00  0.00     0.211 HD
ENDBRANCH   2  11
BRANCH   3  13
ATOM     13  C   UNL     1      10.533  12.964  19.298  1.00  0.00    -0.001 A 
ATOM     14  C   UNL     1      10.314  13.832  18.216  1.00  0.00     0.057 A 
ATOM     15  C   UNL     1       9.578  11.976  19.584  1.00  0.00     0.012 A 
ATOM     16  C   UNL     1       9.150  13.738  17.442  1.00  0.00     0.157 A 
ATOM     17  C   UNL     1       8.414  11.879  18.821  1.00  0.00     0.050 A 
ATOM     18  C   UNL     1       8.184  12.752  17.751  1.00  0.00     0.157 A 
BRANCH  16  19
ATOM     19  O   UNL     1       8.998  14.636  16.383  1.00  0.00    -0.504 OA
ATOM     20  H   UNL     1       9.589  15.442  16.236  1.00  0.00     0.293 HD
ENDBRANCH  16  19
BRANCH  18  21
ATOM     21  O   UNL     1       6.998  12.604  17.031  1.00  0.00    -0.504 OA
ATOM     22  H   UNL     1       6.462  11.750  16.996  1.00  0.00     0.293 HD
ENDBRANCH  18  21
ENDBRANCH   3  13
BRANCH   9  23
ATOM     23  O   UNL     1      15.110  13.188  24.102  1.00  0.00    -0.507 OA
ATOM     24  H   UNL     1      15.858  12.588  23.785  1.00  0.00     0.293 HD
ENDBRANCH   9  23
BRANCH   7  25
ATOM     25  O   UNL     1      14.620  17.798  22.766  1.00  0.00    -0.508 OA
ATOM     26  H   UNL     1      15.454  18.074  23.272  1.00  0.00     0.293 HD
ENDBRANCH   7  25
TORSDOF 6
ENDMDL
MODEL 2
REMARK VINA RESULT:     5.860      1.106      2.557
REMARK INTER + INTRA:           7.140
REMARK INTER:                   7.110
REMARK INTRA:                   0.030
REMARK UNBOUND:                 0.081
REMARK SMILES Oc1cc(O)c2c(c1)O[C@H](c1ccc(O)c(O)c1)[C@H](O)C2
REMARK SMILES IDX 21 1 19 2 10 3 9 4 7 5 8 6 2 7 3 8 4 9 6 10 20 11 11 13
REMARK SMILES IDX 18 14 12 15 16 16 13 17 14 18 17 19 15 21 5 23 1 25
REMARK H PARENT 20 12 17 20 15 22 5 24 1 26
REMARK Flexibility Score: inf
ROOT
ATOM      1  C   UNL     1      12.665  16.095  20.699  1.00  0.00     0.079 C 
ATOM      2  C   UNL     1      11.708  15.444  19.683  1.00  0.00     0.164 C 
ATOM      3  C   UNL     1      10.780  14.457  20.412  1.00  0.00     0.232 C 
ATOM      4  O   UNL     1      11.559  13.475  21.098  1.00  0.00    -0.482 OA
ATOM      5  C   UNL     1      12.745  13.803  21.764  1.00  0.00     0.131 A 
ATOM      6  C   UNL     1      13.355  12.842  22.575  1.00  0.00     0.093 A 
ATOM      7  C   UNL     1      14.529  13.145  23.265  1.00  0.00     0.122 A 
ATOM      8  C   UNL     1      15.093  14.421  23.152  1.00  0.00     0.092 A 
ATOM      9  C   UNL     1      14.495  15.396  22.344  1.00  0.00     0.126 A 
ATOM     10  C   UNL     1      13.330  15.079  21.608  1.00  0.00     0.039 A 
ENDROOT
BRANCH   2  11
ATOM     11  O   UNL     1      12.448  14.766  18.698  1.00  0.00    -0.389 OA
ATOM     12  H   UNL     1      12.719  13.895  19.092  1.00  0.00     0.211 HD
ENDBRANCH   2  11
BRANCH   3  13
ATOM     13  C   UNL     1       9.814  13.795  19.455  1.00  0.00    -0.001 A 
ATOM     14  C   UNL     1       9.597  14.352  18.185  1.00  0.00     0.057 A 
ATOM     15  C   UNL     1       9.172  12.594  19.792  1.00  0.00     0.012 A 
ATOM     16  C   UNL     1       8.734  13.739  17.268  1.00  0.00     0.157 A 
ATOM     17  C   UNL     1       8.307  11.978  18.886  1.00  0.00     0.050 A 
ATOM     18  C   UNL     1       8.076  12.538  17.625  1.00  0.00     0.157 A 
BRANCH  16  19
ATOM     19  O   UNL     1       8.564  14.350  16.023  1.00  0.00    -0.504 OA
ATOM     20  H   UNL     1       8.911  13.969  15.155  1.00  0.00     0.293 HD
ENDBRANCH  16  19
BRANCH  18  21
ATOM     21  O   UNL     1       7.196  11.875  16.767  1.00  0.00    -0.504 OA
ATOM     22  H   UNL     1       7.434  11.582  15.831  1.00  0.00     0.293 HD
ENDBRANCH  18  21
ENDBRANCH   3  13
BRANCH   9  23
ATOM     23  O   UNL     1      15.079  16.665  22.306  1.00  0.00    -0.507 OA
ATOM     24  H   UNL     1      15.038  17.271  21.499  1.00  0.00     0.293 HD
ENDBRANCH   9  23
BRANCH   7  25
ATOM     25  O   UNL     1      15.124  12.174  24.068  1.00  0.00    -0.508 OA
ATOM     26  H   UNL     1      14.589  11.405  24.455  1.00  0.00     0.293 HD
ENDBRANCH   7  25
TORSDOF 6
ENDMDL
