MODEL 1
REMARK VINA RESULT:    -3.996      0.000      0.000
REMARK INTER + INTRA:          -4.113
REMARK INTER:                  -4.113
REMARK INTRA:                   0.000
REMARK UNBOUND:                 0.000
REMARK SMILES Cc1ccccc1O
REMARK SMILES IDX 1 1 2 2 3 3 4 4 5 5 6 6 7 7 8 8
REMARK H PARENT 8 9
REMARK Flexibility Score: inf
ROOT
ATOM      1  C   UNL     1      31.856  28.223  79.394  1.00  0.00     0.048 C 
ATOM      2  C   UNL     1      31.818  28.129  77.894  1.00  0.00    -0.009 A 
ATOM      3  C   UNL     1      33.022  28.100  77.168  1.00  0.00     0.007 A 
ATOM      4  C   UNL     1      33.007  28.013  75.774  1.00  0.00     0.001 A 
ATOM      5  C   UNL     1      31.793  27.952  75.089  1.00  0.00     0.004 A 
ATOM      6  C   UNL     1      30.589  27.979  75.797  1.00  0.00     0.046 A 
ATOM      7  C   UNL     1      30.589  28.067  77.194  1.00  0.00     0.118 A 
ENDROOT
BRANCH   7   8
ATOM      8  O   UNL     1      29.359  28.091  77.856  1.00  0.00    -0.508 OA
ATOM      9  H   UNL     1      29.273  28.001  78.860  1.00  0.00     0.293 HD
ENDBRANCH   7   8
TORSDOF 1
ENDMDL
MODEL 2
REMARK VINA RESULT:    -3.647      8.530      9.401
REMARK INTER + INTRA:          -3.754
REMARK INTER:                  -3.754
REMARK INTRA:                   0.000
REMARK UNBOUND:                 0.000
REMARK SMILES Cc1ccccc1O
REMARK SMILES IDX 1 1 2 2 3 3 4 4 5 5 6 6 7 7 8 8
REMARK H PARENT 8 9
REMARK Flexibility Score: inf
ROOT
ATOM      1  C   UNL     1      33.857  32.656  70.907  1.00  0.00     0.048 C 
ATOM      2  C   UNL     1      33.477  34.109  70.973  1.00  0.00    -0.009 A 
ATOM      3  C   UNL     1      34.475  35.094  70.875  1.00  0.00     0.007 A 
ATOM      4  C   UNL     1      34.142  36.449  70.935  1.00  0.00     0.001 A 
ATOM      5  C   UNL     1      32.811  36.837  71.091  1.00  0.00     0.004 A 
ATOM      6  C   UNL     1      31.809  35.869  71.190  1.00  0.00     0.046 A 
ATOM      7  C   UNL     1      32.128  34.507  71.132  1.00  0.00     0.118 A 
ENDROOT
BRANCH   7   8
ATOM      8  O   UNL     1      31.090  33.579  71.235  1.00  0.00    -0.508 OA
ATOM      9  H   UNL     1      30.195  33.700  70.778  1.00  0.00     0.293 HD
ENDBRANCH   7   8
TORSDOF 1
ENDMDL
MODEL 3
REMARK VINA RESULT:    -3.516     14.324     15.360
REMARK INTER + INTRA:          -3.618
REMARK INTER:                  -3.618
REMARK INTRA:                   0.000
REMARK UNBOUND:                 0.000
REMARK SMILES Cc1ccccc1O
REMARK SMILES IDX 1 1 2 2 3 3 4 4 5 5 6 6 7 7 8 8
REMARK H PARENT 8 9
REMARK Flexibility Score: inf
ROOT
ATOM      1  C   UNL     1      23.768  37.930  88.469  1.00  0.00     0.048 C 
ATOM      2  C   UNL     1      23.358  37.027  87.339  1.00  0.00    -0.009 A 
ATOM      3  C   UNL     1      22.625  37.553  86.260  1.00  0.00     0.007 A 
ATOM      4  C   UNL     1      22.234  36.730  85.201  1.00  0.00     0.001 A 
ATOM      5  C   UNL     1      22.571  35.375  85.206  1.00  0.00     0.004 A 
ATOM      6  C   UNL     1      23.298  34.840  86.272  1.00  0.00     0.046 A 
ATOM      7  C   UNL     1      23.696  35.653  87.340  1.00  0.00     0.118 A 
ENDROOT
BRANCH   7   8
ATOM      8  O   UNL     1      24.421  35.070  88.382  1.00  0.00    -0.508 OA
ATOM      9  H   UNL     1      24.395  35.416  89.332  1.00  0.00     0.293 HD
ENDBRANCH   7   8
TORSDOF 1
ENDMDL
MODEL 4
REMARK VINA RESULT:    -3.479     18.840     19.801
REMARK INTER + INTRA:          -3.581
REMARK INTER:                  -3.581
REMARK INTRA:                   0.000
REMARK UNBOUND:                 0.000
REMARK SMILES Cc1ccccc1O
REMARK SMILES IDX 1 1 2 2 3 3 4 4 5 5 6 6 7 7 8 8
REMARK H PARENT 8 9
REMARK Flexibility Score: inf
ROOT
ATOM      1  C   UNL     1      27.961  47.032  87.480  1.00  0.00     0.048 C 
ATOM      2  C   UNL     1      28.560  46.202  86.379  1.00  0.00    -0.009 A 
ATOM      3  C   UNL     1      28.825  46.790  85.130  1.00  0.00     0.007 A 
ATOM      4  C   UNL     1      29.380  46.035  84.094  1.00  0.00     0.001 A 
ATOM      5  C   UNL     1      29.679  44.687  84.293  1.00  0.00     0.004 A 
ATOM      6  C   UNL     1      29.422  44.089  85.529  1.00  0.00     0.046 A 
ATOM      7  C   UNL     1      28.864  44.834  86.576  1.00  0.00     0.118 A 
ENDROOT
BRANCH   7   8
ATOM      8  O   UNL     1      28.626  44.191  87.793  1.00  0.00    -0.508 OA
ATOM      9  H   UNL     1      27.932  43.462  87.904  1.00  0.00     0.293 HD
ENDBRANCH   7   8
TORSDOF 1
ENDMDL
MODEL 5
REMARK VINA RESULT:    -3.473      3.124      4.416
REMARK INTER + INTRA:          -3.574
REMARK INTER:                  -3.574
REMARK INTRA:                   0.000
REMARK UNBOUND:                 0.000
REMARK SMILES Cc1ccccc1O
REMARK SMILES IDX 1 1 2 2 3 3 4 4 5 5 6 6 7 7 8 8
REMARK H PARENT 8 9
REMARK Flexibility Score: inf
ROOT
ATOM      1  C   UNL     1      31.629  28.614  75.150  1.00  0.00     0.048 C 
ATOM      2  C   UNL     1      30.195  28.709  74.708  1.00  0.00    -0.009 A 
ATOM      3  C   UNL     1      29.229  27.876  75.298  1.00  0.00     0.007 A 
ATOM      4  C   UNL     1      27.891  27.949  74.900  1.00  0.00     0.001 A 
ATOM      5  C   UNL     1      27.503  28.854  73.911  1.00  0.00     0.004 A 
ATOM      6  C   UNL     1      28.453  29.688  73.316  1.00  0.00     0.046 A 
ATOM      7  C   UNL     1      29.797  29.625  73.705  1.00  0.00     0.118 A 
ENDROOT
BRANCH   7   8
ATOM      8  O   UNL     1      30.707  30.481  73.080  1.00  0.00    -0.508 OA
ATOM      9  H   UNL     1      31.666  30.584  73.388  1.00  0.00     0.293 HD
ENDBRANCH   7   8
TORSDOF 1
ENDMDL
MODEL 6
REMARK VINA RESULT:    -3.449     14.278     15.738
REMARK INTER + INTRA:          -3.549
REMARK INTER:                  -3.549
REMARK INTRA:                   0.000
REMARK UNBOUND:                 0.000
REMARK SMILES Cc1ccccc1O
REMARK SMILES IDX 1 1 2 2 3 3 4 4 5 5 6 6 7 7 8 8
REMARK H PARENT 8 9
REMARK Flexibility Score: inf
ROOT
ATOM      1  C   UNL     1      23.335  34.886  85.298  1.00  0.00     0.048 C 
ATOM      2  C   UNL     1      23.235  36.143  86.118  1.00  0.00    -0.009 A 
ATOM      3  C   UNL     1      22.609  37.279  85.576  1.00  0.00     0.007 A 
ATOM      4  C   UNL     1      22.506  38.456  86.321  1.00  0.00     0.001 A 
ATOM      5  C   UNL     1      23.026  38.512  87.615  1.00  0.00     0.004 A 
ATOM      6  C   UNL     1      23.651  37.391  88.167  1.00  0.00     0.046 A 
ATOM      7  C   UNL     1      23.761  36.205  87.430  1.00  0.00     0.118 A 
ENDROOT
BRANCH   7   8
ATOM      8  O   UNL     1      24.394  35.112  88.026  1.00  0.00    -0.508 OA
ATOM      9  H   UNL     1      23.923  34.482  88.662  1.00  0.00     0.293 HD
ENDBRANCH   7   8
TORSDOF 1
ENDMDL
MODEL 7
REMARK VINA RESULT:    -3.416     13.893     14.971
REMARK INTER + INTRA:          -3.516
REMARK INTER:                  -3.516
REMARK INTRA:                   0.000
REMARK UNBOUND:                 0.000
REMARK SMILES Cc1ccccc1O
REMARK SMILES IDX 1 1 2 2 3 3 4 4 5 5 6 6 7 7 8 8
REMARK H PARENT 8 9
REMARK Flexibility Score: inf
ROOT
ATOM      1  C   UNL     1      22.060  34.556  88.937  1.00  0.00     0.048 C 
ATOM      2  C   UNL     1      22.146  34.678  87.440  1.00  0.00    -0.009 A 
ATOM      3  C   UNL     1      21.013  34.402  86.655  1.00  0.00     0.007 A 
ATOM      4  C   UNL     1      21.073  34.509  85.263  1.00  0.00     0.001 A 
ATOM      5  C   UNL     1      22.261  34.893  84.640  1.00  0.00     0.004 A 
ATOM      6  C   UNL     1      23.394  35.169  85.409  1.00  0.00     0.046 A 
ATOM      7  C   UNL     1      23.349  35.066  86.805  1.00  0.00     0.118 A 
ENDROOT
BRANCH   7   8
ATOM      8  O   UNL     1      24.509  35.353  87.528  1.00  0.00    -0.508 OA
ATOM      9  H   UNL     1      24.926  34.703  88.181  1.00  0.00     0.293 HD
ENDBRANCH   7   8
TORSDOF 1
ENDMDL
MODEL 8
REMARK VINA RESULT:    -3.394     11.152     11.546
REMARK INTER + INTRA:          -3.494
REMARK INTER:                  -3.494
REMARK INTRA:                   0.000
REMARK UNBOUND:                 0.000
REMARK SMILES Cc1ccccc1O
REMARK SMILES IDX 1 1 2 2 3 3 4 4 5 5 6 6 7 7 8 8
REMARK H PARENT 8 9
REMARK Flexibility Score: inf
ROOT
ATOM      1  C   UNL     1      33.414  39.954  74.103  1.00  0.00     0.048 C 
ATOM      2  C   UNL     1      32.260  39.138  73.590  1.00  0.00    -0.009 A 
ATOM      3  C   UNL     1      31.047  39.126  74.301  1.00  0.00     0.007 A 
ATOM      4  C   UNL     1      29.964  38.373  73.841  1.00  0.00     0.001 A 
ATOM      5  C   UNL     1      30.078  37.625  72.668  1.00  0.00     0.004 A 
ATOM      6  C   UNL     1      31.277  37.628  71.952  1.00  0.00     0.046 A 
ATOM      7  C   UNL     1      32.371  38.378  72.401  1.00  0.00     0.118 A 
ENDROOT
BRANCH   7   8
ATOM      8  O   UNL     1      33.548  38.347  71.650  1.00  0.00    -0.508 OA
ATOM      9  H   UNL     1      33.695  37.705  70.882  1.00  0.00     0.293 HD
ENDBRANCH   7   8
TORSDOF 1
ENDMDL
MODEL 9
REMARK VINA RESULT:    -3.363      5.398      6.597
REMARK INTER + INTRA:          -3.461
REMARK INTER:                  -3.461
REMARK INTRA:                   0.000
REMARK UNBOUND:                 0.000
REMARK SMILES Cc1ccccc1O
REMARK SMILES IDX 1 1 2 2 3 3 4 4 5 5 6 6 7 7 8 8
REMARK H PARENT 8 9
REMARK Flexibility Score: inf
ROOT
ATOM      1  C   UNL     1      29.689  33.426  72.289  1.00  0.00     0.048 C 
ATOM      2  C   UNL     1      29.065  32.108  72.657  1.00  0.00    -0.009 A 
ATOM      3  C   UNL     1      27.704  32.057  73.007  1.00  0.00     0.007 A 
ATOM      4  C   UNL     1      27.106  30.843  73.353  1.00  0.00     0.001 A 
ATOM      5  C   UNL     1      27.858  29.667  73.352  1.00  0.00     0.004 A 
ATOM      6  C   UNL     1      29.211  29.703  73.007  1.00  0.00     0.046 A 
ATOM      7  C   UNL     1      29.824  30.913  72.659  1.00  0.00     0.118 A 
ENDROOT
BRANCH   7   8
ATOM      8  O   UNL     1      31.179  30.897  72.321  1.00  0.00    -0.508 OA
ATOM      9  H   UNL     1      31.813  30.170  72.625  1.00  0.00     0.293 HD
ENDBRANCH   7   8
TORSDOF 1
ENDMDL
