MODEL 1
REMARK VINA RESULT:    -3.159      0.000      0.000
REMARK INTER + INTRA:          -3.834
REMARK INTER:                  -3.714
REMARK INTRA:                  -0.121
REMARK UNBOUND:                -0.121
REMARK SMILES O=C([O-])CCC(=O)[O-]
REMARK SMILES IDX 4 1 2 2 1 3 3 4 5 5 6 6 7 7 8 8
REMARK H PARENT
REMARK Flexibility Score: inf
ROOT
ATOM      1  C   UNL     1     192.205 192.654 191.578  1.00  0.00     0.059 C 
ENDROOT
BRANCH   1   2
ATOM      2  C   UNL     1     192.597 193.981 191.004  1.00  0.00     0.042 C 
ATOM      3  O   UNL     1     191.816 194.966 191.092  1.00  0.00    -0.550 OA
ATOM      4  O   UNL     1     193.806 194.119 190.335  1.00  0.00    -0.550 OA
ENDBRANCH   1   2
BRANCH   1   5
ATOM      5  C   UNL     1     191.242 191.901 190.656  1.00  0.00     0.059 C 
BRANCH   5   6
ATOM      6  C   UNL     1     189.834 191.955 191.164  1.00  0.00     0.042 C 
ATOM      7  O   UNL     1     189.051 192.857 190.767  1.00  0.00    -0.550 OA
ATOM      8  O   UNL     1     189.374 190.984 192.045  1.00  0.00    -0.550 OA
ENDBRANCH   5   6
ENDBRANCH   1   5
TORSDOF 3
ENDMDL
MODEL 2
REMARK VINA RESULT:    -3.123      0.274      1.178
REMARK INTER + INTRA:          -3.791
REMARK INTER:                  -3.671
REMARK INTRA:                  -0.121
REMARK UNBOUND:                -0.121
REMARK SMILES O=C([O-])CCC(=O)[O-]
REMARK SMILES IDX 4 1 2 2 1 3 3 4 5 5 6 6 7 7 8 8
REMARK H PARENT
REMARK Flexibility Score: inf
ROOT
ATOM      1  C   UNL     1     192.272 192.613 191.549  1.00  0.00     0.059 C 
ENDROOT
BRANCH   1   2
ATOM      2  C   UNL     1     192.616 193.948 190.964  1.00  0.00     0.042 C 
ATOM      3  O   UNL     1     193.712 194.116 190.365  1.00  0.00    -0.550 OA
ATOM      4  O   UNL     1     191.743 195.019 191.116  1.00  0.00    -0.550 OA
ENDBRANCH   1   2
BRANCH   1   5
ATOM      5  C   UNL     1     191.180 191.906 190.741  1.00  0.00     0.059 C 
BRANCH   5   6
ATOM      6  C   UNL     1     189.874 191.888 191.476  1.00  0.00     0.042 C 
ATOM      7  O   UNL     1     189.070 192.850 191.361  1.00  0.00    -0.550 OA
ATOM      8  O   UNL     1     189.527 190.790 192.253  1.00  0.00    -0.550 OA
ENDBRANCH   5   6
ENDBRANCH   1   5
TORSDOF 3
ENDMDL
MODEL 3
REMARK VINA RESULT:    -3.103      0.469      3.920
REMARK INTER + INTRA:          -3.768
REMARK INTER:                  -3.646
REMARK INTRA:                  -0.121
REMARK UNBOUND:                -0.121
REMARK SMILES O=C([O-])CCC(=O)[O-]
REMARK SMILES IDX 4 1 2 2 1 3 3 4 5 5 6 6 7 7 8 8
REMARK H PARENT
REMARK Flexibility Score: inf
ROOT
ATOM      1  C   UNL     1     191.138 191.888 190.912  1.00  0.00     0.059 C 
ENDROOT
BRANCH   1   2
ATOM      2  C   UNL     1     189.885 191.828 191.730  1.00  0.00     0.042 C 
ATOM      3  O   UNL     1     189.537 190.749 192.280  1.00  0.00    -0.550 OA
ATOM      4  O   UNL     1     189.079 192.953 191.851  1.00  0.00    -0.550 OA
ENDBRANCH   1   2
BRANCH   1   5
ATOM      5  C   UNL     1     192.262 192.621 191.652  1.00  0.00     0.059 C 
BRANCH   5   6
ATOM      6  C   UNL     1     192.573 193.941 191.015  1.00  0.00     0.042 C 
ATOM      7  O   UNL     1     191.780 194.911 191.146  1.00  0.00    -0.550 OA
ATOM      8  O   UNL     1     193.759 194.113 190.311  1.00  0.00    -0.550 OA
ENDBRANCH   5   6
ENDBRANCH   1   5
TORSDOF 3
ENDMDL
MODEL 4
REMARK VINA RESULT:    -3.095      1.601      3.843
REMARK INTER + INTRA:          -3.759
REMARK INTER:                  -3.640
REMARK INTRA:                  -0.119
REMARK UNBOUND:                -0.121
REMARK SMILES O=C([O-])CCC(=O)[O-]
REMARK SMILES IDX 4 1 2 2 1 3 3 4 5 5 6 6 7 7 8 8
REMARK H PARENT
REMARK Flexibility Score: inf
ROOT
ATOM      1  C   UNL     1     191.802 191.479 192.048  1.00  0.00     0.059 C 
ENDROOT
BRANCH   1   2
ATOM      2  C   UNL     1     190.727 190.774 192.816  1.00  0.00     0.042 C 
ATOM      3  O   UNL     1     189.515 190.947 192.517  1.00  0.00    -0.550 OA
ATOM      4  O   UNL     1     191.061 189.958 193.889  1.00  0.00    -0.550 OA
ENDBRANCH   1   2
BRANCH   1   5
ATOM      5  C   UNL     1     191.217 192.489 191.055  1.00  0.00     0.059 C 
BRANCH   5   6
ATOM      6  C   UNL     1     191.384 193.898 191.537  1.00  0.00     0.042 C 
ATOM      7  O   UNL     1     190.640 194.348 192.448  1.00  0.00    -0.550 OA
ATOM      8  O   UNL     1     192.388 194.700 191.010  1.00  0.00    -0.550 OA
ENDBRANCH   5   6
ENDBRANCH   1   5
TORSDOF 3
ENDMDL
MODEL 5
REMARK VINA RESULT:    -3.073      1.501      1.953
REMARK INTER + INTRA:          -3.732
REMARK INTER:                  -3.628
REMARK INTRA:                  -0.105
REMARK UNBOUND:                -0.121
REMARK SMILES O=C([O-])CCC(=O)[O-]
REMARK SMILES IDX 4 1 2 2 1 3 3 4 5 5 6 6 7 7 8 8
REMARK H PARENT
REMARK Flexibility Score: inf
ROOT
ATOM      1  C   UNL     1     192.469 193.897 191.052  1.00  0.00     0.059 C 
ENDROOT
BRANCH   1   2
ATOM      2  C   UNL     1     191.629 195.045 191.522  1.00  0.00     0.042 C 
ATOM      3  O   UNL     1     191.507 196.076 190.808  1.00  0.00    -0.550 OA
ATOM      4  O   UNL     1     191.016 194.994 192.767  1.00  0.00    -0.550 OA
ENDBRANCH   1   2
BRANCH   1   5
ATOM      5  C   UNL     1     192.155 192.613 191.826  1.00  0.00     0.059 C 
BRANCH   5   6
ATOM      6  C   UNL     1     191.020 191.857 191.206  1.00  0.00     0.042 C 
ATOM      7  O   UNL     1     190.981 191.682 189.960  1.00  0.00    -0.550 OA
ATOM      8  O   UNL     1     190.026 191.311 192.009  1.00  0.00    -0.550 OA
ENDBRANCH   5   6
ENDBRANCH   1   5
TORSDOF 3
ENDMDL
MODEL 6
REMARK VINA RESULT:    -3.069      4.025      6.304
REMARK INTER + INTRA:          -3.728
REMARK INTER:                  -3.650
REMARK INTRA:                  -0.078
REMARK UNBOUND:                -0.121
REMARK SMILES O=C([O-])CCC(=O)[O-]
REMARK SMILES IDX 4 1 2 2 1 3 3 4 5 5 6 6 7 7 8 8
REMARK H PARENT
REMARK Flexibility Score: inf
ROOT
ATOM      1  C   UNL     1     191.355 197.426 190.851  1.00  0.00     0.059 C 
ENDROOT
BRANCH   1   2
ATOM      2  C   UNL     1     191.559 196.105 191.529  1.00  0.00     0.042 C 
ATOM      3  O   UNL     1     192.150 195.169 190.928  1.00  0.00    -0.550 OA
ATOM      4  O   UNL     1     191.059 195.895 192.808  1.00  0.00    -0.550 OA
ENDBRANCH   1   2
BRANCH   1   5
ATOM      5  C   UNL     1     191.285 198.575 191.863  1.00  0.00     0.059 C 
BRANCH   5   6
ATOM      6  C   UNL     1     192.557 199.367 191.886  1.00  0.00     0.042 C 
ATOM      7  O   UNL     1     193.309 199.328 192.895  1.00  0.00    -0.550 OA
ATOM      8  O   UNL     1     192.932 200.115 190.777  1.00  0.00    -0.550 OA
ENDBRANCH   5   6
ENDBRANCH   1   5
TORSDOF 3
ENDMDL
MODEL 7
REMARK VINA RESULT:    -3.066      1.621      2.241
REMARK INTER + INTRA:          -3.725
REMARK INTER:                  -3.604
REMARK INTRA:                  -0.121
REMARK UNBOUND:                -0.121
REMARK SMILES O=C([O-])CCC(=O)[O-]
REMARK SMILES IDX 4 1 2 2 1 3 3 4 5 5 6 6 7 7 8 8
REMARK H PARENT
REMARK Flexibility Score: inf
ROOT
ATOM      1  C   UNL     1     191.208 192.523 191.100  1.00  0.00     0.059 C 
ENDROOT
BRANCH   1   2
ATOM      2  C   UNL     1     191.294 193.928 191.614  1.00  0.00     0.042 C 
ATOM      3  O   UNL     1     190.461 194.345 192.463  1.00  0.00    -0.550 OA
ATOM      4  O   UNL     1     192.267 194.789 191.124  1.00  0.00    -0.550 OA
ENDBRANCH   1   2
BRANCH   1   5
ATOM      5  C   UNL     1     191.829 191.524 192.082  1.00  0.00     0.059 C 
BRANCH   5   6
ATOM      6  C   UNL     1     190.780 190.777 192.847  1.00  0.00     0.042 C 
ATOM      7  O   UNL     1     191.106 190.033 193.809  1.00  0.00    -0.550 OA
ATOM      8  O   UNL     1     189.437 190.935 192.525  1.00  0.00    -0.550 OA
ENDBRANCH   5   6
ENDBRANCH   1   5
TORSDOF 3
ENDMDL
MODEL 8
REMARK VINA RESULT:    -3.064      1.914      3.815
REMARK INTER + INTRA:          -3.722
REMARK INTER:                  -3.694
REMARK INTRA:                  -0.028
REMARK UNBOUND:                -0.121
REMARK SMILES O=C([O-])CCC(=O)[O-]
REMARK SMILES IDX 4 1 2 2 1 3 3 4 5 5 6 6 7 7 8 8
REMARK H PARENT
REMARK Flexibility Score: inf
ROOT
ATOM      1  C   UNL     1     192.120 193.246 191.500  1.00  0.00     0.059 C 
ENDROOT
BRANCH   1   2
ATOM      2  C   UNL     1     191.540 191.884 191.266  1.00  0.00     0.042 C 
ATOM      3  O   UNL     1     191.036 191.593 190.149  1.00  0.00    -0.550 OA
ATOM      4  O   UNL     1     191.519 190.952 192.296  1.00  0.00    -0.550 OA
ENDBRANCH   1   2
BRANCH   1   5
ATOM      5  C   UNL     1     191.034 194.327 191.518  1.00  0.00     0.059 C 
BRANCH   5   6
ATOM      6  C   UNL     1     191.623 195.700 191.619  1.00  0.00     0.042 C 
ATOM      7  O   UNL     1     191.343 196.575 190.758  1.00  0.00    -0.550 OA
ATOM      8  O   UNL     1     192.449 196.027 192.688  1.00  0.00    -0.550 OA
ENDBRANCH   5   6
ENDBRANCH   1   5
TORSDOF 3
ENDMDL
MODEL 9
REMARK VINA RESULT:    -3.056     14.080     14.690
REMARK INTER + INTRA:          -3.713
REMARK INTER:                  -3.597
REMARK INTRA:                  -0.116
REMARK UNBOUND:                -0.121
REMARK SMILES O=C([O-])CCC(=O)[O-]
REMARK SMILES IDX 4 1 2 2 1 3 3 4 5 5 6 6 7 7 8 8
REMARK H PARENT
REMARK Flexibility Score: inf
ROOT
ATOM      1  C   UNL     1     202.001 185.075 185.456  1.00  0.00     0.059 C 
ENDROOT
BRANCH   1   2
ATOM      2  C   UNL     1     201.180 183.998 186.096  1.00  0.00     0.042 C 
ATOM      3  O   UNL     1     200.727 183.049 185.402  1.00  0.00    -0.550 OA
ATOM      4  O   UNL     1     200.880 184.066 187.450  1.00  0.00    -0.550 OA
ENDBRANCH   1   2
BRANCH   1   5
ATOM      5  C   UNL     1     202.082 184.897 183.936  1.00  0.00     0.059 C 
BRANCH   5   6
ATOM      6  C   UNL     1     201.193 185.866 183.218  1.00  0.00     0.042 C 
ATOM      7  O   UNL     1     200.030 185.525 182.875  1.00  0.00    -0.550 OA
ATOM      8  O   UNL     1     201.634 187.159 182.965  1.00  0.00    -0.550 OA
ENDBRANCH   5   6
ENDBRANCH   1   5
TORSDOF 3
ENDMDL
