MODEL 1
REMARK VINA RESULT:    -3.147      0.000      0.000
REMARK INTER + INTRA:          -3.802
REMARK INTER:                  -3.699
REMARK INTRA:                  -0.102
REMARK UNBOUND:                -0.102
REMARK SMILES CCCCC(=O)[O-]
REMARK SMILES IDX 4 1 5 2 6 3 7 4 3 5 2 6 1 7
REMARK H PARENT
REMARK Flexibility Score: inf
ROOT
ATOM      1  C   UNL     1     -15.412  10.066  32.272  1.00  0.00     0.053 C 
ENDROOT
BRANCH   1   2
ATOM      2  C   UNL     1     -14.298   9.125  32.617  1.00  0.00     0.041 C 
ATOM      3  O   UNL     1     -13.719   9.209  33.732  1.00  0.00    -0.550 OA
ATOM      4  O   UNL     1     -13.919   8.136  31.718  1.00  0.00    -0.550 OA
ENDBRANCH   1   2
BRANCH   1   5
ATOM      5  C   UNL     1     -16.786   9.403  32.436  1.00  0.00     0.006 C 
BRANCH   5   6
ATOM      6  C   UNL     1     -17.378   8.954  31.092  1.00  0.00    -0.003 C 
ATOM      7  C   UNL     1     -17.612   7.447  31.070  1.00  0.00     0.004 C 
ENDBRANCH   5   6
ENDBRANCH   1   5
TORSDOF 3
ENDMDL
MODEL 2
REMARK VINA RESULT:    -3.139      2.511      3.238
REMARK INTER + INTRA:          -3.792
REMARK INTER:                  -3.701
REMARK INTRA:                  -0.091
REMARK UNBOUND:                -0.102
REMARK SMILES CCCCC(=O)[O-]
REMARK SMILES IDX 4 1 5 2 6 3 7 4 3 5 2 6 1 7
REMARK H PARENT
REMARK Flexibility Score: inf
ROOT
ATOM      1  C   UNL     1     -14.226   8.122  31.275  1.00  0.00     0.053 C 
ENDROOT
BRANCH   1   2
ATOM      2  C   UNL     1     -15.231   7.013  31.215  1.00  0.00     0.041 C 
ATOM      3  O   UNL     1     -14.853   5.812  31.239  1.00  0.00    -0.550 OA
ATOM      4  O   UNL     1     -16.588   7.306  31.165  1.00  0.00    -0.550 OA
ENDBRANCH   1   2
BRANCH   1   5
ATOM      5  C   UNL     1     -14.382   8.961  32.550  1.00  0.00     0.006 C 
BRANCH   5   6
ATOM      6  C   UNL     1     -14.900  10.376  32.254  1.00  0.00    -0.003 C 
ATOM      7  C   UNL     1     -14.966  10.635  30.752  1.00  0.00     0.004 C 
ENDBRANCH   5   6
ENDBRANCH   1   5
TORSDOF 3
ENDMDL
MODEL 3
REMARK VINA RESULT:    -3.114      2.091      2.825
REMARK INTER + INTRA:          -3.763
REMARK INTER:                  -3.691
REMARK INTRA:                  -0.072
REMARK UNBOUND:                -0.102
REMARK SMILES CCCCC(=O)[O-]
REMARK SMILES IDX 4 1 5 2 6 3 7 4 3 5 2 6 1 7
REMARK H PARENT
REMARK Flexibility Score: inf
ROOT
ATOM      1  C   UNL     1     -15.063  10.453  31.950  1.00  0.00     0.053 C 
ENDROOT
BRANCH   1   2
ATOM      2  C   UNL     1     -14.298   9.249  32.408  1.00  0.00     0.041 C 
ATOM      3  O   UNL     1     -13.945   9.142  33.612  1.00  0.00    -0.550 OA
ATOM      4  O   UNL     1     -14.001   8.231  31.511  1.00  0.00    -0.550 OA
ENDBRANCH   1   2
BRANCH   1   5
ATOM      5  C   UNL     1     -15.387  10.384  30.452  1.00  0.00     0.006 C 
BRANCH   5   6
ATOM      6  C   UNL     1     -14.690  11.496  29.655  1.00  0.00    -0.003 C 
ATOM      7  C   UNL     1     -13.842  10.916  28.527  1.00  0.00     0.004 C 
ENDBRANCH   5   6
ENDBRANCH   1   5
TORSDOF 3
ENDMDL
MODEL 4
REMARK VINA RESULT:    -3.052     18.048     19.370
REMARK INTER + INTRA:          -3.689
REMARK INTER:                  -3.582
REMARK INTRA:                  -0.107
REMARK UNBOUND:                -0.102
REMARK SMILES CCCCC(=O)[O-]
REMARK SMILES IDX 4 1 5 2 6 3 7 4 3 5 2 6 1 7
REMARK H PARENT
REMARK Flexibility Score: inf
ROOT
ATOM      1  C   UNL     1     -15.151  -5.699  20.202  1.00  0.00     0.053 C 
ENDROOT
BRANCH   1   2
ATOM      2  C   UNL     1     -15.862  -6.423  19.101  1.00  0.00     0.041 C 
ATOM      3  O   UNL     1     -17.119  -6.493  19.096  1.00  0.00    -0.550 OA
ATOM      4  O   UNL     1     -15.138  -6.995  18.063  1.00  0.00    -0.550 OA
ENDBRANCH   1   2
BRANCH   1   5
ATOM      5  C   UNL     1     -14.965  -6.588  21.439  1.00  0.00     0.006 C 
BRANCH   5   6
ATOM      6  C   UNL     1     -16.025  -6.312  22.516  1.00  0.00    -0.003 C 
ATOM      7  C   UNL     1     -16.529  -4.875  22.437  1.00  0.00     0.004 C 
ENDBRANCH   5   6
ENDBRANCH   1   5
TORSDOF 3
ENDMDL
MODEL 5
REMARK VINA RESULT:    -3.046     17.049     17.772
REMARK INTER + INTRA:          -3.682
REMARK INTER:                  -3.666
REMARK INTRA:                  -0.016
REMARK UNBOUND:                -0.102
REMARK SMILES CCCCC(=O)[O-]
REMARK SMILES IDX 4 1 5 2 6 3 7 4 3 5 2 6 1 7
REMARK H PARENT
REMARK Flexibility Score: inf
ROOT
ATOM      1  C   UNL     1     -22.230  -6.755  25.604  1.00  0.00     0.053 C 
ENDROOT
BRANCH   1   2
ATOM      2  C   UNL     1     -22.986  -6.199  26.772  1.00  0.00     0.041 C 
ATOM      3  O   UNL     1     -22.539  -6.337  27.941  1.00  0.00    -0.550 OA
ATOM      4  O   UNL     1     -24.170  -5.502  26.566  1.00  0.00    -0.550 OA
ENDBRANCH   1   2
BRANCH   1   5
ATOM      5  C   UNL     1     -22.044  -5.707  24.498  1.00  0.00     0.006 C 
BRANCH   5   6
ATOM      6  C   UNL     1     -20.803  -5.987  23.638  1.00  0.00    -0.003 C 
ATOM      7  C   UNL     1     -20.001  -4.712  23.399  1.00  0.00     0.004 C 
ENDBRANCH   5   6
ENDBRANCH   1   5
TORSDOF 3
ENDMDL
MODEL 6
REMARK VINA RESULT:    -2.999     17.321     18.405
REMARK INTER + INTRA:          -3.627
REMARK INTER:                  -3.530
REMARK INTRA:                  -0.097
REMARK UNBOUND:                -0.102
REMARK SMILES CCCCC(=O)[O-]
REMARK SMILES IDX 4 1 5 2 6 3 7 4 3 5 2 6 1 7
REMARK H PARENT
REMARK Flexibility Score: inf
ROOT
ATOM      1  C   UNL     1     -16.620  -5.201  22.236  1.00  0.00     0.053 C 
ENDROOT
BRANCH   1   2
ATOM      2  C   UNL     1     -18.097  -5.437  22.154  1.00  0.00     0.041 C 
ATOM      3  O   UNL     1     -18.879  -4.842  22.941  1.00  0.00    -0.550 OA
ATOM      4  O   UNL     1     -18.613  -6.291  21.187  1.00  0.00    -0.550 OA
ENDBRANCH   1   2
BRANCH   1   5
ATOM      5  C   UNL     1     -15.855  -6.494  22.550  1.00  0.00     0.006 C 
BRANCH   5   6
ATOM      6  C   UNL     1     -14.697  -6.735  21.572  1.00  0.00    -0.003 C 
ATOM      7  C   UNL     1     -15.159  -6.594  20.125  1.00  0.00     0.004 C 
ENDBRANCH   5   6
ENDBRANCH   1   5
TORSDOF 3
ENDMDL
MODEL 7
REMARK VINA RESULT:    -2.998      2.132      2.926
REMARK INTER + INTRA:          -3.626
REMARK INTER:                  -3.531
REMARK INTRA:                  -0.096
REMARK UNBOUND:                -0.102
REMARK SMILES CCCCC(=O)[O-]
REMARK SMILES IDX 4 1 5 2 6 3 7 4 3 5 2 6 1 7
REMARK H PARENT
REMARK Flexibility Score: inf
ROOT
ATOM      1  C   UNL     1     -14.269   7.732  31.234  1.00  0.00     0.053 C 
ENDROOT
BRANCH   1   2
ATOM      2  C   UNL     1     -13.914   8.288  29.890  1.00  0.00     0.041 C 
ATOM      3  O   UNL     1     -14.161   9.492  29.616  1.00  0.00    -0.550 OA
ATOM      4  O   UNL     1     -13.281   7.485  28.949  1.00  0.00    -0.550 OA
ENDBRANCH   1   2
BRANCH   1   5
ATOM      5  C   UNL     1     -14.273   8.820  32.316  1.00  0.00     0.006 C 
BRANCH   5   6
ATOM      6  C   UNL     1     -15.623   8.908  33.044  1.00  0.00    -0.003 C 
ATOM      7  C   UNL     1     -16.765   9.136  32.060  1.00  0.00     0.004 C 
ENDBRANCH   5   6
ENDBRANCH   1   5
TORSDOF 3
ENDMDL
MODEL 8
REMARK VINA RESULT:    -2.995      2.205      2.830
REMARK INTER + INTRA:          -3.623
REMARK INTER:                  -3.518
REMARK INTRA:                  -0.105
REMARK UNBOUND:                -0.102
REMARK SMILES CCCCC(=O)[O-]
REMARK SMILES IDX 4 1 5 2 6 3 7 4 3 5 2 6 1 7
REMARK H PARENT
REMARK Flexibility Score: inf
ROOT
ATOM      1  C   UNL     1     -15.112  10.834  30.945  1.00  0.00     0.053 C 
ENDROOT
BRANCH   1   2
ATOM      2  C   UNL     1     -14.386  10.292  29.752  1.00  0.00     0.041 C 
ATOM      3  O   UNL     1     -14.153   9.058  29.658  1.00  0.00    -0.550 OA
ATOM      4  O   UNL     1     -13.993  11.146  28.730  1.00  0.00    -0.550 OA
ENDBRANCH   1   2
BRANCH   1   5
ATOM      5  C   UNL     1     -14.999   9.896  32.154  1.00  0.00     0.006 C 
BRANCH   5   6
ATOM      6  C   UNL     1     -16.374   9.461  32.682  1.00  0.00    -0.003 C 
ATOM      7  C   UNL     1     -17.105   8.592  31.664  1.00  0.00     0.004 C 
ENDBRANCH   5   6
ENDBRANCH   1   5
TORSDOF 3
ENDMDL
MODEL 9
REMARK VINA RESULT:    -2.991      2.270      2.907
REMARK INTER + INTRA:          -3.618
REMARK INTER:                  -3.522
REMARK INTRA:                  -0.096
REMARK UNBOUND:                -0.102
REMARK SMILES CCCCC(=O)[O-]
REMARK SMILES IDX 4 1 5 2 6 3 7 4 3 5 2 6 1 7
REMARK H PARENT
REMARK Flexibility Score: inf
ROOT
ATOM      1  C   UNL     1     -15.096  10.832  30.667  1.00  0.00     0.053 C 
ENDROOT
BRANCH   1   2
ATOM      2  C   UNL     1     -14.314  10.231  29.539  1.00  0.00     0.041 C 
ATOM      3  O   UNL     1     -13.800  10.969  28.658  1.00  0.00    -0.550 OA
ATOM      4  O   UNL     1     -14.127   8.856  29.478  1.00  0.00    -0.550 OA
ENDBRANCH   1   2
BRANCH   1   5
ATOM      5  C   UNL     1     -14.886  10.062  31.977  1.00  0.00     0.006 C 
BRANCH   5   6
ATOM      6  C   UNL     1     -16.212   9.597  32.596  1.00  0.00    -0.003 C 
ATOM      7  C   UNL     1     -17.051   8.824  31.584  1.00  0.00     0.004 C 
ENDBRANCH   5   6
ENDBRANCH   1   5
TORSDOF 3
ENDMDL
