MODEL 1
REMARK VINA RESULT:    -3.813      0.000      0.000
REMARK INTER + INTRA:          -7.576
REMARK INTER:                  -5.820
REMARK INTRA:                  -1.756
REMARK UNBOUND:                -1.756
REMARK SMILES OC[C@@H]1O[C@H](O[C@@]2(CO)O[C@H](CO)[C@@H](O)[C@@H]2O)[C@@H](O)[C@@H](O)[C@H]1O
REMARK SMILES IDX 6 1 5 2 3 3 22 4 4 5 20 6 18 7 2 8 1 9 23 11 21 13 19 15
REMARK SMILES IDX 7 17 16 18 10 19 14 20 11 21 8 22 9 23 17 25 15 27 12 29
REMARK SMILES IDX 13 30
REMARK H PARENT 1 10 23 12 21 14 19 16 9 24 17 26 15 28 13 31
REMARK Flexibility Score: inf
ROOT
ATOM      1  O   UNL     1       7.339  -0.003  -1.639  1.00  0.00    -0.313 OA
ENDROOT
BRANCH   1   2
ATOM      2  C   UNL     1       6.988  -0.438  -0.331  1.00  0.00     0.285 C 
ATOM      3  C   UNL     1       5.447  -2.118  -1.065  1.00  0.00     0.178 C 
ATOM      4  C   UNL     1       6.446  -3.261  -0.741  1.00  0.00     0.177 C 
ATOM      5  O   UNL     1       5.656  -0.932  -0.304  1.00  0.00    -0.341 OA
ATOM      6  C   UNL     1       7.898  -2.756  -0.694  1.00  0.00     0.179 C 
ATOM      7  C   UNL     1       7.998  -1.484   0.163  1.00  0.00     0.202 C 
BRANCH   3   8
ATOM      8  C   UNL     1       5.230  -1.840  -2.572  1.00  0.00     0.191 C 
BRANCH   8   9
ATOM      9  O   UNL     1       4.639  -0.591  -2.799  1.00  0.00    -0.394 OA
ATOM     10  H   UNL     1       4.290  -0.616  -3.727  1.00  0.00     0.210 HD
ENDBRANCH   8   9
ENDBRANCH   3   8
BRANCH   4  11
ATOM     11  O   UNL     1       6.095  -3.829   0.498  1.00  0.00    -0.387 OA
ATOM     12  H   UNL     1       6.483  -3.251   1.206  1.00  0.00     0.211 HD
ENDBRANCH   4  11
BRANCH   6  13
ATOM     13  O   UNL     1       8.739  -3.762  -0.187  1.00  0.00    -0.387 OA
ATOM     14  H   UNL     1       9.234  -3.364   0.578  1.00  0.00     0.211 HD
ENDBRANCH   6  13
BRANCH   7  15
ATOM     15  O   UNL     1       7.744  -1.772   1.515  1.00  0.00    -0.385 OA
ATOM     16  H   UNL     1       7.062  -2.493   1.534  1.00  0.00     0.211 HD
ENDBRANCH   7  15
ENDBRANCH   1   2
BRANCH   1  17
ATOM     17  C   UNL     1       7.503   1.404  -1.789  1.00  0.00     0.224 C 
ATOM     18  C   UNL     1       7.545   2.145  -0.425  1.00  0.00     0.208 C 
ATOM     19  O   UNL     1       6.362   1.872  -2.490  1.00  0.00    -0.337 OA
ATOM     20  C   UNL     1       6.730   3.382  -0.688  1.00  0.00     0.180 C 
ATOM     21  C   UNL     1       5.741   2.892  -1.739  1.00  0.00     0.179 C 
BRANCH  17  22
ATOM     22  C   UNL     1       8.722   1.721  -2.691  1.00  0.00     0.225 C 
BRANCH  22  23
ATOM     23  O   UNL     1       9.814   0.930  -2.308  1.00  0.00    -0.391 OA
ATOM     24  H   UNL     1      10.516   1.075  -2.994  1.00  0.00     0.210 HD
ENDBRANCH  22  23
ENDBRANCH  17  22
BRANCH  18  25
ATOM     25  O   UNL     1       8.851   2.475  -0.024  1.00  0.00    -0.385 OA
ATOM     26  H   UNL     1       8.851   3.450   0.164  1.00  0.00     0.211 HD
ENDBRANCH  18  25
BRANCH  20  27
ATOM     27  O   UNL     1       6.100   3.876   0.469  1.00  0.00    -0.387 OA
ATOM     28  H   UNL     1       6.562   4.710   0.747  1.00  0.00     0.211 HD
ENDBRANCH  20  27
BRANCH  21  29
ATOM     29  C   UNL     1       5.286   4.014  -2.677  1.00  0.00     0.191 C 
BRANCH  29  30
ATOM     30  O   UNL     1       5.695   5.255  -2.173  1.00  0.00    -0.394 OA
ATOM     31  H   UNL     1       6.552   5.090  -1.699  1.00  0.00     0.210 HD
ENDBRANCH  29  30
ENDBRANCH  21  29
ENDBRANCH   1  17
TORSDOF 13
ENDMDL
MODEL 2
REMARK VINA RESULT:    -3.751     11.368     13.897
REMARK INTER + INTRA:          -7.480
REMARK INTER:                  -5.852
REMARK INTRA:                  -1.629
REMARK UNBOUND:                -1.756
REMARK SMILES OC[C@@H]1O[C@H](O[C@@]2(CO)O[C@H](CO)[C@@H](O)[C@@H]2O)[C@@H](O)[C@@H](O)[C@H]1O
REMARK SMILES IDX 6 1 5 2 3 3 22 4 4 5 20 6 18 7 2 8 1 9 23 11 21 13 19 15
REMARK SMILES IDX 7 17 16 18 10 19 14 20 11 21 8 22 9 23 17 25 15 27 12 29
REMARK SMILES IDX 13 30
REMARK H PARENT 1 10 23 12 21 14 19 16 9 24 17 26 15 28 13 31
REMARK Flexibility Score: inf
ROOT
ATOM      1  O   UNL     1      -2.819  -5.615   6.844  1.00  0.00    -0.313 OA
ENDROOT
BRANCH   1   2
ATOM      2  C   UNL     1      -2.975  -4.364   6.183  1.00  0.00     0.285 C 
ATOM      3  C   UNL     1      -3.772  -5.300   4.128  1.00  0.00     0.178 C 
ATOM      4  C   UNL     1      -5.232  -4.868   4.427  1.00  0.00     0.177 C 
ATOM      5  O   UNL     1      -2.786  -4.506   4.783  1.00  0.00    -0.341 OA
ATOM      6  C   UNL     1      -5.464  -4.638   5.930  1.00  0.00     0.179 C 
ATOM      7  C   UNL     1      -4.348  -3.762   6.520  1.00  0.00     0.202 C 
BRANCH   3   8
ATOM      8  C   UNL     1      -3.497  -6.819   4.239  1.00  0.00     0.191 C 
BRANCH   8   9
ATOM      9  O   UNL     1      -2.138  -7.123   4.093  1.00  0.00    -0.394 OA
ATOM     10  H   UNL     1      -2.045  -8.085   4.317  1.00  0.00     0.210 HD
ENDBRANCH   8   9
ENDBRANCH   3   8
BRANCH   4  11
ATOM     11  O   UNL     1      -5.509  -3.688   3.712  1.00  0.00    -0.387 OA
ATOM     12  H   UNL     1      -5.786  -3.957   2.797  1.00  0.00     0.211 HD
ENDBRANCH   4  11
BRANCH   6  13
ATOM     13  O   UNL     1      -6.721  -4.042   6.135  1.00  0.00    -0.387 OA
ATOM     14  H   UNL     1      -7.302  -4.733   6.551  1.00  0.00     0.211 HD
ENDBRANCH   6  13
BRANCH   7  15
ATOM     15  O   UNL     1      -4.417  -2.454   6.008  1.00  0.00    -0.385 OA
ATOM     16  H   UNL     1      -5.349  -2.315   5.696  1.00  0.00     0.211 HD
ENDBRANCH   7  15
ENDBRANCH   1   2
BRANCH   1  17
ATOM     17  C   UNL     1      -1.549  -5.826   7.454  1.00  0.00     0.224 C 
ATOM     18  C   UNL     1      -0.668  -4.549   7.446  1.00  0.00     0.208 C 
ATOM     19  O   UNL     1      -0.884  -6.806   6.673  1.00  0.00    -0.337 OA
ATOM     20  C   UNL     1       0.699  -5.086   7.115  1.00  0.00     0.180 C 
ATOM     21  C   UNL     1       0.364  -6.298   6.254  1.00  0.00     0.179 C 
BRANCH  17  22
ATOM     22  C   UNL     1      -1.716  -6.442   8.866  1.00  0.00     0.225 C 
BRANCH  22  23
ATOM     23  O   UNL     1      -2.728  -5.767   9.561  1.00  0.00    -0.391 OA
ATOM     24  H   UNL     1      -2.417  -5.689  10.500  1.00  0.00     0.210 HD
ENDBRANCH  22  23
ENDBRANCH  17  22
BRANCH  18  25
ATOM     25  O   UNL     1      -0.663  -3.882   8.683  1.00  0.00    -0.385 OA
ATOM     26  H   UNL     1      -1.055  -2.984   8.521  1.00  0.00     0.211 HD
ENDBRANCH  18  25
BRANCH  20  27
ATOM     27  O   UNL     1       1.506  -4.146   6.446  1.00  0.00    -0.387 OA
ATOM     28  H   UNL     1       2.200  -4.637   5.933  1.00  0.00     0.211 HD
ENDBRANCH  20  27
BRANCH  21  29
ATOM     29  C   UNL     1       1.426  -7.396   6.358  1.00  0.00     0.191 C 
BRANCH  29  30
ATOM     30  O   UNL     1       2.546  -7.054   5.590  1.00  0.00    -0.394 OA
ATOM     31  H   UNL     1       2.195  -6.592   4.784  1.00  0.00     0.210 HD
ENDBRANCH  29  30
ENDBRANCH  21  29
ENDBRANCH   1  17
TORSDOF 13
ENDMDL
MODEL 3
REMARK VINA RESULT:    -3.706      1.796      5.745
REMARK INTER + INTRA:          -7.413
REMARK INTER:                  -5.670
REMARK INTRA:                  -1.742
REMARK UNBOUND:                -1.756
REMARK SMILES OC[C@@H]1O[C@H](O[C@@]2(CO)O[C@H](CO)[C@@H](O)[C@@H]2O)[C@@H](O)[C@@H](O)[C@H]1O
REMARK SMILES IDX 6 1 5 2 3 3 22 4 4 5 20 6 18 7 2 8 1 9 23 11 21 13 19 15
REMARK SMILES IDX 7 17 16 18 10 19 14 20 11 21 8 22 9 23 17 25 15 27 12 29
REMARK SMILES IDX 13 30
REMARK H PARENT 1 10 23 12 21 14 19 16 9 24 17 26 15 28 13 31
REMARK Flexibility Score: inf
ROOT
ATOM      1  O   UNL     1       6.887  -0.305  -1.531  1.00  0.00    -0.313 OA
ENDROOT
BRANCH   1   2
ATOM      2  C   UNL     1       5.937   0.634  -1.040  1.00  0.00     0.285 C 
ATOM      3  C   UNL     1       7.036   0.980   1.059  1.00  0.00     0.178 C 
ATOM      4  C   UNL     1       7.576   2.366   0.617  1.00  0.00     0.177 C 
ATOM      5  O   UNL     1       5.853   0.573   0.377  1.00  0.00    -0.341 OA
ATOM      6  C   UNL     1       7.622   2.500  -0.915  1.00  0.00     0.179 C 
ATOM      7  C   UNL     1       6.291   2.044  -1.535  1.00  0.00     0.202 C 
BRANCH   3   8
ATOM      8  C   UNL     1       8.097  -0.142   1.154  1.00  0.00     0.191 C 
BRANCH   8   9
ATOM      9  O   UNL     1       7.517  -1.405   1.325  1.00  0.00    -0.394 OA
ATOM     10  H   UNL     1       6.579  -1.324   1.011  1.00  0.00     0.210 HD
ENDBRANCH   8   9
ENDBRANCH   3   8
BRANCH   4  11
ATOM     11  O   UNL     1       6.751   3.367   1.162  1.00  0.00    -0.387 OA
ATOM     12  H   UNL     1       5.868   2.951   1.347  1.00  0.00     0.211 HD
ENDBRANCH   4  11
BRANCH   6  13
ATOM     13  O   UNL     1       7.904   3.830  -1.272  1.00  0.00    -0.387 OA
ATOM     14  H   UNL     1       7.921   3.864  -2.264  1.00  0.00     0.211 HD
ENDBRANCH   6  13
BRANCH   7  15
ATOM     15  O   UNL     1       5.253   2.929  -1.194  1.00  0.00    -0.385 OA
ATOM     16  H   UNL     1       4.400   2.471  -1.412  1.00  0.00     0.211 HD
ENDBRANCH   7  15
ENDBRANCH   1   2
BRANCH   1  17
ATOM     17  C   UNL     1       6.335  -1.489  -2.099  1.00  0.00     0.224 C 
ATOM     18  C   UNL     1       4.823  -1.343  -2.419  1.00  0.00     0.208 C 
ATOM     19  O   UNL     1       6.466  -2.506  -1.120  1.00  0.00    -0.337 OA
ATOM     20  C   UNL     1       4.261  -2.675  -1.999  1.00  0.00     0.180 C 
ATOM     21  C   UNL     1       5.198  -3.070  -0.864  1.00  0.00     0.179 C 
BRANCH  17  22
ATOM     22  C   UNL     1       7.172  -1.953  -3.317  1.00  0.00     0.225 C 
BRANCH  22  23
ATOM     23  O   UNL     1       7.475  -0.854  -4.132  1.00  0.00    -0.391 OA
ATOM     24  H   UNL     1       7.610  -0.084  -3.522  1.00  0.00     0.210 HD
ENDBRANCH  22  23
ENDBRANCH  17  22
BRANCH  18  25
ATOM     25  O   UNL     1       4.575  -1.097  -3.780  1.00  0.00    -0.385 OA
ATOM     26  H   UNL     1       3.874  -1.741  -4.061  1.00  0.00     0.211 HD
ENDBRANCH  18  25
BRANCH  20  27
ATOM     27  O   UNL     1       2.915  -2.594  -1.594  1.00  0.00    -0.387 OA
ATOM     28  H   UNL     1       2.626  -1.646  -1.653  1.00  0.00     0.211 HD
ENDBRANCH  20  27
BRANCH  21  29
ATOM     29  C   UNL     1       5.331  -4.589  -0.723  1.00  0.00     0.191 C 
BRANCH  29  30
ATOM     30  O   UNL     1       4.160  -5.124  -0.173  1.00  0.00    -0.394 OA
ATOM     31  H   UNL     1       4.206  -6.104  -0.327  1.00  0.00     0.210 HD
ENDBRANCH  29  30
ENDBRANCH  21  29
ENDBRANCH   1  17
TORSDOF 13
ENDMDL
MODEL 4
REMARK VINA RESULT:    -3.686     12.977     14.895
REMARK INTER + INTRA:          -7.382
REMARK INTER:                  -6.300
REMARK INTRA:                  -1.082
REMARK UNBOUND:                -1.756
REMARK SMILES OC[C@@H]1O[C@H](O[C@@]2(CO)O[C@H](CO)[C@@H](O)[C@@H]2O)[C@@H](O)[C@@H](O)[C@H]1O
REMARK SMILES IDX 6 1 5 2 3 3 22 4 4 5 20 6 18 7 2 8 1 9 23 11 21 13 19 15
REMARK SMILES IDX 7 17 16 18 10 19 14 20 11 21 8 22 9 23 17 25 15 27 12 29
REMARK SMILES IDX 13 30
REMARK H PARENT 1 10 23 12 21 14 19 16 9 24 17 26 15 28 13 31
REMARK Flexibility Score: inf
ROOT
ATOM      1  O   UNL     1      -4.250  -3.803   7.486  1.00  0.00    -0.313 OA
ENDROOT
BRANCH   1   2
ATOM      2  C   UNL     1      -4.217  -3.418   6.117  1.00  0.00     0.285 C 
ATOM      3  C   UNL     1      -2.286  -4.723   5.568  1.00  0.00     0.178 C 
ATOM      4  C   UNL     1      -3.140  -5.788   4.830  1.00  0.00     0.177 C 
ATOM      5  O   UNL     1      -2.886  -3.432   5.620  1.00  0.00    -0.341 OA
ATOM      6  C   UNL     1      -4.608  -5.763   5.291  1.00  0.00     0.179 C 
ATOM      7  C   UNL     1      -5.147  -4.323   5.295  1.00  0.00     0.202 C 
BRANCH   3   8
ATOM      8  C   UNL     1      -1.699  -5.173   6.926  1.00  0.00     0.191 C 
BRANCH   8   9
ATOM      9  O   UNL     1      -1.186  -4.098   7.663  1.00  0.00    -0.394 OA
ATOM     10  H   UNL     1      -1.962  -3.524   7.890  1.00  0.00     0.210 HD
ENDBRANCH   8   9
ENDBRANCH   3   8
BRANCH   4  11
ATOM     11  O   UNL     1      -3.068  -5.546   3.446  1.00  0.00    -0.387 OA
ATOM     12  H   UNL     1      -2.112  -5.394   3.224  1.00  0.00     0.211 HD
ENDBRANCH   4  11
BRANCH   6  13
ATOM     13  O   UNL     1      -5.387  -6.580   4.454  1.00  0.00    -0.387 OA
ATOM     14  H   UNL     1      -6.009  -7.085   5.042  1.00  0.00     0.211 HD
ENDBRANCH   6  13
BRANCH   7  15
ATOM     15  O   UNL     1      -5.242  -3.823   3.985  1.00  0.00    -0.385 OA
ATOM     16  H   UNL     1      -5.957  -3.135   3.989  1.00  0.00     0.211 HD
ENDBRANCH   7  15
ENDBRANCH   1   2
BRANCH   1  17
ATOM     17  C   UNL     1      -4.845  -2.858   8.370  1.00  0.00     0.224 C 
ATOM     18  C   UNL     1      -6.396  -2.875   8.299  1.00  0.00     0.208 C 
ATOM     19  O   UNL     1      -4.414  -1.577   7.942  1.00  0.00    -0.337 OA
ATOM     20  C   UNL     1      -6.750  -1.413   8.362  1.00  0.00     0.180 C 
ATOM     21  C   UNL     1      -5.542  -0.765   7.697  1.00  0.00     0.179 C 
BRANCH  17  22
ATOM     22  C   UNL     1      -4.301  -3.037   9.810  1.00  0.00     0.225 C 
BRANCH  22  23
ATOM     23  O   UNL     1      -2.938  -3.360   9.766  1.00  0.00    -0.391 OA
ATOM     24  H   UNL     1      -2.530  -2.753   9.095  1.00  0.00     0.210 HD
ENDBRANCH  22  23
ENDBRANCH  17  22
BRANCH  18  25
ATOM     25  O   UNL     1      -6.983  -3.584   9.361  1.00  0.00    -0.385 OA
ATOM     26  H   UNL     1      -7.568  -4.273   8.951  1.00  0.00     0.211 HD
ENDBRANCH  18  25
BRANCH  20  27
ATOM     27  O   UNL     1      -7.960  -1.118   7.705  1.00  0.00    -0.387 OA
ATOM     28  H   UNL     1      -7.862  -0.242   7.246  1.00  0.00     0.211 HD
ENDBRANCH  20  27
BRANCH  21  29
ATOM     29  C   UNL     1      -5.279   0.649   8.223  1.00  0.00     0.191 C 
BRANCH  29  30
ATOM     30  O   UNL     1      -3.982   0.733   8.746  1.00  0.00    -0.394 OA
ATOM     31  H   UNL     1      -3.761  -0.177   9.077  1.00  0.00     0.210 HD
ENDBRANCH  29  30
ENDBRANCH  21  29
ENDBRANCH   1  17
TORSDOF 13
ENDMDL
MODEL 5
REMARK VINA RESULT:    -3.606     11.894     14.179
REMARK INTER + INTRA:          -7.259
REMARK INTER:                  -5.512
REMARK INTRA:                  -1.747
REMARK UNBOUND:                -1.756
REMARK SMILES OC[C@@H]1O[C@H](O[C@@]2(CO)O[C@H](CO)[C@@H](O)[C@@H]2O)[C@@H](O)[C@@H](O)[C@H]1O
REMARK SMILES IDX 6 1 5 2 3 3 22 4 4 5 20 6 18 7 2 8 1 9 23 11 21 13 19 15
REMARK SMILES IDX 7 17 16 18 10 19 14 20 11 21 8 22 9 23 17 25 15 27 12 29
REMARK SMILES IDX 13 30
REMARK H PARENT 1 10 23 12 21 14 19 16 9 24 17 26 15 28 13 31
REMARK Flexibility Score: inf
ROOT
ATOM      1  O   UNL     1      -2.648  -6.142   6.467  1.00  0.00    -0.313 OA
ENDROOT
BRANCH   1   2
ATOM      2  C   UNL     1      -1.879  -4.945   6.445  1.00  0.00     0.285 C 
ATOM      3  C   UNL     1      -2.152  -4.467   8.776  1.00  0.00     0.178 C 
ATOM      4  C   UNL     1      -0.702  -4.915   9.100  1.00  0.00     0.177 C 
ATOM      5  O   UNL     1      -2.339  -4.032   7.432  1.00  0.00    -0.341 OA
ATOM      6  C   UNL     1      -0.140  -5.856   8.019  1.00  0.00     0.179 C 
ATOM      7  C   UNL     1      -0.390  -5.276   6.618  1.00  0.00     0.202 C 
BRANCH   3   8
ATOM      8  C   UNL     1      -3.264  -5.428   9.261  1.00  0.00     0.191 C 
BRANCH   8   9
ATOM      9  O   UNL     1      -4.532  -5.041   8.810  1.00  0.00    -0.394 OA
ATOM     10  H   UNL     1      -4.383  -4.296   8.173  1.00  0.00     0.210 HD
ENDBRANCH   8   9
ENDBRANCH   3   8
BRANCH   4  11
ATOM     11  O   UNL     1       0.109  -3.771   9.211  1.00  0.00    -0.387 OA
ATOM     12  H   UNL     1       1.053  -4.072   9.136  1.00  0.00     0.211 HD
ENDBRANCH   4  11
BRANCH   6  13
ATOM     13  O   UNL     1       1.235  -6.061   8.232  1.00  0.00    -0.387 OA
ATOM     14  H   UNL     1       1.438  -5.723   9.143  1.00  0.00     0.211 HD
ENDBRANCH   6  13
BRANCH   7  15
ATOM     15  O   UNL     1       0.370  -4.110   6.418  1.00  0.00    -0.385 OA
ATOM     16  H   UNL     1       1.303  -4.324   6.679  1.00  0.00     0.211 HD
ENDBRANCH   7  15
ENDBRANCH   1   2
BRANCH   1  17
ATOM     17  C   UNL     1      -3.693  -6.212   5.502  1.00  0.00     0.224 C 
ATOM     18  C   UNL     1      -3.491  -5.208   4.335  1.00  0.00     0.208 C 
ATOM     19  O   UNL     1      -4.888  -5.847   6.172  1.00  0.00    -0.337 OA
ATOM     20  C   UNL     1      -4.881  -4.685   4.096  1.00  0.00     0.180 C 
ATOM     21  C   UNL     1      -5.497  -4.774   5.488  1.00  0.00     0.179 C 
BRANCH  17  22
ATOM     22  C   UNL     1      -3.898  -7.670   5.020  1.00  0.00     0.225 C 
BRANCH  22  23
ATOM     23  O   UNL     1      -2.658  -8.249   4.717  1.00  0.00    -0.391 OA
ATOM     24  H   UNL     1      -2.627  -8.340   3.730  1.00  0.00     0.210 HD
ENDBRANCH  22  23
ENDBRANCH  17  22
BRANCH  18  25
ATOM     25  O   UNL     1      -2.973  -5.815   3.178  1.00  0.00    -0.385 OA
ATOM     26  H   UNL     1      -3.717  -5.852   2.522  1.00  0.00     0.211 HD
ENDBRANCH  18  25
BRANCH  20  27
ATOM     27  O   UNL     1      -4.890  -3.376   3.577  1.00  0.00    -0.387 OA
ATOM     28  H   UNL     1      -5.704  -2.913   3.906  1.00  0.00     0.211 HD
ENDBRANCH  20  27
BRANCH  21  29
ATOM     29  C   UNL     1      -7.012  -4.989   5.441  1.00  0.00     0.191 C 
BRANCH  29  30
ATOM     30  O   UNL     1      -7.524  -4.525   4.222  1.00  0.00    -0.394 OA
ATOM     31  H   UNL     1      -8.219  -3.855   4.453  1.00  0.00     0.210 HD
ENDBRANCH  29  30
ENDBRANCH  21  29
ENDBRANCH   1  17
TORSDOF 13
ENDMDL
MODEL 6
REMARK VINA RESULT:    -3.585     12.900     15.454
REMARK INTER + INTRA:          -7.227
REMARK INTER:                  -5.796
REMARK INTRA:                  -1.431
REMARK UNBOUND:                -1.756
REMARK SMILES OC[C@@H]1O[C@H](O[C@@]2(CO)O[C@H](CO)[C@@H](O)[C@@H]2O)[C@@H](O)[C@@H](O)[C@H]1O
REMARK SMILES IDX 6 1 5 2 3 3 22 4 4 5 20 6 18 7 2 8 1 9 23 11 21 13 19 15
REMARK SMILES IDX 7 17 16 18 10 19 14 20 11 21 8 22 9 23 17 25 15 27 12 29
REMARK SMILES IDX 13 30
REMARK H PARENT 1 10 23 12 21 14 19 16 9 24 17 26 15 28 13 31
REMARK Flexibility Score: inf
ROOT
ATOM      1  O   UNL     1      -3.468  -6.805   5.103  1.00  0.00    -0.313 OA
ENDROOT
BRANCH   1   2
ATOM      2  C   UNL     1      -4.469  -6.055   5.781  1.00  0.00     0.285 C 
ATOM      3  C   UNL     1      -2.980  -4.337   6.534  1.00  0.00     0.178 C 
ATOM      4  C   UNL     1      -3.512  -3.330   5.480  1.00  0.00     0.177 C 
ATOM      5  O   UNL     1      -3.913  -5.356   6.886  1.00  0.00    -0.341 OA
ATOM      6  C   UNL     1      -4.183  -4.045   4.294  1.00  0.00     0.179 C 
ATOM      7  C   UNL     1      -5.172  -5.109   4.797  1.00  0.00     0.202 C 
BRANCH   3   8
ATOM      8  C   UNL     1      -1.558  -4.884   6.266  1.00  0.00     0.191 C 
BRANCH   8   9
ATOM      9  O   UNL     1      -1.276  -6.022   7.032  1.00  0.00    -0.394 OA
ATOM     10  H   UNL     1      -0.953  -6.710   6.395  1.00  0.00     0.210 HD
ENDBRANCH   8   9
ENDBRANCH   3   8
BRANCH   4  11
ATOM     11  O   UNL     1      -4.431  -2.467   6.103  1.00  0.00    -0.387 OA
ATOM     12  H   UNL     1      -4.986  -3.020   6.714  1.00  0.00     0.211 HD
ENDBRANCH   4  11
BRANCH   6  13
ATOM     13  O   UNL     1      -4.839  -3.107   3.478  1.00  0.00    -0.387 OA
ATOM     14  H   UNL     1      -5.804  -3.147   3.712  1.00  0.00     0.211 HD
ENDBRANCH   6  13
BRANCH   7  15
ATOM     15  O   UNL     1      -6.269  -4.507   5.437  1.00  0.00    -0.385 OA
ATOM     16  H   UNL     1      -6.659  -5.188   6.044  1.00  0.00     0.211 HD
ENDBRANCH   7  15
ENDBRANCH   1   2
BRANCH   1  17
ATOM     17  C   UNL     1      -3.829  -8.144   4.776  1.00  0.00     0.224 C 
ATOM     18  C   UNL     1      -3.402  -8.539   3.336  1.00  0.00     0.208 C 
ATOM     19  O   UNL     1      -5.244  -8.207   4.831  1.00  0.00    -0.337 OA
ATOM     20  C   UNL     1      -4.582  -9.331   2.842  1.00  0.00     0.180 C 
ATOM     21  C   UNL     1      -5.737  -8.687   3.599  1.00  0.00     0.179 C 
BRANCH  17  22
ATOM     22  C   UNL     1      -3.311  -9.129   5.855  1.00  0.00     0.225 C 
BRANCH  22  23
ATOM     23  O   UNL     1      -2.034  -8.740   6.280  1.00  0.00    -0.391 OA
ATOM     24  H   UNL     1      -1.987  -7.757   6.155  1.00  0.00     0.210 HD
ENDBRANCH  22  23
ENDBRANCH  17  22
BRANCH  18  25
ATOM     25  O   UNL     1      -2.227  -9.310   3.308  1.00  0.00    -0.385 OA
ATOM     26  H   UNL     1      -1.611  -8.862   2.671  1.00  0.00     0.211 HD
ENDBRANCH  18  25
BRANCH  20  27
ATOM     27  O   UNL     1      -4.737  -9.261   1.444  1.00  0.00    -0.387 OA
ATOM     28  H   UNL     1      -4.008  -8.698   1.075  1.00  0.00     0.211 HD
ENDBRANCH  20  27
BRANCH  21  29
ATOM     29  C   UNL     1      -6.885  -9.668   3.853  1.00  0.00     0.191 C 
BRANCH  29  30
ATOM     30  O   UNL     1      -7.412 -10.114   2.634  1.00  0.00    -0.394 OA
ATOM     31  H   UNL     1      -6.789 -10.813   2.304  1.00  0.00     0.210 HD
ENDBRANCH  29  30
ENDBRANCH  21  29
ENDBRANCH   1  17
TORSDOF 13
ENDMDL
MODEL 7
REMARK VINA RESULT:    -3.573      2.333      4.384
REMARK INTER + INTRA:          -7.209
REMARK INTER:                  -5.775
REMARK INTRA:                  -1.435
REMARK UNBOUND:                -1.756
REMARK SMILES OC[C@@H]1O[C@H](O[C@@]2(CO)O[C@H](CO)[C@@H](O)[C@@H]2O)[C@@H](O)[C@@H](O)[C@H]1O
REMARK SMILES IDX 6 1 5 2 3 3 22 4 4 5 20 6 18 7 2 8 1 9 23 11 21 13 19 15
REMARK SMILES IDX 7 17 16 18 10 19 14 20 11 21 8 22 9 23 17 25 15 27 12 29
REMARK SMILES IDX 13 30
REMARK H PARENT 1 10 23 12 21 14 19 16 9 24 17 26 15 28 13 31
REMARK Flexibility Score: inf
ROOT
ATOM      1  O   UNL     1       5.589   2.666  -2.747  1.00  0.00    -0.313 OA
ENDROOT
BRANCH   1   2
ATOM      2  C   UNL     1       6.692   1.797  -2.525  1.00  0.00     0.285 C 
ATOM      3  C   UNL     1       6.477   1.775  -0.140  1.00  0.00     0.178 C 
ATOM      4  C   UNL     1       5.870   0.347  -0.147  1.00  0.00     0.177 C 
ATOM      5  O   UNL     1       7.299   2.062  -1.269  1.00  0.00    -0.341 OA
ATOM      6  C   UNL     1       5.259  -0.008  -1.514  1.00  0.00     0.179 C 
ATOM      7  C   UNL     1       6.239   0.334  -2.648  1.00  0.00     0.202 C 
BRANCH   3   8
ATOM      8  C   UNL     1       5.483   2.913   0.189  1.00  0.00     0.191 C 
BRANCH   8   9
ATOM      9  O   UNL     1       5.979   4.171  -0.174  1.00  0.00    -0.394 OA
ATOM     10  H   UNL     1       6.946   4.160   0.043  1.00  0.00     0.210 HD
ENDBRANCH   8   9
ENDBRANCH   3   8
BRANCH   4  11
ATOM     11  O   UNL     1       6.882  -0.575   0.180  1.00  0.00    -0.387 OA
ATOM     12  H   UNL     1       7.740  -0.075   0.202  1.00  0.00     0.211 HD
ENDBRANCH   4  11
BRANCH   6  13
ATOM     13  O   UNL     1       4.921  -1.372  -1.548  1.00  0.00    -0.387 OA
ATOM     14  H   UNL     1       4.035  -1.438  -1.992  1.00  0.00     0.211 HD
ENDBRANCH   6  13
BRANCH   7  15
ATOM     15  O   UNL     1       7.366  -0.505  -2.603  1.00  0.00    -0.385 OA
ATOM     16  H   UNL     1       7.166  -1.289  -3.177  1.00  0.00     0.211 HD
ENDBRANCH   7  15
ENDBRANCH   1   2
BRANCH   1  17
ATOM     17  C   UNL     1       5.816   3.710  -3.690  1.00  0.00     0.224 C 
ATOM     18  C   UNL     1       4.891   4.934  -3.454  1.00  0.00     0.208 C 
ATOM     19  O   UNL     1       5.502   3.179  -4.966  1.00  0.00    -0.337 OA
ATOM     20  C   UNL     1       4.503   5.336  -4.852  1.00  0.00     0.180 C 
ATOM     21  C   UNL     1       4.536   4.001  -5.586  1.00  0.00     0.179 C 
BRANCH  17  22
ATOM     22  C   UNL     1       7.319   4.085  -3.738  1.00  0.00     0.225 C 
BRANCH  22  23
ATOM     23  O   UNL     1       7.737   4.537  -2.479  1.00  0.00    -0.391 OA
ATOM     24  H   UNL     1       8.249   5.371  -2.639  1.00  0.00     0.210 HD
ENDBRANCH  22  23
ENDBRANCH  17  22
BRANCH  18  25
ATOM     25  O   UNL     1       5.539   5.988  -2.787  1.00  0.00    -0.385 OA
ATOM     26  H   UNL     1       6.355   5.601  -2.375  1.00  0.00     0.211 HD
ENDBRANCH  18  25
BRANCH  20  27
ATOM     27  O   UNL     1       3.243   5.960  -4.909  1.00  0.00    -0.387 OA
ATOM     28  H   UNL     1       2.810   5.716  -5.770  1.00  0.00     0.211 HD
ENDBRANCH  20  27
BRANCH  21  29
ATOM     29  C   UNL     1       4.878   4.162  -7.070  1.00  0.00     0.191 C 
BRANCH  29  30
ATOM     30  O   UNL     1       4.855   5.518  -7.422  1.00  0.00    -0.394 OA
ATOM     31  H   UNL     1       5.663   5.923  -7.010  1.00  0.00     0.210 HD
ENDBRANCH  29  30
ENDBRANCH  21  29
ENDBRANCH   1  17
TORSDOF 13
ENDMDL
MODEL 8
REMARK VINA RESULT:    -3.508     12.960     14.738
REMARK INTER + INTRA:          -7.110
REMARK INTER:                  -5.336
REMARK INTRA:                  -1.774
REMARK UNBOUND:                -1.756
REMARK SMILES OC[C@@H]1O[C@H](O[C@@]2(CO)O[C@H](CO)[C@@H](O)[C@@H]2O)[C@@H](O)[C@@H](O)[C@H]1O
REMARK SMILES IDX 6 1 5 2 3 3 22 4 4 5 20 6 18 7 2 8 1 9 23 11 21 13 19 15
REMARK SMILES IDX 7 17 16 18 10 19 14 20 11 21 8 22 9 23 17 25 15 27 12 29
REMARK SMILES IDX 13 30
REMARK H PARENT 1 10 23 12 21 14 19 16 9 24 17 26 15 28 13 31
REMARK Flexibility Score: inf
ROOT
ATOM      1  O   UNL     1      -4.055  -6.731   6.068  1.00  0.00    -0.313 OA
ENDROOT
BRANCH   1   2
ATOM      2  C   UNL     1      -3.351  -6.222   4.941  1.00  0.00     0.285 C 
ATOM      3  C   UNL     1      -1.324  -7.414   5.393  1.00  0.00     0.178 C 
ATOM      4  C   UNL     1      -1.598  -8.433   4.255  1.00  0.00     0.177 C 
ATOM      5  O   UNL     1      -1.958  -6.151   5.206  1.00  0.00    -0.341 OA
ATOM      6  C   UNL     1      -3.092  -8.494   3.889  1.00  0.00     0.179 C 
ATOM      7  C   UNL     1      -3.658  -7.077   3.702  1.00  0.00     0.202 C 
BRANCH   3   8
ATOM      8  C   UNL     1      -1.489  -7.967   6.828  1.00  0.00     0.191 C 
BRANCH   8   9
ATOM      9  O   UNL     1      -1.599  -6.946   7.779  1.00  0.00    -0.394 OA
ATOM     10  H   UNL     1      -0.744  -6.444   7.746  1.00  0.00     0.210 HD
ENDBRANCH   8   9
ENDBRANCH   3   8
BRANCH   4  11
ATOM     11  O   UNL     1      -0.842  -8.065   3.127  1.00  0.00    -0.387 OA
ATOM     12  H   UNL     1      -1.293  -7.282   2.714  1.00  0.00     0.211 HD
ENDBRANCH   4  11
BRANCH   6  13
ATOM     13  O   UNL     1      -3.268  -9.255   2.720  1.00  0.00    -0.387 OA
ATOM     14  H   UNL     1      -4.237  -9.225   2.502  1.00  0.00     0.211 HD
ENDBRANCH   6  13
BRANCH   7  15
ATOM     15  O   UNL     1      -3.102  -6.463   2.567  1.00  0.00    -0.385 OA
ATOM     16  H   UNL     1      -2.945  -7.180   1.898  1.00  0.00     0.211 HD
ENDBRANCH   7  15
ENDBRANCH   1   2
BRANCH   1  17
ATOM     17  C   UNL     1      -4.823  -5.772   6.789  1.00  0.00     0.224 C 
ATOM     18  C   UNL     1      -5.095  -4.487   5.962  1.00  0.00     0.208 C 
ATOM     19  O   UNL     1      -4.047  -5.396   7.915  1.00  0.00    -0.337 OA
ATOM     20  C   UNL     1      -4.917  -3.390   6.977  1.00  0.00     0.180 C 
ATOM     21  C   UNL     1      -3.883  -3.994   7.919  1.00  0.00     0.179 C 
BRANCH  17  22
ATOM     22  C   UNL     1      -6.114  -6.416   7.353  1.00  0.00     0.225 C 
BRANCH  22  23
ATOM     23  O   UNL     1      -6.716  -7.213   6.370  1.00  0.00    -0.391 OA
ATOM     24  H   UNL     1      -6.079  -7.949   6.180  1.00  0.00     0.210 HD
ENDBRANCH  22  23
ENDBRANCH  17  22
BRANCH  18  25
ATOM     25  O   UNL     1      -6.386  -4.458   5.407  1.00  0.00    -0.385 OA
ATOM     26  H   UNL     1      -6.970  -4.972   6.024  1.00  0.00     0.211 HD
ENDBRANCH  18  25
BRANCH  20  27
ATOM     27  O   UNL     1      -4.491  -2.178   6.401  1.00  0.00    -0.387 OA
ATOM     28  H   UNL     1      -4.354  -1.516   7.128  1.00  0.00     0.211 HD
ENDBRANCH  20  27
BRANCH  21  29
ATOM     29  C   UNL     1      -4.022  -3.467   9.350  1.00  0.00     0.191 C 
BRANCH  29  30
ATOM     30  O   UNL     1      -4.219  -2.080   9.333  1.00  0.00    -0.394 OA
ATOM     31  H   UNL     1      -3.577  -1.720   8.666  1.00  0.00     0.210 HD
ENDBRANCH  29  30
ENDBRANCH  21  29
ENDBRANCH   1  17
TORSDOF 13
ENDMDL
MODEL 9
REMARK VINA RESULT:    -3.507      9.770     12.076
REMARK INTER + INTRA:          -7.108
REMARK INTER:                  -5.523
REMARK INTRA:                  -1.585
REMARK UNBOUND:                -1.756
REMARK SMILES OC[C@@H]1O[C@H](O[C@@]2(CO)O[C@H](CO)[C@@H](O)[C@@H]2O)[C@@H](O)[C@@H](O)[C@H]1O
REMARK SMILES IDX 6 1 5 2 3 3 22 4 4 5 20 6 18 7 2 8 1 9 23 11 21 13 19 15
REMARK SMILES IDX 7 17 16 18 10 19 14 20 11 21 8 22 9 23 17 25 15 27 12 29
REMARK SMILES IDX 13 30
REMARK H PARENT 1 10 23 12 21 14 19 16 9 24 17 26 15 28 13 31
REMARK Flexibility Score: inf
ROOT
ATOM      1  O   UNL     1      -1.291  -4.288  -7.024  1.00  0.00    -0.313 OA
ENDROOT
BRANCH   1   2
ATOM      2  C   UNL     1      -2.177  -5.399  -7.098  1.00  0.00     0.285 C 
ATOM      3  C   UNL     1      -1.139  -6.378  -9.021  1.00  0.00     0.178 C 
ATOM      4  C   UNL     1      -0.465  -7.486  -8.169  1.00  0.00     0.177 C 
ATOM      5  O   UNL     1      -2.323  -5.839  -8.441  1.00  0.00    -0.341 OA
ATOM      6  C   UNL     1      -0.346  -7.078  -6.690  1.00  0.00     0.179 C 
ATOM      7  C   UNL     1      -1.685  -6.524  -6.176  1.00  0.00     0.202 C 
BRANCH   3   8
ATOM      8  C   UNL     1      -0.182  -5.291  -9.565  1.00  0.00     0.191 C 
BRANCH   8   9
ATOM      9  O   UNL     1      -0.869  -4.156 -10.011  1.00  0.00    -0.394 OA
ATOM     10  H   UNL     1      -0.574  -4.003 -10.946  1.00  0.00     0.210 HD
ENDBRANCH   8   9
ENDBRANCH   3   8
BRANCH   4  11
ATOM     11  O   UNL     1      -1.224  -8.666  -8.282  1.00  0.00    -0.387 OA
ATOM     12  H   UNL     1      -2.100  -8.415  -8.677  1.00  0.00     0.211 HD
ENDBRANCH   4  11
BRANCH   6  13
ATOM     13  O   UNL     1       0.062  -8.181  -5.920  1.00  0.00    -0.387 OA
ATOM     14  H   UNL     1      -0.179  -7.978  -4.978  1.00  0.00     0.211 HD
ENDBRANCH   6  13
BRANCH   7  15
ATOM     15  O   UNL     1      -2.657  -7.538  -6.123  1.00  0.00    -0.385 OA
ATOM     16  H   UNL     1      -2.262  -8.341  -6.554  1.00  0.00     0.211 HD
ENDBRANCH   7  15
ENDBRANCH   1   2
BRANCH   1  17
ATOM     17  C   UNL     1      -1.916  -3.024  -6.823  1.00  0.00     0.224 C 
ATOM     18  C   UNL     1      -2.973  -3.059  -5.686  1.00  0.00     0.208 C 
ATOM     19  O   UNL     1      -2.599  -2.715  -8.027  1.00  0.00    -0.337 OA
ATOM     20  C   UNL     1      -4.093  -2.221  -6.242  1.00  0.00     0.180 C 
ATOM     21  C   UNL     1      -3.958  -2.466  -7.740  1.00  0.00     0.179 C 
BRANCH  17  22
ATOM     22  C   UNL     1      -0.854  -1.912  -6.633  1.00  0.00     0.225 C 
BRANCH  22  23
ATOM     23  O   UNL     1       0.074  -2.303  -5.659  1.00  0.00    -0.391 OA
ATOM     24  H   UNL     1      -0.009  -1.650  -4.918  1.00  0.00     0.210 HD
ENDBRANCH  22  23
ENDBRANCH  17  22
BRANCH  18  25
ATOM     25  O   UNL     1      -2.492  -2.523  -4.479  1.00  0.00    -0.385 OA
ATOM     26  H   UNL     1      -3.270  -2.464  -3.866  1.00  0.00     0.211 HD
ENDBRANCH  18  25
BRANCH  20  27
ATOM     27  O   UNL     1      -5.353  -2.593  -5.738  1.00  0.00    -0.387 OA
ATOM     28  H   UNL     1      -6.049  -2.300  -6.384  1.00  0.00     0.211 HD
ENDBRANCH  20  27
BRANCH  21  29
ATOM     29  C   UNL     1      -4.447  -1.276  -8.570  1.00  0.00     0.191 C 
BRANCH  29  30
ATOM     30  O   UNL     1      -5.163  -0.387  -7.757  1.00  0.00    -0.394 OA
ATOM     31  H   UNL     1      -6.055  -0.284  -8.181  1.00  0.00     0.210 HD
ENDBRANCH  29  30
ENDBRANCH  21  29
ENDBRANCH   1  17
TORSDOF 13
ENDMDL
