MODEL 1
REMARK VINA RESULT:    -4.188      0.000      0.000
REMARK INTER + INTRA:          -5.010
REMARK INTER:                  -4.922
REMARK INTRA:                  -0.088
REMARK UNBOUND:                -0.088
REMARK SMILES O=C([O-])CCC(=O)[O-]
REMARK SMILES IDX 4 1 2 2 1 3 3 4 5 5 6 6 7 7 8 8
REMARK H PARENT
REMARK Flexibility Score: inf
ROOT
ATOM      1  C   UNL     1      18.585 -26.574  -0.204  1.00  0.00     0.059 C 
ENDROOT
BRANCH   1   2
ATOM      2  C   UNL     1      17.134 -26.260  -0.398  1.00  0.00     0.042 C 
ATOM      3  O   UNL     1      16.418 -26.996  -1.125  1.00  0.00    -0.550 OA
ATOM      4  O   UNL     1      16.581 -25.129   0.192  1.00  0.00    -0.550 OA
ENDBRANCH   1   2
BRANCH   1   5
ATOM      5  C   UNL     1      19.102 -26.052   1.141  1.00  0.00     0.059 C 
BRANCH   5   6
ATOM      6  C   UNL     1      18.669 -26.929   2.276  1.00  0.00     0.042 C 
ATOM      7  O   UNL     1      19.368 -27.920   2.614  1.00  0.00    -0.550 OA
ATOM      8  O   UNL     1      17.513 -26.628   2.987  1.00  0.00    -0.550 OA
ENDBRANCH   5   6
ENDBRANCH   1   5
TORSDOF 3
ENDMDL
MODEL 2
REMARK VINA RESULT:    -4.167      8.723      9.503
REMARK INTER + INTRA:          -4.985
REMARK INTER:                  -4.924
REMARK INTRA:                  -0.061
REMARK UNBOUND:                -0.088
REMARK SMILES O=C([O-])CCC(=O)[O-]
REMARK SMILES IDX 4 1 2 2 1 3 3 4 5 5 6 6 7 7 8 8
REMARK H PARENT
REMARK Flexibility Score: inf
ROOT
ATOM      1  C   UNL     1      23.817 -19.014  -0.628  1.00  0.00     0.059 C 
ENDROOT
BRANCH   1   2
ATOM      2  C   UNL     1      23.914 -17.538  -0.393  1.00  0.00     0.042 C 
ATOM      3  O   UNL     1      22.897 -16.884  -0.044  1.00  0.00    -0.550 OA
ATOM      4  O   UNL     1      25.119 -16.877  -0.600  1.00  0.00    -0.550 OA
ENDBRANCH   1   2
BRANCH   1   5
ATOM      5  C   UNL     1      22.387 -19.439  -0.974  1.00  0.00     0.059 C 
BRANCH   5   6
ATOM      6  C   UNL     1      22.002 -20.705  -0.270  1.00  0.00     0.042 C 
ATOM      7  O   UNL     1      21.920 -21.787  -0.909  1.00  0.00    -0.550 OA
ATOM      8  O   UNL     1      21.773 -20.696   1.101  1.00  0.00    -0.550 OA
ENDBRANCH   5   6
ENDBRANCH   1   5
TORSDOF 3
ENDMDL
MODEL 3
REMARK VINA RESULT:    -4.024      8.690      9.526
REMARK INTER + INTRA:          -4.817
REMARK INTER:                  -4.728
REMARK INTRA:                  -0.089
REMARK UNBOUND:                -0.088
REMARK SMILES O=C([O-])CCC(=O)[O-]
REMARK SMILES IDX 4 1 2 2 1 3 3 4 5 5 6 6 7 7 8 8
REMARK H PARENT
REMARK Flexibility Score: inf
ROOT
ATOM      1  C   UNL     1      22.318 -19.480  -1.075  1.00  0.00     0.059 C 
ENDROOT
BRANCH   1   2
ATOM      2  C   UNL     1      21.994 -20.669  -0.223  1.00  0.00     0.042 C 
ATOM      3  O   UNL     1      21.733 -21.778  -0.757  1.00  0.00    -0.550 OA
ATOM      4  O   UNL     1      21.938 -20.541   1.159  1.00  0.00    -0.550 OA
ENDBRANCH   1   2
BRANCH   1   5
ATOM      5  C   UNL     1      23.757 -19.003  -0.854  1.00  0.00     0.059 C 
BRANCH   5   6
ATOM      6  C   UNL     1      23.806 -17.554  -0.472  1.00  0.00     0.042 C 
ATOM      7  O   UNL     1      22.757 -16.958  -0.114  1.00  0.00    -0.550 OA
ATOM      8  O   UNL     1      25.018 -16.875  -0.476  1.00  0.00    -0.550 OA
ENDBRANCH   5   6
ENDBRANCH   1   5
TORSDOF 3
ENDMDL
MODEL 4
REMARK VINA RESULT:    -3.587     11.155     12.336
REMARK INTER + INTRA:          -4.303
REMARK INTER:                  -4.235
REMARK INTRA:                  -0.069
REMARK UNBOUND:                -0.088
REMARK SMILES O=C([O-])CCC(=O)[O-]
REMARK SMILES IDX 4 1 2 2 1 3 3 4 5 5 6 6 7 7 8 8
REMARK H PARENT
REMARK Flexibility Score: inf
ROOT
ATOM      1  C   UNL     1      30.203 -26.426  -1.125  1.00  0.00     0.059 C 
ENDROOT
BRANCH   1   2
ATOM      2  C   UNL     1      29.095 -27.357  -0.737  1.00  0.00     0.042 C 
ATOM      3  O   UNL     1      27.901 -26.962  -0.755  1.00  0.00    -0.550 OA
ATOM      4  O   UNL     1      29.386 -28.650  -0.317  1.00  0.00    -0.550 OA
ENDBRANCH   1   2
BRANCH   1   5
ATOM      5  C   UNL     1      29.784 -24.959  -0.985  1.00  0.00     0.059 C 
BRANCH   5   6
ATOM      6  C   UNL     1      30.569 -24.261   0.084  1.00  0.00     0.042 C 
ATOM      7  O   UNL     1      30.034 -23.997   1.192  1.00  0.00    -0.550 OA
ATOM      8  O   UNL     1      31.903 -23.938  -0.133  1.00  0.00    -0.550 OA
ENDBRANCH   5   6
ENDBRANCH   1   5
TORSDOF 3
ENDMDL
MODEL 5
REMARK VINA RESULT:    -3.526     13.152     13.899
REMARK INTER + INTRA:          -4.232
REMARK INTER:                  -4.120
REMARK INTRA:                  -0.112
REMARK UNBOUND:                -0.088
REMARK SMILES O=C([O-])CCC(=O)[O-]
REMARK SMILES IDX 4 1 2 2 1 3 3 4 5 5 6 6 7 7 8 8
REMARK H PARENT
REMARK Flexibility Score: inf
ROOT
ATOM      1  C   UNL     1      30.227 -19.728   2.449  1.00  0.00     0.059 C 
ENDROOT
BRANCH   1   2
ATOM      2  C   UNL     1      29.222 -19.636   3.556  1.00  0.00     0.042 C 
ATOM      3  O   UNL     1      28.031 -19.316   3.306  1.00  0.00    -0.550 OA
ATOM      4  O   UNL     1      29.611 -19.864   4.871  1.00  0.00    -0.550 OA
ENDBRANCH   1   2
BRANCH   1   5
ATOM      5  C   UNL     1      30.153 -21.079   1.729  1.00  0.00     0.059 C 
BRANCH   5   6
ATOM      6  C   UNL     1      31.112 -22.070   2.316  1.00  0.00     0.042 C 
ATOM      7  O   UNL     1      31.990 -21.693   3.136  1.00  0.00    -0.550 OA
ATOM      8  O   UNL     1      31.009 -23.416   1.985  1.00  0.00    -0.550 OA
ENDBRANCH   5   6
ENDBRANCH   1   5
TORSDOF 3
ENDMDL
MODEL 6
REMARK VINA RESULT:    -3.512     13.213     14.083
REMARK INTER + INTRA:          -4.215
REMARK INTER:                  -4.092
REMARK INTRA:                  -0.123
REMARK UNBOUND:                -0.088
REMARK SMILES O=C([O-])CCC(=O)[O-]
REMARK SMILES IDX 4 1 2 2 1 3 3 4 5 5 6 6 7 7 8 8
REMARK H PARENT
REMARK Flexibility Score: inf
ROOT
ATOM      1  C   UNL     1      30.319 -20.881   1.823  1.00  0.00     0.059 C 
ENDROOT
BRANCH   1   2
ATOM      2  C   UNL     1      31.179 -21.931   2.455  1.00  0.00     0.042 C 
ATOM      3  O   UNL     1      32.090 -21.605   3.259  1.00  0.00    -0.550 OA
ATOM      4  O   UNL     1      31.001 -23.269   2.123  1.00  0.00    -0.550 OA
ENDBRANCH   1   2
BRANCH   1   5
ATOM      5  C   UNL     1      30.304 -19.590   2.650  1.00  0.00     0.059 C 
BRANCH   5   6
ATOM      6  C   UNL     1      29.239 -19.623   3.704  1.00  0.00     0.042 C 
ATOM      7  O   UNL     1      28.035 -19.429   3.394  1.00  0.00    -0.550 OA
ATOM      8  O   UNL     1      29.575 -19.907   5.022  1.00  0.00    -0.550 OA
ENDBRANCH   5   6
ENDBRANCH   1   5
TORSDOF 3
ENDMDL
MODEL 7
REMARK VINA RESULT:    -3.511     13.188     14.028
REMARK INTER + INTRA:          -4.214
REMARK INTER:                  -4.092
REMARK INTRA:                  -0.122
REMARK UNBOUND:                -0.088
REMARK SMILES O=C([O-])CCC(=O)[O-]
REMARK SMILES IDX 4 1 2 2 1 3 3 4 5 5 6 6 7 7 8 8
REMARK H PARENT
REMARK Flexibility Score: inf
ROOT
ATOM      1  C   UNL     1      30.228 -21.028   1.767  1.00  0.00     0.059 C 
ENDROOT
BRANCH   1   2
ATOM      2  C   UNL     1      31.156 -22.013   2.407  1.00  0.00     0.042 C 
ATOM      3  O   UNL     1      31.040 -23.243   2.166  1.00  0.00    -0.550 OA
ATOM      4  O   UNL     1      32.125 -21.577   3.304  1.00  0.00    -0.550 OA
ENDBRANCH   1   2
BRANCH   1   5
ATOM      5  C   UNL     1      30.256 -19.675   2.485  1.00  0.00     0.059 C 
BRANCH   5   6
ATOM      6  C   UNL     1      29.246 -19.617   3.591  1.00  0.00     0.042 C 
ATOM      7  O   UNL     1      28.042 -19.351   3.337  1.00  0.00    -0.550 OA
ATOM      8  O   UNL     1      29.629 -19.897   4.898  1.00  0.00    -0.550 OA
ENDBRANCH   5   6
ENDBRANCH   1   5
TORSDOF 3
ENDMDL
MODEL 8
REMARK VINA RESULT:    -3.329     12.841     14.043
REMARK INTER + INTRA:          -4.000
REMARK INTER:                  -3.968
REMARK INTRA:                  -0.033
REMARK UNBOUND:                -0.088
REMARK SMILES O=C([O-])CCC(=O)[O-]
REMARK SMILES IDX 4 1 2 2 1 3 3 4 5 5 6 6 7 7 8 8
REMARK H PARENT
REMARK Flexibility Score: inf
ROOT
ATOM      1  C   UNL     1      29.672 -19.851   2.594  1.00  0.00     0.059 C 
ENDROOT
BRANCH   1   2
ATOM      2  C   UNL     1      30.212 -19.979   3.986  1.00  0.00     0.042 C 
ATOM      3  O   UNL     1      29.458 -19.801   4.977  1.00  0.00    -0.550 OA
ATOM      4  O   UNL     1      31.559 -20.256   4.187  1.00  0.00    -0.550 OA
ENDBRANCH   1   2
BRANCH   1   5
ATOM      5  C   UNL     1      28.321 -19.129   2.577  1.00  0.00     0.059 C 
BRANCH   5   6
ATOM      6  C   UNL     1      28.032 -18.531   1.233  1.00  0.00     0.042 C 
ATOM      7  O   UNL     1      27.786 -19.276   0.248  1.00  0.00    -0.550 OA
ATOM      8  O   UNL     1      27.996 -17.151   1.080  1.00  0.00    -0.550 OA
ENDBRANCH   5   6
ENDBRANCH   1   5
TORSDOF 3
ENDMDL
