MODEL 1
REMARK VINA RESULT:    -7.569      0.000      0.000
REMARK INTER + INTRA:         -11.736
REMARK INTER:                 -10.224
REMARK INTRA:                  -1.512
REMARK UNBOUND:                -1.512
REMARK SMILES CC[C@@H](CC[C@@H](C)[C@H]1CC[C@H]2[C@H]3CC(=O)C4=CC(=O)CC[C@@]4(C)[C@@H]3CC[C@@]12C)C(C)C
REMARK SMILES IDX 4 1 3 2 2 3 1 4 29 5 30 6 31 7 5 8 6 9 7 10 8 11 9 12 27 13
REMARK SMILES IDX 10 14 11 15 26 16 28 17 12 18 25 19 24 20 13 21 22 22 14 23
REMARK SMILES IDX 16 24 21 25 23 26 15 27 17 28 20 29 18 30 19 31
REMARK H PARENT
REMARK Flexibility Score: inf
ROOT
ATOM      1  C   UNL     1       9.767   4.065  53.102  1.00  0.00     0.004 C 
ENDROOT
BRANCH   1   2
ATOM      2  C   UNL     1       8.341   4.248  53.705  1.00  0.00    -0.009 C 
BRANCH   2   3
ATOM      3  C   UNL     1       7.697   2.891  54.117  1.00  0.00     0.000 C 
ATOM      4  C   UNL     1       8.690   1.730  54.214  1.00  0.00     0.004 C 
ENDBRANCH   2   3
BRANCH   2   5
ATOM      5  C   UNL     1       7.380   5.077  52.781  1.00  0.00    -0.014 C 
ATOM      6  C   UNL     1       7.276   6.552  53.216  1.00  0.00     0.007 C 
ATOM      7  C   UNL     1       5.960   4.477  52.743  1.00  0.00     0.007 C 
ENDBRANCH   2   5
ENDBRANCH   1   2
BRANCH   1   8
ATOM      8  C   UNL     1       9.863   4.385  51.596  1.00  0.00     0.004 C 
BRANCH   8   9
ATOM      9  C   UNL     1      10.732   5.633  51.308  1.00  0.00    -0.011 C 
ATOM     10  C   UNL     1      12.207   5.385  51.706  1.00  0.00     0.008 C 
BRANCH   9  11
ATOM     11  C   UNL     1      10.480   6.204  49.864  1.00  0.00    -0.002 C 
ATOM     12  C   UNL     1       9.435   5.408  49.057  1.00  0.00     0.005 C 
ATOM     13  C   UNL     1      10.165   7.719  49.623  1.00  0.00    -0.026 C 
ATOM     14  C   UNL     1       8.741   6.404  48.133  1.00  0.00     0.005 C 
ATOM     15  C   UNL     1       9.571   7.692  48.194  1.00  0.00    -0.001 C 
ATOM     16  C   UNL     1       9.119   8.275  50.626  1.00  0.00     0.007 C 
ATOM     17  C   UNL     1      11.456   8.582  49.645  1.00  0.00     0.012 C 
ATOM     18  C   UNL     1       8.823   8.992  47.757  1.00  0.00     0.004 C 
ATOM     19  C   UNL     1       8.515   9.613  50.194  1.00  0.00     0.005 C 
ATOM     20  C   UNL     1       7.810   9.509  48.819  1.00  0.00     0.003 C 
ATOM     21  C   UNL     1       8.148   8.792  46.389  1.00  0.00     0.085 C 
ATOM     22  C   UNL     1       7.092  10.858  48.392  1.00  0.00    -0.000 C 
ATOM     23  C   UNL     1       7.424  10.022  45.956  1.00  0.00     0.159 C 
ATOM     24  C   UNL     1       6.614  10.771  46.936  1.00  0.00     0.005 C 
ATOM     25  C   UNL     1       5.858  11.095  49.321  1.00  0.00     0.020 C 
ATOM     26  C   UNL     1       8.052  12.073  48.493  1.00  0.00     0.017 C 
ATOM     27  O   UNL     1       7.444  10.360  44.741  1.00  0.00    -0.295 OA
ATOM     28  C   UNL     1       5.534  11.452  46.508  1.00  0.00     0.055 C 
ATOM     29  C   UNL     1       4.996  12.287  48.887  1.00  0.00     0.081 C 
ATOM     30  C   UNL     1       4.681  12.219  47.426  1.00  0.00     0.156 C 
ATOM     31  O   UNL     1       3.696  12.857  46.971  1.00  0.00    -0.295 OA
ENDBRANCH   9  11
ENDBRANCH   8   9
ENDBRANCH   1   8
TORSDOF 6
ENDMDL
MODEL 2
REMARK VINA RESULT:    -7.560      0.996      1.738
REMARK INTER + INTRA:         -11.723
REMARK INTER:                 -10.372
REMARK INTRA:                  -1.351
REMARK UNBOUND:                -1.512
REMARK SMILES CC[C@@H](CC[C@@H](C)[C@H]1CC[C@H]2[C@H]3CC(=O)C4=CC(=O)CC[C@@]4(C)[C@@H]3CC[C@@]12C)C(C)C
REMARK SMILES IDX 4 1 3 2 2 3 1 4 29 5 30 6 31 7 5 8 6 9 7 10 8 11 9 12 27 13
REMARK SMILES IDX 10 14 11 15 26 16 28 17 12 18 25 19 24 20 13 21 22 22 14 23
REMARK SMILES IDX 16 24 21 25 23 26 15 27 17 28 20 29 18 30 19 31
REMARK H PARENT
REMARK Flexibility Score: inf
ROOT
ATOM      1  C   UNL     1       9.713   4.650  51.804  1.00  0.00     0.004 C 
ENDROOT
BRANCH   1   2
ATOM      2  C   UNL     1       8.343   5.234  52.264  1.00  0.00    -0.009 C 
BRANCH   2   3
ATOM      3  C   UNL     1       8.509   6.345  53.341  1.00  0.00     0.000 C 
ATOM      4  C   UNL     1       7.671   7.600  53.081  1.00  0.00     0.004 C 
ENDBRANCH   2   3
BRANCH   2   5
ATOM      5  C   UNL     1       7.328   4.133  52.734  1.00  0.00    -0.014 C 
ATOM      6  C   UNL     1       5.871   4.636  52.725  1.00  0.00     0.007 C 
ATOM      7  C   UNL     1       7.658   3.613  54.147  1.00  0.00     0.007 C 
ENDBRANCH   2   5
ENDBRANCH   1   2
BRANCH   1   8
ATOM      8  C   UNL     1       9.974   4.769  50.288  1.00  0.00     0.004 C 
BRANCH   8   9
ATOM      9  C   UNL     1      10.921   5.942  49.937  1.00  0.00    -0.011 C 
ATOM     10  C   UNL     1      12.402   5.495  49.995  1.00  0.00     0.008 C 
BRANCH   9  11
ATOM     11  C   UNL     1      10.466   6.696  48.634  1.00  0.00    -0.002 C 
ATOM     12  C   UNL     1       9.390   5.943  47.827  1.00  0.00     0.005 C 
ATOM     13  C   UNL     1      10.022   8.199  48.667  1.00  0.00    -0.026 C 
ATOM     14  C   UNL     1       8.527   7.002  47.147  1.00  0.00     0.005 C 
ATOM     15  C   UNL     1       9.269   8.332  47.321  1.00  0.00    -0.001 C 
ATOM     16  C   UNL     1       9.064   8.509  49.849  1.00  0.00     0.007 C 
ATOM     17  C   UNL     1      11.245   9.154  48.689  1.00  0.00     0.012 C 
ATOM     18  C   UNL     1       8.389   9.614  47.174  1.00  0.00     0.004 C 
ATOM     19  C   UNL     1       8.325   9.840  49.697  1.00  0.00     0.005 C 
ATOM     20  C   UNL     1       7.473   9.881  48.404  1.00  0.00     0.003 C 
ATOM     21  C   UNL     1       7.575   9.562  45.869  1.00  0.00     0.085 C 
ATOM     22  C   UNL     1       6.620  11.212  48.269  1.00  0.00    -0.000 C 
ATOM     23  C   UNL     1       6.724  10.776  45.712  1.00  0.00     0.159 C 
ATOM     24  C   UNL     1       5.984  11.301  46.876  1.00  0.00     0.005 C 
ATOM     25  C   UNL     1       5.489  11.203  49.348  1.00  0.00     0.020 C 
ATOM     26  C   UNL     1       7.501  12.476  48.458  1.00  0.00     0.017 C 
ATOM     27  O   UNL     1       6.579  11.290  44.569  1.00  0.00    -0.295 OA
ATOM     28  C   UNL     1       4.818  11.944  46.674  1.00  0.00     0.055 C 
ATOM     29  C   UNL     1       4.504  12.369  49.198  1.00  0.00     0.081 C 
ATOM     30  C   UNL     1       4.027  12.492  47.785  1.00  0.00     0.156 C 
ATOM     31  O   UNL     1       2.955  13.103  47.541  1.00  0.00    -0.295 OA
ENDBRANCH   9  11
ENDBRANCH   8   9
ENDBRANCH   1   8
TORSDOF 6
ENDMDL
MODEL 3
REMARK VINA RESULT:    -7.485      0.746      1.621
REMARK INTER + INTRA:         -11.622
REMARK INTER:                 -10.541
REMARK INTRA:                  -1.082
REMARK UNBOUND:                -1.512
REMARK SMILES CC[C@@H](CC[C@@H](C)[C@H]1CC[C@H]2[C@H]3CC(=O)C4=CC(=O)CC[C@@]4(C)[C@@H]3CC[C@@]12C)C(C)C
REMARK SMILES IDX 4 1 3 2 2 3 1 4 29 5 30 6 31 7 5 8 6 9 7 10 8 11 9 12 27 13
REMARK SMILES IDX 10 14 11 15 26 16 28 17 12 18 25 19 24 20 13 21 22 22 14 23
REMARK SMILES IDX 16 24 21 25 23 26 15 27 17 28 20 29 18 30 19 31
REMARK H PARENT
REMARK Flexibility Score: inf
ROOT
ATOM      1  C   UNL     1       9.333   5.047  52.496  1.00  0.00     0.004 C 
ENDROOT
BRANCH   1   2
ATOM      2  C   UNL     1       8.262   4.096  53.112  1.00  0.00    -0.009 C 
BRANCH   2   3
ATOM      3  C   UNL     1       7.012   4.870  53.624  1.00  0.00     0.000 C 
ATOM      4  C   UNL     1       5.783   4.745  52.720  1.00  0.00     0.004 C 
ENDBRANCH   2   3
BRANCH   2   5
ATOM      5  C   UNL     1       8.839   3.149  54.223  1.00  0.00    -0.014 C 
ATOM      6  C   UNL     1      10.211   2.560  53.836  1.00  0.00     0.007 C 
ATOM      7  C   UNL     1       7.880   1.987  54.542  1.00  0.00     0.007 C 
ENDBRANCH   2   5
ENDBRANCH   1   2
BRANCH   1   8
ATOM      8  C   UNL     1       9.632   4.783  51.006  1.00  0.00     0.004 C 
BRANCH   8   9
ATOM      9  C   UNL     1      10.790   5.658  50.468  1.00  0.00    -0.011 C 
ATOM     10  C   UNL     1      12.132   4.889  50.512  1.00  0.00     0.008 C 
BRANCH   9  11
ATOM     11  C   UNL     1      10.421   6.348  49.103  1.00  0.00    -0.002 C 
ATOM     12  C   UNL     1       9.329   5.603  48.309  1.00  0.00     0.005 C 
ATOM     13  C   UNL     1      10.064   7.871  49.023  1.00  0.00    -0.026 C 
ATOM     14  C   UNL     1       8.552   6.660  47.531  1.00  0.00     0.005 C 
ATOM     15  C   UNL     1       9.363   7.956  47.645  1.00  0.00    -0.001 C 
ATOM     16  C   UNL     1       9.089   8.313  50.147  1.00  0.00     0.007 C 
ATOM     17  C   UNL     1      11.339   8.757  49.026  1.00  0.00     0.012 C 
ATOM     18  C   UNL     1       8.564   9.272  47.383  1.00  0.00     0.004 C 
ATOM     19  C   UNL     1       8.432   9.669  49.882  1.00  0.00     0.005 C 
ATOM     20  C   UNL     1       7.626   9.671  48.560  1.00  0.00     0.003 C 
ATOM     21  C   UNL     1       7.790   9.179  46.056  1.00  0.00     0.085 C 
ATOM     22  C   UNL     1       6.857  11.036  48.309  1.00  0.00    -0.000 C 
ATOM     23  C   UNL     1       7.016  10.425  45.790  1.00  0.00     0.159 C 
ATOM     24  C   UNL     1       6.271  11.067  46.891  1.00  0.00     0.005 C 
ATOM     25  C   UNL     1       5.693  11.162  49.345  1.00  0.00     0.020 C 
ATOM     26  C   UNL     1       7.803  12.259  48.446  1.00  0.00     0.017 C 
ATOM     27  O   UNL     1       6.938  10.868  44.612  1.00  0.00    -0.295 OA
ATOM     28  C   UNL     1       5.151  11.758  46.606  1.00  0.00     0.055 C 
ATOM     29  C   UNL     1       4.782  12.368  49.084  1.00  0.00     0.081 C 
ATOM     30  C   UNL     1       4.359  12.422  47.650  1.00  0.00     0.156 C 
ATOM     31  O   UNL     1       3.332  13.075  47.329  1.00  0.00    -0.295 OA
ENDBRANCH   9  11
ENDBRANCH   8   9
ENDBRANCH   1   8
TORSDOF 6
ENDMDL
MODEL 4
REMARK VINA RESULT:    -7.292      5.301      8.619
REMARK INTER + INTRA:         -11.361
REMARK INTER:                 -10.030
REMARK INTRA:                  -1.331
REMARK UNBOUND:                -1.512
REMARK SMILES CC[C@@H](CC[C@@H](C)[C@H]1CC[C@H]2[C@H]3CC(=O)C4=CC(=O)CC[C@@]4(C)[C@@H]3CC[C@@]12C)C(C)C
REMARK SMILES IDX 4 1 3 2 2 3 1 4 29 5 30 6 31 7 5 8 6 9 7 10 8 11 9 12 27 13
REMARK SMILES IDX 10 14 11 15 26 16 28 17 12 18 25 19 24 20 13 21 22 22 14 23
REMARK SMILES IDX 16 24 21 25 23 26 15 27 17 28 20 29 18 30 19 31
REMARK H PARENT
REMARK Flexibility Score: inf
ROOT
ATOM      1  C   UNL     1       1.110   9.046  47.712  1.00  0.00     0.004 C 
ENDROOT
BRANCH   1   2
ATOM      2  C   UNL     1      -0.316   8.873  47.105  1.00  0.00    -0.009 C 
BRANCH   2   3
ATOM      3  C   UNL     1      -0.338   9.128  45.570  1.00  0.00     0.000 C 
ATOM      4  C   UNL     1      -1.038   8.032  44.762  1.00  0.00     0.004 C 
ENDBRANCH   2   3
BRANCH   2   5
ATOM      5  C   UNL     1      -1.409   9.728  47.840  1.00  0.00    -0.014 C 
ATOM      6  C   UNL     1      -2.570   8.864  48.372  1.00  0.00     0.007 C 
ATOM      7  C   UNL     1      -1.992  10.823  46.926  1.00  0.00     0.007 C 
ENDBRANCH   2   5
ENDBRANCH   1   2
BRANCH   1   8
ATOM      8  C   UNL     1       1.425  10.479  48.188  1.00  0.00     0.004 C 
BRANCH   8   9
ATOM      9  C   UNL     1       2.267  11.275  47.161  1.00  0.00    -0.011 C 
ATOM     10  C   UNL     1       1.394  12.314  46.417  1.00  0.00     0.008 C 
BRANCH   9  11
ATOM     11  C   UNL     1       3.610  11.805  47.786  1.00  0.00    -0.002 C 
ATOM     12  C   UNL     1       4.018  11.079  49.083  1.00  0.00     0.005 C 
ATOM     13  C   UNL     1       4.914  11.946  46.929  1.00  0.00    -0.026 C 
ATOM     14  C   UNL     1       5.542  11.081  49.128  1.00  0.00     0.005 C 
ATOM     15  C   UNL     1       6.000  12.046  48.028  1.00  0.00    -0.001 C 
ATOM     16  C   UNL     1       5.173  10.706  46.033  1.00  0.00     0.007 C 
ATOM     17  C   UNL     1       4.900  13.243  46.077  1.00  0.00     0.012 C 
ATOM     18  C   UNL     1       7.469  11.850  47.534  1.00  0.00     0.004 C 
ATOM     19  C   UNL     1       6.600  10.641  45.484  1.00  0.00     0.005 C 
ATOM     20  C   UNL     1       7.653  10.604  46.619  1.00  0.00     0.003 C 
ATOM     21  C   UNL     1       8.440  11.817  48.727  1.00  0.00     0.085 C 
ATOM     22  C   UNL     1       9.136  10.441  46.078  1.00  0.00    -0.000 C 
ATOM     23  C   UNL     1       9.848  11.626  48.276  1.00  0.00     0.159 C 
ATOM     24  C   UNL     1      10.145  10.642  47.216  1.00  0.00     0.005 C 
ATOM     25  C   UNL     1       9.308   9.003  45.491  1.00  0.00     0.020 C 
ATOM     26  C   UNL     1       9.462  11.487  44.979  1.00  0.00     0.017 C 
ATOM     27  O   UNL     1      10.778  12.245  48.862  1.00  0.00    -0.295 OA
ATOM     28  C   UNL     1      11.341  10.025  47.214  1.00  0.00     0.055 C 
ATOM     29  C   UNL     1      10.754   8.683  45.092  1.00  0.00     0.081 C 
ATOM     30  C   UNL     1      11.705   9.034  46.192  1.00  0.00     0.156 C 
ATOM     31  O   UNL     1      12.846   8.502  46.222  1.00  0.00    -0.295 OA
ENDBRANCH   9  11
ENDBRANCH   8   9
ENDBRANCH   1   8
TORSDOF 6
ENDMDL
MODEL 5
REMARK VINA RESULT:    -7.241      1.237      1.874
REMARK INTER + INTRA:         -11.294
REMARK INTER:                  -9.234
REMARK INTRA:                  -2.060
REMARK UNBOUND:                -1.512
REMARK SMILES CC[C@@H](CC[C@@H](C)[C@H]1CC[C@H]2[C@H]3CC(=O)C4=CC(=O)CC[C@@]4(C)[C@@H]3CC[C@@]12C)C(C)C
REMARK SMILES IDX 4 1 3 2 2 3 1 4 29 5 30 6 31 7 5 8 6 9 7 10 8 11 9 12 27 13
REMARK SMILES IDX 10 14 11 15 26 16 28 17 12 18 25 19 24 20 13 21 22 22 14 23
REMARK SMILES IDX 16 24 21 25 23 26 15 27 17 28 20 29 18 30 19 31
REMARK H PARENT
REMARK Flexibility Score: inf
ROOT
ATOM      1  C   UNL     1       9.680   5.105  54.271  1.00  0.00     0.004 C 
ENDROOT
BRANCH   1   2
ATOM      2  C   UNL     1       8.265   4.491  54.039  1.00  0.00    -0.009 C 
BRANCH   2   3
ATOM      3  C   UNL     1       8.328   2.966  53.737  1.00  0.00     0.000 C 
ATOM      4  C   UNL     1       7.772   2.081  54.857  1.00  0.00     0.004 C 
ENDBRANCH   2   3
BRANCH   2   5
ATOM      5  C   UNL     1       7.431   5.253  52.949  1.00  0.00    -0.014 C 
ATOM      6  C   UNL     1       7.326   6.764  53.241  1.00  0.00     0.007 C 
ATOM      7  C   UNL     1       6.007   4.681  52.812  1.00  0.00     0.007 C 
ENDBRANCH   2   5
ENDBRANCH   1   2
BRANCH   1   8
ATOM      8  C   UNL     1      10.832   4.294  53.644  1.00  0.00     0.004 C 
BRANCH   8   9
ATOM      9  C   UNL     1      11.873   5.192  52.932  1.00  0.00    -0.011 C 
ATOM     10  C   UNL     1      13.314   4.794  53.331  1.00  0.00     0.008 C 
BRANCH   9  11
ATOM     11  C   UNL     1      11.582   5.322  51.391  1.00  0.00    -0.002 C 
ATOM     12  C   UNL     1      10.428   4.425  50.902  1.00  0.00     0.005 C 
ATOM     13  C   UNL     1      11.377   6.717  50.709  1.00  0.00    -0.026 C 
ATOM     14  C   UNL     1       9.763   5.157  49.740  1.00  0.00     0.005 C 
ATOM     15  C   UNL     1      10.697   6.317  49.377  1.00  0.00    -0.001 C 
ATOM     16  C   UNL     1      10.442   7.647  51.527  1.00  0.00     0.007 C 
ATOM     17  C   UNL     1      12.732   7.418  50.423  1.00  0.00     0.012 C 
ATOM     18  C   UNL     1      10.033   7.490  48.588  1.00  0.00     0.004 C 
ATOM     19  C   UNL     1       9.924   8.844  50.727  1.00  0.00     0.005 C 
ATOM     20  C   UNL     1       9.131   8.398  49.474  1.00  0.00     0.003 C 
ATOM     21  C   UNL     1       9.262   6.953  47.369  1.00  0.00     0.085 C 
ATOM     22  C   UNL     1       8.501   9.618  48.678  1.00  0.00    -0.000 C 
ATOM     23  C   UNL     1       8.616   8.058  46.606  1.00  0.00     0.159 C 
ATOM     24  C   UNL     1       7.930   9.142  47.335  1.00  0.00     0.005 C 
ATOM     25  C   UNL     1       7.348  10.241  49.530  1.00  0.00     0.020 C 
ATOM     26  C   UNL     1       9.561  10.709  48.371  1.00  0.00     0.017 C 
ATOM     27  O   UNL     1       8.590   8.010  45.345  1.00  0.00    -0.295 OA
ATOM     28  C   UNL     1       6.885   9.763  46.754  1.00  0.00     0.055 C 
ATOM     29  C   UNL     1       6.562  11.324  48.781  1.00  0.00     0.081 C 
ATOM     30  C   UNL     1       6.155  10.849  47.421  1.00  0.00     0.156 C 
ATOM     31  O   UNL     1       5.199  11.411  46.826  1.00  0.00    -0.295 OA
ENDBRANCH   9  11
ENDBRANCH   8   9
ENDBRANCH   1   8
TORSDOF 6
ENDMDL
MODEL 6
REMARK VINA RESULT:    -6.756      5.703      9.040
REMARK INTER + INTRA:         -10.638
REMARK INTER:                  -9.842
REMARK INTRA:                  -0.796
REMARK UNBOUND:                -1.512
REMARK SMILES CC[C@@H](CC[C@@H](C)[C@H]1CC[C@H]2[C@H]3CC(=O)C4=CC(=O)CC[C@@]4(C)[C@@H]3CC[C@@]12C)C(C)C
REMARK SMILES IDX 4 1 3 2 2 3 1 4 29 5 30 6 31 7 5 8 6 9 7 10 8 11 9 12 27 13
REMARK SMILES IDX 10 14 11 15 26 16 28 17 12 18 25 19 24 20 13 21 22 22 14 23
REMARK SMILES IDX 16 24 21 25 23 26 15 27 17 28 20 29 18 30 19 31
REMARK H PARENT
REMARK Flexibility Score: inf
ROOT
ATOM      1  C   UNL     1       0.361   9.685  46.026  1.00  0.00     0.004 C 
ENDROOT
BRANCH   1   2
ATOM      2  C   UNL     1      -1.012   9.396  45.347  1.00  0.00    -0.009 C 
BRANCH   2   3
ATOM      3  C   UNL     1      -1.792   8.253  46.059  1.00  0.00     0.000 C 
ATOM      4  C   UNL     1      -2.314   8.622  47.450  1.00  0.00     0.004 C 
ENDBRANCH   2   3
BRANCH   2   5
ATOM      5  C   UNL     1      -0.895   9.130  43.804  1.00  0.00    -0.014 C 
ATOM      6  C   UNL     1      -1.924   9.940  42.990  1.00  0.00     0.007 C 
ATOM      7  C   UNL     1      -1.068   7.637  43.464  1.00  0.00     0.007 C 
ENDBRANCH   2   5
ENDBRANCH   1   2
BRANCH   1   8
ATOM      8  C   UNL     1       0.399  10.993  46.844  1.00  0.00     0.004 C 
BRANCH   8   9
ATOM      9  C   UNL     1       0.980  10.789  48.265  1.00  0.00    -0.011 C 
ATOM     10  C   UNL     1       1.145   9.284  48.585  1.00  0.00     0.008 C 
BRANCH   9  11
ATOM     11  C   UNL     1       2.234  11.703  48.524  1.00  0.00    -0.002 C 
ATOM     12  C   UNL     1       2.972  11.383  49.839  1.00  0.00     0.005 C 
ATOM     13  C   UNL     1       3.341  11.907  47.434  1.00  0.00    -0.026 C 
ATOM     14  C   UNL     1       4.445  11.701  49.606  1.00  0.00     0.005 C 
ATOM     15  C   UNL     1       4.512  12.466  48.279  1.00  0.00    -0.001 C 
ATOM     16  C   UNL     1       3.759  10.576  46.756  1.00  0.00     0.007 C 
ATOM     17  C   UNL     1       2.908  12.951  46.370  1.00  0.00     0.012 C 
ATOM     18  C   UNL     1       5.905  12.463  47.572  1.00  0.00     0.004 C 
ATOM     19  C   UNL     1       5.074  10.677  45.979  1.00  0.00     0.005 C 
ATOM     20  C   UNL     1       6.250  11.107  46.890  1.00  0.00     0.003 C 
ATOM     21  C   UNL     1       7.009  12.894  48.554  1.00  0.00     0.085 C 
ATOM     22  C   UNL     1       7.642  11.128  46.131  1.00  0.00    -0.000 C 
ATOM     23  C   UNL     1       8.348  12.893  47.899  1.00  0.00     0.159 C 
ATOM     24  C   UNL     1       8.721  11.776  47.008  1.00  0.00     0.005 C 
ATOM     25  C   UNL     1       8.066   9.659  45.804  1.00  0.00     0.020 C 
ATOM     26  C   UNL     1       7.563  11.945  44.814  1.00  0.00     0.017 C 
ATOM     27  O   UNL     1       9.178  13.801  48.180  1.00  0.00    -0.295 OA
ATOM     28  C   UNL     1      10.017  11.427  46.905  1.00  0.00     0.055 C 
ATOM     29  C   UNL     1       9.479   9.555  45.216  1.00  0.00     0.081 C 
ATOM     30  C   UNL     1      10.461  10.326  46.039  1.00  0.00     0.156 C 
ATOM     31  O   UNL     1      11.688  10.054  45.961  1.00  0.00    -0.295 OA
ENDBRANCH   9  11
ENDBRANCH   8   9
ENDBRANCH   1   8
TORSDOF 6
ENDMDL
MODEL 7
REMARK VINA RESULT:    -6.741      1.184      2.159
REMARK INTER + INTRA:         -10.618
REMARK INTER:                  -9.290
REMARK INTRA:                  -1.328
REMARK UNBOUND:                -1.512
REMARK SMILES CC[C@@H](CC[C@@H](C)[C@H]1CC[C@H]2[C@H]3CC(=O)C4=CC(=O)CC[C@@]4(C)[C@@H]3CC[C@@]12C)C(C)C
REMARK SMILES IDX 4 1 3 2 2 3 1 4 29 5 30 6 31 7 5 8 6 9 7 10 8 11 9 12 27 13
REMARK SMILES IDX 10 14 11 15 26 16 28 17 12 18 25 19 24 20 13 21 22 22 14 23
REMARK SMILES IDX 16 24 21 25 23 26 15 27 17 28 20 29 18 30 19 31
REMARK H PARENT
REMARK Flexibility Score: inf
ROOT
ATOM      1  C   UNL     1       9.811   4.426  54.539  1.00  0.00     0.004 C 
ENDROOT
BRANCH   1   2
ATOM      2  C   UNL     1       8.782   3.369  54.037  1.00  0.00    -0.009 C 
BRANCH   2   3
ATOM      3  C   UNL     1       7.351   3.964  53.888  1.00  0.00     0.000 C 
ATOM      4  C   UNL     1       7.316   5.364  53.268  1.00  0.00     0.004 C 
ENDBRANCH   2   3
BRANCH   2   5
ATOM      5  C   UNL     1       8.766   2.060  54.903  1.00  0.00    -0.014 C 
ATOM      6  C   UNL     1       8.489   0.800  54.059  1.00  0.00     0.007 C 
ATOM      7  C   UNL     1       7.720   2.132  56.033  1.00  0.00     0.007 C 
ENDBRANCH   2   5
ENDBRANCH   1   2
BRANCH   1   8
ATOM      8  C   UNL     1      10.999   4.657  53.582  1.00  0.00     0.004 C 
BRANCH   8   9
ATOM      9  C   UNL     1      11.135   6.138  53.150  1.00  0.00    -0.011 C 
ATOM     10  C   UNL     1      12.369   6.796  53.814  1.00  0.00     0.008 C 
BRANCH   9  11
ATOM     11  C   UNL     1      11.000   6.311  51.592  1.00  0.00    -0.002 C 
ATOM     12  C   UNL     1      10.037   5.300  50.939  1.00  0.00     0.005 C 
ATOM     13  C   UNL     1      10.685   7.703  50.945  1.00  0.00    -0.026 C 
ATOM     14  C   UNL     1       9.411   6.002  49.738  1.00  0.00     0.005 C 
ATOM     15  C   UNL     1      10.214   7.290  49.530  1.00  0.00    -0.001 C 
ATOM     16  C   UNL     1       9.550   8.460  51.687  1.00  0.00     0.007 C 
ATOM     17  C   UNL     1      11.957   8.587  50.846  1.00  0.00     0.012 C 
ATOM     18  C   UNL     1       9.489   8.408  48.716  1.00  0.00     0.004 C 
ATOM     19  C   UNL     1       8.967   9.621  50.879  1.00  0.00     0.005 C 
ATOM     20  C   UNL     1       8.382   9.144  49.526  1.00  0.00     0.003 C 
ATOM     21  C   UNL     1       8.935   7.843  47.396  1.00  0.00     0.085 C 
ATOM     22  C   UNL     1       7.684  10.313  48.711  1.00  0.00    -0.000 C 
ATOM     23  C   UNL     1       8.234   8.894  46.607  1.00  0.00     0.159 C 
ATOM     24  C   UNL     1       7.333   9.841  47.294  1.00  0.00     0.005 C 
ATOM     25  C   UNL     1       6.373  10.736  49.448  1.00  0.00     0.020 C 
ATOM     26  C   UNL     1       8.616  11.547  48.570  1.00  0.00     0.017 C 
ATOM     27  O   UNL     1       8.352   8.911  45.350  1.00  0.00    -0.295 OA
ATOM     28  C   UNL     1       6.284  10.351  46.621  1.00  0.00     0.055 C 
ATOM     29  C   UNL     1       5.534  11.747  48.656  1.00  0.00     0.081 C 
ATOM     30  C   UNL     1       5.346  11.297  47.241  1.00  0.00     0.156 C 
ATOM     31  O   UNL     1       4.394  11.762  46.561  1.00  0.00    -0.295 OA
ENDBRANCH   9  11
ENDBRANCH   8   9
ENDBRANCH   1   8
TORSDOF 6
ENDMDL
MODEL 8
REMARK VINA RESULT:    -6.668      3.312      7.844
REMARK INTER + INTRA:         -10.519
REMARK INTER:                  -8.988
REMARK INTRA:                  -1.532
REMARK UNBOUND:                -1.512
REMARK SMILES CC[C@@H](CC[C@@H](C)[C@H]1CC[C@H]2[C@H]3CC(=O)C4=CC(=O)CC[C@@]4(C)[C@@H]3CC[C@@]12C)C(C)C
REMARK SMILES IDX 4 1 3 2 2 3 1 4 29 5 30 6 31 7 5 8 6 9 7 10 8 11 9 12 27 13
REMARK SMILES IDX 10 14 11 15 26 16 28 17 12 18 25 19 24 20 13 21 22 22 14 23
REMARK SMILES IDX 16 24 21 25 23 26 15 27 17 28 20 29 18 30 19 31
REMARK H PARENT
REMARK Flexibility Score: inf
ROOT
ATOM      1  C   UNL     1       6.680  11.800  46.717  1.00  0.00     0.004 C 
ENDROOT
BRANCH   1   2
ATOM      2  C   UNL     1       6.713  11.810  48.276  1.00  0.00    -0.009 C 
BRANCH   2   3
ATOM      3  C   UNL     1       6.837  10.378  48.872  1.00  0.00     0.000 C 
ATOM      4  C   UNL     1       8.043  10.185  49.795  1.00  0.00     0.004 C 
ENDBRANCH   2   3
BRANCH   2   5
ATOM      5  C   UNL     1       5.509  12.590  48.915  1.00  0.00    -0.014 C 
ATOM      6  C   UNL     1       4.561  11.664  49.702  1.00  0.00     0.007 C 
ATOM      7  C   UNL     1       4.686  13.346  47.853  1.00  0.00     0.007 C 
ENDBRANCH   2   5
ENDBRANCH   1   2
BRANCH   1   8
ATOM      8  C   UNL     1       6.975  10.423  46.088  1.00  0.00     0.004 C 
BRANCH   8   9
ATOM      9  C   UNL     1       8.081  10.488  45.006  1.00  0.00    -0.011 C 
ATOM     10  C   UNL     1       8.082  11.863  44.297  1.00  0.00     0.008 C 
BRANCH   9  11
ATOM     11  C   UNL     1       9.466   9.977  45.549  1.00  0.00    -0.002 C 
ATOM     12  C   UNL     1      10.071  10.877  46.645  1.00  0.00     0.005 C 
ATOM     13  C   UNL     1       9.665   8.499  46.031  1.00  0.00    -0.026 C 
ATOM     14  C   UNL     1      10.872   9.966  47.570  1.00  0.00     0.005 C 
ATOM     15  C   UNL     1      10.970   8.613  46.857  1.00  0.00    -0.001 C 
ATOM     16  C   UNL     1       8.502   8.007  46.934  1.00  0.00     0.007 C 
ATOM     17  C   UNL     1       9.876   7.532  44.835  1.00  0.00     0.012 C 
ATOM     18  C   UNL     1      11.284   7.391  47.777  1.00  0.00     0.004 C 
ATOM     19  C   UNL     1       8.837   6.736  47.716  1.00  0.00     0.005 C 
ATOM     20  C   UNL     1      10.069   6.933  48.635  1.00  0.00     0.003 C 
ATOM     21  C   UNL     1      12.513   7.680  48.657  1.00  0.00     0.085 C 
ATOM     22  C   UNL     1      10.380   5.660  49.529  1.00  0.00    -0.000 C 
ATOM     23  C   UNL     1      12.827   6.527  49.547  1.00  0.00     0.159 C 
ATOM     24  C   UNL     1      11.730   5.823  50.240  1.00  0.00     0.005 C 
ATOM     25  C   UNL     1       9.254   5.503  50.601  1.00  0.00     0.020 C 
ATOM     26  C   UNL     1      10.460   4.367  48.674  1.00  0.00     0.017 C 
ATOM     27  O   UNL     1      14.032   6.220  49.765  1.00  0.00    -0.295 OA
ATOM     28  C   UNL     1      11.973   5.245  51.432  1.00  0.00     0.055 C 
ATOM     29  C   UNL     1       9.545   4.398  51.625  1.00  0.00     0.081 C 
ATOM     30  C   UNL     1      10.929   4.529  52.178  1.00  0.00     0.156 C 
ATOM     31  O   UNL     1      11.214   3.987  53.278  1.00  0.00    -0.295 OA
ENDBRANCH   9  11
ENDBRANCH   8   9
ENDBRANCH   1   8
TORSDOF 6
ENDMDL
MODEL 9
REMARK VINA RESULT:    -6.651      2.216      4.092
REMARK INTER + INTRA:         -10.495
REMARK INTER:                  -9.606
REMARK INTRA:                  -0.889
REMARK UNBOUND:                -1.512
REMARK SMILES CC[C@@H](CC[C@@H](C)[C@H]1CC[C@H]2[C@H]3CC(=O)C4=CC(=O)CC[C@@]4(C)[C@@H]3CC[C@@]12C)C(C)C
REMARK SMILES IDX 4 1 3 2 2 3 1 4 29 5 30 6 31 7 5 8 6 9 7 10 8 11 9 12 27 13
REMARK SMILES IDX 10 14 11 15 26 16 28 17 12 18 25 19 24 20 13 21 22 22 14 23
REMARK SMILES IDX 16 24 21 25 23 26 15 27 17 28 20 29 18 30 19 31
REMARK H PARENT
REMARK Flexibility Score: inf
ROOT
ATOM      1  C   UNL     1       8.579   5.231  53.393  1.00  0.00     0.004 C 
ENDROOT
BRANCH   1   2
ATOM      2  C   UNL     1       8.254   3.706  53.422  1.00  0.00    -0.009 C 
BRANCH   2   3
ATOM      3  C   UNL     1       6.723   3.429  53.397  1.00  0.00     0.000 C 
ATOM      4  C   UNL     1       5.898   4.528  52.721  1.00  0.00     0.004 C 
ENDBRANCH   2   3
BRANCH   2   5
ATOM      5  C   UNL     1       8.950   2.949  54.608  1.00  0.00    -0.014 C 
ATOM      6  C   UNL     1      10.078   2.014  54.125  1.00  0.00     0.007 C 
ATOM      7  C   UNL     1       7.944   2.119  55.429  1.00  0.00     0.007 C 
ENDBRANCH   2   5
ENDBRANCH   1   2
BRANCH   1   8
ATOM      8  C   UNL     1      10.085   5.556  53.332  1.00  0.00     0.004 C 
BRANCH   8   9
ATOM      9  C   UNL     1      10.602   5.711  51.880  1.00  0.00    -0.011 C 
ATOM     10  C   UNL     1      11.114   4.359  51.328  1.00  0.00     0.008 C 
BRANCH   9  11
ATOM     11  C   UNL     1       9.586   6.500  50.975  1.00  0.00    -0.002 C 
ATOM     12  C   UNL     1       9.236   7.901  51.514  1.00  0.00     0.005 C 
ATOM     13  C   UNL     1       9.815   6.664  49.434  1.00  0.00    -0.026 C 
ATOM     14  C   UNL     1       8.957   8.783  50.300  1.00  0.00     0.005 C 
ATOM     15  C   UNL     1       8.860   7.836  49.099  1.00  0.00    -0.001 C 
ATOM     16  C   UNL     1      11.278   7.049  49.088  1.00  0.00     0.007 C 
ATOM     17  C   UNL     1       9.386   5.391  48.655  1.00  0.00     0.012 C 
ATOM     18  C   UNL     1       9.084   8.499  47.703  1.00  0.00     0.004 C 
ATOM     19  C   UNL     1      11.445   7.579  47.662  1.00  0.00     0.005 C 
ATOM     20  C   UNL     1      10.575   8.836  47.410  1.00  0.00     0.003 C 
ATOM     21  C   UNL     1       8.188   9.740  47.545  1.00  0.00     0.085 C 
ATOM     22  C   UNL     1      10.802   9.462  45.969  1.00  0.00    -0.000 C 
ATOM     23  C   UNL     1       8.391  10.392  46.220  1.00  0.00     0.159 C 
ATOM     24  C   UNL     1       9.759  10.552  45.690  1.00  0.00     0.005 C 
ATOM     25  C   UNL     1      12.230  10.094  45.908  1.00  0.00     0.020 C 
ATOM     26  C   UNL     1      10.665   8.392  44.853  1.00  0.00     0.017 C 
ATOM     27  O   UNL     1       7.399  10.873  45.606  1.00  0.00    -0.295 OA
ATOM     28  C   UNL     1      10.030  11.596  44.883  1.00  0.00     0.055 C 
ATOM     29  C   UNL     1      12.490  10.873  44.612  1.00  0.00     0.081 C 
ATOM     30  C   UNL     1      11.368  11.819  44.320  1.00  0.00     0.156 C 
ATOM     31  O   UNL     1      11.564  12.798  43.553  1.00  0.00    -0.295 OA
ENDBRANCH   9  11
ENDBRANCH   8   9
ENDBRANCH   1   8
TORSDOF 6
ENDMDL
