MODEL 1
REMARK VINA RESULT:     0.000      0.000      0.000
REMARK INTER + INTRA:          -1.855
REMARK INTER:                   0.000
REMARK INTRA:                  -1.855
REMARK UNBOUND:                -1.855
REMARK SMILES CCCCCCCCCCCC(=O)[O-]
REMARK SMILES IDX 7 1 8 2 9 3 10 4 11 5 12 6 13 7 14 8 6 9 5 10 4 11 3 12 2 13
REMARK SMILES IDX 1 14
REMARK H PARENT
REMARK Flexibility Score: inf
ROOT
ATOM      1  C   UNL     1     177.388 194.183 192.969  1.00  0.00     0.000 C 
ENDROOT
BRANCH   1   2
ATOM      2  C   UNL     1     177.885 195.615 192.687  1.00  0.00     0.000 C 
BRANCH   2   3
ATOM      3  C   UNL     1     176.797 196.617 192.255  1.00  0.00     0.000 C 
BRANCH   3   4
ATOM      4  C   UNL     1     175.405 196.005 192.001  1.00  0.00     0.006 C 
BRANCH   4   5
ATOM      5  C   UNL     1     175.064 195.829 190.510  1.00  0.00     0.053 C 
BRANCH   5   6
ATOM      6  C   UNL     1     174.603 194.440 190.187  1.00  0.00     0.041 C 
ATOM      7  O   UNL     1     174.380 193.615 191.112  1.00  0.00    -0.550 OA
ATOM      8  O   UNL     1     174.453 194.044 188.864  1.00  0.00    -0.550 OA
ENDBRANCH   5   6
ENDBRANCH   4   5
ENDBRANCH   3   4
ENDBRANCH   2   3
ENDBRANCH   1   2
BRANCH   1   9
ATOM      9  C   UNL     1     177.829 193.127 191.940  1.00  0.00     0.000 C 
BRANCH   9  10
ATOM     10  C   UNL     1     178.690 193.714 190.813  1.00  0.00    -0.000 C 
BRANCH  10  11
ATOM     11  C   UNL     1     178.067 193.429 189.438  1.00  0.00    -0.000 C 
BRANCH  11  12
ATOM     12  C   UNL     1     178.011 194.689 188.549  1.00  0.00    -0.000 C 
BRANCH  12  13
ATOM     13  C   UNL     1     178.817 195.874 189.107  1.00  0.00    -0.003 C 
ATOM     14  C   UNL     1     178.154 197.225 188.848  1.00  0.00     0.004 C 
ENDBRANCH  12  13
ENDBRANCH  11  12
ENDBRANCH  10  11
ENDBRANCH   9  10
ENDBRANCH   1   9
TORSDOF 10
ENDMDL
MODEL 2
REMARK VINA RESULT:     0.001      9.094     11.041
REMARK INTER + INTRA:          -1.854
REMARK INTER:                   0.000
REMARK INTRA:                  -1.854
REMARK UNBOUND:                -1.855
REMARK SMILES CCCCCCCCCCCC(=O)[O-]
REMARK SMILES IDX 7 1 8 2 9 3 10 4 11 5 12 6 13 7 14 8 6 9 5 10 4 11 3 12 2 13
REMARK SMILES IDX 1 14
REMARK H PARENT
REMARK Flexibility Score: inf
ROOT
ATOM      1  C   UNL     1     172.914 185.000 196.975  1.00  0.00     0.000 C 
ENDROOT
BRANCH   1   2
ATOM      2  C   UNL     1     172.436 185.086 195.512  1.00  0.00     0.000 C 
BRANCH   2   3
ATOM      3  C   UNL     1     173.369 185.858 194.559  1.00  0.00     0.000 C 
BRANCH   3   4
ATOM      4  C   UNL     1     174.551 186.578 195.237  1.00  0.00     0.006 C 
BRANCH   4   5
ATOM      5  C   UNL     1     174.359 188.099 195.374  1.00  0.00     0.053 C 
BRANCH   5   6
ATOM      6  C   UNL     1     174.608 188.585 196.770  1.00  0.00     0.041 C 
ATOM      7  O   UNL     1     175.043 187.795 197.648  1.00  0.00    -0.550 OA
ATOM      8  O   UNL     1     174.326 189.902 197.111  1.00  0.00    -0.550 OA
ENDBRANCH   5   6
ENDBRANCH   4   5
ENDBRANCH   3   4
ENDBRANCH   2   3
ENDBRANCH   1   2
BRANCH   1   9
ATOM      9  C   UNL     1     172.080 185.814 197.981  1.00  0.00     0.000 C 
BRANCH   9  10
ATOM     10  C   UNL     1     170.940 186.598 197.316  1.00  0.00    -0.000 C 
BRANCH  10  11
ATOM     11  C   UNL     1     171.075 188.104 197.589  1.00  0.00    -0.000 C 
BRANCH  11  12
ATOM     12  C   UNL     1     170.859 188.950 196.316  1.00  0.00    -0.000 C 
BRANCH  12  13
ATOM     13  C   UNL     1     170.382 188.131 195.104  1.00  0.00    -0.003 C 
ATOM     14  C   UNL     1     170.979 188.612 193.784  1.00  0.00     0.004 C 
ENDBRANCH  12  13
ENDBRANCH  11  12
ENDBRANCH  10  11
ENDBRANCH   9  10
ENDBRANCH   1   9
TORSDOF 10
ENDMDL
MODEL 3
REMARK VINA RESULT:     0.001      3.592      5.267
REMARK INTER + INTRA:          -1.853
REMARK INTER:                   0.000
REMARK INTRA:                  -1.853
REMARK UNBOUND:                -1.855
REMARK SMILES CCCCCCCCCCCC(=O)[O-]
REMARK SMILES IDX 7 1 8 2 9 3 10 4 11 5 12 6 13 7 14 8 6 9 5 10 4 11 3 12 2 13
REMARK SMILES IDX 1 14
REMARK H PARENT
REMARK Flexibility Score: inf
ROOT
ATOM      1  C   UNL     1     172.885 195.223 195.363  1.00  0.00     0.000 C 
ENDROOT
BRANCH   1   2
ATOM      2  C   UNL     1     174.121 194.313 195.219  1.00  0.00     0.000 C 
BRANCH   2   3
ATOM      3  C   UNL     1     175.474 194.988 195.514  1.00  0.00     0.000 C 
BRANCH   3   4
ATOM      4  C   UNL     1     175.409 196.509 195.757  1.00  0.00     0.006 C 
BRANCH   4   5
ATOM      5  C   UNL     1     175.880 197.354 194.560  1.00  0.00     0.053 C 
BRANCH   5   6
ATOM      6  C   UNL     1     174.881 198.399 194.167  1.00  0.00     0.041 C 
ATOM      7  O   UNL     1     173.881 198.626 194.897  1.00  0.00    -0.550 OA
ATOM      8  O   UNL     1     175.034 199.099 192.977  1.00  0.00    -0.550 OA
ENDBRANCH   5   6
ENDBRANCH   4   5
ENDBRANCH   3   4
ENDBRANCH   2   3
ENDBRANCH   1   2
BRANCH   1   9
ATOM      9  C   UNL     1     172.187 195.587 194.041  1.00  0.00     0.000 C 
BRANCH   9  10
ATOM     10  C   UNL     1     172.875 194.973 192.814  1.00  0.00    -0.000 C 
BRANCH  10  11
ATOM     11  C   UNL     1     173.283 196.061 191.809  1.00  0.00    -0.000 C 
BRANCH  11  12
ATOM     12  C   UNL     1     174.740 195.896 191.327  1.00  0.00    -0.000 C 
BRANCH  12  13
ATOM     13  C   UNL     1     175.377 194.558 191.739  1.00  0.00    -0.003 C 
ATOM     14  C   UNL     1     176.861 194.681 192.080  1.00  0.00     0.004 C 
ENDBRANCH  12  13
ENDBRANCH  11  12
ENDBRANCH  10  11
ENDBRANCH   9  10
ENDBRANCH   1   9
TORSDOF 10
ENDMDL
MODEL 4
REMARK VINA RESULT:     0.001      2.213      2.810
REMARK INTER + INTRA:          -1.853
REMARK INTER:                   0.000
REMARK INTRA:                  -1.853
REMARK UNBOUND:                -1.855
REMARK SMILES CCCCCCCCCCCC(=O)[O-]
REMARK SMILES IDX 7 1 8 2 9 3 10 4 11 5 12 6 13 7 14 8 6 9 5 10 4 11 3 12 2 13
REMARK SMILES IDX 1 14
REMARK H PARENT
REMARK Flexibility Score: inf
ROOT
ATOM      1  C   UNL     1     177.731 192.679 193.570  1.00  0.00     0.000 C 
ENDROOT
BRANCH   1   2
ATOM      2  C   UNL     1     178.462 193.862 192.903  1.00  0.00     0.000 C 
BRANCH   2   3
ATOM      3  C   UNL     1     177.622 194.671 191.896  1.00  0.00     0.000 C 
BRANCH   3   4
ATOM      4  C   UNL     1     176.256 194.054 191.535  1.00  0.00     0.006 C 
BRANCH   4   5
ATOM      5  C   UNL     1     176.237 193.333 190.174  1.00  0.00     0.053 C 
BRANCH   5   6
ATOM      6  C   UNL     1     175.659 191.954 190.265  1.00  0.00     0.041 C 
ATOM      7  O   UNL     1     175.152 191.548 191.344  1.00  0.00    -0.550 OA
ATOM      8  O   UNL     1     175.711 191.102 189.169  1.00  0.00    -0.550 OA
ENDBRANCH   5   6
ENDBRANCH   4   5
ENDBRANCH   3   4
ENDBRANCH   2   3
ENDBRANCH   1   2
BRANCH   1   9
ATOM      9  C   UNL     1     178.235 191.285 193.155  1.00  0.00     0.000 C 
BRANCH   9  10
ATOM     10  C   UNL     1     179.378 191.344 192.132  1.00  0.00    -0.000 C 
BRANCH  10  11
ATOM     11  C   UNL     1     179.012 190.573 190.854  1.00  0.00    -0.000 C 
BRANCH  11  12
ATOM     12  C   UNL     1     179.340 191.373 189.575  1.00  0.00    -0.000 C 
BRANCH  12  13
ATOM     13  C   UNL     1     180.177 192.638 189.836  1.00  0.00    -0.003 C 
ATOM     14  C   UNL     1     179.757 193.823 188.969  1.00  0.00     0.004 C 
ENDBRANCH  12  13
ENDBRANCH  11  12
ENDBRANCH  10  11
ENDBRANCH   9  10
ENDBRANCH   1   9
TORSDOF 10
ENDMDL
MODEL 5
REMARK VINA RESULT:     0.002     11.727     13.309
REMARK INTER + INTRA:          -1.852
REMARK INTER:                   0.000
REMARK INTRA:                  -1.852
REMARK UNBOUND:                -1.855
REMARK SMILES CCCCCCCCCCCC(=O)[O-]
REMARK SMILES IDX 7 1 8 2 9 3 10 4 11 5 12 6 13 7 14 8 6 9 5 10 4 11 3 12 2 13
REMARK SMILES IDX 1 14
REMARK H PARENT
REMARK Flexibility Score: inf
ROOT
ATOM      1  C   UNL     1     170.266 187.588 199.837  1.00  0.00     0.000 C 
ENDROOT
BRANCH   1   2
ATOM      2  C   UNL     1     168.868 187.568 200.488  1.00  0.00     0.000 C 
BRANCH   2   3
ATOM      3  C   UNL     1     168.591 188.707 201.487  1.00  0.00     0.000 C 
BRANCH   3   4
ATOM      4  C   UNL     1     169.692 189.783 201.580  1.00  0.00     0.006 C 
BRANCH   4   5
ATOM      5  C   UNL     1     169.352 191.089 200.839  1.00  0.00     0.053 C 
BRANCH   5   6
ATOM      6  C   UNL     1     170.426 191.499 199.878  1.00  0.00     0.041 C 
ATOM      7  O   UNL     1     171.549 190.929 199.901  1.00  0.00    -0.550 OA
ATOM      8  O   UNL     1     170.200 192.534 198.980  1.00  0.00    -0.550 OA
ENDBRANCH   5   6
ENDBRANCH   4   5
ENDBRANCH   3   4
ENDBRANCH   2   3
ENDBRANCH   1   2
BRANCH   1   9
ATOM      9  C   UNL     1     170.285 187.963 198.345  1.00  0.00     0.000 C 
BRANCH   9  10
ATOM     10  C   UNL     1     168.884 188.234 197.780  1.00  0.00    -0.000 C 
BRANCH  10  11
ATOM     11  C   UNL     1     168.809 189.628 197.139  1.00  0.00    -0.000 C 
BRANCH  11  12
ATOM     12  C   UNL     1     167.584 190.431 197.627  1.00  0.00    -0.000 C 
BRANCH  12  13
ATOM     13  C   UNL     1     166.560 189.582 198.400  1.00  0.00    -0.003 C 
ATOM     14  C   UNL     1     165.885 190.348 199.537  1.00  0.00     0.004 C 
ENDBRANCH  12  13
ENDBRANCH  11  12
ENDBRANCH  10  11
ENDBRANCH   9  10
ENDBRANCH   1   9
TORSDOF 10
ENDMDL
MODEL 6
REMARK VINA RESULT:     0.002      5.700      7.685
REMARK INTER + INTRA:          -1.851
REMARK INTER:                   0.000
REMARK INTRA:                  -1.851
REMARK UNBOUND:                -1.855
REMARK SMILES CCCCCCCCCCCC(=O)[O-]
REMARK SMILES IDX 7 1 8 2 9 3 10 4 11 5 12 6 13 7 14 8 6 9 5 10 4 11 3 12 2 13
REMARK SMILES IDX 1 14
REMARK H PARENT
REMARK Flexibility Score: inf
ROOT
ATOM      1  C   UNL     1     178.548 193.016 195.428  1.00  0.00     0.000 C 
ENDROOT
BRANCH   1   2
ATOM      2  C   UNL     1     178.322 191.973 194.316  1.00  0.00     0.000 C 
BRANCH   2   3
ATOM      3  C   UNL     1     176.853 191.579 194.072  1.00  0.00     0.000 C 
BRANCH   3   4
ATOM      4  C   UNL     1     175.846 192.127 195.103  1.00  0.00     0.006 C 
BRANCH   4   5
ATOM      5  C   UNL     1     175.400 191.091 196.151  1.00  0.00     0.053 C 
BRANCH   5   6
ATOM      6  C   UNL     1     175.555 191.593 197.554  1.00  0.00     0.041 C 
ATOM      7  O   UNL     1     175.835 192.801 197.768  1.00  0.00    -0.550 OA
ATOM      8  O   UNL     1     175.425 190.718 198.626  1.00  0.00    -0.550 OA
ENDBRANCH   5   6
ENDBRANCH   4   5
ENDBRANCH   3   4
ENDBRANCH   2   3
ENDBRANCH   1   2
BRANCH   1   9
ATOM      9  C   UNL     1     179.220 192.474 196.703  1.00  0.00     0.000 C 
BRANCH   9  10
ATOM     10  C   UNL     1     179.603 190.992 196.592  1.00  0.00    -0.000 C 
BRANCH  10  11
ATOM     11  C   UNL     1     178.987 190.177 197.740  1.00  0.00    -0.000 C 
BRANCH  11  12
ATOM     12  C   UNL     1     178.223 188.936 197.231  1.00  0.00    -0.000 C 
BRANCH  12  13
ATOM     13  C   UNL     1     178.532 188.579 195.767  1.00  0.00    -0.003 C 
ATOM     14  C   UNL     1     177.320 188.034 195.015  1.00  0.00     0.004 C 
ENDBRANCH  12  13
ENDBRANCH  11  12
ENDBRANCH  10  11
ENDBRANCH   9  10
ENDBRANCH   1   9
TORSDOF 10
ENDMDL
MODEL 7
REMARK VINA RESULT:     0.002      6.781      8.903
REMARK INTER + INTRA:          -1.851
REMARK INTER:                   0.000
REMARK INTRA:                  -1.851
REMARK UNBOUND:                -1.855
REMARK SMILES CCCCCCCCCCCC(=O)[O-]
REMARK SMILES IDX 7 1 8 2 9 3 10 4 11 5 12 6 13 7 14 8 6 9 5 10 4 11 3 12 2 13
REMARK SMILES IDX 1 14
REMARK H PARENT
REMARK Flexibility Score: inf
ROOT
ATOM      1  C   UNL     1     179.700 188.854 192.213  1.00  0.00     0.000 C 
ENDROOT
BRANCH   1   2
ATOM      2  C   UNL     1     181.086 188.335 191.782  1.00  0.00     0.000 C 
BRANCH   2   3
ATOM      3  C   UNL     1     182.202 189.397 191.734  1.00  0.00     0.000 C 
BRANCH   3   4
ATOM      4  C   UNL     1     181.812 190.784 192.283  1.00  0.00     0.006 C 
BRANCH   4   5
ATOM      5  C   UNL     1     182.359 191.073 193.693  1.00  0.00     0.053 C 
BRANCH   5   6
ATOM      6  C   UNL     1     181.289 191.520 194.642  1.00  0.00     0.041 C 
ATOM      7  O   UNL     1     180.132 191.778 194.217  1.00  0.00    -0.550 OA
ATOM      8  O   UNL     1     181.577 191.685 195.991  1.00  0.00    -0.550 OA
ENDBRANCH   5   6
ENDBRANCH   4   5
ENDBRANCH   3   4
ENDBRANCH   2   3
ENDBRANCH   1   2
BRANCH   1   9
ATOM      9  C   UNL     1     179.227 188.374 193.597  1.00  0.00     0.000 C 
BRANCH   9  10
ATOM     10  C   UNL     1     180.256 187.481 194.303  1.00  0.00    -0.000 C 
BRANCH  10  11
ATOM     11  C   UNL     1     180.649 188.068 195.667  1.00  0.00    -0.000 C 
BRANCH  11  12
ATOM     12  C   UNL     1     182.177 188.062 195.888  1.00  0.00    -0.000 C 
BRANCH  12  13
ATOM     13  C   UNL     1     182.952 187.286 194.809  1.00  0.00    -0.003 C 
ATOM     14  C   UNL     1     184.292 187.928 194.456  1.00  0.00     0.004 C 
ENDBRANCH  12  13
ENDBRANCH  11  12
ENDBRANCH  10  11
ENDBRANCH   9  10
ENDBRANCH   1   9
TORSDOF 10
ENDMDL
MODEL 8
REMARK VINA RESULT:     0.006      6.652      8.920
REMARK INTER + INTRA:          -1.846
REMARK INTER:                   0.000
REMARK INTRA:                  -1.846
REMARK UNBOUND:                -1.855
REMARK SMILES CCCCCCCCCCCC(=O)[O-]
REMARK SMILES IDX 7 1 8 2 9 3 10 4 11 5 12 6 13 7 14 8 6 9 5 10 4 11 3 12 2 13
REMARK SMILES IDX 1 14
REMARK H PARENT
REMARK Flexibility Score: inf
ROOT
ATOM      1  C   UNL     1     179.276 190.711 195.948  1.00  0.00     0.000 C 
ENDROOT
BRANCH   1   2
ATOM      2  C   UNL     1     179.303 190.202 197.404  1.00  0.00     0.000 C 
BRANCH   2   3
ATOM      3  C   UNL     1     179.216 188.673 197.568  1.00  0.00     0.000 C 
BRANCH   3   4
ATOM      4  C   UNL     1     178.947 187.887 196.270  1.00  0.00     0.006 C 
BRANCH   4   5
ATOM      5  C   UNL     1     177.487 187.425 196.110  1.00  0.00     0.053 C 
BRANCH   5   6
ATOM      6  C   UNL     1     176.897 187.835 194.795  1.00  0.00     0.041 C 
ATOM      7  O   UNL     1     175.661 187.715 194.589  1.00  0.00    -0.550 OA
ATOM      8  O   UNL     1     177.718 188.317 193.782  1.00  0.00    -0.550 OA
ENDBRANCH   5   6
ENDBRANCH   4   5
ENDBRANCH   3   4
ENDBRANCH   2   3
ENDBRANCH   1   2
BRANCH   1   9
ATOM      9  C   UNL     1     177.983 191.436 195.535  1.00  0.00     0.000 C 
BRANCH   9  10
ATOM     10  C   UNL     1     176.973 191.556 196.685  1.00  0.00    -0.000 C 
BRANCH  10  11
ATOM     11  C   UNL     1     175.609 190.974 196.283  1.00  0.00    -0.000 C 
BRANCH  11  12
ATOM     12  C   UNL     1     175.068 189.976 197.330  1.00  0.00    -0.000 C 
BRANCH  12  13
ATOM     13  C   UNL     1     175.825 190.016 198.669  1.00  0.00    -0.003 C 
ATOM     14  C   UNL     1     175.947 188.644 199.329  1.00  0.00     0.004 C 
ENDBRANCH  12  13
ENDBRANCH  11  12
ENDBRANCH  10  11
ENDBRANCH   9  10
ENDBRANCH   1   9
TORSDOF 10
ENDMDL
MODEL 9
REMARK VINA RESULT:     0.006      3.768      6.514
REMARK INTER + INTRA:          -1.845
REMARK INTER:                   0.000
REMARK INTRA:                  -1.845
REMARK UNBOUND:                -1.855
REMARK SMILES CCCCCCCCCCCC(=O)[O-]
REMARK SMILES IDX 7 1 8 2 9 3 10 4 11 5 12 6 13 7 14 8 6 9 5 10 4 11 3 12 2 13
REMARK SMILES IDX 1 14
REMARK H PARENT
REMARK Flexibility Score: inf
ROOT
ATOM      1  C   UNL     1     172.523 192.700 187.681  1.00  0.00     0.000 C 
ENDROOT
BRANCH   1   2
ATOM      2  C   UNL     1     171.607 193.809 188.237  1.00  0.00     0.000 C 
BRANCH   2   3
ATOM      3  C   UNL     1     172.282 194.793 189.211  1.00  0.00     0.000 C 
BRANCH   3   4
ATOM      4  C   UNL     1     173.729 194.439 189.605  1.00  0.00     0.006 C 
BRANCH   4   5
ATOM      5  C   UNL     1     173.859 193.808 191.003  1.00  0.00     0.053 C 
BRANCH   5   6
ATOM      6  C   UNL     1     174.614 192.514 190.980  1.00  0.00     0.041 C 
ATOM      7  O   UNL     1     174.641 191.777 192.000  1.00  0.00    -0.550 OA
ATOM      8  O   UNL     1     175.320 192.138 189.844  1.00  0.00    -0.550 OA
ENDBRANCH   5   6
ENDBRANCH   4   5
ENDBRANCH   3   4
ENDBRANCH   2   3
ENDBRANCH   1   2
BRANCH   1   9
ATOM      9  C   UNL     1     172.234 191.287 188.218  1.00  0.00     0.000 C 
BRANCH   9  10
ATOM     10  C   UNL     1     171.054 191.251 189.199  1.00  0.00    -0.000 C 
BRANCH  10  11
ATOM     11  C   UNL     1     171.469 190.620 190.537  1.00  0.00    -0.000 C 
BRANCH  11  12
ATOM     12  C   UNL     1     171.047 191.482 191.746  1.00  0.00    -0.000 C 
BRANCH  12  13
ATOM     13  C   UNL     1     170.063 192.609 191.386  1.00  0.00    -0.003 C 
ATOM     14  C   UNL     1     170.280 193.879 192.206  1.00  0.00     0.004 C 
ENDBRANCH  12  13
ENDBRANCH  11  12
ENDBRANCH  10  11
ENDBRANCH   9  10
ENDBRANCH   1   9
TORSDOF 10
ENDMDL
