MODEL 1
REMARK VINA RESULT:    -5.882      0.000      0.000
REMARK INTER + INTRA:          -5.882
REMARK INTER:                  -5.882
REMARK INTRA:                   0.000
REMARK UNBOUND:                 0.000
REMARK SMILES C=C1CCC[C@]2(C)CC(=O)C(=C(C)C)C[C@@H]12
REMARK SMILES IDX 13 1 12 2 11 3 15 4 16 5 2 6 1 7 3 8 4 9 5 10 6 11 8 12 9 13
REMARK SMILES IDX 10 14 7 15 14 16
REMARK H PARENT
REMARK Flexibility Score: inf
ROOT
ATOM      1  C   UNL     1      13.731  13.263  14.218  1.00  0.00     0.039 C 
ATOM      2  C   UNL     1      14.312  14.233  15.221  1.00  0.00    -0.070 C 
ATOM      3  C   UNL     1      13.998  15.563  15.203  1.00  0.00    -0.006 C 
ATOM      4  C   UNL     1      14.544  16.515  16.259  1.00  0.00     0.047 C 
ATOM      5  C   UNL     1      13.585  17.696  16.553  1.00  0.00     0.025 C 
ATOM      6  C   UNL     1      14.099  18.710  17.576  1.00  0.00    -0.073 C 
ATOM      7  C   UNL     1      15.296  18.623  18.190  1.00  0.00     0.008 C 
ATOM      8  C   UNL     1      13.159  19.838  17.928  1.00  0.00     0.031 C 
ATOM      9  C   UNL     1      12.686  20.553  16.658  1.00  0.00     0.005 C 
ATOM     10  C   UNL     1      12.123  19.561  15.626  1.00  0.00     0.008 C 
ATOM     11  C   UNL     1      13.128  18.429  15.253  1.00  0.00    -0.018 C 
ATOM     12  C   UNL     1      12.393  17.412  14.345  1.00  0.00     0.088 C 
ATOM     13  C   UNL     1      13.215  16.181  14.094  1.00  0.00     0.159 C 
ATOM     14  O   UNL     1      13.235  15.697  12.931  1.00  0.00    -0.295 OA
ATOM     15  C   UNL     1      14.329  19.036  14.477  1.00  0.00     0.012 C 
ATOM     16  C   UNL     1      15.231  13.658  16.276  1.00  0.00     0.039 C 
ENDROOT
TORSDOF 0
ENDMDL
MODEL 2
REMARK VINA RESULT:    -5.162      2.822      6.081
REMARK INTER + INTRA:          -5.162
REMARK INTER:                  -5.162
REMARK INTRA:                   0.000
REMARK UNBOUND:                 0.000
REMARK SMILES C=C1CCC[C@]2(C)CC(=O)C(=C(C)C)C[C@@H]12
REMARK SMILES IDX 13 1 12 2 11 3 15 4 16 5 2 6 1 7 3 8 4 9 5 10 6 11 8 12 9 13
REMARK SMILES IDX 10 14 7 15 14 16
REMARK H PARENT
REMARK Flexibility Score: inf
ROOT
ATOM      1  C   UNL     1      12.374  24.900  14.306  1.00  0.00     0.039 C 
ATOM      2  C   UNL     1      12.122  23.907  15.417  1.00  0.00    -0.070 C 
ATOM      3  C   UNL     1      12.455  22.587  15.293  1.00  0.00    -0.006 C 
ATOM      4  C   UNL     1      12.250  21.612  16.444  1.00  0.00     0.047 C 
ATOM      5  C   UNL     1      13.286  20.459  16.444  1.00  0.00     0.025 C 
ATOM      6  C   UNL     1      13.105  19.424  17.554  1.00  0.00    -0.073 C 
ATOM      7  C   UNL     1      12.123  19.469  18.477  1.00  0.00     0.008 C 
ATOM      8  C   UNL     1      14.136  18.322  17.614  1.00  0.00     0.031 C 
ATOM      9  C   UNL     1      14.257  17.631  16.253  1.00  0.00     0.005 C 
ATOM     10  C   UNL     1      14.485  18.646  15.120  1.00  0.00     0.008 C 
ATOM     11  C   UNL     1      13.385  19.749  15.057  1.00  0.00    -0.018 C 
ATOM     12  C   UNL     1      13.810  20.794  13.996  1.00  0.00     0.088 C 
ATOM     13  C   UNL     1      12.917  22.001  14.001  1.00  0.00     0.159 C 
ATOM     14  O   UNL     1      12.561  22.491  12.897  1.00  0.00    -0.295 OA
ATOM     15  C   UNL     1      12.032  19.110  14.636  1.00  0.00     0.012 C 
ATOM     16  C   UNL     1      11.516  24.446  16.693  1.00  0.00     0.039 C 
ENDROOT
TORSDOF 0
ENDMDL
MODEL 3
REMARK VINA RESULT:    -5.155      2.870      4.284
REMARK INTER + INTRA:          -5.155
REMARK INTER:                  -5.155
REMARK INTRA:                   0.000
REMARK UNBOUND:                 0.000
REMARK SMILES C=C1CCC[C@]2(C)CC(=O)C(=C(C)C)C[C@@H]12
REMARK SMILES IDX 13 1 12 2 11 3 15 4 16 5 2 6 1 7 3 8 4 9 5 10 6 11 8 12 9 13
REMARK SMILES IDX 10 14 7 15 14 16
REMARK H PARENT
REMARK Flexibility Score: inf
ROOT
ATOM      1  C   UNL     1       8.079  17.285  14.759  1.00  0.00     0.039 C 
ATOM      2  C   UNL     1       9.532  17.335  14.345  1.00  0.00    -0.070 C 
ATOM      3  C   UNL     1      10.460  18.041  15.059  1.00  0.00    -0.006 C 
ATOM      4  C   UNL     1      11.930  18.032  14.664  1.00  0.00     0.047 C 
ATOM      5  C   UNL     1      12.878  18.204  15.878  1.00  0.00     0.025 C 
ATOM      6  C   UNL     1      14.368  18.244  15.538  1.00  0.00    -0.073 C 
ATOM      7  C   UNL     1      14.859  18.151  14.286  1.00  0.00     0.008 C 
ATOM      8  C   UNL     1      15.317  18.349  16.708  1.00  0.00     0.031 C 
ATOM      9  C   UNL     1      14.938  19.540  17.595  1.00  0.00     0.005 C 
ATOM     10  C   UNL     1      13.452  19.502  17.990  1.00  0.00     0.008 C 
ATOM     11  C   UNL     1      12.494  19.432  16.762  1.00  0.00    -0.018 C 
ATOM     12  C   UNL     1      11.052  19.232  17.287  1.00  0.00     0.088 C 
ATOM     13  C   UNL     1      10.080  18.952  16.178  1.00  0.00     0.159 C 
ATOM     14  O   UNL     1       8.951  19.511  16.210  1.00  0.00    -0.295 OA
ATOM     15  C   UNL     1      12.571  20.764  15.966  1.00  0.00     0.012 C 
ATOM     16  C   UNL     1       9.924  16.536  13.123  1.00  0.00     0.039 C 
ENDROOT
TORSDOF 0
ENDMDL
MODEL 4
REMARK VINA RESULT:    -5.144      8.908     10.819
REMARK INTER + INTRA:          -5.144
REMARK INTER:                  -5.144
REMARK INTRA:                   0.000
REMARK UNBOUND:                 0.000
REMARK SMILES C=C1CCC[C@]2(C)CC(=O)C(=C(C)C)C[C@@H]12
REMARK SMILES IDX 13 1 12 2 11 3 15 4 16 5 2 6 1 7 3 8 4 9 5 10 6 11 8 12 9 13
REMARK SMILES IDX 10 14 7 15 14 16
REMARK H PARENT
REMARK Flexibility Score: inf
ROOT
ATOM      1  C   UNL     1      21.078  26.007  14.370  1.00  0.00     0.039 C 
ATOM      2  C   UNL     1      19.938  26.888  13.913  1.00  0.00    -0.070 C 
ATOM      3  C   UNL     1      18.640  26.618  14.245  1.00  0.00    -0.006 C 
ATOM      4  C   UNL     1      17.510  27.549  13.828  1.00  0.00     0.047 C 
ATOM      5  C   UNL     1      16.329  27.545  14.832  1.00  0.00     0.025 C 
ATOM      6  C   UNL     1      15.145  28.432  14.444  1.00  0.00    -0.073 C 
ATOM      7  C   UNL     1      15.091  29.169  13.317  1.00  0.00     0.008 C 
ATOM      8  C   UNL     1      14.006  28.494  15.434  1.00  0.00     0.031 C 
ATOM      9  C   UNL     1      13.525  27.081  15.782  1.00  0.00     0.005 C 
ATOM     10  C   UNL     1      14.691  26.178  16.218  1.00  0.00     0.008 C 
ATOM     11  C   UNL     1      15.835  26.101  15.161  1.00  0.00    -0.018 C 
ATOM     12  C   UNL     1      17.011  25.306  15.780  1.00  0.00     0.088 C 
ATOM     13  C   UNL     1      18.238  25.348  14.917  1.00  0.00     0.159 C 
ATOM     14  O   UNL     1      18.905  24.289  14.767  1.00  0.00    -0.295 OA
ATOM     15  C   UNL     1      15.324  25.361  13.895  1.00  0.00     0.012 C 
ATOM     16  C   UNL     1      20.301  28.111  13.101  1.00  0.00     0.039 C 
ENDROOT
TORSDOF 0
ENDMDL
MODEL 5
REMARK VINA RESULT:    -4.909     10.627     13.066
REMARK INTER + INTRA:          -4.909
REMARK INTER:                  -4.909
REMARK INTRA:                   0.000
REMARK UNBOUND:                 0.000
REMARK SMILES C=C1CCC[C@]2(C)CC(=O)C(=C(C)C)C[C@@H]12
REMARK SMILES IDX 13 1 12 2 11 3 15 4 16 5 2 6 1 7 3 8 4 9 5 10 6 11 8 12 9 13
REMARK SMILES IDX 10 14 7 15 14 16
REMARK H PARENT
REMARK Flexibility Score: inf
ROOT
ATOM      1  C   UNL     1       5.358  23.853  14.499  1.00  0.00     0.039 C 
ATOM      2  C   UNL     1       6.314  25.005  14.287  1.00  0.00    -0.070 C 
ATOM      3  C   UNL     1       6.104  26.229  14.857  1.00  0.00    -0.006 C 
ATOM      4  C   UNL     1       7.108  27.361  14.684  1.00  0.00     0.047 C 
ATOM      5  C   UNL     1       7.138  28.327  15.895  1.00  0.00     0.025 C 
ATOM      6  C   UNL     1       8.099  29.508  15.760  1.00  0.00    -0.073 C 
ATOM      7  C   UNL     1       8.872  29.733  14.679  1.00  0.00     0.008 C 
ATOM      8  C   UNL     1       8.193  30.431  16.952  1.00  0.00     0.031 C 
ATOM      9  C   UNL     1       6.799  30.920  17.358  1.00  0.00     0.005 C 
ATOM     10  C   UNL     1       5.820  29.748  17.544  1.00  0.00     0.008 C 
ATOM     11  C   UNL     1       5.714  28.833  16.286  1.00  0.00    -0.018 C 
ATOM     12  C   UNL     1       4.837  27.610  16.651  1.00  0.00     0.088 C 
ATOM     13  C   UNL     1       4.838  26.570  15.569  1.00  0.00     0.159 C 
ATOM     14  O   UNL     1       3.750  26.007  15.273  1.00  0.00    -0.295 OA
ATOM     15  C   UNL     1       5.041  29.620  15.127  1.00  0.00     0.012 C 
ATOM     16  C   UNL     1       7.539  24.732  13.444  1.00  0.00     0.039 C 
ENDROOT
TORSDOF 0
ENDMDL
MODEL 6
REMARK VINA RESULT:    -4.883      7.023      9.501
REMARK INTER + INTRA:          -4.883
REMARK INTER:                  -4.883
REMARK INTRA:                   0.000
REMARK UNBOUND:                 0.000
REMARK SMILES C=C1CCC[C@]2(C)CC(=O)C(=C(C)C)C[C@@H]12
REMARK SMILES IDX 13 1 12 2 11 3 15 4 16 5 2 6 1 7 3 8 4 9 5 10 6 11 8 12 9 13
REMARK SMILES IDX 10 14 7 15 14 16
REMARK H PARENT
REMARK Flexibility Score: inf
ROOT
ATOM      1  C   UNL     1      11.563  24.381  16.665  1.00  0.00     0.039 C 
ATOM      2  C   UNL     1      12.805  24.042  15.873  1.00  0.00    -0.070 C 
ATOM      3  C   UNL     1      13.662  25.008  15.428  1.00  0.00    -0.006 C 
ATOM      4  C   UNL     1      14.941  24.646  14.685  1.00  0.00     0.047 C 
ATOM      5  C   UNL     1      16.079  25.672  14.915  1.00  0.00     0.025 C 
ATOM      6  C   UNL     1      17.377  25.382  14.159  1.00  0.00    -0.073 C 
ATOM      7  C   UNL     1      17.552  24.328  13.337  1.00  0.00     0.008 C 
ATOM      8  C   UNL     1      18.523  26.332  14.412  1.00  0.00     0.031 C 
ATOM      9  C   UNL     1      18.077  27.778  14.175  1.00  0.00     0.005 C 
ATOM     10  C   UNL     1      16.797  28.113  14.959  1.00  0.00     0.008 C 
ATOM     11  C   UNL     1      15.618  27.139  14.650  1.00  0.00    -0.018 C 
ATOM     12  C   UNL     1      14.453  27.473  15.612  1.00  0.00     0.088 C 
ATOM     13  C   UNL     1      13.345  26.463  15.531  1.00  0.00     0.159 C 
ATOM     14  O   UNL     1      12.154  26.873  15.539  1.00  0.00    -0.295 OA
ATOM     15  C   UNL     1      15.148  27.342  13.183  1.00  0.00     0.012 C 
ATOM     16  C   UNL     1      13.079  22.576  15.624  1.00  0.00     0.039 C 
ENDROOT
TORSDOF 0
ENDMDL
MODEL 7
REMARK VINA RESULT:    -4.770      2.031      3.808
REMARK INTER + INTRA:          -4.770
REMARK INTER:                  -4.770
REMARK INTRA:                   0.000
REMARK UNBOUND:                 0.000
REMARK SMILES C=C1CCC[C@]2(C)CC(=O)C(=C(C)C)C[C@@H]12
REMARK SMILES IDX 13 1 12 2 11 3 15 4 16 5 2 6 1 7 3 8 4 9 5 10 6 11 8 12 9 13
REMARK SMILES IDX 10 14 7 15 14 16
REMARK H PARENT
REMARK Flexibility Score: inf
ROOT
ATOM      1  C   UNL     1      15.230  15.732  15.878  1.00  0.00     0.039 C 
ATOM      2  C   UNL     1      13.968  16.361  15.333  1.00  0.00    -0.070 C 
ATOM      3  C   UNL     1      13.576  17.619  15.695  1.00  0.00    -0.006 C 
ATOM      4  C   UNL     1      12.334  18.261  15.091  1.00  0.00     0.047 C 
ATOM      5  C   UNL     1      12.442  19.805  15.000  1.00  0.00     0.025 C 
ATOM      6  C   UNL     1      11.207  20.509  14.439  1.00  0.00    -0.073 C 
ATOM      7  C   UNL     1      10.084  19.872  14.052  1.00  0.00     0.008 C 
ATOM      8  C   UNL     1      11.307  22.008  14.283  1.00  0.00     0.031 C 
ATOM      9  C   UNL     1      11.737  22.654  15.604  1.00  0.00     0.005 C 
ATOM     10  C   UNL     1      13.005  21.993  16.170  1.00  0.00     0.008 C 
ATOM     11  C   UNL     1      12.861  20.452  16.358  1.00  0.00    -0.018 C 
ATOM     12  C   UNL     1      14.241  19.885  16.771  1.00  0.00     0.088 C 
ATOM     13  C   UNL     1      14.256  18.384  16.781  1.00  0.00     0.159 C 
ATOM     14  O   UNL     1      14.841  17.794  17.728  1.00  0.00    -0.295 OA
ATOM     15  C   UNL     1      11.828  20.160  17.481  1.00  0.00     0.012 C 
ATOM     16  C   UNL     1      13.173  15.548  14.336  1.00  0.00     0.039 C 
ENDROOT
TORSDOF 0
ENDMDL
MODEL 8
REMARK VINA RESULT:    -4.728      7.918     10.751
REMARK INTER + INTRA:          -4.728
REMARK INTER:                  -4.728
REMARK INTRA:                   0.000
REMARK UNBOUND:                 0.000
REMARK SMILES C=C1CCC[C@]2(C)CC(=O)C(=C(C)C)C[C@@H]12
REMARK SMILES IDX 13 1 12 2 11 3 15 4 16 5 2 6 1 7 3 8 4 9 5 10 6 11 8 12 9 13
REMARK SMILES IDX 10 14 7 15 14 16
REMARK H PARENT
REMARK Flexibility Score: inf
ROOT
ATOM      1  C   UNL     1       9.490  28.430  14.626  1.00  0.00     0.039 C 
ATOM      2  C   UNL     1      10.389  27.216  14.674  1.00  0.00    -0.070 C 
ATOM      3  C   UNL     1      11.749  27.322  14.593  1.00  0.00    -0.006 C 
ATOM      4  C   UNL     1      12.644  26.095  14.705  1.00  0.00     0.047 C 
ATOM      5  C   UNL     1      14.028  26.417  15.323  1.00  0.00     0.025 C 
ATOM      6  C   UNL     1      14.986  25.229  15.423  1.00  0.00    -0.073 C 
ATOM      7  C   UNL     1      14.690  23.983  15.004  1.00  0.00     0.008 C 
ATOM      8  C   UNL     1      16.320  25.502  16.077  1.00  0.00     0.031 C 
ATOM      9  C   UNL     1      17.010  26.691  15.404  1.00  0.00     0.005 C 
ATOM     10  C   UNL     1      16.083  27.917  15.329  1.00  0.00     0.008 C 
ATOM     11  C   UNL     1      14.730  27.618  14.615  1.00  0.00    -0.018 C 
ATOM     12  C   UNL     1      13.827  28.868  14.750  1.00  0.00     0.088 C 
ATOM     13  C   UNL     1      12.429  28.611  14.269  1.00  0.00     0.159 C 
ATOM     14  O   UNL     1      11.855  29.497  13.581  1.00  0.00    -0.295 OA
ATOM     15  C   UNL     1      14.990  27.331  13.110  1.00  0.00     0.012 C 
ATOM     16  C   UNL     1       9.718  25.873  14.856  1.00  0.00     0.039 C 
ENDROOT
TORSDOF 0
ENDMDL
MODEL 9
REMARK VINA RESULT:    -4.686      8.040     10.327
REMARK INTER + INTRA:          -4.686
REMARK INTER:                  -4.686
REMARK INTRA:                   0.000
REMARK UNBOUND:                 0.000
REMARK SMILES C=C1CCC[C@]2(C)CC(=O)C(=C(C)C)C[C@@H]12
REMARK SMILES IDX 13 1 12 2 11 3 15 4 16 5 2 6 1 7 3 8 4 9 5 10 6 11 8 12 9 13
REMARK SMILES IDX 10 14 7 15 14 16
REMARK H PARENT
REMARK Flexibility Score: inf
ROOT
ATOM      1  C   UNL     1      11.028  25.902  14.911  1.00  0.00     0.039 C 
ATOM      2  C   UNL     1      12.164  26.898  14.930  1.00  0.00    -0.070 C 
ATOM      3  C   UNL     1      13.470  26.501  15.002  1.00  0.00    -0.006 C 
ATOM      4  C   UNL     1      14.605  27.514  14.958  1.00  0.00     0.047 C 
ATOM      5  C   UNL     1      15.896  26.940  14.320  1.00  0.00     0.025 C 
ATOM      6  C   UNL     1      17.085  27.901  14.286  1.00  0.00    -0.073 C 
ATOM      7  C   UNL     1      17.056  29.157  14.774  1.00  0.00     0.008 C 
ATOM      8  C   UNL     1      18.337  27.389  13.615  1.00  0.00     0.031 C 
ATOM      9  C   UNL     1      18.753  26.044  14.219  1.00  0.00     0.005 C 
ATOM     10  C   UNL     1      17.587  25.041  14.226  1.00  0.00     0.008 C 
ATOM     11  C   UNL     1      16.320  25.580  14.959  1.00  0.00    -0.018 C 
ATOM     12  C   UNL     1      15.174  24.560  14.755  1.00  0.00     0.088 C 
ATOM     13  C   UNL     1      13.857  25.081  15.252  1.00  0.00     0.159 C 
ATOM     14  O   UNL     1      13.102  24.300  15.890  1.00  0.00    -0.295 OA
ATOM     15  C   UNL     1      16.619  25.722  16.477  1.00  0.00     0.012 C 
ATOM     16  C   UNL     1      11.795  28.361  14.825  1.00  0.00     0.039 C 
ENDROOT
TORSDOF 0
ENDMDL
