MODEL 1
REMARK VINA RESULT:     7.272      0.000      0.000
REMARK INTER + INTRA:           7.909
REMARK INTER:                   7.909
REMARK INTRA:                   0.000
REMARK UNBOUND:                 0.000
REMARK SMILES Cc1cc(O)c2c(c1)C(=O)c1cc(O)cc(O)c1C2=O
REMARK SMILES IDX 1 1 2 2 8 3 7 4 6 5 4 6 3 7 19 8 20 9 18 10 11 11 9 12 10 13
REMARK SMILES IDX 12 14 13 15 15 16 16 17 5 18 17 20 14 22
REMARK H PARENT 5 19 17 21 14 23
REMARK Flexibility Score: inf
ROOT
ATOM      1  C   UNL     1      13.890  13.124  40.058  1.00  0.00     0.044 C 
ATOM      2  C   UNL     1      13.263  12.999  38.699  1.00  0.00    -0.047 A 
ATOM      3  C   UNL     1      11.877  12.866  38.573  1.00  0.00     0.016 A 
ATOM      4  C   UNL     1      11.281  12.724  37.308  1.00  0.00     0.038 A 
ATOM      5  C   UNL     1      12.089  12.715  36.146  1.00  0.00     0.076 A 
ATOM      6  C   UNL     1      13.502  12.750  36.291  1.00  0.00     0.127 A 
ATOM      7  C   UNL     1      14.068  12.918  37.559  1.00  0.00     0.050 A 
ATOM      8  C   UNL     1      11.416  12.723  34.817  1.00  0.00     0.201 C 
ATOM      9  O   UNL     1      12.036  13.125  33.797  1.00  0.00    -0.288 OA
ATOM     10  C   UNL     1       9.978  12.367  34.706  1.00  0.00     0.076 A 
ATOM     11  C   UNL     1       9.191  12.313  35.875  1.00  0.00     0.041 A 
ATOM     12  C   UNL     1       9.811  12.572  37.195  1.00  0.00     0.194 C 
ATOM     13  O   UNL     1       9.088  12.647  38.226  1.00  0.00    -0.289 OA
ATOM     14  C   UNL     1       7.820  12.014  35.782  1.00  0.00     0.059 A 
ATOM     15  C   UNL     1       7.230  11.764  34.540  1.00  0.00     0.120 A 
ATOM     16  C   UNL     1       8.007  11.810  33.382  1.00  0.00     0.093 A 
ATOM     17  C   UNL     1       9.375  12.107  33.453  1.00  0.00     0.131 A 
ENDROOT
BRANCH   6  18
ATOM     18  O   UNL     1      14.380  12.583  35.218  1.00  0.00    -0.507 OA
ATOM     19  H   UNL     1      15.279  13.039  35.153  1.00  0.00     0.293 HD
ENDBRANCH   6  18
BRANCH  17  20
ATOM     20  O   UNL     1      10.129  12.133  32.280  1.00  0.00    -0.507 OA
ATOM     21  H   UNL     1      11.114  12.371  32.284  1.00  0.00     0.293 HD
ENDBRANCH  17  20
BRANCH  15  22
ATOM     22  O   UNL     1       5.873  11.467  34.445  1.00  0.00    -0.508 OA
ATOM     23  H   UNL     1       5.549  10.572  34.097  1.00  0.00     0.293 HD
ENDBRANCH  15  22
TORSDOF 3
ENDMDL
MODEL 2
REMARK VINA RESULT:     8.320      1.527      5.540
REMARK INTER + INTRA:           9.050
REMARK INTER:                   9.050
REMARK INTRA:                   0.000
REMARK UNBOUND:                 0.000
REMARK SMILES Cc1cc(O)c2c(c1)C(=O)c1cc(O)cc(O)c1C2=O
REMARK SMILES IDX 1 1 2 2 8 3 7 4 6 5 4 6 3 7 19 8 20 9 18 10 11 11 9 12 10 13
REMARK SMILES IDX 12 14 13 15 15 16 16 17 5 18 17 20 14 22
REMARK H PARENT 5 19 17 21 14 23
REMARK Flexibility Score: inf
ROOT
ATOM      1  C   UNL     1       6.645  12.329  34.166  1.00  0.00     0.044 C 
ATOM      2  C   UNL     1       8.112  12.423  34.472  1.00  0.00    -0.047 A 
ATOM      3  C   UNL     1       8.560  12.375  35.795  1.00  0.00     0.016 A 
ATOM      4  C   UNL     1       9.929  12.486  36.094  1.00  0.00     0.038 A 
ATOM      5  C   UNL     1      10.867  12.649  35.049  1.00  0.00     0.076 A 
ATOM      6  C   UNL     1      10.395  12.796  33.717  1.00  0.00     0.127 A 
ATOM      7  C   UNL     1       9.030  12.654  33.443  1.00  0.00     0.050 A 
ATOM      8  C   UNL     1      12.317  12.603  35.386  1.00  0.00     0.201 C 
ATOM      9  O   UNL     1      13.166  12.328  34.497  1.00  0.00    -0.288 OA
ATOM     10  C   UNL     1      12.762  12.769  36.795  1.00  0.00     0.076 A 
ATOM     11  C   UNL     1      11.810  12.672  37.832  1.00  0.00     0.041 A 
ATOM     12  C   UNL     1      10.383  12.445  37.505  1.00  0.00     0.194 C 
ATOM     13  O   UNL     1       9.552  12.235  38.430  1.00  0.00    -0.289 OA
ATOM     14  C   UNL     1      12.221  12.789  39.172  1.00  0.00     0.059 A 
ATOM     15  C   UNL     1      13.565  13.007  39.485  1.00  0.00     0.120 A 
ATOM     16  C   UNL     1      14.508  13.110  38.462  1.00  0.00     0.093 A 
ATOM     17  C   UNL     1      14.120  12.995  37.121  1.00  0.00     0.131 A 
ENDROOT
BRANCH   6  18
ATOM     18  O   UNL     1      11.229  13.120  32.646  1.00  0.00    -0.507 OA
ATOM     19  H   UNL     1      11.396  12.509  31.860  1.00  0.00     0.293 HD
ENDBRANCH   6  18
BRANCH  17  20
ATOM     20  O   UNL     1      15.082  13.116  36.119  1.00  0.00    -0.507 OA
ATOM     21  H   UNL     1      15.459  14.017  35.846  1.00  0.00     0.293 HD
ENDBRANCH  17  20
BRANCH  15  22
ATOM     22  O   UNL     1      13.975  13.125  40.811  1.00  0.00    -0.508 OA
ATOM     23  H   UNL     1      14.637  13.835  41.101  1.00  0.00     0.293 HD
ENDBRANCH  15  22
TORSDOF 3
ENDMDL
