MODEL 1
REMARK VINA RESULT:    -5.347      0.000      0.000
REMARK INTER + INTRA:          -6.200
REMARK INTER:                  -6.128
REMARK INTRA:                  -0.071
REMARK UNBOUND:                -0.071
REMARK SMILES C=C(C)[C@@H]1CC[C@]2(C(=O)[O-])CC[C@]3(C)[C@@H](CC[C@@H]4[C@]5(C)CC[C@@H](O)C(C)(C)[C@@H]5CC[C@@]43C)[C@@H]12
REMARK SMILES IDX 7 1 6 2 33 3 11 4 5 5 15 6 4 7 12 8 16 9 13 10 17 11 31 12
REMARK SMILES IDX 14 13 18 14 30 15 32 16 19 17 29 18 21 19 20 20 28 21 22 22
REMARK SMILES IDX 25 23 23 24 26 25 27 26 8 27 9 28 10 29 2 30 3 31 1 32 24 33
REMARK H PARENT 24 34
REMARK Flexibility Score: inf
ROOT
ATOM      1  C   UNL     1    -115.153  -8.747  37.243  1.00  0.00     0.014 C 
ATOM      2  C   UNL     1    -115.725  -9.650  38.349  1.00  0.00     0.014 C 
ATOM      3  C   UNL     1    -114.009  -9.615  36.713  1.00  0.00     0.012 C 
ATOM      4  C   UNL     1    -116.124  -8.502  36.064  1.00  0.00     0.014 C 
ATOM      5  C   UNL     1    -114.509 -10.378  38.961  1.00  0.00     0.009 C 
ATOM      6  C   UNL     1    -113.165  -9.000  35.557  1.00  0.00     0.000 C 
ATOM      7  C   UNL     1    -113.347 -10.250  37.945  1.00  0.00     0.018 C 
ATOM      8  C   UNL     1    -115.408  -7.830  34.864  1.00  0.00     0.008 C 
ATOM      9  C   UNL     1    -112.088  -7.976  35.989  1.00  0.00     0.005 C 
ATOM     10  C   UNL     1    -114.096  -8.540  34.344  1.00  0.00    -0.024 C 
ATOM     11  C   UNL     1    -112.424  -6.548  35.605  1.00  0.00     0.005 C 
ATOM     12  C   UNL     1    -113.291  -7.564  33.324  1.00  0.00    -0.024 C 
ATOM     13  C   UNL     1    -114.559  -9.855  33.610  1.00  0.00     0.012 C 
ATOM     14  C   UNL     1    -112.531  -6.346  34.071  1.00  0.00     0.002 C 
ATOM     15  C   UNL     1    -114.209  -7.065  32.154  1.00  0.00     0.008 C 
ATOM     16  C   UNL     1    -112.187  -8.425  32.608  1.00  0.00     0.012 C 
ATOM     17  C   UNL     1    -112.819  -4.794  33.689  1.00  0.00    -0.026 C 
ATOM     18  C   UNL     1    -114.730  -5.652  32.280  1.00  0.00     0.005 C 
ATOM     19  C   UNL     1    -113.665  -4.061  34.791  1.00  0.00     0.010 C 
ATOM     20  C   UNL     1    -111.416  -4.103  33.632  1.00  0.00     0.012 C 
ATOM     21  C   UNL     1    -113.559  -4.643  32.303  1.00  0.00     0.003 C 
ATOM     22  C   UNL     1    -114.103  -2.632  34.441  1.00  0.00     0.033 C 
ATOM     23  C   UNL     1    -114.036  -3.164  31.926  1.00  0.00    -0.006 C 
ATOM     24  C   UNL     1    -114.850  -2.552  33.106  1.00  0.00     0.120 C 
ATOM     25  C   UNL     1    -114.950  -3.176  30.661  1.00  0.00     0.014 C 
ATOM     26  C   UNL     1    -112.826  -2.253  31.544  1.00  0.00     0.014 C 
ENDROOT
BRANCH   1  27
ATOM     27  C   UNL     1    -114.734  -7.428  37.895  1.00  0.00     0.048 C 
ATOM     28  O   UNL     1    -115.253  -6.340  37.529  1.00  0.00    -0.550 OA
ATOM     29  O   UNL     1    -113.879  -7.409  38.990  1.00  0.00    -0.550 OA
ENDBRANCH   1  27
BRANCH   7  30
ATOM     30  C   UNL     1    -112.663 -11.576  37.629  1.00  0.00    -0.077 C 
ATOM     31  C   UNL     1    -113.128 -12.459  36.495  1.00  0.00     0.039 C 
ATOM     32  C   UNL     1    -111.577 -11.950  38.324  1.00  0.00     0.008 C 
ENDBRANCH   7  30
BRANCH  24  33
ATOM     33  O   UNL     1    -115.163  -1.205  32.850  1.00  0.00    -0.393 OA
ATOM     34  H   UNL     1    -114.978  -0.695  33.681  1.00  0.00     0.210 HD
ENDBRANCH  24  33
TORSDOF 3
ENDMDL
MODEL 2
REMARK VINA RESULT:    -4.934      1.946      7.397
REMARK INTER + INTRA:          -5.727
REMARK INTER:                  -5.834
REMARK INTRA:                   0.107
REMARK UNBOUND:                -0.071
REMARK SMILES C=C(C)[C@@H]1CC[C@]2(C(=O)[O-])CC[C@]3(C)[C@@H](CC[C@@H]4[C@]5(C)CC[C@@H](O)C(C)(C)[C@@H]5CC[C@@]43C)[C@@H]12
REMARK SMILES IDX 7 1 6 2 33 3 11 4 5 5 15 6 4 7 12 8 16 9 13 10 17 11 31 12
REMARK SMILES IDX 14 13 18 14 30 15 32 16 19 17 29 18 21 19 20 20 28 21 22 22
REMARK SMILES IDX 25 23 23 24 26 25 27 26 8 27 9 28 10 29 2 30 3 31 1 32 24 33
REMARK H PARENT 24 34
REMARK Flexibility Score: inf
ROOT
ATOM      1  C   UNL     1    -112.489  -4.516  33.626  1.00  0.00     0.014 C 
ATOM      2  C   UNL     1    -111.971  -3.087  33.390  1.00  0.00     0.014 C 
ATOM      3  C   UNL     1    -113.898  -4.421  33.034  1.00  0.00     0.012 C 
ATOM      4  C   UNL     1    -111.730  -5.602  32.828  1.00  0.00     0.014 C 
ATOM      5  C   UNL     1    -113.194  -2.165  33.577  1.00  0.00     0.009 C 
ATOM      6  C   UNL     1    -114.758  -5.719  33.110  1.00  0.00     0.000 C 
ATOM      7  C   UNL     1    -114.455  -3.058  33.468  1.00  0.00     0.018 C 
ATOM      8  C   UNL     1    -112.463  -6.968  32.882  1.00  0.00     0.008 C 
ATOM      9  C   UNL     1    -115.432  -5.992  34.477  1.00  0.00     0.005 C 
ATOM     10  C   UNL     1    -113.987  -6.961  32.469  1.00  0.00    -0.024 C 
ATOM     11  C   UNL     1    -114.818  -7.156  35.230  1.00  0.00     0.005 C 
ATOM     12  C   UNL     1    -114.692  -8.365  32.883  1.00  0.00    -0.024 C 
ATOM     13  C   UNL     1    -114.027  -6.756  30.906  1.00  0.00     0.012 C 
ATOM     14  C   UNL     1    -114.956  -8.503  34.475  1.00  0.00     0.002 C 
ATOM     15  C   UNL     1    -113.915  -9.598  32.299  1.00  0.00     0.008 C 
ATOM     16  C   UNL     1    -116.095  -8.425  32.177  1.00  0.00     0.012 C 
ATOM     17  C   UNL     1    -114.355  -9.740  35.339  1.00  0.00    -0.026 C 
ATOM     18  C   UNL     1    -113.033 -10.343  33.274  1.00  0.00     0.005 C 
ATOM     19  C   UNL     1    -113.156  -9.296  36.250  1.00  0.00     0.010 C 
ATOM     20  C   UNL     1    -115.517 -10.206  36.279  1.00  0.00     0.012 C 
ATOM     21  C   UNL     1    -113.878 -10.936  34.425  1.00  0.00     0.003 C 
ATOM     22  C   UNL     1    -112.438 -10.433  36.992  1.00  0.00     0.033 C 
ATOM     23  C   UNL     1    -113.116 -12.124  35.177  1.00  0.00    -0.006 C 
ATOM     24  C   UNL     1    -111.964 -11.545  36.052  1.00  0.00     0.120 C 
ATOM     25  C   UNL     1    -112.493 -13.124  34.154  1.00  0.00     0.014 C 
ATOM     26  C   UNL     1    -114.100 -12.981  36.036  1.00  0.00     0.014 C 
ENDROOT
BRANCH   1  27
ATOM     27  C   UNL     1    -112.422  -4.788  35.130  1.00  0.00     0.048 C 
ATOM     28  O   UNL     1    -111.636  -5.659  35.588  1.00  0.00    -0.550 OA
ATOM     29  O   UNL     1    -113.121  -3.997  36.034  1.00  0.00    -0.550 OA
ENDBRANCH   1  27
BRANCH   7  30
ATOM     30  C   UNL     1    -115.505  -2.516  32.503  1.00  0.00    -0.077 C 
ATOM     31  C   UNL     1    -115.955  -3.302  31.294  1.00  0.00     0.039 C 
ATOM     32  C   UNL     1    -116.103  -1.341  32.758  1.00  0.00     0.008 C 
ENDBRANCH   7  30
BRANCH  24  33
ATOM     33  O   UNL     1    -111.368 -12.559  36.826  1.00  0.00    -0.393 OA
ATOM     34  H   UNL     1    -110.758 -12.117  37.472  1.00  0.00     0.210 HD
ENDBRANCH  24  33
TORSDOF 3
ENDMDL
MODEL 3
REMARK VINA RESULT:    -4.872      1.612      7.396
REMARK INTER + INTRA:          -5.655
REMARK INTER:                  -5.603
REMARK INTRA:                  -0.053
REMARK UNBOUND:                -0.071
REMARK SMILES C=C(C)[C@@H]1CC[C@]2(C(=O)[O-])CC[C@]3(C)[C@@H](CC[C@@H]4[C@]5(C)CC[C@@H](O)C(C)(C)[C@@H]5CC[C@@]43C)[C@@H]12
REMARK SMILES IDX 7 1 6 2 33 3 11 4 5 5 15 6 4 7 12 8 16 9 13 10 17 11 31 12
REMARK SMILES IDX 14 13 18 14 30 15 32 16 19 17 29 18 21 19 20 20 28 21 22 22
REMARK SMILES IDX 25 23 23 24 26 25 27 26 8 27 9 28 10 29 2 30 3 31 1 32 24 33
REMARK H PARENT 24 34
REMARK Flexibility Score: inf
ROOT
ATOM      1  C   UNL     1    -113.208  -4.003  34.107  1.00  0.00     0.014 C 
ATOM      2  C   UNL     1    -113.057  -2.472  34.072  1.00  0.00     0.014 C 
ATOM      3  C   UNL     1    -113.848  -4.269  32.742  1.00  0.00     0.012 C 
ATOM      4  C   UNL     1    -111.864  -4.768  34.138  1.00  0.00     0.014 C 
ATOM      5  C   UNL     1    -114.290  -1.951  33.304  1.00  0.00     0.009 C 
ATOM      6  C   UNL     1    -114.172  -5.759  32.420  1.00  0.00     0.000 C 
ATOM      7  C   UNL     1    -114.883  -3.155  32.530  1.00  0.00     0.018 C 
ATOM      8  C   UNL     1    -112.065  -6.286  33.890  1.00  0.00     0.008 C 
ATOM      9  C   UNL     1    -115.472  -6.310  33.054  1.00  0.00     0.005 C 
ATOM     10  C   UNL     1    -112.881  -6.682  32.598  1.00  0.00    -0.024 C 
ATOM     11  C   UNL     1    -115.223  -7.304  34.172  1.00  0.00     0.005 C 
ATOM     12  C   UNL     1    -113.288  -8.254  32.645  1.00  0.00    -0.024 C 
ATOM     13  C   UNL     1    -111.944  -6.384  31.366  1.00  0.00     0.012 C 
ATOM     14  C   UNL     1    -114.477  -8.576  33.694  1.00  0.00     0.002 C 
ATOM     15  C   UNL     1    -112.033  -9.170  32.868  1.00  0.00     0.008 C 
ATOM     16  C   UNL     1    -113.810  -8.658  31.218  1.00  0.00     0.012 C 
ATOM     17  C   UNL     1    -114.292  -9.651  34.897  1.00  0.00    -0.026 C 
ATOM     18  C   UNL     1    -111.846  -9.704  34.270  1.00  0.00     0.005 C 
ATOM     19  C   UNL     1    -114.149  -8.953  36.296  1.00  0.00     0.010 C 
ATOM     20  C   UNL     1    -115.610 -10.494  34.921  1.00  0.00     0.012 C 
ATOM     21  C   UNL     1    -113.044 -10.593  34.674  1.00  0.00     0.003 C 
ATOM     22  C   UNL     1    -113.826  -9.890  37.469  1.00  0.00     0.033 C 
ATOM     23  C   UNL     1    -112.683 -11.568  35.890  1.00  0.00    -0.006 C 
ATOM     24  C   UNL     1    -112.585 -10.751  37.213  1.00  0.00     0.120 C 
ATOM     25  C   UNL     1    -111.312 -12.274  35.652  1.00  0.00     0.014 C 
ATOM     26  C   UNL     1    -113.720 -12.729  36.020  1.00  0.00     0.014 C 
ENDROOT
BRANCH   1  27
ATOM     27  C   UNL     1    -114.070  -4.353  35.321  1.00  0.00     0.048 C 
ATOM     28  O   UNL     1    -113.564  -4.931  36.320  1.00  0.00    -0.550 OA
ATOM     29  O   UNL     1    -115.390  -3.928  35.410  1.00  0.00    -0.550 OA
ENDBRANCH   1  27
BRANCH   7  30
ATOM     30  C   UNL     1    -115.142  -2.864  31.054  1.00  0.00    -0.077 C 
ATOM     31  C   UNL     1    -114.284  -1.898  30.273  1.00  0.00     0.039 C 
ATOM     32  C   UNL     1    -116.111  -3.527  30.404  1.00  0.00     0.008 C 
ENDBRANCH   7  30
BRANCH  24  33
ATOM     33  O   UNL     1    -112.402 -11.607  38.315  1.00  0.00    -0.393 OA
ATOM     34  H   UNL     1    -111.550 -11.347  38.753  1.00  0.00     0.210 HD
ENDBRANCH  24  33
TORSDOF 3
ENDMDL
MODEL 4
REMARK VINA RESULT:    -4.767      1.638      7.533
REMARK INTER + INTRA:          -5.535
REMARK INTER:                  -5.463
REMARK INTRA:                  -0.072
REMARK UNBOUND:                -0.071
REMARK SMILES C=C(C)[C@@H]1CC[C@]2(C(=O)[O-])CC[C@]3(C)[C@@H](CC[C@@H]4[C@]5(C)CC[C@@H](O)C(C)(C)[C@@H]5CC[C@@]43C)[C@@H]12
REMARK SMILES IDX 7 1 6 2 33 3 11 4 5 5 15 6 4 7 12 8 16 9 13 10 17 11 31 12
REMARK SMILES IDX 14 13 18 14 30 15 32 16 19 17 29 18 21 19 20 20 28 21 22 22
REMARK SMILES IDX 25 23 23 24 26 25 27 26 8 27 9 28 10 29 2 30 3 31 1 32 24 33
REMARK H PARENT 24 34
REMARK Flexibility Score: inf
ROOT
ATOM      1  C   UNL     1    -113.286  -5.394  35.195  1.00  0.00     0.014 C 
ATOM      2  C   UNL     1    -113.062  -3.950  34.716  1.00  0.00     0.014 C 
ATOM      3  C   UNL     1    -113.842  -6.044  33.925  1.00  0.00     0.012 C 
ATOM      4  C   UNL     1    -111.985  -6.146  35.561  1.00  0.00     0.014 C 
ATOM      5  C   UNL     1    -114.212  -3.655  33.731  1.00  0.00     0.009 C 
ATOM      6  C   UNL     1    -114.212  -7.553  34.037  1.00  0.00     0.000 C 
ATOM      7  C   UNL     1    -114.806  -5.021  33.307  1.00  0.00     0.018 C 
ATOM      8  C   UNL     1    -112.239  -7.663  35.762  1.00  0.00     0.008 C 
ATOM      9  C   UNL     1    -115.578  -7.857  34.699  1.00  0.00     0.005 C 
ATOM     10  C   UNL     1    -112.981  -8.410  34.585  1.00  0.00    -0.024 C 
ATOM     11  C   UNL     1    -115.454  -8.474  36.079  1.00  0.00     0.005 C 
ATOM     12  C   UNL     1    -113.463  -9.886  35.066  1.00  0.00    -0.024 C 
ATOM     13  C   UNL     1    -111.947  -8.520  33.400  1.00  0.00     0.012 C 
ATOM     14  C   UNL     1    -114.737  -9.848  36.064  1.00  0.00     0.002 C 
ATOM     15  C   UNL     1    -112.271 -10.721  35.653  1.00  0.00     0.008 C 
ATOM     16  C   UNL     1    -113.903 -10.688  33.788  1.00  0.00     0.012 C 
ATOM     17  C   UNL     1    -114.686 -10.515  37.544  1.00  0.00    -0.026 C 
ATOM     18  C   UNL     1    -112.208 -10.812  37.161  1.00  0.00     0.005 C 
ATOM     19  C   UNL     1    -114.608  -9.432  38.678  1.00  0.00     0.010 C 
ATOM     20  C   UNL     1    -116.041 -11.280  37.713  1.00  0.00     0.012 C 
ATOM     21  C   UNL     1    -113.472 -11.510  37.714  1.00  0.00     0.003 C 
ATOM     22  C   UNL     1    -114.412  -9.980  40.099  1.00  0.00     0.033 C 
ATOM     23  C   UNL     1    -113.242 -12.081  39.190  1.00  0.00    -0.006 C 
ATOM     24  C   UNL     1    -113.198 -10.907  40.213  1.00  0.00     0.120 C 
ATOM     25  C   UNL     1    -111.893 -12.859  39.285  1.00  0.00     0.014 C 
ATOM     26  C   UNL     1    -114.339 -13.124  39.577  1.00  0.00     0.014 C 
ENDROOT
BRANCH   1  27
ATOM     27  C   UNL     1    -114.246  -5.342  36.384  1.00  0.00     0.048 C 
ATOM     28  O   UNL     1    -113.903  -5.806  37.505  1.00  0.00    -0.550 OA
ATOM     29  O   UNL     1    -115.459  -4.669  36.298  1.00  0.00    -0.550 OA
ENDBRANCH   1  27
BRANCH   7  30
ATOM     30  C   UNL     1    -114.947  -5.182  31.796  1.00  0.00    -0.077 C 
ATOM     31  C   UNL     1    -113.772  -5.003  30.864  1.00  0.00     0.039 C 
ATOM     32  C   UNL     1    -116.125  -5.559  31.272  1.00  0.00     0.008 C 
ENDBRANCH   7  30
BRANCH  24  33
ATOM     33  O   UNL     1    -113.133 -11.395  41.530  1.00  0.00    -0.393 OA
ATOM     34  H   UNL     1    -113.479 -12.325  41.519  1.00  0.00     0.210 HD
ENDBRANCH  24  33
TORSDOF 3
ENDMDL
MODEL 5
REMARK VINA RESULT:    -4.692      2.136      7.779
REMARK INTER + INTRA:          -5.449
REMARK INTER:                  -5.343
REMARK INTRA:                  -0.106
REMARK UNBOUND:                -0.071
REMARK SMILES C=C(C)[C@@H]1CC[C@]2(C(=O)[O-])CC[C@]3(C)[C@@H](CC[C@@H]4[C@]5(C)CC[C@@H](O)C(C)(C)[C@@H]5CC[C@@]43C)[C@@H]12
REMARK SMILES IDX 7 1 6 2 33 3 11 4 5 5 15 6 4 7 12 8 16 9 13 10 17 11 31 12
REMARK SMILES IDX 14 13 18 14 30 15 32 16 19 17 29 18 21 19 20 20 28 21 22 22
REMARK SMILES IDX 25 23 23 24 26 25 27 26 8 27 9 28 10 29 2 30 3 31 1 32 24 33
REMARK H PARENT 24 34
REMARK Flexibility Score: inf
ROOT
ATOM      1  C   UNL     1    -115.386  -4.225  31.069  1.00  0.00     0.014 C 
ATOM      2  C   UNL     1    -116.064  -3.436  29.936  1.00  0.00     0.014 C 
ATOM      3  C   UNL     1    -113.981  -3.617  31.052  1.00  0.00     0.012 C 
ATOM      4  C   UNL     1    -115.984  -3.956  32.470  1.00  0.00     0.014 C 
ATOM      5  C   UNL     1    -114.967  -3.204  28.875  1.00  0.00     0.009 C 
ATOM      6  C   UNL     1    -112.974  -4.200  32.089  1.00  0.00     0.000 C 
ATOM      7  C   UNL     1    -113.606  -3.444  29.574  1.00  0.00     0.018 C 
ATOM      8  C   UNL     1    -115.094  -4.549  33.594  1.00  0.00     0.008 C 
ATOM      9  C   UNL     1    -112.315  -5.544  31.696  1.00  0.00     0.005 C 
ATOM     10  C   UNL     1    -113.570  -4.138  33.570  1.00  0.00    -0.024 C 
ATOM     11  C   UNL     1    -112.809  -6.720  32.517  1.00  0.00     0.005 C 
ATOM     12  C   UNL     1    -112.714  -5.076  34.584  1.00  0.00    -0.024 C 
ATOM     13  C   UNL     1    -113.505  -2.628  34.017  1.00  0.00     0.012 C 
ATOM     14  C   UNL     1    -112.487  -6.579  34.027  1.00  0.00     0.002 C 
ATOM     15  C   UNL     1    -113.319  -5.063  36.033  1.00  0.00     0.008 C 
ATOM     16  C   UNL     1    -111.293  -4.428  34.754  1.00  0.00     0.012 C 
ATOM     17  C   UNL     1    -112.962  -7.886  34.867  1.00  0.00    -0.026 C 
ATOM     18  C   UNL     1    -114.136  -6.276  36.418  1.00  0.00     0.005 C 
ATOM     19  C   UNL     1    -114.234  -8.560  34.240  1.00  0.00     0.010 C 
ATOM     20  C   UNL     1    -111.783  -8.910  34.762  1.00  0.00     0.012 C 
ATOM     21  C   UNL     1    -113.263  -7.551  36.380  1.00  0.00     0.003 C 
ATOM     22  C   UNL     1    -114.833  -9.716  35.054  1.00  0.00     0.033 C 
ATOM     23  C   UNL     1    -113.900  -8.738  37.241  1.00  0.00    -0.006 C 
ATOM     24  C   UNL     1    -115.140  -9.324  36.502  1.00  0.00     0.120 C 
ATOM     25  C   UNL     1    -114.365  -8.227  38.640  1.00  0.00     0.014 C 
ATOM     26  C   UNL     1    -112.848  -9.852  37.546  1.00  0.00     0.014 C 
ENDROOT
BRANCH   1  27
ATOM     27  C   UNL     1    -115.468  -5.709  30.709  1.00  0.00     0.048 C 
ATOM     28  O   UNL     1    -116.125  -6.507  31.430  1.00  0.00    -0.550 OA
ATOM     29  O   UNL     1    -114.937  -6.189  29.518  1.00  0.00    -0.550 OA
ENDBRANCH   1  27
BRANCH   7  30
ATOM     30  C   UNL     1    -112.598  -2.321  29.348  1.00  0.00    -0.077 C 
ATOM     31  C   UNL     1    -111.184  -2.601  28.897  1.00  0.00     0.039 C 
ATOM     32  C   UNL     1    -112.982  -1.042  29.485  1.00  0.00     0.008 C 
ENDBRANCH   7  30
BRANCH  24  33
ATOM     33  O   UNL     1    -115.634 -10.455  37.176  1.00  0.00    -0.393 OA
ATOM     34  H   UNL     1    -115.298 -11.256  36.695  1.00  0.00     0.210 HD
ENDBRANCH  24  33
TORSDOF 3
ENDMDL
MODEL 6
REMARK VINA RESULT:    -4.598      2.341      7.755
REMARK INTER + INTRA:          -5.342
REMARK INTER:                  -5.202
REMARK INTRA:                  -0.139
REMARK UNBOUND:                -0.071
REMARK SMILES C=C(C)[C@@H]1CC[C@]2(C(=O)[O-])CC[C@]3(C)[C@@H](CC[C@@H]4[C@]5(C)CC[C@@H](O)C(C)(C)[C@@H]5CC[C@@]43C)[C@@H]12
REMARK SMILES IDX 7 1 6 2 33 3 11 4 5 5 15 6 4 7 12 8 16 9 13 10 17 11 31 12
REMARK SMILES IDX 14 13 18 14 30 15 32 16 19 17 29 18 21 19 20 20 28 21 22 22
REMARK SMILES IDX 25 23 23 24 26 25 27 26 8 27 9 28 10 29 2 30 3 31 1 32 24 33
REMARK H PARENT 24 34
REMARK Flexibility Score: inf
ROOT
ATOM      1  C   UNL     1    -112.848  -7.285  33.931  1.00  0.00     0.014 C 
ATOM      2  C   UNL     1    -112.634  -6.074  33.007  1.00  0.00     0.014 C 
ATOM      3  C   UNL     1    -113.084  -8.400  32.908  1.00  0.00     0.012 C 
ATOM      4  C   UNL     1    -111.600  -7.678  34.755  1.00  0.00     0.014 C 
ATOM      5  C   UNL     1    -113.576  -6.296  31.805  1.00  0.00     0.009 C 
ATOM      6  C   UNL     1    -113.361  -9.816  33.495  1.00  0.00     0.000 C 
ATOM      7  C   UNL     1    -113.971  -7.794  31.811  1.00  0.00     0.018 C 
ATOM      8  C   UNL     1    -111.781  -9.055  35.445  1.00  0.00     0.008 C 
ATOM      9  C   UNL     1    -114.809 -10.063  33.986  1.00  0.00     0.005 C 
ATOM     10  C   UNL     1    -112.211 -10.255  34.513  1.00  0.00    -0.024 C 
ATOM     11  C   UNL     1    -114.927 -10.148  35.495  1.00  0.00     0.005 C 
ATOM     12  C   UNL     1    -112.676 -11.529  35.407  1.00  0.00    -0.024 C 
ATOM     13  C   UNL     1    -110.952 -10.617  33.637  1.00  0.00     0.012 C 
ATOM     14  C   UNL     1    -114.126 -11.331  36.097  1.00  0.00     0.002 C 
ATOM     15  C   UNL     1    -111.573 -11.940  36.446  1.00  0.00     0.008 C 
ATOM     16  C   UNL     1    -112.786 -12.772  34.451  1.00  0.00     0.012 C 
ATOM     17  C   UNL     1    -114.332 -11.440  37.705  1.00  0.00    -0.026 C 
ATOM     18  C   UNL     1    -111.814 -11.502  37.872  1.00  0.00     0.005 C 
ATOM     19  C   UNL     1    -114.566 -10.035  38.366  1.00  0.00     0.010 C 
ATOM     20  C   UNL     1    -115.635 -12.282  37.911  1.00  0.00     0.012 C 
ATOM     21  C   UNL     1    -113.111 -12.137  38.422  1.00  0.00     0.003 C 
ATOM     22  C   UNL     1    -114.626 -10.033  39.900  1.00  0.00     0.033 C 
ATOM     23  C   UNL     1    -113.149 -12.134  40.021  1.00  0.00    -0.006 C 
ATOM     24  C   UNL     1    -113.399 -10.686  40.542  1.00  0.00     0.120 C 
ATOM     25  C   UNL     1    -111.795 -12.636  40.613  1.00  0.00     0.014 C 
ATOM     26  C   UNL     1    -114.225 -13.124  40.570  1.00  0.00     0.014 C 
ENDROOT
BRANCH   1  27
ATOM     27  C   UNL     1    -114.033  -6.965  34.844  1.00  0.00     0.048 C 
ATOM     28  O   UNL     1    -113.851  -6.715  36.065  1.00  0.00    -0.550 OA
ATOM     29  O   UNL     1    -115.314  -6.810  34.328  1.00  0.00    -0.550 OA
ENDBRANCH   1  27
BRANCH   7  30
ATOM     30  C   UNL     1    -113.789  -8.479  30.460  1.00  0.00    -0.077 C 
ATOM     31  C   UNL     1    -112.459  -9.054  30.035  1.00  0.00     0.039 C 
ATOM     32  C   UNL     1    -114.844  -8.641  29.646  1.00  0.00     0.008 C 
ENDBRANCH   7  30
BRANCH  24  33
ATOM     33  O   UNL     1    -113.570 -10.682  41.938  1.00  0.00    -0.393 OA
ATOM     34  H   UNL     1    -114.464 -10.294  42.126  1.00  0.00     0.210 HD
ENDBRANCH  24  33
TORSDOF 3
ENDMDL
MODEL 7
REMARK VINA RESULT:    -4.331     10.237     13.873
REMARK INTER + INTRA:          -5.036
REMARK INTER:                  -5.085
REMARK INTRA:                   0.049
REMARK UNBOUND:                -0.071
REMARK SMILES C=C(C)[C@@H]1CC[C@]2(C(=O)[O-])CC[C@]3(C)[C@@H](CC[C@@H]4[C@]5(C)CC[C@@H](O)C(C)(C)[C@@H]5CC[C@@]43C)[C@@H]12
REMARK SMILES IDX 7 1 6 2 33 3 11 4 5 5 15 6 4 7 12 8 16 9 13 10 17 11 31 12
REMARK SMILES IDX 14 13 18 14 30 15 32 16 19 17 29 18 21 19 20 20 28 21 22 22
REMARK SMILES IDX 25 23 23 24 26 25 27 26 8 27 9 28 10 29 2 30 3 31 1 32 24 33
REMARK H PARENT 24 34
REMARK Flexibility Score: inf
ROOT
ATOM      1  C   UNL     1    -113.701  -0.197  48.215  1.00  0.00     0.014 C 
ATOM      2  C   UNL     1    -113.568   1.035  49.125  1.00  0.00     0.014 C 
ATOM      3  C   UNL     1    -113.577   0.443  46.829  1.00  0.00     0.012 C 
ATOM      4  C   UNL     1    -112.541  -1.212  48.354  1.00  0.00     0.014 C 
ATOM      5  C   UNL     1    -114.263   2.188  48.369  1.00  0.00     0.009 C 
ATOM      6  C   UNL     1    -113.684  -0.530  45.617  1.00  0.00     0.000 C 
ATOM      7  C   UNL     1    -114.382   1.750  46.888  1.00  0.00     0.018 C 
ATOM      8  C   UNL     1    -112.577  -2.278  47.229  1.00  0.00     0.008 C 
ATOM      9  C   UNL     1    -115.122  -0.941  45.216  1.00  0.00     0.005 C 
ATOM     10  C   UNL     1    -112.642  -1.733  45.748  1.00  0.00    -0.024 C 
ATOM     11  C   UNL     1    -115.450  -2.384  45.546  1.00  0.00     0.005 C 
ATOM     12  C   UNL     1    -113.002  -2.935  44.716  1.00  0.00    -0.024 C 
ATOM     13  C   UNL     1    -111.220  -1.131  45.430  1.00  0.00     0.012 C 
ATOM     14  C   UNL     1    -114.552  -3.395  44.788  1.00  0.00     0.002 C 
ATOM     15  C   UNL     1    -112.014  -4.145  44.870  1.00  0.00     0.008 C 
ATOM     16  C   UNL     1    -112.744  -2.409  43.258  1.00  0.00     0.012 C 
ATOM     17  C   UNL     1    -114.977  -4.931  45.105  1.00  0.00    -0.026 C 
ATOM     18  C   UNL     1    -112.542  -5.335  45.637  1.00  0.00     0.005 C 
ATOM     19  C   UNL     1    -115.553  -5.096  46.556  1.00  0.00     0.010 C 
ATOM     20  C   UNL     1    -116.125  -5.271  44.097  1.00  0.00     0.012 C 
ATOM     21  C   UNL     1    -113.773  -5.937  44.923  1.00  0.00     0.003 C 
ATOM     22  C   UNL     1    -115.845  -6.541  46.987  1.00  0.00     0.033 C 
ATOM     23  C   UNL     1    -114.053  -7.444  45.379  1.00  0.00    -0.006 C 
ATOM     24  C   UNL     1    -114.632  -7.462  46.825  1.00  0.00     0.120 C 
ATOM     25  C   UNL     1    -112.737  -8.283  45.372  1.00  0.00     0.014 C 
ATOM     26  C   UNL     1    -115.006  -8.176  44.381  1.00  0.00     0.014 C 
ENDROOT
BRANCH   1  27
ATOM     27  C   UNL     1    -115.048  -0.853  48.521  1.00  0.00     0.048 C 
ATOM     28  O   UNL     1    -116.125  -0.284  48.200  1.00  0.00    -0.550 OA
ATOM     29  O   UNL     1    -115.118  -2.142  49.037  1.00  0.00    -0.550 OA
ENDBRANCH   1  27
BRANCH   7  30
ATOM     30  C   UNL     1    -113.878   2.797  45.899  1.00  0.00    -0.077 C 
ATOM     31  C   UNL     1    -114.624   3.109  44.624  1.00  0.00     0.039 C 
ATOM     32  C   UNL     1    -112.782   3.516  46.189  1.00  0.00     0.008 C 
ENDBRANCH   7  30
BRANCH  24  33
ATOM     33  O   UNL     1    -115.010  -8.766  47.194  1.00  0.00    -0.393 OA
ATOM     34  H   UNL     1    -114.556  -8.975  48.052  1.00  0.00     0.210 HD
ENDBRANCH  24  33
TORSDOF 3
ENDMDL
MODEL 8
REMARK VINA RESULT:    -4.328      2.380      7.488
REMARK INTER + INTRA:          -5.032
REMARK INTER:                  -4.886
REMARK INTRA:                  -0.146
REMARK UNBOUND:                -0.071
REMARK SMILES C=C(C)[C@@H]1CC[C@]2(C(=O)[O-])CC[C@]3(C)[C@@H](CC[C@@H]4[C@]5(C)CC[C@@H](O)C(C)(C)[C@@H]5CC[C@@]43C)[C@@H]12
REMARK SMILES IDX 7 1 6 2 33 3 11 4 5 5 15 6 4 7 12 8 16 9 13 10 17 11 31 12
REMARK SMILES IDX 14 13 18 14 30 15 32 16 19 17 29 18 21 19 20 20 28 21 22 22
REMARK SMILES IDX 25 23 23 24 26 25 27 26 8 27 9 28 10 29 2 30 3 31 1 32 24 33
REMARK H PARENT 24 34
REMARK Flexibility Score: inf
ROOT
ATOM      1  C   UNL     1    -115.306  -6.493  32.266  1.00  0.00     0.014 C 
ATOM      2  C   UNL     1    -115.871  -5.815  31.007  1.00  0.00     0.014 C 
ATOM      3  C   UNL     1    -113.915  -5.860  32.346  1.00  0.00     0.012 C 
ATOM      4  C   UNL     1    -116.052  -6.122  33.570  1.00  0.00     0.014 C 
ATOM      5  C   UNL     1    -114.670  -5.649  30.050  1.00  0.00     0.009 C 
ATOM      6  C   UNL     1    -113.017  -6.334  33.528  1.00  0.00     0.000 C 
ATOM      7  C   UNL     1    -113.388  -5.801  30.905  1.00  0.00     0.018 C 
ATOM      8  C   UNL     1    -115.280  -6.602  34.826  1.00  0.00     0.008 C 
ATOM      9  C   UNL     1    -112.304  -7.692  33.320  1.00  0.00     0.005 C 
ATOM     10  C   UNL     1    -113.766  -6.163  34.927  1.00  0.00    -0.024 C 
ATOM     11  C   UNL     1    -112.868  -8.806  34.181  1.00  0.00     0.005 C 
ATOM     12  C   UNL     1    -113.012  -6.996  36.101  1.00  0.00    -0.024 C 
ATOM     13  C   UNL     1    -113.767  -4.620  35.250  1.00  0.00     0.012 C 
ATOM     14  C   UNL     1    -112.709  -8.534  35.699  1.00  0.00     0.002 C 
ATOM     15  C   UNL     1    -113.766  -6.876  37.472  1.00  0.00     0.008 C 
ATOM     16  C   UNL     1    -111.624  -6.306  36.363  1.00  0.00     0.012 C 
ATOM     17  C   UNL     1    -113.254  -9.777  36.592  1.00  0.00    -0.026 C 
ATOM     18  C   UNL     1    -114.605  -8.069  37.870  1.00  0.00     0.005 C 
ATOM     19  C   UNL     1    -114.445 -10.527  35.895  1.00  0.00     0.010 C 
ATOM     20  C   UNL     1    -112.058 -10.781  36.698  1.00  0.00     0.012 C 
ATOM     21  C   UNL     1    -113.718  -9.324  38.032  1.00  0.00     0.003 C 
ATOM     22  C   UNL     1    -115.112 -11.624  36.736  1.00  0.00     0.033 C 
ATOM     23  C   UNL     1    -114.428 -10.450  38.919  1.00  0.00    -0.006 C 
ATOM     24  C   UNL     1    -115.576 -11.120  38.106  1.00  0.00     0.120 C 
ATOM     25  C   UNL     1    -115.045  -9.834  40.213  1.00  0.00     0.014 C 
ATOM     26  C   UNL     1    -113.401 -11.513  39.424  1.00  0.00     0.014 C 
ENDROOT
BRANCH   1  27
ATOM     27  C   UNL     1    -115.332  -8.004  32.026  1.00  0.00     0.048 C 
ATOM     28  O   UNL     1    -116.125  -8.741  32.672  1.00  0.00    -0.550 OA
ATOM     29  O   UNL     1    -114.584  -8.581  31.007  1.00  0.00    -0.550 OA
ENDBRANCH   1  27
BRANCH   7  30
ATOM     30  C   UNL     1    -112.375  -4.680  30.692  1.00  0.00    -0.077 C 
ATOM     31  C   UNL     1    -112.702  -3.242  31.021  1.00  0.00     0.039 C 
ATOM     32  C   UNL     1    -111.136  -4.971  30.267  1.00  0.00     0.008 C 
ENDBRANCH   7  30
BRANCH  24  33
ATOM     33  O   UNL     1    -116.125 -12.202  38.817  1.00  0.00    -0.393 OA
ATOM     34  H   UNL     1    -115.368 -12.729  39.185  1.00  0.00     0.210 HD
ENDBRANCH  24  33
TORSDOF 3
ENDMDL
MODEL 9
REMARK VINA RESULT:    -4.249      2.516      4.049
REMARK INTER + INTRA:          -4.942
REMARK INTER:                  -4.793
REMARK INTRA:                  -0.149
REMARK UNBOUND:                -0.071
REMARK SMILES C=C(C)[C@@H]1CC[C@]2(C(=O)[O-])CC[C@]3(C)[C@@H](CC[C@@H]4[C@]5(C)CC[C@@H](O)C(C)(C)[C@@H]5CC[C@@]43C)[C@@H]12
REMARK SMILES IDX 7 1 6 2 33 3 11 4 5 5 15 6 4 7 12 8 16 9 13 10 17 11 31 12
REMARK SMILES IDX 14 13 18 14 30 15 32 16 19 17 29 18 21 19 20 20 28 21 22 22
REMARK SMILES IDX 25 23 23 24 26 25 27 26 8 27 9 28 10 29 2 30 3 31 1 32 24 33
REMARK H PARENT 24 34
REMARK Flexibility Score: inf
ROOT
ATOM      1  C   UNL     1    -112.164 -10.668  34.776  1.00  0.00     0.014 C 
ATOM      2  C   UNL     1    -111.532 -12.017  35.159  1.00  0.00     0.014 C 
ATOM      3  C   UNL     1    -113.460 -10.706  35.590  1.00  0.00     0.012 C 
ATOM      4  C   UNL     1    -111.360  -9.436  35.256  1.00  0.00     0.014 C 
ATOM      5  C   UNL     1    -112.712 -12.998  35.320  1.00  0.00     0.009 C 
ATOM      6  C   UNL     1    -114.397  -9.471  35.439  1.00  0.00     0.000 C 
ATOM      7  C   UNL     1    -113.993 -12.142  35.479  1.00  0.00     0.018 C 
ATOM      8  C   UNL     1    -112.173  -8.125  35.095  1.00  0.00     0.008 C 
ATOM      9  C   UNL     1    -115.284  -9.459  34.169  1.00  0.00     0.005 C 
ATOM     10  C   UNL     1    -113.615  -8.112  35.738  1.00  0.00    -0.024 C 
ATOM     11  C   UNL     1    -114.859  -8.420  33.149  1.00  0.00     0.005 C 
ATOM     12  C   UNL     1    -114.456  -6.824  35.216  1.00  0.00    -0.024 C 
ATOM     13  C   UNL     1    -113.409  -8.048  37.300  1.00  0.00     0.012 C 
ATOM     14  C   UNL     1    -114.962  -6.970  33.685  1.00  0.00     0.002 C 
ATOM     15  C   UNL     1    -113.676  -5.485  35.460  1.00  0.00     0.008 C 
ATOM     16  C   UNL     1    -115.739  -6.692  36.114  1.00  0.00     0.012 C 
ATOM     17  C   UNL     1    -114.573  -5.879  32.546  1.00  0.00    -0.026 C 
ATOM     18  C   UNL     1    -112.995  -4.887  34.250  1.00  0.00     0.005 C 
ATOM     19  C   UNL     1    -113.499  -6.432  31.542  1.00  0.00     0.010 C 
ATOM     20  C   UNL     1    -115.887  -5.620  31.737  1.00  0.00     0.012 C 
ATOM     21  C   UNL     1    -114.036  -4.529  33.165  1.00  0.00     0.003 C 
ATOM     22  C   UNL     1    -112.969  -5.415  30.521  1.00  0.00     0.033 C 
ATOM     23  C   UNL     1    -113.467  -3.462  32.118  1.00  0.00    -0.006 C 
ATOM     24  C   UNL     1    -112.426  -4.143  31.179  1.00  0.00     0.120 C 
ATOM     25  C   UNL     1    -112.759  -2.281  32.852  1.00  0.00     0.014 C 
ATOM     26  C   UNL     1    -114.618  -2.798  31.296  1.00  0.00     0.014 C 
ENDROOT
BRANCH   1  27
ATOM     27  C   UNL     1    -112.339 -10.655  33.257  1.00  0.00     0.048 C 
ATOM     28  O   UNL     1    -111.604  -9.929  32.534  1.00  0.00    -0.550 OA
ATOM     29  O   UNL     1    -113.211 -11.534  32.628  1.00  0.00    -0.550 OA
ENDBRANCH   1  27
BRANCH   7  30
ATOM     30  C   UNL     1    -114.853 -12.546  36.673  1.00  0.00    -0.077 C 
ATOM     31  C   UNL     1    -114.342 -12.444  38.090  1.00  0.00     0.039 C 
ATOM     32  C   UNL     1    -116.122 -12.939  36.479  1.00  0.00     0.008 C 
ENDBRANCH   7  30
BRANCH  24  33
ATOM     33  O   UNL     1    -112.014  -3.258  30.166  1.00  0.00    -0.393 OA
ATOM     34  H   UNL     1    -112.829  -2.961  29.684  1.00  0.00     0.210 HD
ENDBRANCH  24  33
TORSDOF 3
ENDMDL
