MODEL 1
REMARK VINA RESULT:    -9.375      0.000      0.000
REMARK INTER + INTRA:         -11.292
REMARK INTER:                 -11.293
REMARK INTRA:                   0.001
REMARK UNBOUND:                 0.001
REMARK SMILES O=c1c(O)c(-c2ccc(O)c(O)c2)oc2cc(O)cc(O)c12
REMARK SMILES IDX 5 1 3 2 2 3 1 4 22 5 20 6 19 7 17 8 16 9 15 10 14 11 6 12
REMARK SMILES IDX 7 13 8 14 9 15 13 16 11 17 10 18 12 20 4 22 21 24 18 26
REMARK H PARENT 10 19 12 21 4 23 21 25 18 27
REMARK Flexibility Score: inf
ROOT
ATOM      1  C   UNL     1     111.517 110.791 113.578  1.00  0.00     0.180 A 
ATOM      2  C   UNL     1     110.222 110.306 113.825  1.00  0.00     0.208 A 
ATOM      3  C   UNL     1     109.765 110.227 115.151  1.00  0.00     0.238 A 
ATOM      4  O   UNL     1     108.586 109.844 115.362  1.00  0.00    -0.285 OA
ATOM      5  C   UNL     1     110.615 110.621 116.212  1.00  0.00     0.111 A 
ATOM      6  C   UNL     1     110.272 110.545 117.596  1.00  0.00     0.134 A 
ATOM      7  C   UNL     1     111.141 111.084 118.553  1.00  0.00     0.093 A 
ATOM      8  C   UNL     1     112.370 111.634 118.182  1.00  0.00     0.123 A 
ATOM      9  C   UNL     1     112.740 111.658 116.839  1.00  0.00     0.094 A 
ATOM     10  C   UNL     1     111.879 111.162 115.858  1.00  0.00     0.146 A 
ATOM     11  O   UNL     1     112.266 111.213 114.590  1.00  0.00    -0.452 OA
ENDROOT
BRANCH   1  12
ATOM     12  C   UNL     1     112.077 110.879 112.209  1.00  0.00     0.025 A 
ATOM     13  C   UNL     1     112.024 109.757 111.367  1.00  0.00     0.016 A 
ATOM     14  C   UNL     1     112.526 109.825 110.066  1.00  0.00     0.051 A 
ATOM     15  C   UNL     1     113.073 111.016 109.580  1.00  0.00     0.157 A 
ATOM     16  C   UNL     1     112.608 112.083 111.711  1.00  0.00     0.062 A 
ATOM     17  C   UNL     1     113.111 112.153 110.404  1.00  0.00     0.158 A 
BRANCH  15  18
ATOM     18  O   UNL     1     113.569 111.053 108.277  1.00  0.00    -0.504 OA
ATOM     19  H   UNL     1     113.034 111.437 107.507  1.00  0.00     0.293 HD
ENDBRANCH  15  18
BRANCH  17  20
ATOM     20  O   UNL     1     113.642 113.348 109.921  1.00  0.00    -0.504 OA
ATOM     21  H   UNL     1     113.883 113.465 108.944  1.00  0.00     0.293 HD
ENDBRANCH  17  20
ENDBRANCH   1  12
BRANCH   2  22
ATOM     22  O   UNL     1     109.391 109.944 112.761  1.00  0.00    -0.502 OA
ATOM     23  H   UNL     1     108.444 110.289 112.668  1.00  0.00     0.293 HD
ENDBRANCH   2  22
BRANCH   6  24
ATOM     24  O   UNL     1     109.112 109.933 118.080  1.00  0.00    -0.507 OA
ATOM     25  H   UNL     1     108.197 110.024 117.663  1.00  0.00     0.293 HD
ENDBRANCH   6  24
BRANCH   8  26
ATOM     26  O   UNL     1     113.235 112.153 119.143  1.00  0.00    -0.508 OA
ATOM     27  H   UNL     1     114.096 111.681 119.393  1.00  0.00     0.293 HD
ENDBRANCH   8  26
TORSDOF 6
ENDMDL
MODEL 2
REMARK VINA RESULT:    -9.356      2.170      3.630
REMARK INTER + INTRA:         -11.269
REMARK INTER:                 -11.249
REMARK INTRA:                  -0.019
REMARK UNBOUND:                 0.001
REMARK SMILES O=c1c(O)c(-c2ccc(O)c(O)c2)oc2cc(O)cc(O)c12
REMARK SMILES IDX 5 1 3 2 2 3 1 4 22 5 20 6 19 7 17 8 16 9 15 10 14 11 6 12
REMARK SMILES IDX 7 13 8 14 9 15 13 16 11 17 10 18 12 20 4 22 21 24 18 26
REMARK H PARENT 10 19 12 21 4 23 21 25 18 27
REMARK Flexibility Score: inf
ROOT
ATOM      1  C   UNL     1     110.665 111.317 113.616  1.00  0.00     0.180 A 
ATOM      2  C   UNL     1     111.964 111.781 113.885  1.00  0.00     0.208 A 
ATOM      3  C   UNL     1     112.413 111.815 115.215  1.00  0.00     0.238 A 
ATOM      4  O   UNL     1     113.595 112.181 115.444  1.00  0.00    -0.285 OA
ATOM      5  C   UNL     1     111.554 111.398 116.259  1.00  0.00     0.111 A 
ATOM      6  C   UNL     1     111.889 111.428 117.646  1.00  0.00     0.134 A 
ATOM      7  C   UNL     1     111.010 110.870 118.582  1.00  0.00     0.093 A 
ATOM      8  C   UNL     1     109.778 110.342 118.187  1.00  0.00     0.123 A 
ATOM      9  C   UNL     1     109.415 110.364 116.843  1.00  0.00     0.094 A 
ATOM     10  C   UNL     1     110.287 110.880 115.881  1.00  0.00     0.146 A 
ATOM     11  O   UNL     1     109.907 110.871 114.610  1.00  0.00    -0.452 OA
ENDROOT
BRANCH   1  12
ATOM     12  C   UNL     1     110.113 111.275 112.242  1.00  0.00     0.025 A 
ATOM     13  C   UNL     1     110.153 112.431 111.446  1.00  0.00     0.016 A 
ATOM     14  C   UNL     1     109.657 112.408 110.140  1.00  0.00     0.051 A 
ATOM     15  C   UNL     1     109.130 111.229 109.604  1.00  0.00     0.157 A 
ATOM     16  C   UNL     1     109.602 110.085 111.694  1.00  0.00     0.062 A 
ATOM     17  C   UNL     1     109.105 110.060 110.382  1.00  0.00     0.158 A 
BRANCH  15  18
ATOM     18  O   UNL     1     108.640 111.238 108.299  1.00  0.00    -0.504 OA
ATOM     19  H   UNL     1     109.041 111.823 107.576  1.00  0.00     0.293 HD
ENDBRANCH  15  18
BRANCH  17  20
ATOM     20  O   UNL     1     108.594 108.878 109.849  1.00  0.00    -0.504 OA
ATOM     21  H   UNL     1     108.298 108.816 108.882  1.00  0.00     0.293 HD
ENDBRANCH  17  20
ENDBRANCH   1  12
BRANCH   2  22
ATOM     22  O   UNL     1     112.804 112.167 112.837  1.00  0.00    -0.502 OA
ATOM     23  H   UNL     1     113.804 112.280 112.954  1.00  0.00     0.293 HD
ENDBRANCH   2  22
BRANCH   6  24
ATOM     24  O   UNL     1     113.052 112.014 118.155  1.00  0.00    -0.507 OA
ATOM     25  H   UNL     1     113.338 111.979 119.122  1.00  0.00     0.293 HD
ENDBRANCH   6  24
BRANCH   8  26
ATOM     26  O   UNL     1     108.902 109.803 119.127  1.00  0.00    -0.508 OA
ATOM     27  H   UNL     1     108.720 110.266 120.010  1.00  0.00     0.293 HD
ENDBRANCH   8  26
TORSDOF 6
ENDMDL
MODEL 3
REMARK VINA RESULT:    -9.277      3.568      6.053
REMARK INTER + INTRA:         -11.174
REMARK INTER:                 -11.150
REMARK INTRA:                  -0.024
REMARK UNBOUND:                 0.001
REMARK SMILES O=c1c(O)c(-c2ccc(O)c(O)c2)oc2cc(O)cc(O)c12
REMARK SMILES IDX 5 1 3 2 2 3 1 4 22 5 20 6 19 7 17 8 16 9 15 10 14 11 6 12
REMARK SMILES IDX 7 13 8 14 9 15 13 16 11 17 10 18 12 20 4 22 21 24 18 26
REMARK H PARENT 10 19 12 21 4 23 21 25 18 27
REMARK Flexibility Score: inf
ROOT
ATOM      1  C   UNL     1     110.733 111.404 108.730  1.00  0.00     0.180 A 
ATOM      2  C   UNL     1     112.027 111.894 108.978  1.00  0.00     0.208 A 
ATOM      3  C   UNL     1     112.483 111.973 110.304  1.00  0.00     0.238 A 
ATOM      4  O   UNL     1     113.662 112.360 110.515  1.00  0.00    -0.285 OA
ATOM      5  C   UNL     1     111.636 111.575 111.364  1.00  0.00     0.111 A 
ATOM      6  C   UNL     1     111.979 111.650 112.748  1.00  0.00     0.134 A 
ATOM      7  C   UNL     1     111.113 111.107 113.705  1.00  0.00     0.093 A 
ATOM      8  C   UNL     1     109.885 110.552 113.334  1.00  0.00     0.123 A 
ATOM      9  C   UNL     1     109.515 110.529 111.992  1.00  0.00     0.094 A 
ATOM     10  C   UNL     1     110.374 111.029 111.010  1.00  0.00     0.146 A 
ATOM     11  O   UNL     1     109.986 110.978 109.742  1.00  0.00    -0.452 OA
ENDROOT
BRANCH   1  12
ATOM     12  C   UNL     1     110.173 111.315 107.362  1.00  0.00     0.025 A 
ATOM     13  C   UNL     1     110.183 112.451 106.536  1.00  0.00     0.016 A 
ATOM     14  C   UNL     1     109.680 112.383 105.235  1.00  0.00     0.051 A 
ATOM     15  C   UNL     1     109.175 111.180 104.733  1.00  0.00     0.157 A 
ATOM     16  C   UNL     1     109.684 110.100 106.848  1.00  0.00     0.062 A 
ATOM     17  C   UNL     1     109.180 110.031 105.541  1.00  0.00     0.158 A 
BRANCH  15  18
ATOM     18  O   UNL     1     108.677 111.144 103.431  1.00  0.00    -0.504 OA
ATOM     19  H   UNL     1     108.025 111.837 103.084  1.00  0.00     0.293 HD
ENDBRANCH  15  18
BRANCH  17  20
ATOM     20  O   UNL     1     108.691 108.825 105.042  1.00  0.00    -0.504 OA
ATOM     21  H   UNL     1     108.120 108.208 105.609  1.00  0.00     0.293 HD
ENDBRANCH  17  20
ENDBRANCH   1  12
BRANCH   2  22
ATOM     22  O   UNL     1     112.856 112.260 107.914  1.00  0.00    -0.502 OA
ATOM     23  H   UNL     1     113.715 111.770 107.700  1.00  0.00     0.293 HD
ENDBRANCH   2  22
BRANCH   6  24
ATOM     24  O   UNL     1     113.137 112.266 113.232  1.00  0.00    -0.507 OA
ATOM     25  H   UNL     1     113.710 111.905 113.980  1.00  0.00     0.293 HD
ENDBRANCH   6  24
BRANCH   8  26
ATOM     26  O   UNL     1     109.023 110.029 114.295  1.00  0.00    -0.508 OA
ATOM     27  H   UNL     1     109.274 110.004 115.276  1.00  0.00     0.293 HD
ENDBRANCH   8  26
TORSDOF 6
ENDMDL
MODEL 4
REMARK VINA RESULT:    -9.271      2.893      4.863
REMARK INTER + INTRA:         -11.167
REMARK INTER:                 -11.143
REMARK INTRA:                  -0.025
REMARK UNBOUND:                 0.001
REMARK SMILES O=c1c(O)c(-c2ccc(O)c(O)c2)oc2cc(O)cc(O)c12
REMARK SMILES IDX 5 1 3 2 2 3 1 4 22 5 20 6 19 7 17 8 16 9 15 10 14 11 6 12
REMARK SMILES IDX 7 13 8 14 9 15 13 16 11 17 10 18 12 20 4 22 21 24 18 26
REMARK H PARENT 10 19 12 21 4 23 21 25 18 27
REMARK Flexibility Score: inf
ROOT
ATOM      1  C   UNL     1     111.524 110.852 108.717  1.00  0.00     0.180 A 
ATOM      2  C   UNL     1     110.231 110.363 108.973  1.00  0.00     0.208 A 
ATOM      3  C   UNL     1     109.786 110.280 110.303  1.00  0.00     0.238 A 
ATOM      4  O   UNL     1     108.609 109.893 110.523  1.00  0.00    -0.285 OA
ATOM      5  C   UNL     1     110.644 110.671 111.358  1.00  0.00     0.111 A 
ATOM      6  C   UNL     1     110.312 110.590 112.744  1.00  0.00     0.134 A 
ATOM      7  C   UNL     1     111.188 111.127 113.696  1.00  0.00     0.093 A 
ATOM      8  C   UNL     1     112.413 111.681 113.316  1.00  0.00     0.123 A 
ATOM      9  C   UNL     1     112.772 111.710 111.971  1.00  0.00     0.094 A 
ATOM     10  C   UNL     1     111.903 111.215 110.995  1.00  0.00     0.146 A 
ATOM     11  O   UNL     1     112.280 111.272 109.724  1.00  0.00    -0.452 OA
ENDROOT
BRANCH   1  12
ATOM     12  C   UNL     1     112.071 110.946 107.344  1.00  0.00     0.025 A 
ATOM     13  C   UNL     1     112.050 109.815 106.512  1.00  0.00     0.016 A 
ATOM     14  C   UNL     1     112.542 109.887 105.207  1.00  0.00     0.051 A 
ATOM     15  C   UNL     1     113.046 111.091 104.707  1.00  0.00     0.157 A 
ATOM     16  C   UNL     1     112.561 112.161 106.832  1.00  0.00     0.062 A 
ATOM     17  C   UNL     1     113.053 112.235 105.521  1.00  0.00     0.158 A 
BRANCH  15  18
ATOM     18  O   UNL     1     113.533 111.132 103.401  1.00  0.00    -0.504 OA
ATOM     19  H   UNL     1     114.026 110.351 102.985  1.00  0.00     0.293 HD
ENDBRANCH  15  18
BRANCH  17  20
ATOM     20  O   UNL     1     113.542 113.442 105.024  1.00  0.00    -0.504 OA
ATOM     21  H   UNL     1     113.538 114.288 105.583  1.00  0.00     0.293 HD
ENDBRANCH  17  20
ENDBRANCH   1  12
BRANCH   2  22
ATOM     22  O   UNL     1     109.392 110.003 107.915  1.00  0.00    -0.502 OA
ATOM     23  H   UNL     1     108.720 110.644 107.511  1.00  0.00     0.293 HD
ENDBRANCH   2  22
BRANCH   6  24
ATOM     24  O   UNL     1     109.157 109.975 113.236  1.00  0.00    -0.507 OA
ATOM     25  H   UNL     1     108.952 108.990 113.156  1.00  0.00     0.293 HD
ENDBRANCH   6  24
BRANCH   8  26
ATOM     26  O   UNL     1     113.285 112.198 114.272  1.00  0.00    -0.508 OA
ATOM     27  H   UNL     1     113.464 111.715 115.144  1.00  0.00     0.293 HD
ENDBRANCH   8  26
TORSDOF 6
ENDMDL
MODEL 5
REMARK VINA RESULT:    -9.180      3.188      8.701
REMARK INTER + INTRA:         -11.057
REMARK INTER:                 -10.781
REMARK INTRA:                  -0.276
REMARK UNBOUND:                 0.001
REMARK SMILES O=c1c(O)c(-c2ccc(O)c(O)c2)oc2cc(O)cc(O)c12
REMARK SMILES IDX 5 1 3 2 2 3 1 4 22 5 20 6 19 7 17 8 16 9 15 10 14 11 6 12
REMARK SMILES IDX 7 13 8 14 9 15 13 16 11 17 10 18 12 20 4 22 21 24 18 26
REMARK H PARENT 10 19 12 21 4 23 21 25 18 27
REMARK Flexibility Score: inf
ROOT
ATOM      1  C   UNL     1     111.230 111.588 109.582  1.00  0.00     0.180 A 
ATOM      2  C   UNL     1     112.371 112.118 108.954  1.00  0.00     0.208 A 
ATOM      3  C   UNL     1     112.581 111.855 107.590  1.00  0.00     0.238 A 
ATOM      4  O   UNL     1     113.575 112.377 107.021  1.00  0.00    -0.285 OA
ATOM      5  C   UNL     1     111.657 111.056 106.877  1.00  0.00     0.111 A 
ATOM      6  C   UNL     1     111.792 110.692 105.503  1.00  0.00     0.134 A 
ATOM      7  C   UNL     1     110.751 110.005 104.865  1.00  0.00     0.093 A 
ATOM      8  C   UNL     1     109.610 109.611 105.569  1.00  0.00     0.123 A 
ATOM      9  C   UNL     1     109.497 109.908 106.925  1.00  0.00     0.094 A 
ATOM     10  C   UNL     1     110.502 110.624 107.580  1.00  0.00     0.146 A 
ATOM     11  O   UNL     1     110.349 110.896 108.869  1.00  0.00    -0.452 OA
ENDROOT
BRANCH   1  12
ATOM     12  C   UNL     1     110.954 111.801 111.021  1.00  0.00     0.025 A 
ATOM     13  C   UNL     1     109.912 112.660 111.405  1.00  0.00     0.016 A 
ATOM     14  C   UNL     1     109.621 112.858 112.756  1.00  0.00     0.051 A 
ATOM     15  C   UNL     1     110.352 112.191 113.743  1.00  0.00     0.157 A 
ATOM     16  C   UNL     1     111.675 111.114 112.015  1.00  0.00     0.062 A 
ATOM     17  C   UNL     1     111.382 111.311 113.372  1.00  0.00     0.158 A 
BRANCH  15  18
ATOM     18  O   UNL     1     110.040 112.411 115.084  1.00  0.00    -0.504 OA
ATOM     19  H   UNL     1     109.857 111.650 115.727  1.00  0.00     0.293 HD
ENDBRANCH  15  18
BRANCH  17  20
ATOM     20  O   UNL     1     112.106 110.631 114.351  1.00  0.00    -0.504 OA
ATOM     21  H   UNL     1     112.888 111.063 114.829  1.00  0.00     0.293 HD
ENDBRANCH  17  20
ENDBRANCH   1  12
BRANCH   2  22
ATOM     22  O   UNL     1     113.259 112.924 109.672  1.00  0.00    -0.502 OA
ATOM     23  H   UNL     1     113.052 113.887 109.906  1.00  0.00     0.293 HD
ENDBRANCH   2  22
BRANCH   6  24
ATOM     24  O   UNL     1     112.929 110.956 104.733  1.00  0.00    -0.507 OA
ATOM     25  H   UNL     1     113.859 111.076 105.104  1.00  0.00     0.293 HD
ENDBRANCH   6  24
BRANCH   8  26
ATOM     26  O   UNL     1     108.587 108.914 104.930  1.00  0.00    -0.508 OA
ATOM     27  H   UNL     1     108.331 109.110 103.969  1.00  0.00     0.293 HD
ENDBRANCH   8  26
TORSDOF 6
ENDMDL
MODEL 6
REMARK VINA RESULT:    -9.115      1.641      6.700
REMARK INTER + INTRA:         -10.978
REMARK INTER:                 -10.658
REMARK INTRA:                  -0.320
REMARK UNBOUND:                 0.001
REMARK SMILES O=c1c(O)c(-c2ccc(O)c(O)c2)oc2cc(O)cc(O)c12
REMARK SMILES IDX 5 1 3 2 2 3 1 4 22 5 20 6 19 7 17 8 16 9 15 10 14 11 6 12
REMARK SMILES IDX 7 13 8 14 9 15 13 16 11 17 10 18 12 20 4 22 21 24 18 26
REMARK H PARENT 10 19 12 21 4 23 21 25 18 27
REMARK Flexibility Score: inf
ROOT
ATOM      1  C   UNL     1     110.613 111.076 114.428  1.00  0.00     0.180 A 
ATOM      2  C   UNL     1     109.671 110.296 113.735  1.00  0.00     0.208 A 
ATOM      3  C   UNL     1     109.683 110.302 112.331  1.00  0.00     0.238 A 
ATOM      4  O   UNL     1     108.873 109.561 111.716  1.00  0.00    -0.285 OA
ATOM      5  C   UNL     1     110.626 111.098 111.639  1.00  0.00     0.111 A 
ATOM      6  C   UNL     1     110.703 111.212 110.218  1.00  0.00     0.134 A 
ATOM      7  C   UNL     1     111.759 111.926 109.638  1.00  0.00     0.093 A 
ATOM      8  C   UNL     1     112.703 112.586 110.430  1.00  0.00     0.123 A 
ATOM      9  C   UNL     1     112.601 112.531 111.818  1.00  0.00     0.094 A 
ATOM     10  C   UNL     1     111.580 111.796 112.425  1.00  0.00     0.146 A 
ATOM     11  O   UNL     1     111.527 111.761 113.750  1.00  0.00    -0.452 OA
ENDROOT
BRANCH   1  12
ATOM     12  C   UNL     1     110.646 111.140 115.908  1.00  0.00     0.025 A 
ATOM     13  C   UNL     1     111.391 110.189 116.624  1.00  0.00     0.016 A 
ATOM     14  C   UNL     1     111.454 110.244 118.018  1.00  0.00     0.051 A 
ATOM     15  C   UNL     1     110.788 111.256 118.717  1.00  0.00     0.157 A 
ATOM     16  C   UNL     1     109.994 112.169 116.611  1.00  0.00     0.062 A 
ATOM     17  C   UNL     1     110.058 112.225 118.011  1.00  0.00     0.158 A 
BRANCH  15  18
ATOM     18  O   UNL     1     110.866 111.283 120.109  1.00  0.00    -0.504 OA
ATOM     19  H   UNL     1     110.570 112.086 120.650  1.00  0.00     0.293 HD
ENDBRANCH  15  18
BRANCH  17  20
ATOM     20  O   UNL     1     109.403 113.245 118.701  1.00  0.00    -0.504 OA
ATOM     21  H   UNL     1     109.771 113.621 119.567  1.00  0.00     0.293 HD
ENDBRANCH  17  20
ENDBRANCH   1  12
BRANCH   2  22
ATOM     22  O   UNL     1     108.763 109.500 114.438  1.00  0.00    -0.502 OA
ATOM     23  H   UNL     1     108.693 109.516 115.449  1.00  0.00     0.293 HD
ENDBRANCH   2  22
BRANCH   6  24
ATOM     24  O   UNL     1     109.761 110.670 109.339  1.00  0.00    -0.507 OA
ATOM     25  H   UNL     1     108.770 110.613 109.522  1.00  0.00     0.293 HD
ENDBRANCH   6  24
BRANCH   8  26
ATOM     26  O   UNL     1     113.741 113.308 109.844  1.00  0.00    -0.508 OA
ATOM     27  H   UNL     1     113.573 113.965 109.091  1.00  0.00     0.293 HD
ENDBRANCH   8  26
TORSDOF 6
ENDMDL
MODEL 7
REMARK VINA RESULT:    -9.078      1.665      7.119
REMARK INTER + INTRA:         -10.934
REMARK INTER:                 -10.921
REMARK INTRA:                  -0.013
REMARK UNBOUND:                 0.001
REMARK SMILES O=c1c(O)c(-c2ccc(O)c(O)c2)oc2cc(O)cc(O)c12
REMARK SMILES IDX 5 1 3 2 2 3 1 4 22 5 20 6 19 7 17 8 16 9 15 10 14 11 6 12
REMARK SMILES IDX 7 13 8 14 9 15 13 16 11 17 10 18 12 20 4 22 21 24 18 26
REMARK H PARENT 10 19 12 21 4 23 21 25 18 27
REMARK Flexibility Score: inf
ROOT
ATOM      1  C   UNL     1     111.600 111.535 114.524  1.00  0.00     0.180 A 
ATOM      2  C   UNL     1     112.638 112.112 113.774  1.00  0.00     0.208 A 
ATOM      3  C   UNL     1     112.667 111.911 112.384  1.00  0.00     0.238 A 
ATOM      4  O   UNL     1     113.568 112.475 111.710  1.00  0.00    -0.285 OA
ATOM      5  C   UNL     1     111.667 111.124 111.766  1.00  0.00     0.111 A 
ATOM      6  C   UNL     1     111.620 110.821 110.372  1.00  0.00     0.134 A 
ATOM      7  C   UNL     1     110.513 110.141 109.849  1.00  0.00     0.093 A 
ATOM      8  C   UNL     1     109.482 109.696 110.681  1.00  0.00     0.123 A 
ATOM      9  C   UNL     1     109.548 109.934 112.052  1.00  0.00     0.094 A 
ATOM     10  C   UNL     1     110.622 110.641 112.598  1.00  0.00     0.146 A 
ATOM     11  O   UNL     1     110.640 110.856 113.907  1.00  0.00    -0.452 OA
ENDROOT
BRANCH   1  12
ATOM     12  C   UNL     1     111.517 111.682 115.996  1.00  0.00     0.025 A 
ATOM     13  C   UNL     1     110.292 112.029 116.587  1.00  0.00     0.016 A 
ATOM     14  C   UNL     1     110.186 112.151 117.974  1.00  0.00     0.051 A 
ATOM     15  C   UNL     1     111.294 111.915 118.792  1.00  0.00     0.157 A 
ATOM     16  C   UNL     1     112.626 111.424 116.822  1.00  0.00     0.062 A 
ATOM     17  C   UNL     1     112.520 111.545 118.215  1.00  0.00     0.158 A 
BRANCH  15  18
ATOM     18  O   UNL     1     111.159 112.048 120.174  1.00  0.00    -0.504 OA
ATOM     19  H   UNL     1     110.905 112.927 120.608  1.00  0.00     0.293 HD
ENDBRANCH  15  18
BRANCH  17  20
ATOM     20  O   UNL     1     113.626 111.294 119.026  1.00  0.00    -0.504 OA
ATOM     21  H   UNL     1     113.769 110.391 119.464  1.00  0.00     0.293 HD
ENDBRANCH  17  20
ENDBRANCH   1  12
BRANCH   2  22
ATOM     22  O   UNL     1     113.604 112.904 114.401  1.00  0.00    -0.502 OA
ATOM     23  H   UNL     1     113.382 113.527 115.168  1.00  0.00     0.293 HD
ENDBRANCH   2  22
BRANCH   6  24
ATOM     24  O   UNL     1     112.640 111.139 109.470  1.00  0.00    -0.507 OA
ATOM     25  H   UNL     1     112.603 110.967 108.476  1.00  0.00     0.293 HD
ENDBRANCH   6  24
BRANCH   8  26
ATOM     26  O   UNL     1     108.392 109.007 110.154  1.00  0.00    -0.508 OA
ATOM     27  H   UNL     1     108.388 108.672 109.198  1.00  0.00     0.293 HD
ENDBRANCH   8  26
TORSDOF 6
ENDMDL
MODEL 8
REMARK VINA RESULT:    -9.077      3.328      8.364
REMARK INTER + INTRA:         -10.933
REMARK INTER:                 -10.622
REMARK INTRA:                  -0.311
REMARK UNBOUND:                 0.001
REMARK SMILES O=c1c(O)c(-c2ccc(O)c(O)c2)oc2cc(O)cc(O)c12
REMARK SMILES IDX 5 1 3 2 2 3 1 4 22 5 20 6 19 7 17 8 16 9 15 10 14 11 6 12
REMARK SMILES IDX 7 13 8 14 9 15 13 16 11 17 10 18 12 20 4 22 21 24 18 26
REMARK H PARENT 10 19 12 21 4 23 21 25 18 27
REMARK Flexibility Score: inf
ROOT
ATOM      1  C   UNL     1     110.617 111.016 109.523  1.00  0.00     0.180 A 
ATOM      2  C   UNL     1     109.641 110.281 108.829  1.00  0.00     0.208 A 
ATOM      3  C   UNL     1     109.617 110.335 107.426  1.00  0.00     0.238 A 
ATOM      4  O   UNL     1     108.775 109.632 106.808  1.00  0.00    -0.285 OA
ATOM      5  C   UNL     1     110.560 111.133 106.736  1.00  0.00     0.111 A 
ATOM      6  C   UNL     1     110.604 111.293 105.318  1.00  0.00     0.134 A 
ATOM      7  C   UNL     1     111.660 112.003 104.735  1.00  0.00     0.093 A 
ATOM      8  C   UNL     1     112.639 112.615 105.524  1.00  0.00     0.123 A 
ATOM      9  C   UNL     1     112.571 112.515 106.911  1.00  0.00     0.094 A 
ATOM     10  C   UNL     1     111.549 111.783 107.520  1.00  0.00     0.146 A 
ATOM     11  O   UNL     1     111.529 111.703 108.845  1.00  0.00    -0.452 OA
ENDROOT
BRANCH   1  12
ATOM     12  C   UNL     1     110.689 111.029 111.002  1.00  0.00     0.025 A 
ATOM     13  C   UNL     1     109.854 111.894 111.727  1.00  0.00     0.016 A 
ATOM     14  C   UNL     1     109.890 111.907 113.123  1.00  0.00     0.051 A 
ATOM     15  C   UNL     1     110.747 111.048 113.817  1.00  0.00     0.157 A 
ATOM     16  C   UNL     1     111.537 110.151 111.702  1.00  0.00     0.062 A 
ATOM     17  C   UNL     1     111.573 110.162 113.104  1.00  0.00     0.158 A 
BRANCH  15  18
ATOM     18  O   UNL     1     110.764 111.085 115.211  1.00  0.00    -0.504 OA
ATOM     19  H   UNL     1     109.933 110.916 115.764  1.00  0.00     0.293 HD
ENDBRANCH  15  18
BRANCH  17  20
ATOM     20  O   UNL     1     112.420 109.293 113.790  1.00  0.00    -0.504 OA
ATOM     21  H   UNL     1     113.354 109.570 114.067  1.00  0.00     0.293 HD
ENDBRANCH  17  20
ENDBRANCH   1  12
BRANCH   2  22
ATOM     22  O   UNL     1     108.733 109.482 109.529  1.00  0.00    -0.502 OA
ATOM     23  H   UNL     1     108.871 109.221 110.498  1.00  0.00     0.293 HD
ENDBRANCH   2  22
BRANCH   6  24
ATOM     24  O   UNL     1     109.627 110.802 104.447  1.00  0.00    -0.507 OA
ATOM     25  H   UNL     1     108.964 111.373 103.945  1.00  0.00     0.293 HD
ENDBRANCH   6  24
BRANCH   8  26
ATOM     26  O   UNL     1     113.678 113.333 104.936  1.00  0.00    -0.508 OA
ATOM     27  H   UNL     1     113.499 114.119 104.321  1.00  0.00     0.293 HD
ENDBRANCH   8  26
TORSDOF 6
ENDMDL
MODEL 9
REMARK VINA RESULT:    -9.022      2.046      7.317
REMARK INTER + INTRA:         -10.867
REMARK INTER:                 -10.552
REMARK INTRA:                  -0.315
REMARK UNBOUND:                 0.001
REMARK SMILES O=c1c(O)c(-c2ccc(O)c(O)c2)oc2cc(O)cc(O)c12
REMARK SMILES IDX 5 1 3 2 2 3 1 4 22 5 20 6 19 7 17 8 16 9 15 10 14 11 6 12
REMARK SMILES IDX 7 13 8 14 9 15 13 16 11 17 10 18 12 20 4 22 21 24 18 26
REMARK H PARENT 10 19 12 21 4 23 21 25 18 27
REMARK Flexibility Score: inf
ROOT
ATOM      1  C   UNL     1     111.199 111.499 113.345  1.00  0.00     0.180 A 
ATOM      2  C   UNL     1     112.427 112.041 112.929  1.00  0.00     0.208 A 
ATOM      3  C   UNL     1     112.760 112.007 111.565  1.00  0.00     0.238 A 
ATOM      4  O   UNL     1     113.836 112.542 111.192  1.00  0.00    -0.285 OA
ATOM      5  C   UNL     1     111.868 111.418 110.638  1.00  0.00     0.111 A 
ATOM      6  C   UNL     1     112.121 111.291 109.239  1.00  0.00     0.134 A 
ATOM      7  C   UNL     1     111.112 110.809 108.395  1.00  0.00     0.093 A 
ATOM      8  C   UNL     1     109.884 110.386 108.910  1.00  0.00     0.123 A 
ATOM      9  C   UNL     1     109.651 110.449 110.281  1.00  0.00     0.094 A 
ATOM     10  C   UNL     1     110.623 110.960 111.144  1.00  0.00     0.146 A 
ATOM     11  O   UNL     1     110.355 111.012 112.442  1.00  0.00    -0.452 OA
ENDROOT
BRANCH   1  12
ATOM     12  C   UNL     1     110.790 111.476 114.768  1.00  0.00     0.025 A 
ATOM     13  C   UNL     1     111.083 110.350 115.554  1.00  0.00     0.016 A 
ATOM     14  C   UNL     1     110.725 110.317 116.903  1.00  0.00     0.051 A 
ATOM     15  C   UNL     1     110.085 111.411 117.493  1.00  0.00     0.157 A 
ATOM     16  C   UNL     1     110.164 112.584 115.368  1.00  0.00     0.062 A 
ATOM     17  C   UNL     1     109.805 112.552 116.724  1.00  0.00     0.158 A 
BRANCH  15  18
ATOM     18  O   UNL     1     109.737 111.348 118.842  1.00  0.00    -0.504 OA
ATOM     19  H   UNL     1     109.349 110.511 119.260  1.00  0.00     0.293 HD
ENDBRANCH  15  18
BRANCH  17  20
ATOM     20  O   UNL     1     109.180 113.652 117.308  1.00  0.00    -0.504 OA
ATOM     21  H   UNL     1     108.856 113.631 118.268  1.00  0.00     0.293 HD
ENDBRANCH  17  20
ENDBRANCH   1  12
BRANCH   2  22
ATOM     22  O   UNL     1     113.283 112.638 113.859  1.00  0.00    -0.502 OA
ATOM     23  H   UNL     1     113.867 113.433 113.629  1.00  0.00     0.293 HD
ENDBRANCH   2  22
BRANCH   6  24
ATOM     24  O   UNL     1     113.345 111.598 108.636  1.00  0.00    -0.507 OA
ATOM     25  H   UNL     1     113.620 111.303 107.711  1.00  0.00     0.293 HD
ENDBRANCH   6  24
BRANCH   8  26
ATOM     26  O   UNL     1     108.893 109.892 108.065  1.00  0.00    -0.508 OA
ATOM     27  H   UNL     1     109.011 109.879 107.058  1.00  0.00     0.293 HD
ENDBRANCH   8  26
TORSDOF 6
ENDMDL
