MODEL 1
REMARK VINA RESULT:    -2.903      0.000      0.000
REMARK INTER + INTRA:         -13.166
REMARK INTER:                  -7.315
REMARK INTRA:                  -5.851
REMARK UNBOUND:                -5.851
REMARK SMILES CCCCCCCCCCCCCCCCCCCCCCCCCCCC(=O)[O-]
REMARK SMILES IDX 15 1 16 2 17 3 18 4 19 5 20 6 21 7 22 8 23 9 24 10 25 11
REMARK SMILES IDX 26 12 27 13 28 14 29 15 30 16 14 17 13 18 12 19 11 20 10 21
REMARK SMILES IDX 9 22 8 23 7 24 6 25 5 26 4 27 3 28 2 29 1 30
REMARK H PARENT
REMARK Flexibility Score: inf
ROOT
ATOM      1  C   UNL     1      52.371  52.172  50.071  1.00  0.00     0.000 C 
ENDROOT
BRANCH   1   2
ATOM      2  C   UNL     1      51.864  53.016  51.253  1.00  0.00     0.000 C 
BRANCH   2   3
ATOM      3  C   UNL     1      52.930  53.978  51.799  1.00  0.00     0.000 C 
BRANCH   3   4
ATOM      4  C   UNL     1      52.689  55.435  51.373  1.00  0.00     0.000 C 
BRANCH   4   5
ATOM      5  C   UNL     1      54.011  56.122  50.996  1.00  0.00     0.000 C 
BRANCH   5   6
ATOM      6  C   UNL     1      54.794  55.342  49.924  1.00  0.00     0.000 C 
BRANCH   6   7
ATOM      7  C   UNL     1      56.322  55.300  50.161  1.00  0.00     0.000 C 
BRANCH   7   8
ATOM      8  C   UNL     1      56.959  53.934  49.852  1.00  0.00     0.000 C 
BRANCH   8   9
ATOM      9  C   UNL     1      56.060  52.717  50.145  1.00  0.00     0.000 C 
BRANCH   9  10
ATOM     10  C   UNL     1      56.462  51.412  49.424  1.00  0.00     0.000 C 
BRANCH  10  11
ATOM     11  C   UNL     1      55.515  50.221  49.649  1.00  0.00     0.000 C 
BRANCH  11  12
ATOM     12  C   UNL     1      55.122  50.037  51.122  1.00  0.00     0.006 C 
BRANCH  12  13
ATOM     13  C   UNL     1      54.995  48.551  51.471  1.00  0.00     0.053 C 
BRANCH  13  14
ATOM     14  C   UNL     1      54.026  48.353  52.594  1.00  0.00     0.041 C 
ATOM     15  O   UNL     1      53.222  47.382  52.577  1.00  0.00    -0.550 OA
ATOM     16  O   UNL     1      54.003  49.247  53.656  1.00  0.00    -0.550 OA
ENDBRANCH  13  14
ENDBRANCH  12  13
ENDBRANCH  11  12
ENDBRANCH  10  11
ENDBRANCH   9  10
ENDBRANCH   8   9
ENDBRANCH   7   8
ENDBRANCH   6   7
ENDBRANCH   5   6
ENDBRANCH   4   5
ENDBRANCH   3   4
ENDBRANCH   2   3
ENDBRANCH   1   2
BRANCH   1  17
ATOM     17  C   UNL     1      52.310  52.929  48.730  1.00  0.00     0.000 C 
BRANCH  17  18
ATOM     18  C   UNL     1      53.242  52.388  47.628  1.00  0.00     0.000 C 
BRANCH  18  19
ATOM     19  C   UNL     1      54.038  53.458  46.859  1.00  0.00     0.000 C 
BRANCH  19  20
ATOM     20  C   UNL     1      55.360  52.913  46.290  1.00  0.00     0.000 C 
BRANCH  20  21
ATOM     21  C   UNL     1      56.225  54.001  45.632  1.00  0.00     0.000 C 
BRANCH  21  22
ATOM     22  C   UNL     1      56.326  55.325  46.416  1.00  0.00    -0.000 C 
BRANCH  22  23
ATOM     23  C   UNL     1      56.126  56.589  45.554  1.00  0.00    -0.000 C 
BRANCH  23  24
ATOM     24  C   UNL     1      55.190  56.342  44.361  1.00  0.00    -0.000 C 
BRANCH  24  25
ATOM     25  C   UNL     1      53.867  57.110  44.525  1.00  0.00    -0.000 C 
BRANCH  25  26
ATOM     26  C   UNL     1      52.664  56.183  44.768  1.00  0.00    -0.000 C 
BRANCH  26  27
ATOM     27  C   UNL     1      51.870  56.564  46.030  1.00  0.00    -0.000 C 
BRANCH  27  28
ATOM     28  C   UNL     1      52.765  56.713  47.276  1.00  0.00    -0.000 C 
BRANCH  28  29
ATOM     29  C   UNL     1      52.796  58.124  47.891  1.00  0.00    -0.003 C 
ATOM     30  C   UNL     1      54.215  58.643  48.125  1.00  0.00     0.004 C 
ENDBRANCH  28  29
ENDBRANCH  27  28
ENDBRANCH  26  27
ENDBRANCH  25  26
ENDBRANCH  24  25
ENDBRANCH  23  24
ENDBRANCH  22  23
ENDBRANCH  21  22
ENDBRANCH  20  21
ENDBRANCH  19  20
ENDBRANCH  18  19
ENDBRANCH  17  18
ENDBRANCH   1  17
TORSDOF 26
ENDMDL
MODEL 2
REMARK VINA RESULT:    -2.868      2.225      5.035
REMARK INTER + INTRA:         -13.078
REMARK INTER:                  -8.936
REMARK INTRA:                  -4.142
REMARK UNBOUND:                -5.851
REMARK SMILES CCCCCCCCCCCCCCCCCCCCCCCCCCCC(=O)[O-]
REMARK SMILES IDX 15 1 16 2 17 3 18 4 19 5 20 6 21 7 22 8 23 9 24 10 25 11
REMARK SMILES IDX 26 12 27 13 28 14 29 15 30 16 14 17 13 18 12 19 11 20 10 21
REMARK SMILES IDX 9 22 8 23 7 24 6 25 5 26 4 27 3 28 2 29 1 30
REMARK H PARENT
REMARK Flexibility Score: inf
ROOT
ATOM      1  C   UNL     1      56.039  52.801  47.746  1.00  0.00     0.000 C 
ENDROOT
BRANCH   1   2
ATOM      2  C   UNL     1      56.920  52.908  49.002  1.00  0.00     0.000 C 
BRANCH   2   3
ATOM      3  C   UNL     1      56.168  53.492  50.209  1.00  0.00     0.000 C 
BRANCH   3   4
ATOM      4  C   UNL     1      56.017  52.483  51.358  1.00  0.00     0.000 C 
BRANCH   4   5
ATOM      5  C   UNL     1      56.757  51.174  51.040  1.00  0.00     0.000 C 
BRANCH   5   6
ATOM      6  C   UNL     1      55.901  49.929  51.332  1.00  0.00     0.000 C 
BRANCH   6   7
ATOM      7  C   UNL     1      54.718  50.186  52.296  1.00  0.00     0.000 C 
BRANCH   7   8
ATOM      8  C   UNL     1      53.501  49.279  52.038  1.00  0.00     0.000 C 
BRANCH   8   9
ATOM      9  C   UNL     1      53.585  48.430  50.756  1.00  0.00     0.000 C 
BRANCH   9  10
ATOM     10  C   UNL     1      53.562  46.901  50.974  1.00  0.00     0.000 C 
BRANCH  10  11
ATOM     11  C   UNL     1      52.162  46.266  51.018  1.00  0.00     0.000 C 
BRANCH  11  12
ATOM     12  C   UNL     1      52.152  44.880  51.677  1.00  0.00     0.006 C 
BRANCH  12  13
ATOM     13  C   UNL     1      51.178  44.844  52.858  1.00  0.00     0.053 C 
BRANCH  13  14
ATOM     14  C   UNL     1      51.721  43.996  53.965  1.00  0.00     0.041 C 
ATOM     15  O   UNL     1      51.288  44.132  55.142  1.00  0.00    -0.550 OA
ATOM     16  O   UNL     1      52.712  43.060  53.700  1.00  0.00    -0.550 OA
ENDBRANCH  13  14
ENDBRANCH  12  13
ENDBRANCH  11  12
ENDBRANCH  10  11
ENDBRANCH   9  10
ENDBRANCH   8   9
ENDBRANCH   7   8
ENDBRANCH   6   7
ENDBRANCH   5   6
ENDBRANCH   4   5
ENDBRANCH   3   4
ENDBRANCH   2   3
ENDBRANCH   1   2
BRANCH   1  17
ATOM     17  C   UNL     1      54.767  51.965  47.981  1.00  0.00     0.000 C 
BRANCH  17  18
ATOM     18  C   UNL     1      53.464  52.586  47.439  1.00  0.00     0.000 C 
BRANCH  18  19
ATOM     19  C   UNL     1      52.317  52.700  48.461  1.00  0.00     0.000 C 
BRANCH  19  20
ATOM     20  C   UNL     1      52.654  52.024  49.802  1.00  0.00     0.000 C 
BRANCH  20  21
ATOM     21  C   UNL     1      51.943  52.677  50.999  1.00  0.00     0.000 C 
BRANCH  21  22
ATOM     22  C   UNL     1      52.739  53.789  51.710  1.00  0.00    -0.000 C 
BRANCH  22  23
ATOM     23  C   UNL     1      52.375  55.218  51.257  1.00  0.00    -0.000 C 
BRANCH  23  24
ATOM     24  C   UNL     1      53.578  55.967  50.661  1.00  0.00    -0.000 C 
BRANCH  24  25
ATOM     25  C   UNL     1      53.176  56.740  49.393  1.00  0.00    -0.000 C 
BRANCH  25  26
ATOM     26  C   UNL     1      53.787  56.146  48.112  1.00  0.00    -0.000 C 
BRANCH  26  27
ATOM     27  C   UNL     1      52.850  56.268  46.899  1.00  0.00    -0.000 C 
BRANCH  27  28
ATOM     28  C   UNL     1      53.492  55.757  45.594  1.00  0.00    -0.000 C 
BRANCH  28  29
ATOM     29  C   UNL     1      52.956  56.408  44.305  1.00  0.00    -0.003 C 
ATOM     30  C   UNL     1      51.429  56.423  44.233  1.00  0.00     0.004 C 
ENDBRANCH  28  29
ENDBRANCH  27  28
ENDBRANCH  26  27
ENDBRANCH  25  26
ENDBRANCH  24  25
ENDBRANCH  23  24
ENDBRANCH  22  23
ENDBRANCH  21  22
ENDBRANCH  20  21
ENDBRANCH  19  20
ENDBRANCH  18  19
ENDBRANCH  17  18
ENDBRANCH   1  17
TORSDOF 26
ENDMDL
MODEL 3
REMARK VINA RESULT:    -2.861      2.737      5.803
REMARK INTER + INTRA:         -13.062
REMARK INTER:                  -9.044
REMARK INTRA:                  -4.017
REMARK UNBOUND:                -5.851
REMARK SMILES CCCCCCCCCCCCCCCCCCCCCCCCCCCC(=O)[O-]
REMARK SMILES IDX 15 1 16 2 17 3 18 4 19 5 20 6 21 7 22 8 23 9 24 10 25 11
REMARK SMILES IDX 26 12 27 13 28 14 29 15 30 16 14 17 13 18 12 19 11 20 10 21
REMARK SMILES IDX 9 22 8 23 7 24 6 25 5 26 4 27 3 28 2 29 1 30
REMARK H PARENT
REMARK Flexibility Score: inf
ROOT
ATOM      1  C   UNL     1      56.211  53.446  48.605  1.00  0.00     0.000 C 
ENDROOT
BRANCH   1   2
ATOM      2  C   UNL     1      56.084  53.581  50.132  1.00  0.00     0.000 C 
BRANCH   2   3
ATOM      3  C   UNL     1      55.939  52.225  50.840  1.00  0.00     0.000 C 
BRANCH   3   4
ATOM      4  C   UNL     1      56.011  51.037  49.868  1.00  0.00     0.000 C 
BRANCH   4   5
ATOM      5  C   UNL     1      55.268  49.818  50.435  1.00  0.00     0.000 C 
BRANCH   5   6
ATOM      6  C   UNL     1      54.812  50.032  51.890  1.00  0.00     0.000 C 
BRANCH   6   7
ATOM      7  C   UNL     1      53.513  49.281  52.263  1.00  0.00     0.000 C 
BRANCH   7   8
ATOM      8  C   UNL     1      53.111  48.196  51.248  1.00  0.00     0.000 C 
BRANCH   8   9
ATOM      9  C   UNL     1      53.079  46.762  51.810  1.00  0.00     0.000 C 
BRANCH   9  10
ATOM     10  C   UNL     1      51.898  45.891  51.329  1.00  0.00     0.000 C 
BRANCH  10  11
ATOM     11  C   UNL     1      51.645  44.617  52.153  1.00  0.00     0.000 C 
BRANCH  11  12
ATOM     12  C   UNL     1      51.494  44.894  53.656  1.00  0.00     0.006 C 
BRANCH  12  13
ATOM     13  C   UNL     1      50.876  43.690  54.373  1.00  0.00     0.053 C 
BRANCH  13  14
ATOM     14  C   UNL     1      51.914  42.647  54.644  1.00  0.00     0.041 C 
ATOM     15  O   UNL     1      51.585  41.433  54.737  1.00  0.00    -0.550 OA
ATOM     16  O   UNL     1      53.243  43.015  54.803  1.00  0.00    -0.550 OA
ENDBRANCH  13  14
ENDBRANCH  12  13
ENDBRANCH  11  12
ENDBRANCH  10  11
ENDBRANCH   9  10
ENDBRANCH   8   9
ENDBRANCH   7   8
ENDBRANCH   6   7
ENDBRANCH   5   6
ENDBRANCH   4   5
ENDBRANCH   3   4
ENDBRANCH   2   3
ENDBRANCH   1   2
BRANCH   1  17
ATOM     17  C   UNL     1      54.944  53.905  47.860  1.00  0.00     0.000 C 
BRANCH  17  18
ATOM     18  C   UNL     1      54.244  52.815  47.023  1.00  0.00     0.000 C 
BRANCH  18  19
ATOM     19  C   UNL     1      52.938  52.264  47.624  1.00  0.00     0.000 C 
BRANCH  19  20
ATOM     20  C   UNL     1      52.461  53.074  48.841  1.00  0.00     0.000 C 
BRANCH  20  21
ATOM     21  C   UNL     1      52.374  52.234  50.126  1.00  0.00     0.000 C 
BRANCH  21  22
ATOM     22  C   UNL     1      51.847  52.982  51.367  1.00  0.00    -0.000 C 
BRANCH  22  23
ATOM     23  C   UNL     1      52.941  53.375  52.382  1.00  0.00    -0.000 C 
BRANCH  23  24
ATOM     24  C   UNL     1      53.280  54.873  52.326  1.00  0.00    -0.000 C 
BRANCH  24  25
ATOM     25  C   UNL     1      52.290  55.631  51.426  1.00  0.00    -0.000 C 
BRANCH  25  26
ATOM     26  C   UNL     1      52.423  57.159  51.547  1.00  0.00    -0.000 C 
BRANCH  26  27
ATOM     27  C   UNL     1      53.018  57.802  50.281  1.00  0.00    -0.000 C 
BRANCH  27  28
ATOM     28  C   UNL     1      53.231  56.787  49.140  1.00  0.00    -0.000 C 
BRANCH  28  29
ATOM     29  C   UNL     1      52.899  57.313  47.731  1.00  0.00    -0.003 C 
ATOM     30  C   UNL     1      52.640  58.819  47.700  1.00  0.00     0.004 C 
ENDBRANCH  28  29
ENDBRANCH  27  28
ENDBRANCH  26  27
ENDBRANCH  25  26
ENDBRANCH  24  25
ENDBRANCH  23  24
ENDBRANCH  22  23
ENDBRANCH  21  22
ENDBRANCH  20  21
ENDBRANCH  19  20
ENDBRANCH  18  19
ENDBRANCH  17  18
ENDBRANCH   1  17
TORSDOF 26
ENDMDL
MODEL 4
REMARK VINA RESULT:    -2.833      1.394      3.227
REMARK INTER + INTRA:         -12.989
REMARK INTER:                  -7.470
REMARK INTRA:                  -5.519
REMARK UNBOUND:                -5.851
REMARK SMILES CCCCCCCCCCCCCCCCCCCCCCCCCCCC(=O)[O-]
REMARK SMILES IDX 15 1 16 2 17 3 18 4 19 5 20 6 21 7 22 8 23 9 24 10 25 11
REMARK SMILES IDX 26 12 27 13 28 14 29 15 30 16 14 17 13 18 12 19 11 20 10 21
REMARK SMILES IDX 9 22 8 23 7 24 6 25 5 26 4 27 3 28 2 29 1 30
REMARK H PARENT
REMARK Flexibility Score: inf
ROOT
ATOM      1  C   UNL     1      54.028  53.859  47.612  1.00  0.00     0.000 C 
ENDROOT
BRANCH   1   2
ATOM      2  C   UNL     1      53.309  52.500  47.667  1.00  0.00     0.000 C 
BRANCH   2   3
ATOM      3  C   UNL     1      52.295  52.409  48.818  1.00  0.00     0.000 C 
BRANCH   3   4
ATOM      4  C   UNL     1      52.372  53.610  49.773  1.00  0.00     0.000 C 
BRANCH   4   5
ATOM      5  C   UNL     1      52.005  53.195  51.207  1.00  0.00     0.000 C 
BRANCH   5   6
ATOM      6  C   UNL     1      53.240  53.071  52.117  1.00  0.00     0.000 C 
BRANCH   6   7
ATOM      7  C   UNL     1      54.561  53.535  51.458  1.00  0.00     0.000 C 
BRANCH   7   8
ATOM      8  C   UNL     1      55.693  52.495  51.540  1.00  0.00     0.000 C 
BRANCH   8   9
ATOM      9  C   UNL     1      55.835  51.591  50.301  1.00  0.00     0.000 C 
BRANCH   9  10
ATOM     10  C   UNL     1      55.566  50.090  50.545  1.00  0.00     0.000 C 
BRANCH  10  11
ATOM     11  C   UNL     1      54.217  49.572  50.019  1.00  0.00     0.000 C 
BRANCH  11  12
ATOM     12  C   UNL     1      53.098  49.639  51.068  1.00  0.00     0.006 C 
BRANCH  12  13
ATOM     13  C   UNL     1      53.512  48.918  52.354  1.00  0.00     0.053 C 
BRANCH  13  14
ATOM     14  C   UNL     1      53.231  47.452  52.251  1.00  0.00     0.041 C 
ATOM     15  O   UNL     1      52.284  47.035  51.531  1.00  0.00    -0.550 OA
ATOM     16  O   UNL     1      54.010  46.545  52.959  1.00  0.00    -0.550 OA
ENDBRANCH  13  14
ENDBRANCH  12  13
ENDBRANCH  11  12
ENDBRANCH  10  11
ENDBRANCH   9  10
ENDBRANCH   8   9
ENDBRANCH   7   8
ENDBRANCH   6   7
ENDBRANCH   5   6
ENDBRANCH   4   5
ENDBRANCH   3   4
ENDBRANCH   2   3
ENDBRANCH   1   2
BRANCH   1  17
ATOM     17  C   UNL     1      55.498  53.737  47.169  1.00  0.00     0.000 C 
BRANCH  17  18
ATOM     18  C   UNL     1      56.384  54.958  47.489  1.00  0.00     0.000 C 
BRANCH  18  19
ATOM     19  C   UNL     1      56.767  55.826  46.276  1.00  0.00     0.000 C 
BRANCH  19  20
ATOM     20  C   UNL     1      56.143  55.314  44.965  1.00  0.00     0.000 C 
BRANCH  20  21
ATOM     21  C   UNL     1      55.155  56.313  44.340  1.00  0.00     0.000 C 
BRANCH  21  22
ATOM     22  C   UNL     1      53.664  56.000  44.580  1.00  0.00    -0.000 C 
BRANCH  22  23
ATOM     23  C   UNL     1      53.017  56.825  45.712  1.00  0.00    -0.000 C 
BRANCH  23  24
ATOM     24  C   UNL     1      53.838  58.075  46.068  1.00  0.00    -0.000 C 
BRANCH  24  25
ATOM     25  C   UNL     1      53.521  58.557  47.494  1.00  0.00    -0.000 C 
BRANCH  25  26
ATOM     26  C   UNL     1      54.179  57.686  48.578  1.00  0.00    -0.000 C 
BRANCH  26  27
ATOM     27  C   UNL     1      53.173  57.201  49.637  1.00  0.00    -0.000 C 
BRANCH  27  28
ATOM     28  C   UNL     1      53.637  57.489  51.078  1.00  0.00    -0.000 C 
BRANCH  28  29
ATOM     29  C   UNL     1      52.836  56.766  52.177  1.00  0.00    -0.003 C 
ATOM     30  C   UNL     1      53.617  56.613  53.483  1.00  0.00     0.004 C 
ENDBRANCH  28  29
ENDBRANCH  27  28
ENDBRANCH  26  27
ENDBRANCH  25  26
ENDBRANCH  24  25
ENDBRANCH  23  24
ENDBRANCH  22  23
ENDBRANCH  21  22
ENDBRANCH  20  21
ENDBRANCH  19  20
ENDBRANCH  18  19
ENDBRANCH  17  18
ENDBRANCH   1  17
TORSDOF 26
ENDMDL
MODEL 5
REMARK VINA RESULT:    -2.816      1.587      4.034
REMARK INTER + INTRA:         -12.948
REMARK INTER:                  -8.363
REMARK INTRA:                  -4.585
REMARK UNBOUND:                -5.851
REMARK SMILES CCCCCCCCCCCCCCCCCCCCCCCCCCCC(=O)[O-]
REMARK SMILES IDX 15 1 16 2 17 3 18 4 19 5 20 6 21 7 22 8 23 9 24 10 25 11
REMARK SMILES IDX 26 12 27 13 28 14 29 15 30 16 14 17 13 18 12 19 11 20 10 21
REMARK SMILES IDX 9 22 8 23 7 24 6 25 5 26 4 27 3 28 2 29 1 30
REMARK H PARENT
REMARK Flexibility Score: inf
ROOT
ATOM      1  C   UNL     1      53.853  54.064  51.933  1.00  0.00     0.000 C 
ENDROOT
BRANCH   1   2
ATOM      2  C   UNL     1      52.770  53.016  52.242  1.00  0.00     0.000 C 
BRANCH   2   3
ATOM      3  C   UNL     1      51.943  52.630  51.005  1.00  0.00     0.000 C 
BRANCH   3   4
ATOM      4  C   UNL     1      52.402  53.361  49.734  1.00  0.00     0.000 C 
BRANCH   4   5
ATOM      5  C   UNL     1      52.387  52.416  48.523  1.00  0.00     0.000 C 
BRANCH   5   6
ATOM      6  C   UNL     1      53.711  52.447  47.738  1.00  0.00     0.000 C 
BRANCH   6   7
ATOM      7  C   UNL     1      54.913  51.841  48.500  1.00  0.00     0.000 C 
BRANCH   7   8
ATOM      8  C   UNL     1      54.565  50.573  49.300  1.00  0.00     0.000 C 
BRANCH   8   9
ATOM      9  C   UNL     1      55.069  50.564  50.755  1.00  0.00     0.000 C 
BRANCH   9  10
ATOM     10  C   UNL     1      54.288  49.645  51.719  1.00  0.00     0.000 C 
BRANCH  10  11
ATOM     11  C   UNL     1      53.092  48.907  51.095  1.00  0.00     0.000 C 
BRANCH  11  12
ATOM     12  C   UNL     1      53.429  47.470  50.670  1.00  0.00     0.006 C 
BRANCH  12  13
ATOM     13  C   UNL     1      52.315  46.504  51.084  1.00  0.00     0.053 C 
BRANCH  13  14
ATOM     14  C   UNL     1      52.477  46.093  52.514  1.00  0.00     0.041 C 
ATOM     15  O   UNL     1      51.465  45.822  53.216  1.00  0.00    -0.550 OA
ATOM     16  O   UNL     1      53.745  46.019  53.075  1.00  0.00    -0.550 OA
ENDBRANCH  13  14
ENDBRANCH  12  13
ENDBRANCH  11  12
ENDBRANCH  10  11
ENDBRANCH   9  10
ENDBRANCH   8   9
ENDBRANCH   7   8
ENDBRANCH   6   7
ENDBRANCH   5   6
ENDBRANCH   4   5
ENDBRANCH   3   4
ENDBRANCH   2   3
ENDBRANCH   1   2
BRANCH   1  17
ATOM     17  C   UNL     1      54.006  55.109  53.054  1.00  0.00     0.000 C 
BRANCH  17  18
ATOM     18  C   UNL     1      53.522  56.529  52.697  1.00  0.00     0.000 C 
BRANCH  18  19
ATOM     19  C   UNL     1      52.459  56.600  51.586  1.00  0.00     0.000 C 
BRANCH  19  20
ATOM     20  C   UNL     1      52.397  57.985  50.918  1.00  0.00     0.000 C 
BRANCH  20  21
ATOM     21  C   UNL     1      53.108  58.027  49.555  1.00  0.00     0.000 C 
BRANCH  21  22
ATOM     22  C   UNL     1      53.506  56.654  48.978  1.00  0.00    -0.000 C 
BRANCH  22  23
ATOM     23  C   UNL     1      54.989  56.285  49.186  1.00  0.00    -0.000 C 
BRANCH  23  24
ATOM     24  C   UNL     1      55.826  56.484  47.912  1.00  0.00    -0.000 C 
BRANCH  24  25
ATOM     25  C   UNL     1      56.257  55.133  47.316  1.00  0.00    -0.000 C 
BRANCH  25  26
ATOM     26  C   UNL     1      56.090  55.074  45.788  1.00  0.00    -0.000 C 
BRANCH  26  27
ATOM     27  C   UNL     1      54.614  55.003  45.357  1.00  0.00    -0.000 C 
BRANCH  27  28
ATOM     28  C   UNL     1      54.158  56.254  44.581  1.00  0.00    -0.000 C 
BRANCH  28  29
ATOM     29  C   UNL     1      53.084  57.103  45.286  1.00  0.00    -0.003 C 
ATOM     30  C   UNL     1      51.833  56.302  45.651  1.00  0.00     0.004 C 
ENDBRANCH  28  29
ENDBRANCH  27  28
ENDBRANCH  26  27
ENDBRANCH  25  26
ENDBRANCH  24  25
ENDBRANCH  23  24
ENDBRANCH  22  23
ENDBRANCH  21  22
ENDBRANCH  20  21
ENDBRANCH  19  20
ENDBRANCH  18  19
ENDBRANCH  17  18
ENDBRANCH   1  17
TORSDOF 26
ENDMDL
MODEL 6
REMARK VINA RESULT:    -2.803      3.703      8.825
REMARK INTER + INTRA:         -12.915
REMARK INTER:                  -8.747
REMARK INTRA:                  -4.168
REMARK UNBOUND:                -5.851
REMARK SMILES CCCCCCCCCCCCCCCCCCCCCCCCCCCC(=O)[O-]
REMARK SMILES IDX 15 1 16 2 17 3 18 4 19 5 20 6 21 7 22 8 23 9 24 10 25 11
REMARK SMILES IDX 26 12 27 13 28 14 29 15 30 16 14 17 13 18 12 19 11 20 10 21
REMARK SMILES IDX 9 22 8 23 7 24 6 25 5 26 4 27 3 28 2 29 1 30
REMARK H PARENT
REMARK Flexibility Score: inf
ROOT
ATOM      1  C   UNL     1      54.726  52.772  47.737  1.00  0.00     0.000 C 
ENDROOT
BRANCH   1   2
ATOM      2  C   UNL     1      53.256  52.356  47.552  1.00  0.00     0.000 C 
BRANCH   2   3
ATOM      3  C   UNL     1      52.350  52.848  48.691  1.00  0.00     0.000 C 
BRANCH   3   4
ATOM      4  C   UNL     1      52.537  52.045  49.988  1.00  0.00     0.000 C 
BRANCH   4   5
ATOM      5  C   UNL     1      52.021  52.835  51.201  1.00  0.00     0.000 C 
BRANCH   5   6
ATOM      6  C   UNL     1      52.929  54.025  51.556  1.00  0.00     0.000 C 
BRANCH   6   7
ATOM      7  C   UNL     1      52.238  55.405  51.444  1.00  0.00     0.000 C 
BRANCH   7   8
ATOM      8  C   UNL     1      53.056  56.446  50.658  1.00  0.00     0.000 C 
BRANCH   8   9
ATOM      9  C   UNL     1      54.083  55.855  49.674  1.00  0.00     0.000 C 
BRANCH   9  10
ATOM     10  C   UNL     1      54.122  56.523  48.282  1.00  0.00     0.000 C 
BRANCH  10  11
ATOM     11  C   UNL     1      53.015  56.080  47.312  1.00  0.00     0.000 C 
BRANCH  11  12
ATOM     12  C   UNL     1      53.009  56.881  46.002  1.00  0.00     0.006 C 
BRANCH  12  13
ATOM     13  C   UNL     1      53.610  56.059  44.857  1.00  0.00     0.053 C 
BRANCH  13  14
ATOM     14  C   UNL     1      55.019  56.482  44.586  1.00  0.00     0.041 C 
ATOM     15  O   UNL     1      55.363  57.686  44.742  1.00  0.00    -0.550 OA
ATOM     16  O   UNL     1      55.953  55.550  44.153  1.00  0.00    -0.550 OA
ENDBRANCH  13  14
ENDBRANCH  12  13
ENDBRANCH  11  12
ENDBRANCH  10  11
ENDBRANCH   9  10
ENDBRANCH   8   9
ENDBRANCH   7   8
ENDBRANCH   6   7
ENDBRANCH   5   6
ENDBRANCH   4   5
ENDBRANCH   3   4
ENDBRANCH   2   3
ENDBRANCH   1   2
BRANCH   1  17
ATOM     17  C   UNL     1      55.674  51.565  47.865  1.00  0.00     0.000 C 
BRANCH  17  18
ATOM     18  C   UNL     1      56.088  51.207  49.307  1.00  0.00     0.000 C 
BRANCH  18  19
ATOM     19  C   UNL     1      56.184  52.398  50.277  1.00  0.00     0.000 C 
BRANCH  19  20
ATOM     20  C   UNL     1      56.004  51.978  51.746  1.00  0.00     0.000 C 
BRANCH  20  21
ATOM     21  C   UNL     1      55.582  50.507  51.903  1.00  0.00     0.000 C 
BRANCH  21  22
ATOM     22  C   UNL     1      54.383  50.263  52.840  1.00  0.00    -0.000 C 
BRANCH  22  23
ATOM     23  C   UNL     1      53.533  49.028  52.475  1.00  0.00    -0.000 C 
BRANCH  23  24
ATOM     24  C   UNL     1      53.469  48.790  50.958  1.00  0.00    -0.000 C 
BRANCH  24  25
ATOM     25  C   UNL     1      53.577  47.292  50.627  1.00  0.00    -0.000 C 
BRANCH  25  26
ATOM     26  C   UNL     1      53.191  46.390  51.812  1.00  0.00    -0.000 C 
BRANCH  26  27
ATOM     27  C   UNL     1      52.504  45.088  51.364  1.00  0.00    -0.000 C 
BRANCH  27  28
ATOM     28  C   UNL     1      51.235  44.770  52.181  1.00  0.00    -0.000 C 
BRANCH  28  29
ATOM     29  C   UNL     1      51.409  44.846  53.709  1.00  0.00    -0.003 C 
ATOM     30  C   UNL     1      50.997  43.558  54.422  1.00  0.00     0.004 C 
ENDBRANCH  28  29
ENDBRANCH  27  28
ENDBRANCH  26  27
ENDBRANCH  25  26
ENDBRANCH  24  25
ENDBRANCH  23  24
ENDBRANCH  22  23
ENDBRANCH  21  22
ENDBRANCH  20  21
ENDBRANCH  19  20
ENDBRANCH  18  19
ENDBRANCH  17  18
ENDBRANCH   1  17
TORSDOF 26
ENDMDL
MODEL 7
REMARK VINA RESULT:    -2.793      3.607      7.192
REMARK INTER + INTRA:         -12.890
REMARK INTER:                  -7.359
REMARK INTRA:                  -5.530
REMARK UNBOUND:                -5.851
REMARK SMILES CCCCCCCCCCCCCCCCCCCCCCCCCCCC(=O)[O-]
REMARK SMILES IDX 15 1 16 2 17 3 18 4 19 5 20 6 21 7 22 8 23 9 24 10 25 11
REMARK SMILES IDX 26 12 27 13 28 14 29 15 30 16 14 17 13 18 12 19 11 20 10 21
REMARK SMILES IDX 9 22 8 23 7 24 6 25 5 26 4 27 3 28 2 29 1 30
REMARK H PARENT
REMARK Flexibility Score: inf
ROOT
ATOM      1  C   UNL     1      53.541  52.673  47.308  1.00  0.00     0.000 C 
ENDROOT
BRANCH   1   2
ATOM      2  C   UNL     1      54.892  52.634  48.044  1.00  0.00     0.000 C 
BRANCH   2   3
ATOM      3  C   UNL     1      55.999  53.394  47.297  1.00  0.00     0.000 C 
BRANCH   3   4
ATOM      4  C   UNL     1      56.915  54.186  48.243  1.00  0.00     0.000 C 
BRANCH   4   5
ATOM      5  C   UNL     1      56.154  54.630  49.501  1.00  0.00     0.000 C 
BRANCH   5   6
ATOM      6  C   UNL     1      56.059  56.162  49.621  1.00  0.00     0.000 C 
BRANCH   6   7
ATOM      7  C   UNL     1      55.289  56.841  48.465  1.00  0.00     0.000 C 
BRANCH   7   8
ATOM      8  C   UNL     1      53.849  56.324  48.292  1.00  0.00     0.000 C 
BRANCH   8   9
ATOM      9  C   UNL     1      52.819  57.396  47.887  1.00  0.00     0.000 C 
BRANCH   9  10
ATOM     10  C   UNL     1      52.055  57.114  46.575  1.00  0.00     0.000 C 
BRANCH  10  11
ATOM     11  C   UNL     1      52.526  55.874  45.796  1.00  0.00     0.000 C 
BRANCH  11  12
ATOM     12  C   UNL     1      53.287  56.227  44.510  1.00  0.00     0.006 C 
BRANCH  12  13
ATOM     13  C   UNL     1      54.797  56.054  44.706  1.00  0.00     0.053 C 
BRANCH  13  14
ATOM     14  C   UNL     1      55.469  57.386  44.827  1.00  0.00     0.041 C 
ATOM     15  O   UNL     1      54.782  58.439  44.922  1.00  0.00    -0.550 OA
ATOM     16  O   UNL     1      56.855  57.466  44.824  1.00  0.00    -0.550 OA
ENDBRANCH  13  14
ENDBRANCH  12  13
ENDBRANCH  11  12
ENDBRANCH  10  11
ENDBRANCH   9  10
ENDBRANCH   8   9
ENDBRANCH   7   8
ENDBRANCH   6   7
ENDBRANCH   5   6
ENDBRANCH   4   5
ENDBRANCH   3   4
ENDBRANCH   2   3
ENDBRANCH   1   2
BRANCH   1  17
ATOM     17  C   UNL     1      52.345  52.441  48.250  1.00  0.00     0.000 C 
BRANCH  17  18
ATOM     18  C   UNL     1      52.373  53.255  49.560  1.00  0.00     0.000 C 
BRANCH  18  19
ATOM     19  C   UNL     1      52.202  52.431  50.849  1.00  0.00     0.000 C 
BRANCH  19  20
ATOM     20  C   UNL     1      52.422  50.926  50.619  1.00  0.00     0.000 C 
BRANCH  20  21
ATOM     21  C   UNL     1      53.535  50.339  51.503  1.00  0.00     0.000 C 
BRANCH  21  22
ATOM     22  C   UNL     1      54.719  51.285  51.784  1.00  0.00    -0.000 C 
BRANCH  22  23
ATOM     23  C   UNL     1      55.242  51.232  53.235  1.00  0.00    -0.000 C 
BRANCH  23  24
ATOM     24  C   UNL     1      55.247  52.615  53.906  1.00  0.00    -0.000 C 
BRANCH  24  25
ATOM     25  C   UNL     1      55.003  53.731  52.875  1.00  0.00    -0.000 C 
BRANCH  25  26
ATOM     26  C   UNL     1      53.891  54.705  53.302  1.00  0.00    -0.000 C 
BRANCH  26  27
ATOM     27  C   UNL     1      53.839  55.964  52.419  1.00  0.00    -0.000 C 
BRANCH  27  28
ATOM     28  C   UNL     1      52.496  56.118  51.678  1.00  0.00    -0.000 C 
BRANCH  28  29
ATOM     29  C   UNL     1      51.858  57.516  51.769  1.00  0.00    -0.003 C 
ATOM     30  C   UNL     1      52.831  58.642  51.417  1.00  0.00     0.004 C 
ENDBRANCH  28  29
ENDBRANCH  27  28
ENDBRANCH  26  27
ENDBRANCH  25  26
ENDBRANCH  24  25
ENDBRANCH  23  24
ENDBRANCH  22  23
ENDBRANCH  21  22
ENDBRANCH  20  21
ENDBRANCH  19  20
ENDBRANCH  18  19
ENDBRANCH  17  18
ENDBRANCH   1  17
TORSDOF 26
ENDMDL
MODEL 8
REMARK VINA RESULT:    -2.773      3.161      6.759
REMARK INTER + INTRA:         -12.838
REMARK INTER:                  -7.096
REMARK INTRA:                  -5.742
REMARK UNBOUND:                -5.851
REMARK SMILES CCCCCCCCCCCCCCCCCCCCCCCCCCCC(=O)[O-]
REMARK SMILES IDX 15 1 16 2 17 3 18 4 19 5 20 6 21 7 22 8 23 9 24 10 25 11
REMARK SMILES IDX 26 12 27 13 28 14 29 15 30 16 14 17 13 18 12 19 11 20 10 21
REMARK SMILES IDX 9 22 8 23 7 24 6 25 5 26 4 27 3 28 2 29 1 30
REMARK H PARENT
REMARK Flexibility Score: inf
ROOT
ATOM      1  C   UNL     1      53.059  53.260  47.404  1.00  0.00     0.000 C 
ENDROOT
BRANCH   1   2
ATOM      2  C   UNL     1      52.680  53.630  48.849  1.00  0.00     0.000 C 
BRANCH   2   3
ATOM      3  C   UNL     1      52.531  52.400  49.759  1.00  0.00     0.000 C 
BRANCH   3   4
ATOM      4  C   UNL     1      52.154  52.772  51.201  1.00  0.00     0.000 C 
BRANCH   4   5
ATOM      5  C   UNL     1      53.387  52.740  52.117  1.00  0.00     0.000 C 
BRANCH   5   6
ATOM      6  C   UNL     1      53.452  53.956  53.058  1.00  0.00     0.000 C 
BRANCH   6   7
ATOM      7  C   UNL     1      54.029  55.233  52.404  1.00  0.00     0.000 C 
BRANCH   7   8
ATOM      8  C   UNL     1      52.986  56.344  52.186  1.00  0.00     0.000 C 
BRANCH   8   9
ATOM      9  C   UNL     1      52.671  56.659  50.712  1.00  0.00     0.000 C 
BRANCH   9  10
ATOM     10  C   UNL     1      53.434  57.863  50.116  1.00  0.00     0.000 C 
BRANCH  10  11
ATOM     11  C   UNL     1      53.120  58.173  48.643  1.00  0.00     0.000 C 
BRANCH  11  12
ATOM     12  C   UNL     1      53.191  56.933  47.741  1.00  0.00     0.006 C 
BRANCH  12  13
ATOM     13  C   UNL     1      53.495  57.330  46.293  1.00  0.00     0.053 C 
BRANCH  13  14
ATOM     14  C   UNL     1      52.549  56.655  45.350  1.00  0.00     0.041 C 
ATOM     15  O   UNL     1      51.402  56.306  45.742  1.00  0.00    -0.550 OA
ATOM     16  O   UNL     1      52.936  56.401  44.041  1.00  0.00    -0.550 OA
ENDBRANCH  13  14
ENDBRANCH  12  13
ENDBRANCH  11  12
ENDBRANCH  10  11
ENDBRANCH   9  10
ENDBRANCH   8   9
ENDBRANCH   7   8
ENDBRANCH   6   7
ENDBRANCH   5   6
ENDBRANCH   4   5
ENDBRANCH   3   4
ENDBRANCH   2   3
ENDBRANCH   1   2
BRANCH   1  17
ATOM     17  C   UNL     1      54.237  52.270  47.335  1.00  0.00     0.000 C 
BRANCH  17  18
ATOM     18  C   UNL     1      55.394  52.691  46.406  1.00  0.00     0.000 C 
BRANCH  18  19
ATOM     19  C   UNL     1      55.294  54.119  45.839  1.00  0.00     0.000 C 
BRANCH  19  20
ATOM     20  C   UNL     1      56.606  54.907  45.994  1.00  0.00     0.000 C 
BRANCH  20  21
ATOM     21  C   UNL     1      57.210  54.799  47.404  1.00  0.00     0.000 C 
BRANCH  21  22
ATOM     22  C   UNL     1      56.411  55.505  48.518  1.00  0.00    -0.000 C 
BRANCH  22  23
ATOM     23  C   UNL     1      55.911  54.563  49.633  1.00  0.00    -0.000 C 
BRANCH  23  24
ATOM     24  C   UNL     1      57.051  54.071  50.539  1.00  0.00    -0.000 C 
BRANCH  24  25
ATOM     25  C   UNL     1      56.884  52.580  50.878  1.00  0.00    -0.000 C 
BRANCH  25  26
ATOM     26  C   UNL     1      56.943  51.675  49.634  1.00  0.00    -0.000 C 
BRANCH  26  27
ATOM     27  C   UNL     1      56.677  50.197  49.967  1.00  0.00    -0.000 C 
BRANCH  27  28
ATOM     28  C   UNL     1      55.183  49.826  49.881  1.00  0.00    -0.000 C 
BRANCH  28  29
ATOM     29  C   UNL     1      54.502  49.548  51.234  1.00  0.00    -0.003 C 
ATOM     30  C   UNL     1      53.112  48.928  51.088  1.00  0.00     0.004 C 
ENDBRANCH  28  29
ENDBRANCH  27  28
ENDBRANCH  26  27
ENDBRANCH  25  26
ENDBRANCH  24  25
ENDBRANCH  23  24
ENDBRANCH  22  23
ENDBRANCH  21  22
ENDBRANCH  20  21
ENDBRANCH  19  20
ENDBRANCH  18  19
ENDBRANCH  17  18
ENDBRANCH   1  17
TORSDOF 26
ENDMDL
MODEL 9
REMARK VINA RESULT:    -2.757      2.679      7.024
REMARK INTER + INTRA:         -12.798
REMARK INTER:                  -7.288
REMARK INTRA:                  -5.510
REMARK UNBOUND:                -5.851
REMARK SMILES CCCCCCCCCCCCCCCCCCCCCCCCCCCC(=O)[O-]
REMARK SMILES IDX 15 1 16 2 17 3 18 4 19 5 20 6 21 7 22 8 23 9 24 10 25 11
REMARK SMILES IDX 26 12 27 13 28 14 29 15 30 16 14 17 13 18 12 19 11 20 10 21
REMARK SMILES IDX 9 22 8 23 7 24 6 25 5 26 4 27 3 28 2 29 1 30
REMARK H PARENT
REMARK Flexibility Score: inf
ROOT
ATOM      1  C   UNL     1      55.746  54.105  45.750  1.00  0.00     0.000 C 
ENDROOT
BRANCH   1   2
ATOM      2  C   UNL     1      56.011  55.530  45.235  1.00  0.00     0.000 C 
BRANCH   2   3
ATOM      3  C   UNL     1      54.760  56.421  45.276  1.00  0.00     0.000 C 
BRANCH   3   4
ATOM      4  C   UNL     1      53.456  55.619  45.144  1.00  0.00     0.000 C 
BRANCH   4   5
ATOM      5  C   UNL     1      52.539  55.862  46.353  1.00  0.00     0.000 C 
BRANCH   5   6
ATOM      6  C   UNL     1      52.742  57.256  46.973  1.00  0.00     0.000 C 
BRANCH   6   7
ATOM      7  C   UNL     1      53.042  57.237  48.491  1.00  0.00     0.000 C 
BRANCH   7   8
ATOM      8  C   UNL     1      54.294  56.423  48.864  1.00  0.00     0.000 C 
BRANCH   8   9
ATOM      9  C   UNL     1      55.608  57.227  48.887  1.00  0.00     0.000 C 
BRANCH   9  10
ATOM     10  C   UNL     1      56.560  56.903  50.059  1.00  0.00     0.000 C 
BRANCH  10  11
ATOM     11  C   UNL     1      55.875  56.396  51.338  1.00  0.00     0.000 C 
BRANCH  11  12
ATOM     12  C   UNL     1      55.181  57.514  52.130  1.00  0.00     0.006 C 
BRANCH  12  13
ATOM     13  C   UNL     1      53.922  56.989  52.826  1.00  0.00     0.053 C 
BRANCH  13  14
ATOM     14  C   UNL     1      52.692  57.439  52.103  1.00  0.00     0.041 C 
ATOM     15  O   UNL     1      52.527  58.658  51.827  1.00  0.00    -0.550 OA
ATOM     16  O   UNL     1      51.721  56.513  51.742  1.00  0.00    -0.550 OA
ENDBRANCH  13  14
ENDBRANCH  12  13
ENDBRANCH  11  12
ENDBRANCH  10  11
ENDBRANCH   9  10
ENDBRANCH   8   9
ENDBRANCH   7   8
ENDBRANCH   6   7
ENDBRANCH   5   6
ENDBRANCH   4   5
ENDBRANCH   3   4
ENDBRANCH   2   3
ENDBRANCH   1   2
BRANCH   1  17
ATOM     17  C   UNL     1      56.436  53.822  47.098  1.00  0.00     0.000 C 
BRANCH  17  18
ATOM     18  C   UNL     1      55.551  53.132  48.156  1.00  0.00     0.000 C 
BRANCH  18  19
ATOM     19  C   UNL     1      54.591  52.060  47.610  1.00  0.00     0.000 C 
BRANCH  19  20
ATOM     20  C   UNL     1      53.133  52.550  47.550  1.00  0.00     0.000 C 
BRANCH  20  21
ATOM     21  C   UNL     1      52.358  52.290  48.852  1.00  0.00     0.000 C 
BRANCH  21  22
ATOM     22  C   UNL     1      52.351  53.459  49.858  1.00  0.00    -0.000 C 
BRANCH  22  23
ATOM     23  C   UNL     1      51.878  53.073  51.275  1.00  0.00    -0.000 C 
BRANCH  23  24
ATOM     24  C   UNL     1      53.004  53.175  52.316  1.00  0.00    -0.000 C 
BRANCH  24  25
ATOM     25  C   UNL     1      54.362  53.425  51.639  1.00  0.00    -0.000 C 
BRANCH  25  26
ATOM     26  C   UNL     1      55.386  52.314  51.928  1.00  0.00    -0.000 C 
BRANCH  26  27
ATOM     27  C   UNL     1      54.719  50.973  52.280  1.00  0.00    -0.000 C 
BRANCH  27  28
ATOM     28  C   UNL     1      54.388  50.126  51.036  1.00  0.00    -0.000 C 
BRANCH  28  29
ATOM     29  C   UNL     1      53.004  49.451  51.057  1.00  0.00    -0.003 C 
ATOM     30  C   UNL     1      53.083  47.926  51.125  1.00  0.00     0.004 C 
ENDBRANCH  28  29
ENDBRANCH  27  28
ENDBRANCH  26  27
ENDBRANCH  25  26
ENDBRANCH  24  25
ENDBRANCH  23  24
ENDBRANCH  22  23
ENDBRANCH  21  22
ENDBRANCH  20  21
ENDBRANCH  19  20
ENDBRANCH  18  19
ENDBRANCH  17  18
ENDBRANCH   1  17
TORSDOF 26
ENDMDL
