MODEL 1
REMARK VINA RESULT:    -4.348      0.000      0.000
REMARK INTER + INTRA:          -7.608
REMARK INTER:                  -5.873
REMARK INTRA:                  -1.734
REMARK UNBOUND:                -1.734
REMARK SMILES CC(=O)CCC=C(C)CCC=C(C)C
REMARK SMILES IDX 7 1 6 2 8 3 9 4 10 5 11 6 13 7 12 8 14 9 5 10 4 11 2 12 3 13
REMARK SMILES IDX 1 14
REMARK H PARENT
REMARK Flexibility Score: inf
ROOT
ATOM      1  C   UNL     1       9.994 -18.300  18.135  1.00  0.00    -0.077 C 
ATOM      2  C   UNL     1       8.697 -18.323  18.520  1.00  0.00    -0.028 C 
ATOM      3  C   UNL     1      10.385 -19.078  16.904  1.00  0.00     0.039 C 
ENDROOT
BRANCH   1   4
ATOM      4  C   UNL     1      11.072 -17.559  18.906  1.00  0.00     0.034 C 
BRANCH   4   5
ATOM      5  C   UNL     1      12.133 -18.514  19.472  1.00  0.00     0.032 C 
BRANCH   5   6
ATOM      6  C   UNL     1      11.855 -18.848  20.919  1.00  0.00    -0.028 C 
ATOM      7  C   UNL     1      11.064 -20.222  22.820  1.00  0.00     0.039 C 
ATOM      8  C   UNL     1      11.222 -19.966  21.343  1.00  0.00    -0.080 C 
ATOM      9  C   UNL     1      10.675 -20.992  20.385  1.00  0.00     0.039 C 
ENDBRANCH   5   6
ENDBRANCH   4   5
ENDBRANCH   1   4
BRANCH   2  10
ATOM     10  C   UNL     1       8.124 -17.548  19.682  1.00  0.00     0.035 C 
BRANCH  10  11
ATOM     11  C   UNL     1       7.694 -18.479  20.823  1.00  0.00     0.079 C 
BRANCH  11  12
ATOM     12  C   UNL     1       8.128 -17.948  22.166  1.00  0.00     0.130 C 
ATOM     13  O   UNL     1       7.643 -18.418  23.184  1.00  0.00    -0.300 OA
ATOM     14  C   UNL     1       9.147 -16.854  22.279  1.00  0.00     0.087 C 
ENDBRANCH  11  12
ENDBRANCH  10  11
ENDBRANCH   2  10
TORSDOF 6
ENDMDL
MODEL 2
REMARK VINA RESULT:    -4.311      1.668      2.897
REMARK INTER + INTRA:          -7.557
REMARK INTER:                  -5.972
REMARK INTRA:                  -1.585
REMARK UNBOUND:                -1.734
REMARK SMILES CC(=O)CCC=C(C)CCC=C(C)C
REMARK SMILES IDX 7 1 6 2 8 3 9 4 10 5 11 6 13 7 12 8 14 9 5 10 4 11 2 12 3 13
REMARK SMILES IDX 1 14
REMARK H PARENT
REMARK Flexibility Score: inf
ROOT
ATOM      1  C   UNL     1      12.502 -18.144  20.098  1.00  0.00    -0.077 C 
ATOM      2  C   UNL     1      11.861 -18.133  18.906  1.00  0.00    -0.028 C 
ATOM      3  C   UNL     1      13.938 -18.603  20.129  1.00  0.00     0.039 C 
ENDROOT
BRANCH   1   4
ATOM      4  C   UNL     1      11.830 -17.751  21.402  1.00  0.00     0.034 C 
BRANCH   4   5
ATOM      5  C   UNL     1      11.864 -18.889  22.432  1.00  0.00     0.032 C 
BRANCH   5   6
ATOM      6  C   UNL     1      10.593 -19.707  22.389  1.00  0.00    -0.028 C 
ATOM      7  C   UNL     1       9.139 -21.611  21.767  1.00  0.00     0.039 C 
ATOM      8  C   UNL     1      10.434 -20.845  21.675  1.00  0.00    -0.080 C 
ATOM      9  C   UNL     1      11.522 -21.399  20.791  1.00  0.00     0.039 C 
ENDBRANCH   5   6
ENDBRANCH   4   5
ENDBRANCH   1   4
BRANCH   2  10
ATOM     10  C   UNL     1      10.451 -17.639  18.686  1.00  0.00     0.035 C 
BRANCH  10  11
ATOM     11  C   UNL     1       9.428 -18.771  18.836  1.00  0.00     0.079 C 
BRANCH  11  12
ATOM     12  C   UNL     1       8.136 -18.276  19.437  1.00  0.00     0.130 C 
ATOM     13  O   UNL     1       7.092 -18.417  18.820  1.00  0.00    -0.300 OA
ATOM     14  C   UNL     1       8.107 -17.613  20.782  1.00  0.00     0.087 C 
ENDBRANCH  11  12
ENDBRANCH  10  11
ENDBRANCH   2  10
TORSDOF 6
ENDMDL
MODEL 3
REMARK VINA RESULT:    -4.306      1.810      4.148
REMARK INTER + INTRA:          -7.551
REMARK INTER:                  -6.422
REMARK INTRA:                  -1.129
REMARK UNBOUND:                -1.734
REMARK SMILES CC(=O)CCC=C(C)CCC=C(C)C
REMARK SMILES IDX 7 1 6 2 8 3 9 4 10 5 11 6 13 7 12 8 14 9 5 10 4 11 2 12 3 13
REMARK SMILES IDX 1 14
REMARK H PARENT
REMARK Flexibility Score: inf
ROOT
ATOM      1  C   UNL     1      12.224 -18.769  21.434  1.00  0.00    -0.077 C 
ATOM      2  C   UNL     1      11.473 -19.808  21.864  1.00  0.00    -0.028 C 
ATOM      3  C   UNL     1      12.401 -17.589  22.356  1.00  0.00     0.039 C 
ENDROOT
BRANCH   1   4
ATOM      4  C   UNL     1      12.863 -18.724  20.056  1.00  0.00     0.034 C 
BRANCH   4   5
ATOM      5  C   UNL     1      12.248 -17.629  19.173  1.00  0.00     0.032 C 
BRANCH   5   6
ATOM      6  C   UNL     1      10.740 -17.633  19.264  1.00  0.00    -0.028 C 
ATOM      7  C   UNL     1       8.431 -18.273  18.645  1.00  0.00     0.039 C 
ATOM      8  C   UNL     1       9.919 -18.287  18.411  1.00  0.00    -0.080 C 
ATOM      9  C   UNL     1      10.442 -19.061  17.227  1.00  0.00     0.039 C 
ENDBRANCH   5   6
ENDBRANCH   4   5
ENDBRANCH   1   4
BRANCH   2  10
ATOM     10  C   UNL     1      11.253 -21.092  21.100  1.00  0.00     0.035 C 
BRANCH  10  11
ATOM     11  C   UNL     1       9.803 -21.217  20.615  1.00  0.00     0.079 C 
BRANCH  11  12
ATOM     12  C   UNL     1       8.916 -21.829  21.669  1.00  0.00     0.130 C 
ATOM     13  O   UNL     1       7.779 -21.407  21.819  1.00  0.00    -0.300 OA
ATOM     14  C   UNL     1       9.399 -22.951  22.539  1.00  0.00     0.087 C 
ENDBRANCH  11  12
ENDBRANCH  10  11
ENDBRANCH   2  10
TORSDOF 6
ENDMDL
MODEL 4
REMARK VINA RESULT:    -4.204      2.544      5.229
REMARK INTER + INTRA:          -7.413
REMARK INTER:                  -5.915
REMARK INTRA:                  -1.499
REMARK UNBOUND:                -1.734
REMARK SMILES CC(=O)CCC=C(C)CCC=C(C)C
REMARK SMILES IDX 7 1 6 2 8 3 9 4 10 5 11 6 13 7 12 8 14 9 5 10 4 11 2 12 3 13
REMARK SMILES IDX 1 14
REMARK H PARENT
REMARK Flexibility Score: inf
ROOT
ATOM      1  C   UNL     1      11.023 -20.345  22.728  1.00  0.00    -0.077 C 
ATOM      2  C   UNL     1      11.415 -19.082  23.010  1.00  0.00    -0.028 C 
ATOM      3  C   UNL     1      10.305 -21.124  23.800  1.00  0.00     0.039 C 
ENDROOT
BRANCH   1   4
ATOM      4  C   UNL     1      11.306 -21.021  21.397  1.00  0.00     0.034 C 
BRANCH   4   5
ATOM      5  C   UNL     1      10.072 -21.033  20.484  1.00  0.00     0.032 C 
BRANCH   5   6
ATOM      6  C   UNL     1      10.229 -20.062  19.336  1.00  0.00    -0.028 C 
ATOM      7  C   UNL     1       9.931 -17.936  18.104  1.00  0.00     0.039 C 
ATOM      8  C   UNL     1       9.643 -18.845  19.272  1.00  0.00    -0.080 C 
ATOM      9  C   UNL     1       8.715 -18.341  20.347  1.00  0.00     0.039 C 
ENDBRANCH   5   6
ENDBRANCH   4   5
ENDBRANCH   1   4
BRANCH   2  10
ATOM     10  C   UNL     1      12.081 -18.143  22.033  1.00  0.00     0.035 C 
BRANCH  10  11
ATOM     11  C   UNL     1      13.610 -18.207  22.141  1.00  0.00     0.079 C 
BRANCH  11  12
ATOM     12  C   UNL     1      14.244 -18.581  20.825  1.00  0.00     0.130 C 
ATOM     13  O   UNL     1      15.341 -19.118  20.816  1.00  0.00    -0.300 OA
ATOM     14  C   UNL     1      13.553 -18.308  19.522  1.00  0.00     0.087 C 
ENDBRANCH  11  12
ENDBRANCH  10  11
ENDBRANCH   2  10
TORSDOF 6
ENDMDL
MODEL 5
REMARK VINA RESULT:    -4.184      1.859      3.684
REMARK INTER + INTRA:          -7.386
REMARK INTER:                  -5.985
REMARK INTRA:                  -1.401
REMARK UNBOUND:                -1.734
REMARK SMILES CC(=O)CCC=C(C)CCC=C(C)C
REMARK SMILES IDX 7 1 6 2 8 3 9 4 10 5 11 6 13 7 12 8 14 9 5 10 4 11 2 12 3 13
REMARK SMILES IDX 1 14
REMARK H PARENT
REMARK Flexibility Score: inf
ROOT
ATOM      1  C   UNL     1       8.884 -18.906  19.799  1.00  0.00    -0.077 C 
ATOM      2  C   UNL     1       9.065 -19.979  20.603  1.00  0.00    -0.028 C 
ATOM      3  C   UNL     1       7.845 -17.888  20.196  1.00  0.00     0.039 C 
ENDROOT
BRANCH   1   4
ATOM      4  C   UNL     1       9.653 -18.702  18.505  1.00  0.00     0.034 C 
BRANCH   4   5
ATOM      5  C   UNL     1      10.725 -17.611  18.639  1.00  0.00     0.032 C 
BRANCH   5   6
ATOM      6  C   UNL     1      12.068 -18.202  19.001  1.00  0.00    -0.028 C 
ATOM      7  C   UNL     1      13.896 -18.933  20.500  1.00  0.00     0.039 C 
ATOM      8  C   UNL     1      12.572 -18.256  20.255  1.00  0.00    -0.080 C 
ATOM      9  C   UNL     1      11.845 -17.674  21.440  1.00  0.00     0.039 C 
ENDBRANCH   5   6
ENDBRANCH   4   5
ENDBRANCH   1   4
BRANCH   2  10
ATOM     10  C   UNL     1      10.106 -21.053  20.392  1.00  0.00     0.035 C 
BRANCH  10  11
ATOM     11  C   UNL     1      10.928 -21.298  21.664  1.00  0.00     0.079 C 
BRANCH  11  12
ATOM     12  C   UNL     1      10.123 -22.020  22.714  1.00  0.00     0.130 C 
ATOM     13  O   UNL     1      10.192 -21.659  23.879  1.00  0.00    -0.300 OA
ATOM     14  C   UNL     1       9.235 -23.175  22.358  1.00  0.00     0.087 C 
ENDBRANCH  11  12
ENDBRANCH  10  11
ENDBRANCH   2  10
TORSDOF 6
ENDMDL
MODEL 6
REMARK VINA RESULT:    -4.105      4.184      6.133
REMARK INTER + INTRA:          -7.279
REMARK INTER:                  -6.751
REMARK INTRA:                  -0.527
REMARK UNBOUND:                -1.734
REMARK SMILES CC(=O)CCC=C(C)CCC=C(C)C
REMARK SMILES IDX 7 1 6 2 8 3 9 4 10 5 11 6 13 7 12 8 14 9 5 10 4 11 2 12 3 13
REMARK SMILES IDX 1 14
REMARK H PARENT
REMARK Flexibility Score: inf
ROOT
ATOM      1  C   UNL     1       9.844 -22.038  22.553  1.00  0.00    -0.077 C 
ATOM      2  C   UNL     1       9.318 -23.165  23.087  1.00  0.00    -0.028 C 
ATOM      3  C   UNL     1      10.803 -21.233  23.393  1.00  0.00     0.039 C 
ENDROOT
BRANCH   1   4
ATOM      4  C   UNL     1       9.483 -21.535  21.166  1.00  0.00     0.034 C 
BRANCH   4   5
ATOM      5  C   UNL     1      10.697 -20.940  20.437  1.00  0.00     0.032 C 
BRANCH   5   6
ATOM      6  C   UNL     1      10.269 -20.041  19.301  1.00  0.00    -0.028 C 
ATOM      7  C   UNL     1       9.825 -17.897  18.146  1.00  0.00     0.039 C 
ATOM      8  C   UNL     1      10.200 -18.692  19.370  1.00  0.00    -0.080 C 
ATOM      9  C   UNL     1      10.508 -17.936  20.637  1.00  0.00     0.039 C 
ENDBRANCH   5   6
ENDBRANCH   4   5
ENDBRANCH   1   4
BRANCH   2  10
ATOM     10  C   UNL     1       8.401 -24.121  22.362  1.00  0.00     0.035 C 
BRANCH  10  11
ATOM     11  C   UNL     1       8.099 -25.364  23.208  1.00  0.00     0.079 C 
BRANCH  11  12
ATOM     12  C   UNL     1       6.618 -25.640  23.281  1.00  0.00     0.130 C 
ATOM     13  O   UNL     1       6.025 -26.010  22.279  1.00  0.00    -0.300 OA
ATOM     14  C   UNL     1       5.857 -25.472  24.562  1.00  0.00     0.087 C 
ENDBRANCH  11  12
ENDBRANCH  10  11
ENDBRANCH   2  10
TORSDOF 6
ENDMDL
MODEL 7
REMARK VINA RESULT:    -4.096      2.797      3.907
REMARK INTER + INTRA:          -7.267
REMARK INTER:                  -6.329
REMARK INTRA:                  -0.938
REMARK UNBOUND:                -1.734
REMARK SMILES CC(=O)CCC=C(C)CCC=C(C)C
REMARK SMILES IDX 7 1 6 2 8 3 9 4 10 5 11 6 13 7 12 8 14 9 5 10 4 11 2 12 3 13
REMARK SMILES IDX 1 14
REMARK H PARENT
REMARK Flexibility Score: inf
ROOT
ATOM      1  C   UNL     1      10.277 -18.991  18.633  1.00  0.00    -0.077 C 
ATOM      2  C   UNL     1      11.286 -18.093  18.572  1.00  0.00    -0.028 C 
ATOM      3  C   UNL     1       9.591 -19.380  17.348  1.00  0.00     0.039 C 
ENDROOT
BRANCH   1   4
ATOM      4  C   UNL     1       9.784 -19.594  19.937  1.00  0.00     0.034 C 
BRANCH   4   5
ATOM      5  C   UNL     1      10.461 -20.937  20.242  1.00  0.00     0.032 C 
BRANCH   5   6
ATOM      6  C   UNL     1      10.744 -21.088  21.719  1.00  0.00    -0.028 C 
ATOM      7  C   UNL     1      10.492 -22.032  23.993  1.00  0.00     0.039 C 
ATOM      8  C   UNL     1      10.073 -21.918  22.550  1.00  0.00    -0.080 C 
ATOM      9  C   UNL     1       8.916 -22.763  22.081  1.00  0.00     0.039 C 
ENDBRANCH   5   6
ENDBRANCH   4   5
ENDBRANCH   1   4
BRANCH   2  10
ATOM     10  C   UNL     1      12.122 -17.647  19.748  1.00  0.00     0.035 C 
BRANCH  10  11
ATOM     11  C   UNL     1      13.396 -18.490  19.885  1.00  0.00     0.079 C 
BRANCH  11  12
ATOM     12  C   UNL     1      13.965 -18.413  21.279  1.00  0.00     0.130 C 
ATOM     13  O   UNL     1      15.171 -18.522  21.444  1.00  0.00    -0.300 OA
ATOM     14  C   UNL     1      13.080 -18.204  22.471  1.00  0.00     0.087 C 
ENDBRANCH  11  12
ENDBRANCH  10  11
ENDBRANCH   2  10
TORSDOF 6
ENDMDL
MODEL 8
REMARK VINA RESULT:    -4.031      4.674      6.565
REMARK INTER + INTRA:          -7.180
REMARK INTER:                  -6.659
REMARK INTRA:                  -0.520
REMARK UNBOUND:                -1.734
REMARK SMILES CC(=O)CCC=C(C)CCC=C(C)C
REMARK SMILES IDX 7 1 6 2 8 3 9 4 10 5 11 6 13 7 12 8 14 9 5 10 4 11 2 12 3 13
REMARK SMILES IDX 1 14
REMARK H PARENT
REMARK Flexibility Score: inf
ROOT
ATOM      1  C   UNL     1       9.659 -22.579  22.871  1.00  0.00    -0.077 C 
ATOM      2  C   UNL     1      10.293 -21.620  22.158  1.00  0.00    -0.028 C 
ATOM      3  C   UNL     1      10.023 -22.743  24.324  1.00  0.00     0.039 C 
ENDROOT
BRANCH   1   4
ATOM      4  C   UNL     1       8.629 -23.516  22.263  1.00  0.00     0.034 C 
BRANCH   4   5
ATOM      5  C   UNL     1       8.567 -24.859  23.003  1.00  0.00     0.032 C 
BRANCH   5   6
ATOM      6  C   UNL     1       7.227 -25.531  22.810  1.00  0.00    -0.028 C 
ATOM      7  C   UNL     1       4.886 -26.125  23.353  1.00  0.00     0.039 C 
ATOM      8  C   UNL     1       6.201 -25.470  23.689  1.00  0.00    -0.080 C 
ATOM      9  C   UNL     1       6.313 -24.744  25.006  1.00  0.00     0.039 C 
ENDBRANCH   5   6
ENDBRANCH   4   5
ENDBRANCH   1   4
BRANCH   2  10
ATOM     10  C   UNL     1      10.002 -21.276  20.717  1.00  0.00     0.035 C 
BRANCH  10  11
ATOM     11  C   UNL     1      10.868 -20.108  20.229  1.00  0.00     0.079 C 
BRANCH  11  12
ATOM     12  C   UNL     1      10.177 -19.319  19.146  1.00  0.00     0.130 C 
ATOM     13  O   UNL     1      10.033 -19.814  18.039  1.00  0.00    -0.300 OA
ATOM     14  C   UNL     1       9.659 -17.935  19.401  1.00  0.00     0.087 C 
ENDBRANCH  11  12
ENDBRANCH  10  11
ENDBRANCH   2  10
TORSDOF 6
ENDMDL
MODEL 9
REMARK VINA RESULT:    -4.005      1.759      3.775
REMARK INTER + INTRA:          -7.145
REMARK INTER:                  -6.074
REMARK INTRA:                  -1.071
REMARK UNBOUND:                -1.734
REMARK SMILES CC(=O)CCC=C(C)CCC=C(C)C
REMARK SMILES IDX 7 1 6 2 8 3 9 4 10 5 11 6 13 7 12 8 14 9 5 10 4 11 2 12 3 13
REMARK SMILES IDX 1 14
REMARK H PARENT
REMARK Flexibility Score: inf
ROOT
ATOM      1  C   UNL     1      11.845 -19.571  21.294  1.00  0.00    -0.077 C 
ATOM      2  C   UNL     1      11.278 -19.314  22.495  1.00  0.00    -0.028 C 
ATOM      3  C   UNL     1      11.608 -20.923  20.670  1.00  0.00     0.039 C 
ENDROOT
BRANCH   1   4
ATOM      4  C   UNL     1      12.735 -18.576  20.569  1.00  0.00     0.034 C 
BRANCH   4   5
ATOM      5  C   UNL     1      12.189 -18.225  19.177  1.00  0.00     0.032 C 
BRANCH   5   6
ATOM      6  C   UNL     1      10.753 -17.762  19.251  1.00  0.00    -0.028 C 
ATOM      7  C   UNL     1       8.337 -17.762  18.712  1.00  0.00     0.039 C 
ATOM      8  C   UNL     1       9.744 -18.258  18.499  1.00  0.00    -0.080 C 
ATOM      9  C   UNL     1       9.969 -19.318  17.451  1.00  0.00     0.039 C 
ENDBRANCH   5   6
ENDBRANCH   4   5
ENDBRANCH   1   4
BRANCH   2  10
ATOM     10  C   UNL     1      11.356 -17.994  23.224  1.00  0.00     0.035 C 
BRANCH  10  11
ATOM     11  C   UNL     1      10.158 -17.096  22.894  1.00  0.00     0.079 C 
BRANCH  11  12
ATOM     12  C   UNL     1      10.379 -15.680  23.365  1.00  0.00     0.130 C 
ATOM     13  O   UNL     1       9.448 -14.890  23.352  1.00  0.00    -0.300 OA
ATOM     14  C   UNL     1      11.721 -15.222  23.851  1.00  0.00     0.087 C 
ENDBRANCH  11  12
ENDBRANCH  10  11
ENDBRANCH   2  10
TORSDOF 6
ENDMDL
