MODEL 1
REMARK VINA RESULT:    -3.171      0.000      0.000
REMARK INTER + INTRA:          -3.828
REMARK INTER:                  -3.819
REMARK INTRA:                  -0.009
REMARK UNBOUND:                -0.009
REMARK SMILES CCCCCO
REMARK SMILES IDX 4 1 3 2 2 3 1 4 5 5 6 6
REMARK H PARENT 6 7
REMARK Flexibility Score: inf
ROOT
ATOM      1  C   UNL     1       8.528 -24.526  56.844  1.00  0.00     0.028 C 
ENDROOT
BRANCH   1   2
ATOM      2  C   UNL     1       9.213 -23.160  56.992  1.00  0.00     0.002 C 
BRANCH   2   3
ATOM      3  C   UNL     1       8.292 -22.159  57.701  1.00  0.00    -0.003 C 
ATOM      4  C   UNL     1       9.082 -21.250  58.636  1.00  0.00     0.004 C 
ENDBRANCH   2   3
ENDBRANCH   1   2
BRANCH   1   5
ATOM      5  C   UNL     1       9.308 -25.453  55.904  1.00  0.00     0.156 C 
BRANCH   5   6
ATOM      6  O   UNL     1      10.415 -26.013  56.557  1.00  0.00    -0.396 OA
ATOM      7  H   UNL     1      10.679 -25.371  57.267  1.00  0.00     0.210 HD
ENDBRANCH   5   6
ENDBRANCH   1   5
TORSDOF 4
ENDMDL
MODEL 2
REMARK VINA RESULT:    -3.008     14.467     15.243
REMARK INTER + INTRA:          -3.632
REMARK INTER:                  -3.580
REMARK INTRA:                  -0.052
REMARK UNBOUND:                -0.009
REMARK SMILES CCCCCO
REMARK SMILES IDX 4 1 3 2 2 3 1 4 5 5 6 6
REMARK H PARENT 6 7
REMARK Flexibility Score: inf
ROOT
ATOM      1  C   UNL     1       1.302 -32.522  47.357  1.00  0.00     0.028 C 
ENDROOT
BRANCH   1   2
ATOM      2  C   UNL     1       1.813 -31.133  47.765  1.00  0.00     0.002 C 
BRANCH   2   3
ATOM      3  C   UNL     1       0.897 -30.030  47.223  1.00  0.00    -0.003 C 
ATOM      4  C   UNL     1       1.705 -28.828  46.744  1.00  0.00     0.004 C 
ENDBRANCH   2   3
ENDBRANCH   1   2
BRANCH   1   5
ATOM      5  C   UNL     1       0.476 -32.465  46.067  1.00  0.00     0.156 C 
BRANCH   5   6
ATOM      6  O   UNL     1       0.580 -33.667  45.351  1.00  0.00    -0.396 OA
ATOM      7  H   UNL     1       0.103 -33.526  44.492  1.00  0.00     0.210 HD
ENDBRANCH   5   6
ENDBRANCH   1   5
TORSDOF 4
ENDMDL
MODEL 3
REMARK VINA RESULT:    -2.986     14.357     16.013
REMARK INTER + INTRA:          -3.605
REMARK INTER:                  -3.571
REMARK INTRA:                  -0.035
REMARK UNBOUND:                -0.009
REMARK SMILES CCCCCO
REMARK SMILES IDX 4 1 3 2 2 3 1 4 5 5 6 6
REMARK H PARENT 6 7
REMARK Flexibility Score: inf
ROOT
ATOM      1  C   UNL     1       1.304 -32.320  47.293  1.00  0.00     0.028 C 
ENDROOT
BRANCH   1   2
ATOM      2  C   UNL     1      -0.040 -32.108  46.583  1.00  0.00     0.002 C 
BRANCH   2   3
ATOM      3  C   UNL     1       0.163 -31.900  45.077  1.00  0.00    -0.003 C 
ATOM      4  C   UNL     1       0.081 -33.223  44.322  1.00  0.00     0.004 C 
ENDBRANCH   2   3
ENDBRANCH   1   2
BRANCH   1   5
ATOM      5  C   UNL     1       1.771 -31.050  48.015  1.00  0.00     0.156 C 
BRANCH   5   6
ATOM      6  O   UNL     1       2.917 -30.520  47.406  1.00  0.00    -0.396 OA
ATOM      7  H   UNL     1       2.600 -29.923  46.678  1.00  0.00     0.210 HD
ENDBRANCH   5   6
ENDBRANCH   1   5
TORSDOF 4
ENDMDL
MODEL 4
REMARK VINA RESULT:    -2.856     18.310     19.196
REMARK INTER + INTRA:          -3.449
REMARK INTER:                  -3.439
REMARK INTRA:                  -0.010
REMARK UNBOUND:                -0.009
REMARK SMILES CCCCCO
REMARK SMILES IDX 4 1 3 2 2 3 1 4 5 5 6 6
REMARK H PARENT 6 7
REMARK Flexibility Score: inf
ROOT
ATOM      1  C   UNL     1       7.496 -37.808  45.845  1.00  0.00     0.028 C 
ENDROOT
BRANCH   1   2
ATOM      2  C   UNL     1       8.284 -39.060  46.254  1.00  0.00     0.002 C 
BRANCH   2   3
ATOM      3  C   UNL     1       9.723 -38.998  45.727  1.00  0.00    -0.003 C 
ATOM      4  C   UNL     1      10.091 -40.276  44.980  1.00  0.00     0.004 C 
ENDBRANCH   2   3
ENDBRANCH   1   2
BRANCH   1   5
ATOM      5  C   UNL     1       6.013 -38.121  45.615  1.00  0.00     0.156 C 
BRANCH   5   6
ATOM      6  O   UNL     1       5.420 -37.161  44.781  1.00  0.00    -0.396 OA
ATOM      7  H   UNL     1       5.682 -36.274  45.141  1.00  0.00     0.210 HD
ENDBRANCH   5   6
ENDBRANCH   1   5
TORSDOF 4
ENDMDL
MODEL 5
REMARK VINA RESULT:    -2.834     14.251     15.121
REMARK INTER + INTRA:          -3.422
REMARK INTER:                  -3.319
REMARK INTRA:                  -0.103
REMARK UNBOUND:                -0.009
REMARK SMILES CCCCCO
REMARK SMILES IDX 4 1 3 2 2 3 1 4 5 5 6 6
REMARK H PARENT 6 7
REMARK Flexibility Score: inf
ROOT
ATOM      1  C   UNL     1       1.412 -30.033  45.753  1.00  0.00     0.028 C 
ENDROOT
BRANCH   1   2
ATOM      2  C   UNL     1       2.291 -30.229  46.996  1.00  0.00     0.002 C 
BRANCH   2   3
ATOM      3  C   UNL     1       1.706 -31.308  47.916  1.00  0.00    -0.003 C 
ATOM      4  C   UNL     1       1.026 -32.410  47.111  1.00  0.00     0.004 C 
ENDBRANCH   2   3
ENDBRANCH   1   2
BRANCH   1   5
ATOM      5  C   UNL     1       2.240 -30.052  44.463  1.00  0.00     0.156 C 
BRANCH   5   6
ATOM      6  O   UNL     1       3.204 -31.069  44.501  1.00  0.00    -0.396 OA
ATOM      7  H   UNL     1       3.425 -31.285  43.557  1.00  0.00     0.210 HD
ENDBRANCH   5   6
ENDBRANCH   1   5
TORSDOF 4
ENDMDL
MODEL 6
REMARK VINA RESULT:    -2.818     13.896     14.215
REMARK INTER + INTRA:          -3.403
REMARK INTER:                  -3.312
REMARK INTRA:                  -0.091
REMARK UNBOUND:                -0.009
REMARK SMILES CCCCCO
REMARK SMILES IDX 4 1 3 2 2 3 1 4 5 5 6 6
REMARK H PARENT 6 7
REMARK Flexibility Score: inf
ROOT
ATOM      1  C   UNL     1       0.534 -30.721  47.063  1.00  0.00     0.028 C 
ENDROOT
BRANCH   1   2
ATOM      2  C   UNL     1       0.359 -29.246  47.452  1.00  0.00     0.002 C 
BRANCH   2   3
ATOM      3  C   UNL     1       0.287 -28.355  46.206  1.00  0.00    -0.003 C 
ATOM      4  C   UNL     1       1.591 -27.593  45.998  1.00  0.00     0.004 C 
ENDBRANCH   2   3
ENDBRANCH   1   2
BRANCH   1   5
ATOM      5  C   UNL     1       1.793 -31.328  47.692  1.00  0.00     0.156 C 
BRANCH   5   6
ATOM      6  O   UNL     1       2.907 -30.503  47.481  1.00  0.00    -0.396 OA
ATOM      7  H   UNL     1       2.856 -30.193  46.539  1.00  0.00     0.210 HD
ENDBRANCH   5   6
ENDBRANCH   1   5
TORSDOF 4
ENDMDL
MODEL 7
REMARK VINA RESULT:    -2.800      2.787      3.176
REMARK INTER + INTRA:          -3.381
REMARK INTER:                  -3.303
REMARK INTRA:                  -0.078
REMARK UNBOUND:                -0.009
REMARK SMILES CCCCCO
REMARK SMILES IDX 4 1 3 2 2 3 1 4 5 5 6 6
REMARK H PARENT 6 7
REMARK Flexibility Score: inf
ROOT
ATOM      1  C   UNL     1       9.342 -21.400  55.528  1.00  0.00     0.028 C 
ENDROOT
BRANCH   1   2
ATOM      2  C   UNL     1       8.214 -20.981  56.481  1.00  0.00     0.002 C 
BRANCH   2   3
ATOM      3  C   UNL     1       8.357 -21.678  57.840  1.00  0.00    -0.003 C 
ATOM      4  C   UNL     1       9.585 -22.582  57.869  1.00  0.00     0.004 C 
ENDBRANCH   2   3
ENDBRANCH   1   2
BRANCH   1   5
ATOM      5  C   UNL     1       8.801 -22.135  54.296  1.00  0.00     0.156 C 
BRANCH   5   6
ATOM      6  O   UNL     1       7.452 -22.479  54.470  1.00  0.00    -0.396 OA
ATOM      7  H   UNL     1       7.430 -23.455  54.650  1.00  0.00     0.210 HD
ENDBRANCH   5   6
ENDBRANCH   1   5
TORSDOF 4
ENDMDL
MODEL 8
REMARK VINA RESULT:    -2.741     15.134     15.813
REMARK INTER + INTRA:          -3.311
REMARK INTER:                  -3.293
REMARK INTRA:                  -0.018
REMARK UNBOUND:                -0.009
REMARK SMILES CCCCCO
REMARK SMILES IDX 4 1 3 2 2 3 1 4 5 5 6 6
REMARK H PARENT 6 7
REMARK Flexibility Score: inf
ROOT
ATOM      1  C   UNL     1       2.000 -37.231  59.915  1.00  0.00     0.028 C 
ENDROOT
BRANCH   1   2
ATOM      2  C   UNL     1       2.884 -38.452  59.622  1.00  0.00     0.002 C 
BRANCH   2   3
ATOM      3  C   UNL     1       4.331 -38.199  60.062  1.00  0.00    -0.003 C 
ATOM      4  C   UNL     1       5.227 -37.904  58.864  1.00  0.00     0.004 C 
ENDBRANCH   2   3
ENDBRANCH   1   2
BRANCH   1   5
ATOM      5  C   UNL     1       1.727 -37.075  61.416  1.00  0.00     0.156 C 
BRANCH   5   6
ATOM      6  O   UNL     1       1.016 -35.895  61.677  1.00  0.00    -0.396 OA
ATOM      7  H   UNL     1       1.233 -35.265  60.941  1.00  0.00     0.210 HD
ENDBRANCH   5   6
ENDBRANCH   1   5
TORSDOF 4
ENDMDL
MODEL 9
REMARK VINA RESULT:    -2.686     13.707     14.436
REMARK INTER + INTRA:          -3.245
REMARK INTER:                  -3.188
REMARK INTRA:                  -0.057
REMARK UNBOUND:                -0.009
REMARK SMILES CCCCCO
REMARK SMILES IDX 4 1 3 2 2 3 1 4 5 5 6 6
REMARK H PARENT 6 7
REMARK Flexibility Score: inf
ROOT
ATOM      1  C   UNL     1       0.584 -28.805  46.995  1.00  0.00     0.028 C 
ENDROOT
BRANCH   1   2
ATOM      2  C   UNL     1       0.298 -30.279  47.312  1.00  0.00     0.002 C 
BRANCH   2   3
ATOM      3  C   UNL     1       1.597 -31.040  47.604  1.00  0.00    -0.003 C 
ATOM      4  C   UNL     1       1.412 -32.542  47.413  1.00  0.00     0.004 C 
ENDBRANCH   2   3
ENDBRANCH   1   2
BRANCH   1   5
ATOM      5  C   UNL     1       2.013 -28.603  46.480  1.00  0.00     0.156 C 
BRANCH   5   6
ATOM      6  O   UNL     1       2.513 -27.351  46.865  1.00  0.00    -0.396 OA
ATOM      7  H   UNL     1       1.725 -26.777  47.055  1.00  0.00     0.210 HD
ENDBRANCH   5   6
ENDBRANCH   1   5
TORSDOF 4
ENDMDL
