MODEL 1
REMARK VINA RESULT:    -6.055      0.000      0.000
REMARK INTER + INTRA:          -9.389
REMARK INTER:                  -8.887
REMARK INTRA:                  -0.502
REMARK UNBOUND:                -0.502
REMARK SMILES CCCOC(=O)c1ccccc1C(=O)OCCC
REMARK SMILES IDX 7 1 8 2 9 3 10 4 11 5 12 6 5 7 6 8 4 9 3 10 2 11 1 12 13 13
REMARK SMILES IDX 14 14 15 15 16 16 17 17 18 18
REMARK H PARENT
REMARK Flexibility Score: inf
ROOT
ATOM      1  C   UNL     1      32.750   9.228 106.129  1.00  0.00     0.074 A 
ATOM      2  C   UNL     1      33.794   9.920 105.487  1.00  0.00     0.016 A 
ATOM      3  C   UNL     1      35.050  10.030 106.084  1.00  0.00     0.001 A 
ATOM      4  C   UNL     1      35.285   9.451 107.330  1.00  0.00     0.001 A 
ATOM      5  C   UNL     1      34.271   8.741 107.973  1.00  0.00     0.016 A 
ATOM      6  C   UNL     1      33.003   8.601 107.380  1.00  0.00     0.074 A 
ENDROOT
BRANCH   1   7
ATOM      7  C   UNL     1      31.409   9.241 105.502  1.00  0.00     0.339 C 
ATOM      8  O   UNL     1      31.049   8.278 104.769  1.00  0.00    -0.246 OA
BRANCH   7   9
ATOM      9  O   UNL     1      30.565  10.341 105.681  1.00  0.00    -0.462 OA
BRANCH   9  10
ATOM     10  C   UNL     1      30.857  11.631 105.153  1.00  0.00     0.233 C 
BRANCH  10  11
ATOM     11  C   UNL     1      29.710  12.582 105.483  1.00  0.00     0.038 C 
ATOM     12  C   UNL     1      28.381  11.839 105.576  1.00  0.00     0.007 C 
ENDBRANCH  10  11
ENDBRANCH   9  10
ENDBRANCH   7   9
ENDBRANCH   1   7
BRANCH   6  13
ATOM     13  C   UNL     1      32.004   7.740 108.055  1.00  0.00     0.339 C 
ATOM     14  O   UNL     1      31.463   8.131 109.127  1.00  0.00    -0.246 OA
BRANCH  13  15
ATOM     15  O   UNL     1      31.694   6.480 107.529  1.00  0.00    -0.462 OA
BRANCH  15  16
ATOM     16  C   UNL     1      32.095   5.252 108.134  1.00  0.00     0.233 C 
BRANCH  16  17
ATOM     17  C   UNL     1      32.531   4.248 107.066  1.00  0.00     0.038 C 
ATOM     18  C   UNL     1      34.020   3.935 107.177  1.00  0.00     0.007 C 
ENDBRANCH  16  17
ENDBRANCH  15  16
ENDBRANCH  13  15
ENDBRANCH   6  13
TORSDOF 8
ENDMDL
MODEL 2
REMARK VINA RESULT:    -5.873      0.475      5.625
REMARK INTER + INTRA:          -9.122
REMARK INTER:                  -8.809
REMARK INTRA:                  -0.312
REMARK UNBOUND:                -0.502
REMARK SMILES CCCOC(=O)c1ccccc1C(=O)OCCC
REMARK SMILES IDX 7 1 8 2 9 3 10 4 11 5 12 6 5 7 6 8 4 9 3 10 2 11 1 12 13 13
REMARK SMILES IDX 14 14 15 15 16 16 17 17 18 18
REMARK H PARENT
REMARK Flexibility Score: inf
ROOT
ATOM      1  C   UNL     1      32.830   8.416 107.175  1.00  0.00     0.074 A 
ATOM      2  C   UNL     1      34.068   8.503 107.838  1.00  0.00     0.016 A 
ATOM      3  C   UNL     1      35.093   9.305 107.334  1.00  0.00     0.001 A 
ATOM      4  C   UNL     1      34.898  10.033 106.163  1.00  0.00     0.001 A 
ATOM      5  C   UNL     1      33.670   9.979 105.501  1.00  0.00     0.016 A 
ATOM      6  C   UNL     1      32.617   9.192 106.003  1.00  0.00     0.074 A 
ENDROOT
BRANCH   1   7
ATOM      7  C   UNL     1      31.822   7.463 107.692  1.00  0.00     0.339 C 
ATOM      8  O   UNL     1      31.399   7.576 108.875  1.00  0.00    -0.246 OA
BRANCH   7   9
ATOM      9  O   UNL     1      31.379   6.409 106.885  1.00  0.00    -0.462 OA
BRANCH   9  10
ATOM     10  C   UNL     1      31.584   5.041 107.223  1.00  0.00     0.233 C 
BRANCH  10  11
ATOM     11  C   UNL     1      33.023   4.849 107.695  1.00  0.00     0.038 C 
ATOM     12  C   UNL     1      33.721   3.745 106.907  1.00  0.00     0.007 C 
ENDBRANCH  10  11
ENDBRANCH   9  10
ENDBRANCH   7   9
ENDBRANCH   1   7
BRANCH   6  13
ATOM     13  C   UNL     1      31.303   9.265 105.324  1.00  0.00     0.339 C 
ATOM     14  O   UNL     1      30.959   8.349 104.525  1.00  0.00    -0.246 OA
BRANCH  13  15
ATOM     15  O   UNL     1      30.464  10.366 105.534  1.00  0.00    -0.462 OA
BRANCH  15  16
ATOM     16  C   UNL     1      30.818  11.704 105.192  1.00  0.00     0.233 C 
BRANCH  16  17
ATOM     17  C   UNL     1      29.592  12.617 105.264  1.00  0.00     0.038 C 
ATOM     18  C   UNL     1      28.353  11.843 105.701  1.00  0.00     0.007 C 
ENDBRANCH  16  17
ENDBRANCH  15  16
ENDBRANCH  13  15
ENDBRANCH   6  13
TORSDOF 8
ENDMDL
MODEL 3
REMARK VINA RESULT:    -5.664      1.502      3.531
REMARK INTER + INTRA:          -8.815
REMARK INTER:                  -8.274
REMARK INTRA:                  -0.541
REMARK UNBOUND:                -0.502
REMARK SMILES CCCOC(=O)c1ccccc1C(=O)OCCC
REMARK SMILES IDX 7 1 8 2 9 3 10 4 11 5 12 6 5 7 6 8 4 9 3 10 2 11 1 12 13 13
REMARK SMILES IDX 14 14 15 15 16 16 17 17 18 18
REMARK H PARENT
REMARK Flexibility Score: inf
ROOT
ATOM      1  C   UNL     1      31.366   8.068 105.936  1.00  0.00     0.074 A 
ATOM      2  C   UNL     1      30.822   7.229 104.945  1.00  0.00     0.016 A 
ATOM      3  C   UNL     1      30.658   5.864 105.177  1.00  0.00     0.001 A 
ATOM      4  C   UNL     1      31.035   5.313 106.400  1.00  0.00     0.001 A 
ATOM      5  C   UNL     1      31.556   6.129 107.404  1.00  0.00     0.016 A 
ATOM      6  C   UNL     1      31.710   7.513 107.199  1.00  0.00     0.074 A 
ENDROOT
BRANCH   1   7
ATOM      7  C   UNL     1      31.621   9.485 105.594  1.00  0.00     0.339 C 
ATOM      8  O   UNL     1      32.800   9.873 105.361  1.00  0.00    -0.246 OA
BRANCH   7   9
ATOM      9  O   UNL     1      30.564  10.402 105.577  1.00  0.00    -0.462 OA
BRANCH   9  10
ATOM     10  C   UNL     1      30.729  11.761 105.187  1.00  0.00     0.233 C 
BRANCH  10  11
ATOM     11  C   UNL     1      29.471  12.545 105.548  1.00  0.00     0.038 C 
ATOM     12  C   UNL     1      28.246  11.638 105.597  1.00  0.00     0.007 C 
ENDBRANCH  10  11
ENDBRANCH   9  10
ENDBRANCH   7   9
ENDBRANCH   1   7
BRANCH   6  13
ATOM     13  C   UNL     1      32.159   8.345 108.339  1.00  0.00     0.339 C 
ATOM     14  O   UNL     1      31.397   8.512 109.331  1.00  0.00    -0.246 OA
BRANCH  13  15
ATOM     15  O   UNL     1      33.407   8.979 108.296  1.00  0.00    -0.462 OA
BRANCH  15  16
ATOM     16  C   UNL     1      34.613   8.322 107.913  1.00  0.00     0.233 C 
BRANCH  16  17
ATOM     17  C   UNL     1      35.481   9.251 107.062  1.00  0.00     0.038 C 
ATOM     18  C   UNL     1      35.524  10.658 107.649  1.00  0.00     0.007 C 
ENDBRANCH  16  17
ENDBRANCH  15  16
ENDBRANCH  13  15
ENDBRANCH   6  13
TORSDOF 8
ENDMDL
MODEL 4
REMARK VINA RESULT:    -5.637      1.483      5.738
REMARK INTER + INTRA:          -8.775
REMARK INTER:                  -8.176
REMARK INTRA:                  -0.599
REMARK UNBOUND:                -0.502
REMARK SMILES CCCOC(=O)c1ccccc1C(=O)OCCC
REMARK SMILES IDX 7 1 8 2 9 3 10 4 11 5 12 6 5 7 6 8 4 9 3 10 2 11 1 12 13 13
REMARK SMILES IDX 14 14 15 15 16 16 17 17 18 18
REMARK H PARENT
REMARK Flexibility Score: inf
ROOT
ATOM      1  C   UNL     1      31.721   7.462 107.198  1.00  0.00     0.074 A 
ATOM      2  C   UNL     1      31.567   6.083 107.430  1.00  0.00     0.016 A 
ATOM      3  C   UNL     1      31.043   5.247 106.444  1.00  0.00     0.001 A 
ATOM      4  C   UNL     1      30.665   5.774 105.211  1.00  0.00     0.001 A 
ATOM      5  C   UNL     1      30.829   7.134 104.951  1.00  0.00     0.016 A 
ATOM      6  C   UNL     1      31.375   7.992 105.924  1.00  0.00     0.074 A 
ENDROOT
BRANCH   1   7
ATOM      7  C   UNL     1      32.175   8.317 108.318  1.00  0.00     0.339 C 
ATOM      8  O   UNL     1      31.415   8.513 109.306  1.00  0.00    -0.246 OA
BRANCH   7   9
ATOM      9  O   UNL     1      33.423   8.945 108.256  1.00  0.00    -0.462 OA
BRANCH   9  10
ATOM     10  C   UNL     1      34.602   8.276 107.822  1.00  0.00     0.233 C 
BRANCH  10  11
ATOM     11  C   UNL     1      35.508   9.268 107.098  1.00  0.00     0.038 C 
ATOM     12  C   UNL     1      35.439  10.651 107.738  1.00  0.00     0.007 C 
ENDBRANCH  10  11
ENDBRANCH   9  10
ENDBRANCH   7   9
ENDBRANCH   1   7
BRANCH   6  13
ATOM     13  C   UNL     1      31.633   9.402 105.551  1.00  0.00     0.339 C 
ATOM     14  O   UNL     1      32.805   9.768 105.259  1.00  0.00    -0.246 OA
BRANCH  13  15
ATOM     15  O   UNL     1      30.587  10.333 105.565  1.00  0.00    -0.462 OA
BRANCH  15  16
ATOM     16  C   UNL     1      30.744  11.701 105.195  1.00  0.00     0.233 C 
BRANCH  16  17
ATOM     17  C   UNL     1      29.496  12.503 105.569  1.00  0.00     0.038 C 
ATOM     18  C   UNL     1      28.268  11.603 105.657  1.00  0.00     0.007 C 
ENDBRANCH  16  17
ENDBRANCH  15  16
ENDBRANCH  13  15
ENDBRANCH   6  13
TORSDOF 8
ENDMDL
MODEL 5
REMARK VINA RESULT:    -5.393      1.942      4.067
REMARK INTER + INTRA:          -8.418
REMARK INTER:                  -7.572
REMARK INTRA:                  -0.846
REMARK UNBOUND:                -0.502
REMARK SMILES CCCOC(=O)c1ccccc1C(=O)OCCC
REMARK SMILES IDX 7 1 8 2 9 3 10 4 11 5 12 6 5 7 6 8 4 9 3 10 2 11 1 12 13 13
REMARK SMILES IDX 14 14 15 15 16 16 17 17 18 18
REMARK H PARENT
REMARK Flexibility Score: inf
ROOT
ATOM      1  C   UNL     1      31.261   8.209 105.885  1.00  0.00     0.074 A 
ATOM      2  C   UNL     1      30.736   7.395 104.864  1.00  0.00     0.016 A 
ATOM      3  C   UNL     1      30.707   6.007 105.001  1.00  0.00     0.001 A 
ATOM      4  C   UNL     1      31.202   5.409 106.158  1.00  0.00     0.001 A 
ATOM      5  C   UNL     1      31.707   6.198 107.192  1.00  0.00     0.016 A 
ATOM      6  C   UNL     1      31.727   7.601 107.083  1.00  0.00     0.074 A 
ENDROOT
BRANCH   1   7
ATOM      7  C   UNL     1      31.370   9.664 105.637  1.00  0.00     0.339 C 
ATOM      8  O   UNL     1      30.336  10.387 105.674  1.00  0.00    -0.246 OA
BRANCH   7   9
ATOM      9  O   UNL     1      32.609  10.227 105.313  1.00  0.00    -0.462 OA
BRANCH   9  10
ATOM     10  C   UNL     1      32.788  11.624 105.102  1.00  0.00     0.233 C 
BRANCH  10  11
ATOM     11  C   UNL     1      34.238  11.892 104.707  1.00  0.00     0.038 C 
ATOM     12  C   UNL     1      34.440  13.346 104.292  1.00  0.00     0.007 C 
ENDBRANCH  10  11
ENDBRANCH   9  10
ENDBRANCH   7   9
ENDBRANCH   1   7
BRANCH   6  13
ATOM     13  C   UNL     1      32.167   8.389 108.257  1.00  0.00     0.339 C 
ATOM     14  O   UNL     1      31.406   8.498 109.259  1.00  0.00    -0.246 OA
BRANCH  13  15
ATOM     15  O   UNL     1      33.404   9.045 108.237  1.00  0.00    -0.462 OA
BRANCH  15  16
ATOM     16  C   UNL     1      34.585   8.485 107.669  1.00  0.00     0.233 C 
BRANCH  16  17
ATOM     17  C   UNL     1      35.502   9.591 107.143  1.00  0.00     0.038 C 
ATOM     18  C   UNL     1      35.461  10.819 108.047  1.00  0.00     0.007 C 
ENDBRANCH  16  17
ENDBRANCH  15  16
ENDBRANCH  13  15
ENDBRANCH   6  13
TORSDOF 8
ENDMDL
MODEL 6
REMARK VINA RESULT:    -5.372      1.907      5.606
REMARK INTER + INTRA:          -8.387
REMARK INTER:                  -7.505
REMARK INTRA:                  -0.883
REMARK UNBOUND:                -0.502
REMARK SMILES CCCOC(=O)c1ccccc1C(=O)OCCC
REMARK SMILES IDX 7 1 8 2 9 3 10 4 11 5 12 6 5 7 6 8 4 9 3 10 2 11 1 12 13 13
REMARK SMILES IDX 14 14 15 15 16 16 17 17 18 18
REMARK H PARENT
REMARK Flexibility Score: inf
ROOT
ATOM      1  C   UNL     1      31.711   7.515 107.140  1.00  0.00     0.074 A 
ATOM      2  C   UNL     1      31.729   6.116 107.289  1.00  0.00     0.016 A 
ATOM      3  C   UNL     1      31.247   5.284 106.279  1.00  0.00     0.001 A 
ATOM      4  C   UNL     1      30.739   5.835 105.104  1.00  0.00     0.001 A 
ATOM      5  C   UNL     1      30.731   7.218 104.926  1.00  0.00     0.016 A 
ATOM      6  C   UNL     1      31.232   8.075 105.924  1.00  0.00     0.074 A 
ENDROOT
BRANCH   1   7
ATOM      7  C   UNL     1      32.129   8.349 108.289  1.00  0.00     0.339 C 
ATOM      8  O   UNL     1      31.356   8.494 109.276  1.00  0.00    -0.246 OA
BRANCH   7   9
ATOM      9  O   UNL     1      33.359   9.016 108.258  1.00  0.00    -0.462 OA
BRANCH   9  10
ATOM     10  C   UNL     1      34.557   8.400 107.797  1.00  0.00     0.233 C 
BRANCH  10  11
ATOM     11  C   UNL     1      35.449   9.455 107.148  1.00  0.00     0.038 C 
ATOM     12  C   UNL     1      35.445  10.753 107.949  1.00  0.00     0.007 C 
ENDBRANCH  10  11
ENDBRANCH   9  10
ENDBRANCH   7   9
ENDBRANCH   1   7
BRANCH   6  13
ATOM     13  C   UNL     1      31.304   9.525 105.632  1.00  0.00     0.339 C 
ATOM     14  O   UNL     1      30.243  10.207 105.582  1.00  0.00    -0.246 OA
BRANCH  13  15
ATOM     15  O   UNL     1      32.541  10.126 105.370  1.00  0.00    -0.462 OA
BRANCH  15  16
ATOM     16  C   UNL     1      32.708  11.526 105.152  1.00  0.00     0.233 C 
BRANCH  16  17
ATOM     17  C   UNL     1      34.137  11.830 104.697  1.00  0.00     0.038 C 
ATOM     18  C   UNL     1      34.471  13.307 104.878  1.00  0.00     0.007 C 
ENDBRANCH  16  17
ENDBRANCH  15  16
ENDBRANCH  13  15
ENDBRANCH   6  13
TORSDOF 8
ENDMDL
MODEL 7
REMARK VINA RESULT:    -5.027      2.238      3.852
REMARK INTER + INTRA:          -7.880
REMARK INTER:                  -7.019
REMARK INTRA:                  -0.861
REMARK UNBOUND:                -0.502
REMARK SMILES CCCOC(=O)c1ccccc1C(=O)OCCC
REMARK SMILES IDX 7 1 8 2 9 3 10 4 11 5 12 6 5 7 6 8 4 9 3 10 2 11 1 12 13 13
REMARK SMILES IDX 14 14 15 15 16 16 17 17 18 18
REMARK H PARENT
REMARK Flexibility Score: inf
ROOT
ATOM      1  C   UNL     1      33.358   9.135 106.728  1.00  0.00     0.074 A 
ATOM      2  C   UNL     1      33.119   9.884 105.561  1.00  0.00     0.016 A 
ATOM      3  C   UNL     1      31.962   9.684 104.808  1.00  0.00     0.001 A 
ATOM      4  C   UNL     1      31.025   8.733 105.208  1.00  0.00     0.001 A 
ATOM      5  C   UNL     1      31.231   7.995 106.374  1.00  0.00     0.016 A 
ATOM      6  C   UNL     1      32.382   8.195 107.159  1.00  0.00     0.074 A 
ENDROOT
BRANCH   1   7
ATOM      7  C   UNL     1      34.654   9.310 107.422  1.00  0.00     0.339 C 
ATOM      8  O   UNL     1      35.613   8.531 107.168  1.00  0.00    -0.246 OA
BRANCH   7   9
ATOM      9  O   UNL     1      34.798  10.307 108.393  1.00  0.00    -0.462 OA
BRANCH   9  10
ATOM     10  C   UNL     1      35.828  11.289 108.342  1.00  0.00     0.233 C 
BRANCH  10  11
ATOM     11  C   UNL     1      35.744  12.040 107.016  1.00  0.00     0.038 C 
ATOM     12  C   UNL     1      36.799  13.139 106.935  1.00  0.00     0.007 C 
ENDBRANCH  10  11
ENDBRANCH   9  10
ENDBRANCH   7   9
ENDBRANCH   1   7
BRANCH   6  13
ATOM     13  C   UNL     1      32.490   7.467 108.443  1.00  0.00     0.339 C 
ATOM     14  O   UNL     1      32.188   8.050 109.522  1.00  0.00    -0.246 OA
BRANCH  13  15
ATOM     15  O   UNL     1      32.967   6.150 108.465  1.00  0.00    -0.462 OA
BRANCH  15  16
ATOM     16  C   UNL     1      32.132   5.006 108.302  1.00  0.00     0.233 C 
BRANCH  16  17
ATOM     17  C   UNL     1      32.474   4.275 107.003  1.00  0.00     0.038 C 
ATOM     18  C   UNL     1      33.946   3.875 106.966  1.00  0.00     0.007 C 
ENDBRANCH  16  17
ENDBRANCH  15  16
ENDBRANCH  13  15
ENDBRANCH   6  13
TORSDOF 8
ENDMDL
MODEL 8
REMARK VINA RESULT:    -4.953      3.025      4.202
REMARK INTER + INTRA:          -7.771
REMARK INTER:                  -7.399
REMARK INTRA:                  -0.372
REMARK UNBOUND:                -0.502
REMARK SMILES CCCOC(=O)c1ccccc1C(=O)OCCC
REMARK SMILES IDX 7 1 8 2 9 3 10 4 11 5 12 6 5 7 6 8 4 9 3 10 2 11 1 12 13 13
REMARK SMILES IDX 14 14 15 15 16 16 17 17 18 18
REMARK H PARENT
REMARK Flexibility Score: inf
ROOT
ATOM      1  C   UNL     1      35.288  12.317 104.563  1.00  0.00     0.074 A 
ATOM      2  C   UNL     1      35.876  12.677 103.337  1.00  0.00     0.016 A 
ATOM      3  C   UNL     1      37.168  12.259 103.015  1.00  0.00     0.001 A 
ATOM      4  C   UNL     1      37.892  11.475 103.911  1.00  0.00     0.001 A 
ATOM      5  C   UNL     1      37.319  11.088 105.123  1.00  0.00     0.016 A 
ATOM      6  C   UNL     1      36.011  11.481 105.459  1.00  0.00     0.074 A 
ENDROOT
BRANCH   1   7
ATOM      7  C   UNL     1      33.962  12.883 104.899  1.00  0.00     0.339 C 
ATOM      8  O   UNL     1      33.838  14.125 105.085  1.00  0.00    -0.246 OA
BRANCH   7   9
ATOM      9  O   UNL     1      32.860  12.036 105.059  1.00  0.00    -0.462 OA
BRANCH   9  10
ATOM     10  C   UNL     1      31.519  12.512 105.083  1.00  0.00     0.233 C 
BRANCH  10  11
ATOM     11  C   UNL     1      30.562  11.324 105.126  1.00  0.00     0.038 C 
ATOM     12  C   UNL     1      29.191  11.734 105.655  1.00  0.00     0.007 C 
ENDBRANCH  10  11
ENDBRANCH   9  10
ENDBRANCH   7   9
ENDBRANCH   1   7
BRANCH   6  13
ATOM     13  C   UNL     1      35.415  10.945 106.704  1.00  0.00     0.339 C 
ATOM     14  O   UNL     1      35.670  11.500 107.809  1.00  0.00    -0.246 OA
BRANCH  13  15
ATOM     15  O   UNL     1      34.608   9.802 106.660  1.00  0.00    -0.462 OA
BRANCH  15  16
ATOM     16  C   UNL     1      34.506   8.866 107.730  1.00  0.00     0.233 C 
BRANCH  16  17
ATOM     17  C   UNL     1      33.165   8.132 107.674  1.00  0.00     0.038 C 
ATOM     18  C   UNL     1      33.107   7.008 108.703  1.00  0.00     0.007 C 
ENDBRANCH  16  17
ENDBRANCH  15  16
ENDBRANCH  13  15
ENDBRANCH   6  13
TORSDOF 8
ENDMDL
MODEL 9
REMARK VINA RESULT:    -4.906      2.958      5.901
REMARK INTER + INTRA:          -7.704
REMARK INTER:                  -7.143
REMARK INTRA:                  -0.561
REMARK UNBOUND:                -0.502
REMARK SMILES CCCOC(=O)c1ccccc1C(=O)OCCC
REMARK SMILES IDX 7 1 8 2 9 3 10 4 11 5 12 6 5 7 6 8 4 9 3 10 2 11 1 12 13 13
REMARK SMILES IDX 14 14 15 15 16 16 17 17 18 18
REMARK H PARENT
REMARK Flexibility Score: inf
ROOT
ATOM      1  C   UNL     1      35.895  11.458 105.428  1.00  0.00     0.074 A 
ATOM      2  C   UNL     1      37.222  11.120 105.108  1.00  0.00     0.016 A 
ATOM      3  C   UNL     1      37.789  11.519 103.897  1.00  0.00     0.001 A 
ATOM      4  C   UNL     1      37.039  12.263 102.987  1.00  0.00     0.001 A 
ATOM      5  C   UNL     1      35.728  12.628 103.294  1.00  0.00     0.016 A 
ATOM      6  C   UNL     1      35.145  12.253 104.518  1.00  0.00     0.074 A 
ENDROOT
BRANCH   1   7
ATOM      7  C   UNL     1      35.311  10.911 106.674  1.00  0.00     0.339 C 
ATOM      8  O   UNL     1      35.476  11.522 107.765  1.00  0.00    -0.246 OA
BRANCH   7   9
ATOM      9  O   UNL     1      34.623   9.693 106.648  1.00  0.00    -0.462 OA
BRANCH   9  10
ATOM     10  C   UNL     1      34.521   8.842 107.784  1.00  0.00     0.233 C 
BRANCH  10  11
ATOM     11  C   UNL     1      33.148   8.175 107.793  1.00  0.00     0.038 C 
ATOM     12  C   UNL     1      33.134   6.946 108.696  1.00  0.00     0.007 C 
ENDBRANCH  10  11
ENDBRANCH   9  10
ENDBRANCH   7   9
ENDBRANCH   1   7
BRANCH   6  13
ATOM     13  C   UNL     1      33.792  12.766 104.837  1.00  0.00     0.339 C 
ATOM     14  O   UNL     1      33.627  13.998 105.060  1.00  0.00    -0.246 OA
BRANCH  13  15
ATOM     15  O   UNL     1      32.711  11.882 104.931  1.00  0.00    -0.462 OA
BRANCH  15  16
ATOM     16  C   UNL     1      31.359  12.304 105.094  1.00  0.00     0.233 C 
BRANCH  16  17
ATOM     17  C   UNL     1      30.431  11.094 105.217  1.00  0.00     0.038 C 
ATOM     18  C   UNL     1      31.228   9.797 105.327  1.00  0.00     0.007 C 
ENDBRANCH  16  17
ENDBRANCH  15  16
ENDBRANCH  13  15
ENDBRANCH   6  13
TORSDOF 8
ENDMDL
