MODEL 1
REMARK VINA RESULT:    -3.912      0.000      0.000
REMARK INTER + INTRA:          -4.159
REMARK INTER:                  -4.140
REMARK INTRA:                  -0.018
REMARK UNBOUND:                -0.018
REMARK SMILES O=C([O-])c1cccnc1
REMARK SMILES IDX 4 1 5 2 9 3 6 4 8 5 7 6 2 7 1 8 3 9
REMARK H PARENT
REMARK Flexibility Score: inf
ROOT
ATOM      1  C   UNL     1      32.884  30.412  47.196  1.00  0.00     0.016 A 
ATOM      2  C   UNL     1      33.972  30.887  46.447  1.00  0.00     0.013 A 
ATOM      3  C   UNL     1      32.737  30.863  48.520  1.00  0.00     0.120 A 
ATOM      4  C   UNL     1      34.879  31.783  47.017  1.00  0.00     0.021 A 
ATOM      5  N   UNL     1      33.634  31.736  49.051  1.00  0.00    -0.264 NA
ATOM      6  C   UNL     1      34.692  32.201  48.334  1.00  0.00     0.111 A 
ENDROOT
BRANCH   1   7
ATOM      7  C   UNL     1      31.918  29.462  46.603  1.00  0.00     0.073 C 
ATOM      8  O   UNL     1      32.310  28.364  46.126  1.00  0.00    -0.545 OA
ATOM      9  O   UNL     1      30.563  29.769  46.566  1.00  0.00    -0.545 OA
ENDBRANCH   1   7
TORSDOF 1
ENDMDL
MODEL 2
REMARK VINA RESULT:    -3.878     19.827     20.808
REMARK INTER + INTRA:          -4.123
REMARK INTER:                  -4.100
REMARK INTRA:                  -0.024
REMARK UNBOUND:                -0.018
REMARK SMILES O=C([O-])c1cccnc1
REMARK SMILES IDX 4 1 5 2 9 3 6 4 8 5 7 6 2 7 1 8 3 9
REMARK H PARENT
REMARK Flexibility Score: inf
ROOT
ATOM      1  C   UNL     1      29.454  43.824  62.793  1.00  0.00     0.016 A 
ATOM      2  C   UNL     1      28.900  43.186  63.914  1.00  0.00     0.013 A 
ATOM      3  C   UNL     1      30.224  43.057  61.900  1.00  0.00     0.120 A 
ATOM      4  C   UNL     1      29.118  41.824  64.125  1.00  0.00     0.021 A 
ATOM      5  N   UNL     1      30.421  41.731  62.129  1.00  0.00    -0.264 NA
ATOM      6  C   UNL     1      29.890  41.104  63.212  1.00  0.00     0.111 A 
ENDROOT
BRANCH   1   7
ATOM      7  C   UNL     1      29.231  45.267  62.559  1.00  0.00     0.073 C 
ATOM      8  O   UNL     1      29.840  45.867  61.634  1.00  0.00    -0.545 OA
ATOM      9  O   UNL     1      28.345  45.980  63.357  1.00  0.00    -0.545 OA
ENDBRANCH   1   7
TORSDOF 1
ENDMDL
MODEL 3
REMARK VINA RESULT:    -3.810     13.202     14.089
REMARK INTER + INTRA:          -4.051
REMARK INTER:                  -4.034
REMARK INTRA:                  -0.017
REMARK UNBOUND:                -0.018
REMARK SMILES O=C([O-])c1cccnc1
REMARK SMILES IDX 4 1 5 2 9 3 6 4 8 5 7 6 2 7 1 8 3 9
REMARK H PARENT
REMARK Flexibility Score: inf
ROOT
ATOM      1  C   UNL     1      19.793  32.051  45.047  1.00  0.00     0.016 A 
ATOM      2  C   UNL     1      19.263  31.489  43.875  1.00  0.00     0.013 A 
ATOM      3  C   UNL     1      19.663  31.335  46.250  1.00  0.00     0.120 A 
ATOM      4  C   UNL     1      18.623  30.249  43.919  1.00  0.00     0.021 A 
ATOM      5  N   UNL     1      19.035  30.128  46.265  1.00  0.00    -0.264 NA
ATOM      6  C   UNL     1      18.518  29.576  45.136  1.00  0.00     0.111 A 
ENDROOT
BRANCH   1   7
ATOM      7  C   UNL     1      20.472  33.365  45.013  1.00  0.00     0.073 C 
ATOM      8  O   UNL     1      21.624  33.477  44.515  1.00  0.00    -0.545 OA
ATOM      9  O   UNL     1      19.847  34.493  45.531  1.00  0.00    -0.545 OA
ENDBRANCH   1   7
TORSDOF 1
ENDMDL
MODEL 4
REMARK VINA RESULT:    -3.781     13.484     14.165
REMARK INTER + INTRA:          -4.021
REMARK INTER:                  -4.005
REMARK INTRA:                  -0.016
REMARK UNBOUND:                -0.018
REMARK SMILES O=C([O-])c1cccnc1
REMARK SMILES IDX 4 1 5 2 9 3 6 4 8 5 7 6 2 7 1 8 3 9
REMARK H PARENT
REMARK Flexibility Score: inf
ROOT
ATOM      1  C   UNL     1      19.180  31.722  44.881  1.00  0.00     0.016 A 
ATOM      2  C   UNL     1      20.406  32.121  44.327  1.00  0.00     0.013 A 
ATOM      3  C   UNL     1      18.340  32.709  45.426  1.00  0.00     0.120 A 
ATOM      4  C   UNL     1      20.770  33.469  44.326  1.00  0.00     0.021 A 
ATOM      5  N   UNL     1      18.717  34.016  45.412  1.00  0.00    -0.264 NA
ATOM      6  C   UNL     1      19.903  34.412  44.878  1.00  0.00     0.111 A 
ENDROOT
BRANCH   1   7
ATOM      7  C   UNL     1      18.785  30.297  44.889  1.00  0.00     0.073 C 
ATOM      8  O   UNL     1      18.249  29.775  43.875  1.00  0.00    -0.545 OA
ATOM      9  O   UNL     1      18.999  29.514  46.017  1.00  0.00    -0.545 OA
ENDBRANCH   1   7
TORSDOF 1
ENDMDL
MODEL 5
REMARK VINA RESULT:    -3.767     19.755     20.794
REMARK INTER + INTRA:          -4.006
REMARK INTER:                  -3.982
REMARK INTRA:                  -0.024
REMARK UNBOUND:                -0.018
REMARK SMILES O=C([O-])c1cccnc1
REMARK SMILES IDX 4 1 5 2 9 3 6 4 8 5 7 6 2 7 1 8 3 9
REMARK H PARENT
REMARK Flexibility Score: inf
ROOT
ATOM      1  C   UNL     1      29.427  43.893  62.790  1.00  0.00     0.016 A 
ATOM      2  C   UNL     1      30.220  43.148  61.903  1.00  0.00     0.013 A 
ATOM      3  C   UNL     1      28.888  43.241  63.914  1.00  0.00     0.120 A 
ATOM      4  C   UNL     1      30.458  41.793  62.143  1.00  0.00     0.021 A 
ATOM      5  N   UNL     1      29.136  41.920  64.124  1.00  0.00    -0.264 NA
ATOM      6  C   UNL     1      29.901  41.190  63.271  1.00  0.00     0.111 A 
ENDROOT
BRANCH   1   7
ATOM      7  C   UNL     1      29.168  45.328  62.546  1.00  0.00     0.073 C 
ATOM      8  O   UNL     1      28.400  45.978  63.305  1.00  0.00    -0.545 OA
ATOM      9  O   UNL     1      29.769  45.980  61.476  1.00  0.00    -0.545 OA
ENDBRANCH   1   7
TORSDOF 1
ENDMDL
MODEL 6
REMARK VINA RESULT:    -3.760     12.792     13.218
REMARK INTER + INTRA:          -3.998
REMARK INTER:                  -3.975
REMARK INTRA:                  -0.024
REMARK UNBOUND:                -0.018
REMARK SMILES O=C([O-])c1cccnc1
REMARK SMILES IDX 4 1 5 2 9 3 6 4 8 5 7 6 2 7 1 8 3 9
REMARK H PARENT
REMARK Flexibility Score: inf
ROOT
ATOM      1  C   UNL     1      27.517  42.032  45.974  1.00  0.00     0.016 A 
ATOM      2  C   UNL     1      26.937  43.169  45.390  1.00  0.00     0.013 A 
ATOM      3  C   UNL     1      27.255  41.769  47.331  1.00  0.00     0.120 A 
ATOM      4  C   UNL     1      26.123  44.010  46.151  1.00  0.00     0.021 A 
ATOM      5  N   UNL     1      26.458  42.605  48.049  1.00  0.00    -0.264 NA
ATOM      6  C   UNL     1      25.892  43.709  47.494  1.00  0.00     0.111 A 
ENDROOT
BRANCH   1   7
ATOM      7  C   UNL     1      28.382  41.133  45.179  1.00  0.00     0.073 C 
ATOM      8  O   UNL     1      28.394  41.205  43.921  1.00  0.00    -0.545 OA
ATOM      9  O   UNL     1      29.193  40.198  45.809  1.00  0.00    -0.545 OA
ENDBRANCH   1   7
TORSDOF 1
ENDMDL
MODEL 7
REMARK VINA RESULT:    -3.731     11.570     11.991
REMARK INTER + INTRA:          -3.968
REMARK INTER:                  -3.943
REMARK INTRA:                  -0.024
REMARK UNBOUND:                -0.018
REMARK SMILES O=C([O-])c1cccnc1
REMARK SMILES IDX 4 1 5 2 9 3 6 4 8 5 7 6 2 7 1 8 3 9
REMARK H PARENT
REMARK Flexibility Score: inf
ROOT
ATOM      1  C   UNL     1      27.775  41.125  45.519  1.00  0.00     0.016 A 
ATOM      2  C   UNL     1      28.733  40.711  44.581  1.00  0.00     0.013 A 
ATOM      3  C   UNL     1      27.337  40.198  46.482  1.00  0.00     0.120 A 
ATOM      4  C   UNL     1      29.229  39.406  44.615  1.00  0.00     0.021 A 
ATOM      5  N   UNL     1      27.836  38.933  46.493  1.00  0.00    -0.264 NA
ATOM      6  C   UNL     1      28.764  38.522  45.588  1.00  0.00     0.111 A 
ENDROOT
BRANCH   1   7
ATOM      7  C   UNL     1      27.242  42.505  45.493  1.00  0.00     0.073 C 
ATOM      8  O   UNL     1      27.618  43.320  44.609  1.00  0.00    -0.545 OA
ATOM      9  O   UNL     1      26.317  42.919  46.444  1.00  0.00    -0.545 OA
ENDBRANCH   1   7
TORSDOF 1
ENDMDL
MODEL 8
REMARK VINA RESULT:    -3.720     12.677     13.135
REMARK INTER + INTRA:          -3.956
REMARK INTER:                  -3.939
REMARK INTRA:                  -0.017
REMARK UNBOUND:                -0.018
REMARK SMILES O=C([O-])c1cccnc1
REMARK SMILES IDX 4 1 5 2 9 3 6 4 8 5 7 6 2 7 1 8 3 9
REMARK H PARENT
REMARK Flexibility Score: inf
ROOT
ATOM      1  C   UNL     1      27.588  41.851  45.862  1.00  0.00     0.016 A 
ATOM      2  C   UNL     1      27.057  41.618  47.140  1.00  0.00     0.013 A 
ATOM      3  C   UNL     1      27.268  43.058  45.215  1.00  0.00     0.120 A 
ATOM      4  C   UNL     1      26.231  42.570  47.741  1.00  0.00     0.021 A 
ATOM      5  N   UNL     1      26.461  43.969  45.823  1.00  0.00    -0.264 NA
ATOM      6  C   UNL     1      25.941  43.752  47.060  1.00  0.00     0.111 A 
ENDROOT
BRANCH   1   7
ATOM      7  C   UNL     1      28.463  40.850  45.215  1.00  0.00     0.073 C 
ATOM      8  O   UNL     1      28.089  40.253  44.171  1.00  0.00    -0.545 OA
ATOM      9  O   UNL     1      29.711  40.556  45.751  1.00  0.00    -0.545 OA
ENDBRANCH   1   7
TORSDOF 1
ENDMDL
MODEL 9
REMARK VINA RESULT:    -3.711      2.586      3.677
REMARK INTER + INTRA:          -3.946
REMARK INTER:                  -3.923
REMARK INTRA:                  -0.023
REMARK UNBOUND:                -0.018
REMARK SMILES O=C([O-])c1cccnc1
REMARK SMILES IDX 4 1 5 2 9 3 6 4 8 5 7 6 2 7 1 8 3 9
REMARK H PARENT
REMARK Flexibility Score: inf
ROOT
ATOM      1  C   UNL     1      32.945  30.233  47.645  1.00  0.00     0.016 A 
ATOM      2  C   UNL     1      32.724  29.466  46.490  1.00  0.00     0.013 A 
ATOM      3  C   UNL     1      32.091  30.043  48.747  1.00  0.00     0.120 A 
ATOM      4  C   UNL     1      31.677  28.543  46.450  1.00  0.00     0.021 A 
ATOM      5  N   UNL     1      31.079  29.137  48.682  1.00  0.00    -0.264 NA
ATOM      6  C   UNL     1      30.857  28.390  47.568  1.00  0.00     0.111 A 
ENDROOT
BRANCH   1   7
ATOM      7  C   UNL     1      34.050  31.215  47.699  1.00  0.00     0.073 C 
ATOM      8  O   UNL     1      34.365  31.764  48.788  1.00  0.00    -0.545 OA
ATOM      9  O   UNL     1      34.755  31.543  46.548  1.00  0.00    -0.545 OA
ENDBRANCH   1   7
TORSDOF 1
ENDMDL
