MODEL 1
REMARK VINA RESULT:    -2.727      0.000      0.000
REMARK INTER + INTRA:          -2.727
REMARK INTER:                  -2.727
REMARK INTRA:                   0.000
REMARK UNBOUND:                 0.000
REMARK SMILES CC(=O)[O-]
REMARK SMILES IDX 1 1 2 2 3 3 4 4
REMARK H PARENT
REMARK Flexibility Score: inf
ROOT
ATOM      1  C   UNL     1     -15.038  11.054 -11.754  1.00  0.00     0.063 C 
ATOM      2  C   UNL     1     -14.120  12.226 -11.850  1.00  0.00     0.038 C 
ATOM      3  O   UNL     1     -14.591  13.391 -11.931  1.00  0.00    -0.550 OA
ATOM      4  O   UNL     1     -12.745  12.040 -11.795  1.00  0.00    -0.550 OA
ENDROOT
TORSDOF 0
ENDMDL
MODEL 2
REMARK VINA RESULT:    -2.680      2.861      3.109
REMARK INTER + INTRA:          -2.680
REMARK INTER:                  -2.680
REMARK INTRA:                   0.000
REMARK UNBOUND:                 0.000
REMARK SMILES CC(=O)[O-]
REMARK SMILES IDX 1 1 2 2 3 3 4 4
REMARK H PARENT
REMARK Flexibility Score: inf
ROOT
ATOM      1  C   UNL     1     -11.037   9.891 -10.900  1.00  0.00     0.063 C 
ATOM      2  C   UNL     1     -11.605  11.247 -11.148  1.00  0.00     0.038 C 
ATOM      3  O   UNL     1     -12.330  11.795 -10.276  1.00  0.00    -0.550 OA
ATOM      4  O   UNL     1     -11.294  11.931 -12.315  1.00  0.00    -0.550 OA
ENDROOT
TORSDOF 0
ENDMDL
MODEL 3
REMARK VINA RESULT:    -2.664      2.220      2.995
REMARK INTER + INTRA:          -2.664
REMARK INTER:                  -2.664
REMARK INTRA:                   0.000
REMARK UNBOUND:                 0.000
REMARK SMILES CC(=O)[O-]
REMARK SMILES IDX 1 1 2 2 3 3 4 4
REMARK H PARENT
REMARK Flexibility Score: inf
ROOT
ATOM      1  C   UNL     1     -11.226  10.959 -12.536  1.00  0.00     0.063 C 
ATOM      2  C   UNL     1     -12.069  11.483 -11.423  1.00  0.00     0.038 C 
ATOM      3  O   UNL     1     -11.718  11.303 -10.228  1.00  0.00    -0.550 OA
ATOM      4  O   UNL     1     -13.213  12.218 -11.703  1.00  0.00    -0.550 OA
ENDROOT
TORSDOF 0
ENDMDL
MODEL 4
REMARK VINA RESULT:    -2.648      2.221      2.649
REMARK INTER + INTRA:          -2.648
REMARK INTER:                  -2.648
REMARK INTRA:                   0.000
REMARK UNBOUND:                 0.000
REMARK SMILES CC(=O)[O-]
REMARK SMILES IDX 1 1 2 2 3 3 4 4
REMARK H PARENT
REMARK Flexibility Score: inf
ROOT
ATOM      1  C   UNL     1     -11.263  11.008 -12.665  1.00  0.00     0.063 C 
ATOM      2  C   UNL     1     -12.055  11.514 -11.508  1.00  0.00     0.038 C 
ATOM      3  O   UNL     1     -13.111  12.172 -11.706  1.00  0.00    -0.550 OA
ATOM      4  O   UNL     1     -11.662  11.217 -10.210  1.00  0.00    -0.550 OA
ENDROOT
TORSDOF 0
ENDMDL
MODEL 5
REMARK VINA RESULT:    -2.584      8.911      9.625
REMARK INTER + INTRA:          -2.584
REMARK INTER:                  -2.584
REMARK INTRA:                   0.000
REMARK UNBOUND:                 0.000
REMARK SMILES CC(=O)[O-]
REMARK SMILES IDX 1 1 2 2 3 3 4 4
REMARK H PARENT
REMARK Flexibility Score: inf
ROOT
ATOM      1  C   UNL     1      -4.059  10.512 -10.579  1.00  0.00     0.063 C 
ATOM      2  C   UNL     1      -4.833  10.652 -11.846  1.00  0.00     0.038 C 
ATOM      3  O   UNL     1      -4.240  10.933 -12.920  1.00  0.00    -0.550 OA
ATOM      4  O   UNL     1      -6.203  10.421 -11.854  1.00  0.00    -0.550 OA
ENDROOT
TORSDOF 0
ENDMDL
MODEL 6
REMARK VINA RESULT:    -2.513      2.996      3.621
REMARK INTER + INTRA:          -2.513
REMARK INTER:                  -2.513
REMARK INTRA:                   0.000
REMARK UNBOUND:                 0.000
REMARK SMILES CC(=O)[O-]
REMARK SMILES IDX 1 1 2 2 3 3 4 4
REMARK H PARENT
REMARK Flexibility Score: inf
ROOT
ATOM      1  C   UNL     1     -12.058  11.185 -10.233  1.00  0.00     0.063 C 
ATOM      2  C   UNL     1     -11.230  10.969 -11.455  1.00  0.00     0.038 C 
ATOM      3  O   UNL     1     -10.596   9.892 -11.605  1.00  0.00    -0.550 OA
ATOM      4  O   UNL     1     -11.199  11.933 -12.454  1.00  0.00    -0.550 OA
ENDROOT
TORSDOF 0
ENDMDL
MODEL 7
REMARK VINA RESULT:    -2.483      9.025      9.476
REMARK INTER + INTRA:          -2.483
REMARK INTER:                  -2.483
REMARK INTRA:                   0.000
REMARK UNBOUND:                 0.000
REMARK SMILES CC(=O)[O-]
REMARK SMILES IDX 1 1 2 2 3 3 4 4
REMARK H PARENT
REMARK Flexibility Score: inf
ROOT
ATOM      1  C   UNL     1      -7.504  17.887  -7.996  1.00  0.00     0.063 C 
ATOM      2  C   UNL     1      -7.987  18.680  -9.163  1.00  0.00     0.038 C 
ATOM      3  O   UNL     1      -7.178  19.377  -9.829  1.00  0.00    -0.550 OA
ATOM      4  O   UNL     1      -9.319  18.610  -9.550  1.00  0.00    -0.550 OA
ENDROOT
TORSDOF 0
ENDMDL
MODEL 8
REMARK VINA RESULT:    -2.459      9.010      9.386
REMARK INTER + INTRA:          -2.459
REMARK INTER:                  -2.459
REMARK INTRA:                   0.000
REMARK UNBOUND:                 0.000
REMARK SMILES CC(=O)[O-]
REMARK SMILES IDX 1 1 2 2 3 3 4 4
REMARK H PARENT
REMARK Flexibility Score: inf
ROOT
ATOM      1  C   UNL     1      -7.685  17.987  -7.870  1.00  0.00     0.063 C 
ATOM      2  C   UNL     1      -8.100  18.665  -9.132  1.00  0.00     0.038 C 
ATOM      3  O   UNL     1      -9.296  18.601  -9.518  1.00  0.00    -0.550 OA
ATOM      4  O   UNL     1      -7.180  19.412  -9.856  1.00  0.00    -0.550 OA
ENDROOT
TORSDOF 0
ENDMDL
MODEL 9
REMARK VINA RESULT:    -2.362      3.004      3.333
REMARK INTER + INTRA:          -2.362
REMARK INTER:                  -2.362
REMARK INTRA:                   0.000
REMARK UNBOUND:                 0.000
REMARK SMILES CC(=O)[O-]
REMARK SMILES IDX 1 1 2 2 3 3 4 4
REMARK H PARENT
REMARK Flexibility Score: inf
ROOT
ATOM      1  C   UNL     1     -11.270  10.083 -10.060  1.00  0.00     0.063 C 
ATOM      2  C   UNL     1     -12.350  11.090  -9.859  1.00  0.00     0.038 C 
ATOM      3  O   UNL     1     -12.690  11.848 -10.805  1.00  0.00    -0.550 OA
ATOM      4  O   UNL     1     -13.021  11.160  -8.645  1.00  0.00    -0.550 OA
ENDROOT
TORSDOF 0
ENDMDL
