MODEL 1
REMARK VINA RESULT:    -5.055      0.000      0.000
REMARK INTER + INTRA:          -7.744
REMARK INTER:                  -7.419
REMARK INTRA:                  -0.324
REMARK UNBOUND:                -0.324
REMARK SMILES O=C([O-])CCCCCCCC(=O)[O-]
REMARK SMILES IDX 7 1 6 2 5 3 4 4 2 5 1 6 3 7 8 8 9 9 10 10 11 11 12 12 13 13
REMARK H PARENT
REMARK Flexibility Score: inf
ROOT
ATOM      1  C   UNL     1      -5.380  35.618  19.863  1.00  0.00     0.000 C 
ENDROOT
BRANCH   1   2
ATOM      2  C   UNL     1      -5.981  35.670  21.276  1.00  0.00     0.000 C 
BRANCH   2   3
ATOM      3  C   UNL     1      -4.907  35.759  22.374  1.00  0.00     0.006 C 
BRANCH   3   4
ATOM      4  C   UNL     1      -5.041  37.038  23.212  1.00  0.00     0.053 C 
BRANCH   4   5
ATOM      5  C   UNL     1      -5.234  36.730  24.666  1.00  0.00     0.041 C 
ATOM      6  O   UNL     1      -6.017  35.811  25.021  1.00  0.00    -0.550 OA
ATOM      7  O   UNL     1      -4.521  37.437  25.627  1.00  0.00    -0.550 OA
ENDBRANCH   4   5
ENDBRANCH   3   4
ENDBRANCH   2   3
ENDBRANCH   1   2
BRANCH   1   8
ATOM      8  C   UNL     1      -3.961  36.202  19.801  1.00  0.00     0.000 C 
BRANCH   8   9
ATOM      9  C   UNL     1      -3.868  37.308  18.740  1.00  0.00     0.006 C 
BRANCH   9  10
ATOM     10  C   UNL     1      -2.541  37.267  17.972  1.00  0.00     0.053 C 
BRANCH  10  11
ATOM     11  C   UNL     1      -2.740  36.880  16.539  1.00  0.00     0.041 C 
ATOM     12  O   UNL     1      -2.300  35.779  16.113  1.00  0.00    -0.550 OA
ATOM     13  O   UNL     1      -3.383  37.749  15.667  1.00  0.00    -0.550 OA
ENDBRANCH  10  11
ENDBRANCH   9  10
ENDBRANCH   8   9
ENDBRANCH   1   8
TORSDOF 8
ENDMDL
MODEL 2
REMARK VINA RESULT:    -5.055      0.237      1.278
REMARK INTER + INTRA:          -7.743
REMARK INTER:                  -7.390
REMARK INTRA:                  -0.353
REMARK UNBOUND:                -0.324
REMARK SMILES O=C([O-])CCCCCCCC(=O)[O-]
REMARK SMILES IDX 7 1 6 2 5 3 4 4 2 5 1 6 3 7 8 8 9 9 10 10 11 11 12 12 13 13
REMARK H PARENT
REMARK Flexibility Score: inf
ROOT
ATOM      1  C   UNL     1      -5.500  35.719  19.852  1.00  0.00     0.000 C 
ENDROOT
BRANCH   1   2
ATOM      2  C   UNL     1      -5.928  35.778  21.327  1.00  0.00     0.000 C 
BRANCH   2   3
ATOM      3  C   UNL     1      -4.754  36.080  22.274  1.00  0.00     0.006 C 
BRANCH   3   4
ATOM      4  C   UNL     1      -5.052  37.260  23.208  1.00  0.00     0.053 C 
BRANCH   4   5
ATOM      5  C   UNL     1      -5.204  36.816  24.632  1.00  0.00     0.041 C 
ATOM      6  O   UNL     1      -4.582  37.411  25.551  1.00  0.00    -0.550 OA
ATOM      7  O   UNL     1      -6.060  35.768  24.946  1.00  0.00    -0.550 OA
ENDBRANCH   4   5
ENDBRANCH   3   4
ENDBRANCH   2   3
ENDBRANCH   1   2
BRANCH   1   8
ATOM      8  C   UNL     1      -4.003  36.005  19.659  1.00  0.00     0.000 C 
BRANCH   8   9
ATOM      9  C   UNL     1      -3.790  37.212  18.734  1.00  0.00     0.006 C 
BRANCH   9  10
ATOM     10  C   UNL     1      -2.434  37.164  18.019  1.00  0.00     0.053 C 
BRANCH  10  11
ATOM     11  C   UNL     1      -2.587  36.903  16.553  1.00  0.00     0.041 C 
ATOM     12  O   UNL     1      -3.421  37.560  15.876  1.00  0.00    -0.550 OA
ATOM     13  O   UNL     1      -1.831  35.912  15.940  1.00  0.00    -0.550 OA
ENDBRANCH  10  11
ENDBRANCH   9  10
ENDBRANCH   8   9
ENDBRANCH   1   8
TORSDOF 8
ENDMDL
MODEL 3
REMARK VINA RESULT:    -4.995      0.627      7.167
REMARK INTER + INTRA:          -7.655
REMARK INTER:                  -7.290
REMARK INTRA:                  -0.365
REMARK UNBOUND:                -0.324
REMARK SMILES O=C([O-])CCCCCCCC(=O)[O-]
REMARK SMILES IDX 7 1 6 2 5 3 4 4 2 5 1 6 3 7 8 8 9 9 10 10 11 11 12 12 13 13
REMARK H PARENT
REMARK Flexibility Score: inf
ROOT
ATOM      1  C   UNL     1      -5.229  35.906  19.706  1.00  0.00     0.000 C 
ENDROOT
BRANCH   1   2
ATOM      2  C   UNL     1      -4.557  37.250  19.383  1.00  0.00     0.000 C 
BRANCH   2   3
ATOM      3  C   UNL     1      -3.279  37.087  18.542  1.00  0.00     0.006 C 
BRANCH   3   4
ATOM      4  C   UNL     1      -3.485  36.138  17.354  1.00  0.00     0.053 C 
BRANCH   4   5
ATOM      5  C   UNL     1      -2.897  36.692  16.092  1.00  0.00     0.041 C 
ATOM      6  O   UNL     1      -1.841  36.200  15.615  1.00  0.00    -0.550 OA
ATOM      7  O   UNL     1      -3.536  37.730  15.424  1.00  0.00    -0.550 OA
ENDBRANCH   4   5
ENDBRANCH   3   4
ENDBRANCH   2   3
ENDBRANCH   1   2
BRANCH   1   8
ATOM      8  C   UNL     1      -5.732  35.830  21.156  1.00  0.00     0.000 C 
BRANCH   8   9
ATOM      9  C   UNL     1      -4.667  36.348  22.134  1.00  0.00     0.006 C 
BRANCH   9  10
ATOM     10  C   UNL     1      -5.247  37.337  23.153  1.00  0.00     0.053 C 
BRANCH  10  11
ATOM     11  C   UNL     1      -5.288  36.753  24.532  1.00  0.00     0.041 C 
ATOM     12  O   UNL     1      -4.663  37.307  25.474  1.00  0.00    -0.550 OA
ATOM     13  O   UNL     1      -5.991  35.579  24.769  1.00  0.00    -0.550 OA
ENDBRANCH  10  11
ENDBRANCH   9  10
ENDBRANCH   8   9
ENDBRANCH   1   8
TORSDOF 8
ENDMDL
MODEL 4
REMARK VINA RESULT:    -4.967      0.985      1.259
REMARK INTER + INTRA:          -7.614
REMARK INTER:                  -7.254
REMARK INTRA:                  -0.360
REMARK UNBOUND:                -0.324
REMARK SMILES O=C([O-])CCCCCCCC(=O)[O-]
REMARK SMILES IDX 7 1 6 2 5 3 4 4 2 5 1 6 3 7 8 8 9 9 10 10 11 11 12 12 13 13
REMARK H PARENT
REMARK Flexibility Score: inf
ROOT
ATOM      1  C   UNL     1      -5.382  36.555  20.596  1.00  0.00     0.000 C 
ENDROOT
BRANCH   1   2
ATOM      2  C   UNL     1      -4.488  35.685  21.493  1.00  0.00     0.000 C 
BRANCH   2   3
ATOM      3  C   UNL     1      -5.128  35.391  22.861  1.00  0.00     0.006 C 
BRANCH   3   4
ATOM      4  C   UNL     1      -5.939  36.581  23.389  1.00  0.00     0.053 C 
BRANCH   4   5
ATOM      5  C   UNL     1      -5.080  37.541  24.155  1.00  0.00     0.041 C 
ATOM      6  O   UNL     1      -4.779  38.658  23.658  1.00  0.00    -0.550 OA
ATOM      7  O   UNL     1      -4.643  37.216  25.433  1.00  0.00    -0.550 OA
ENDBRANCH   4   5
ENDBRANCH   3   4
ENDBRANCH   2   3
ENDBRANCH   1   2
BRANCH   1   8
ATOM      8  C   UNL     1      -4.578  37.370  19.572  1.00  0.00     0.000 C 
BRANCH   8   9
ATOM      9  C   UNL     1      -3.830  36.446  18.600  1.00  0.00     0.006 C 
BRANCH   9  10
ATOM     10  C   UNL     1      -2.668  37.160  17.897  1.00  0.00     0.053 C 
BRANCH  10  11
ATOM     11  C   UNL     1      -2.664  36.896  16.423  1.00  0.00     0.041 C 
ATOM     12  O   UNL     1      -1.891  36.028  15.937  1.00  0.00    -0.550 OA
ATOM     13  O   UNL     1      -3.489  37.632  15.582  1.00  0.00    -0.550 OA
ENDBRANCH  10  11
ENDBRANCH   9  10
ENDBRANCH   8   9
ENDBRANCH   1   8
TORSDOF 8
ENDMDL
MODEL 5
REMARK VINA RESULT:    -4.905      0.909      6.919
REMARK INTER + INTRA:          -7.523
REMARK INTER:                  -7.234
REMARK INTRA:                  -0.289
REMARK UNBOUND:                -0.324
REMARK SMILES O=C([O-])CCCCCCCC(=O)[O-]
REMARK SMILES IDX 7 1 6 2 5 3 4 4 2 5 1 6 3 7 8 8 9 9 10 10 11 11 12 12 13 13
REMARK H PARENT
REMARK Flexibility Score: inf
ROOT
ATOM      1  C   UNL     1      -4.287  35.458  20.532  1.00  0.00     0.000 C 
ENDROOT
BRANCH   1   2
ATOM      2  C   UNL     1      -4.364  35.957  19.081  1.00  0.00     0.000 C 
BRANCH   2   3
ATOM      3  C   UNL     1      -3.727  37.346  18.898  1.00  0.00     0.006 C 
BRANCH   3   4
ATOM      4  C   UNL     1      -2.420  37.282  18.096  1.00  0.00     0.053 C 
BRANCH   4   5
ATOM      5  C   UNL     1      -2.662  36.885  16.671  1.00  0.00     0.041 C 
ATOM      6  O   UNL     1      -3.445  37.557  15.950  1.00  0.00    -0.550 OA
ATOM      7  O   UNL     1      -1.996  35.792  16.131  1.00  0.00    -0.550 OA
ENDBRANCH   4   5
ENDBRANCH   3   4
ENDBRANCH   2   3
ENDBRANCH   1   2
BRANCH   1   8
ATOM      8  C   UNL     1      -5.544  35.803  21.344  1.00  0.00     0.000 C 
BRANCH   8   9
ATOM      9  C   UNL     1      -5.371  35.409  22.818  1.00  0.00     0.006 C 
BRANCH   9  10
ATOM     10  C   UNL     1      -6.087  36.378  23.767  1.00  0.00     0.053 C 
BRANCH  10  11
ATOM     11  C   UNL     1      -5.149  37.401  24.330  1.00  0.00     0.041 C 
ATOM     12  O   UNL     1      -4.636  37.233  25.468  1.00  0.00    -0.550 OA
ATOM     13  O   UNL     1      -4.866  38.555  23.611  1.00  0.00    -0.550 OA
ENDBRANCH  10  11
ENDBRANCH   9  10
ENDBRANCH   8   9
ENDBRANCH   1   8
TORSDOF 8
ENDMDL
MODEL 6
REMARK VINA RESULT:    -4.904      1.382      6.571
REMARK INTER + INTRA:          -7.521
REMARK INTER:                  -7.110
REMARK INTRA:                  -0.412
REMARK UNBOUND:                -0.324
REMARK SMILES O=C([O-])CCCCCCCC(=O)[O-]
REMARK SMILES IDX 7 1 6 2 5 3 4 4 2 5 1 6 3 7 8 8 9 9 10 10 11 11 12 12 13 13
REMARK H PARENT
REMARK Flexibility Score: inf
ROOT
ATOM      1  C   UNL     1      -5.740  35.795  20.862  1.00  0.00     0.000 C 
ENDROOT
BRANCH   1   2
ATOM      2  C   UNL     1      -5.297  36.944  19.943  1.00  0.00     0.000 C 
BRANCH   2   3
ATOM      3  C   UNL     1      -3.798  36.885  19.599  1.00  0.00     0.006 C 
BRANCH   3   4
ATOM      4  C   UNL     1      -3.525  37.249  18.134  1.00  0.00     0.053 C 
BRANCH   4   5
ATOM      5  C   UNL     1      -2.072  37.120  17.791  1.00  0.00     0.041 C 
ATOM      6  O   UNL     1      -1.723  36.693  16.660  1.00  0.00    -0.550 OA
ATOM      7  O   UNL     1      -1.104  37.505  18.710  1.00  0.00    -0.550 OA
ENDBRANCH   4   5
ENDBRANCH   3   4
ENDBRANCH   2   3
ENDBRANCH   1   2
BRANCH   1   8
ATOM      8  C   UNL     1      -4.686  35.447  21.924  1.00  0.00     0.000 C 
BRANCH   8   9
ATOM      9  C   UNL     1      -5.352  35.069  23.255  1.00  0.00     0.006 C 
BRANCH   9  10
ATOM     10  C   UNL     1      -6.095  36.252  23.890  1.00  0.00     0.053 C 
BRANCH  10  11
ATOM     11  C   UNL     1      -5.147  37.293  24.401  1.00  0.00     0.041 C 
ATOM     12  O   UNL     1      -4.565  37.131  25.506  1.00  0.00    -0.550 OA
ATOM     13  O   UNL     1      -4.934  38.456  23.674  1.00  0.00    -0.550 OA
ENDBRANCH  10  11
ENDBRANCH   9  10
ENDBRANCH   8   9
ENDBRANCH   1   8
TORSDOF 8
ENDMDL
MODEL 7
REMARK VINA RESULT:    -4.900      1.004      7.113
REMARK INTER + INTRA:          -7.516
REMARK INTER:                  -7.246
REMARK INTRA:                  -0.269
REMARK UNBOUND:                -0.324
REMARK SMILES O=C([O-])CCCCCCCC(=O)[O-]
REMARK SMILES IDX 7 1 6 2 5 3 4 4 2 5 1 6 3 7 8 8 9 9 10 10 11 11 12 12 13 13
REMARK H PARENT
REMARK Flexibility Score: inf
ROOT
ATOM      1  C   UNL     1      -4.335  36.175  20.640  1.00  0.00     0.000 C 
ENDROOT
BRANCH   1   2
ATOM      2  C   UNL     1      -4.590  37.191  19.516  1.00  0.00     0.000 C 
BRANCH   2   3
ATOM      3  C   UNL     1      -3.409  37.299  18.536  1.00  0.00     0.006 C 
BRANCH   3   4
ATOM      4  C   UNL     1      -3.489  36.254  17.415  1.00  0.00     0.053 C 
BRANCH   4   5
ATOM      5  C   UNL     1      -2.893  36.763  16.138  1.00  0.00     0.041 C 
ATOM      6  O   UNL     1      -1.807  36.288  15.712  1.00  0.00    -0.550 OA
ATOM      7  O   UNL     1      -3.554  37.737  15.401  1.00  0.00    -0.550 OA
ENDBRANCH   4   5
ENDBRANCH   3   4
ENDBRANCH   2   3
ENDBRANCH   1   2
BRANCH   1   8
ATOM      8  C   UNL     1      -5.621  35.776  21.380  1.00  0.00     0.000 C 
BRANCH   8   9
ATOM      9  C   UNL     1      -5.313  35.336  22.819  1.00  0.00     0.006 C 
BRANCH   9  10
ATOM     10  C   UNL     1      -6.029  36.208  23.858  1.00  0.00     0.053 C 
BRANCH  10  11
ATOM     11  C   UNL     1      -5.150  37.315  24.355  1.00  0.00     0.041 C 
ATOM     12  O   UNL     1      -4.616  37.239  25.492  1.00  0.00    -0.550 OA
ATOM     13  O   UNL     1      -4.949  38.446  23.574  1.00  0.00    -0.550 OA
ENDBRANCH  10  11
ENDBRANCH   9  10
ENDBRANCH   8   9
ENDBRANCH   1   8
TORSDOF 8
ENDMDL
MODEL 8
REMARK VINA RESULT:    -4.860      0.926      1.463
REMARK INTER + INTRA:          -7.458
REMARK INTER:                  -7.167
REMARK INTRA:                  -0.291
REMARK UNBOUND:                -0.324
REMARK SMILES O=C([O-])CCCCCCCC(=O)[O-]
REMARK SMILES IDX 7 1 6 2 5 3 4 4 2 5 1 6 3 7 8 8 9 9 10 10 11 11 12 12 13 13
REMARK H PARENT
REMARK Flexibility Score: inf
ROOT
ATOM      1  C   UNL     1      -4.241  35.816  20.787  1.00  0.00     0.000 C 
ENDROOT
BRANCH   1   2
ATOM      2  C   UNL     1      -5.605  35.714  21.488  1.00  0.00     0.000 C 
BRANCH   2   3
ATOM      3  C   UNL     1      -5.482  35.313  22.968  1.00  0.00     0.006 C 
BRANCH   3   4
ATOM      4  C   UNL     1      -6.125  36.347  23.903  1.00  0.00     0.053 C 
BRANCH   4   5
ATOM      5  C   UNL     1      -5.154  37.419  24.295  1.00  0.00     0.041 C 
ATOM      6  O   UNL     1      -4.456  37.292  25.335  1.00  0.00    -0.550 OA
ATOM      7  O   UNL     1      -4.997  38.543  23.494  1.00  0.00    -0.550 OA
ENDBRANCH   4   5
ENDBRANCH   3   4
ENDBRANCH   2   3
ENDBRANCH   1   2
BRANCH   1   8
ATOM      8  C   UNL     1      -4.367  35.922  19.260  1.00  0.00     0.000 C 
BRANCH   8   9
ATOM      9  C   UNL     1      -3.929  37.309  18.768  1.00  0.00     0.006 C 
BRANCH   9  10
ATOM     10  C   UNL     1      -2.601  37.262  18.001  1.00  0.00     0.053 C 
BRANCH  10  11
ATOM     11  C   UNL     1      -2.799  36.860  16.572  1.00  0.00     0.041 C 
ATOM     12  O   UNL     1      -3.341  37.655  15.760  1.00  0.00    -0.550 OA
ATOM     13  O   UNL     1      -2.416  35.595  16.146  1.00  0.00    -0.550 OA
ENDBRANCH  10  11
ENDBRANCH   9  10
ENDBRANCH   8   9
ENDBRANCH   1   8
TORSDOF 8
ENDMDL
MODEL 9
REMARK VINA RESULT:    -4.496      2.058      6.023
REMARK INTER + INTRA:          -6.924
REMARK INTER:                  -6.448
REMARK INTRA:                  -0.476
REMARK UNBOUND:                -0.324
REMARK SMILES O=C([O-])CCCCCCCC(=O)[O-]
REMARK SMILES IDX 7 1 6 2 5 3 4 4 2 5 1 6 3 7 8 8 9 9 10 10 11 11 12 12 13 13
REMARK H PARENT
REMARK Flexibility Score: inf
ROOT
ATOM      1  C   UNL     1      -5.646  36.028  20.151  1.00  0.00     0.000 C 
ENDROOT
BRANCH   1   2
ATOM      2  C   UNL     1      -5.101  34.985  19.163  1.00  0.00     0.000 C 
BRANCH   2   3
ATOM      3  C   UNL     1      -4.110  35.587  18.151  1.00  0.00     0.006 C 
BRANCH   3   4
ATOM      4  C   UNL     1      -3.658  36.997  18.554  1.00  0.00     0.053 C 
BRANCH   4   5
ATOM      5  C   UNL     1      -2.256  37.280  18.104  1.00  0.00     0.041 C 
ATOM      6  O   UNL     1      -1.471  37.924  18.847  1.00  0.00    -0.550 OA
ATOM      7  O   UNL     1      -1.809  36.801  16.879  1.00  0.00    -0.550 OA
ENDBRANCH   4   5
ENDBRANCH   3   4
ENDBRANCH   2   3
ENDBRANCH   1   2
BRANCH   1   8
ATOM      8  C   UNL     1      -5.800  35.470  21.574  1.00  0.00     0.000 C 
BRANCH   8   9
ATOM      9  C   UNL     1      -5.596  36.575  22.621  1.00  0.00     0.006 C 
BRANCH   9  10
ATOM     10  C   UNL     1      -4.697  37.706  22.104  1.00  0.00     0.053 C 
BRANCH  10  11
ATOM     11  C   UNL     1      -5.095  39.034  22.670  1.00  0.00     0.041 C 
ATOM     12  O   UNL     1      -4.852  39.308  23.875  1.00  0.00    -0.550 OA
ATOM     13  O   UNL     1      -5.763  39.957  21.875  1.00  0.00    -0.550 OA
ENDBRANCH  10  11
ENDBRANCH   9  10
ENDBRANCH   8   9
ENDBRANCH   1   8
TORSDOF 8
ENDMDL
