MODEL 1
REMARK VINA RESULT:    -4.444      0.000      0.000
REMARK INTER + INTRA:          -7.631
REMARK INTER:                  -7.042
REMARK INTRA:                  -0.589
REMARK UNBOUND:                -0.589
REMARK SMILES CCCCCCCCCCCC(=O)[O-]
REMARK SMILES IDX 7 1 8 2 9 3 10 4 11 5 12 6 13 7 14 8 6 9 5 10 4 11 3 12 2 13
REMARK SMILES IDX 1 14
REMARK H PARENT
REMARK Flexibility Score: inf
ROOT
ATOM      1  C   UNL     1       3.364 -37.585  19.549  1.00  0.00     0.000 C 
ENDROOT
BRANCH   1   2
ATOM      2  C   UNL     1       4.780 -37.398  20.108  1.00  0.00     0.000 C 
BRANCH   2   3
ATOM      3  C   UNL     1       5.281 -35.968  19.871  1.00  0.00     0.000 C 
BRANCH   3   4
ATOM      4  C   UNL     1       5.966 -35.410  21.124  1.00  0.00     0.006 C 
BRANCH   4   5
ATOM      5  C   UNL     1       5.951 -36.434  22.262  1.00  0.00     0.053 C 
BRANCH   5   6
ATOM      6  C   UNL     1       6.027 -35.746  23.588  1.00  0.00     0.041 C 
ATOM      7  O   UNL     1       6.047 -36.420  24.651  1.00  0.00    -0.550 OA
ATOM      8  O   UNL     1       6.125 -34.362  23.648  1.00  0.00    -0.550 OA
ENDBRANCH   5   6
ENDBRANCH   4   5
ENDBRANCH   3   4
ENDBRANCH   2   3
ENDBRANCH   1   2
BRANCH   1   9
ATOM      9  C   UNL     1       3.366 -37.537  18.017  1.00  0.00     0.000 C 
BRANCH   9  10
ATOM     10  C   UNL     1       1.932 -37.509  17.466  1.00  0.00    -0.000 C 
BRANCH  10  11
ATOM     11  C   UNL     1       1.818 -36.748  16.133  1.00  0.00    -0.000 C 
BRANCH  11  12
ATOM     12  C   UNL     1       3.162 -36.410  15.455  1.00  0.00    -0.000 C 
BRANCH  12  13
ATOM     13  C   UNL     1       3.407 -37.116  14.111  1.00  0.00    -0.003 C 
ATOM     14  C   UNL     1       4.250 -38.384  14.250  1.00  0.00     0.004 C 
ENDBRANCH  12  13
ENDBRANCH  11  12
ENDBRANCH  10  11
ENDBRANCH   9  10
ENDBRANCH   1   9
TORSDOF 10
ENDMDL
MODEL 2
REMARK VINA RESULT:    -4.280      4.029      7.749
REMARK INTER + INTRA:          -7.371
REMARK INTER:                  -6.921
REMARK INTRA:                  -0.449
REMARK UNBOUND:                -0.589
REMARK SMILES CCCCCCCCCCCC(=O)[O-]
REMARK SMILES IDX 7 1 8 2 9 3 10 4 11 5 12 6 13 7 14 8 6 9 5 10 4 11 3 12 2 13
REMARK SMILES IDX 1 14
REMARK H PARENT
REMARK Flexibility Score: inf
ROOT
ATOM      1  C   UNL     1       3.998 -36.683  20.164  1.00  0.00     0.000 C 
ENDROOT
BRANCH   1   2
ATOM      2  C   UNL     1       3.875 -37.525  18.888  1.00  0.00     0.000 C 
BRANCH   2   3
ATOM      3  C   UNL     1       2.408 -37.848  18.581  1.00  0.00     0.000 C 
BRANCH   3   4
ATOM      4  C   UNL     1       1.999 -37.299  17.210  1.00  0.00     0.006 C 
BRANCH   4   5
ATOM      5  C   UNL     1       3.216 -36.782  16.438  1.00  0.00     0.053 C 
BRANCH   5   6
ATOM      6  C   UNL     1       3.181 -37.263  15.021  1.00  0.00     0.041 C 
ATOM      7  O   UNL     1       2.438 -36.697  14.178  1.00  0.00    -0.550 OA
ATOM      8  O   UNL     1       4.007 -38.307  14.621  1.00  0.00    -0.550 OA
ENDBRANCH   5   6
ENDBRANCH   4   5
ENDBRANCH   3   4
ENDBRANCH   2   3
ENDBRANCH   1   2
BRANCH   1   9
ATOM      9  C   UNL     1       5.370 -36.004  20.246  1.00  0.00     0.000 C 
BRANCH   9  10
ATOM     10  C   UNL     1       5.951 -36.107  21.665  1.00  0.00    -0.000 C 
BRANCH  10  11
ATOM     11  C   UNL     1       5.369 -35.058  22.628  1.00  0.00    -0.000 C 
BRANCH  11  12
ATOM     12  C   UNL     1       5.877 -35.151  24.081  1.00  0.00    -0.000 C 
BRANCH  12  13
ATOM     13  C   UNL     1       6.052 -36.583  24.617  1.00  0.00    -0.003 C 
ATOM     14  C   UNL     1       5.019 -36.951  25.681  1.00  0.00     0.004 C 
ENDBRANCH  12  13
ENDBRANCH  11  12
ENDBRANCH  10  11
ENDBRANCH   9  10
ENDBRANCH   1   9
TORSDOF 10
ENDMDL
MODEL 3
REMARK VINA RESULT:    -3.885      3.898      7.711
REMARK INTER + INTRA:          -6.744
REMARK INTER:                  -6.229
REMARK INTRA:                  -0.515
REMARK UNBOUND:                -0.589
REMARK SMILES CCCCCCCCCCCC(=O)[O-]
REMARK SMILES IDX 7 1 8 2 9 3 10 4 11 5 12 6 13 7 14 8 6 9 5 10 4 11 3 12 2 13
REMARK SMILES IDX 1 14
REMARK H PARENT
REMARK Flexibility Score: inf
ROOT
ATOM      1  C   UNL     1       5.031 -35.707  19.779  1.00  0.00     0.000 C 
ENDROOT
BRANCH   1   2
ATOM      2  C   UNL     1       4.119 -36.830  20.289  1.00  0.00     0.000 C 
BRANCH   2   3
ATOM      3  C   UNL     1       3.610 -37.694  19.130  1.00  0.00     0.000 C 
BRANCH   3   4
ATOM      4  C   UNL     1       3.595 -36.902  17.817  1.00  0.00     0.006 C 
BRANCH   4   5
ATOM      5  C   UNL     1       2.583 -37.491  16.831  1.00  0.00     0.053 C 
BRANCH   5   6
ATOM      6  C   UNL     1       3.114 -37.428  15.434  1.00  0.00     0.041 C 
ATOM      7  O   UNL     1       3.842 -38.354  14.990  1.00  0.00    -0.550 OA
ATOM      8  O   UNL     1       2.765 -36.369  14.604  1.00  0.00    -0.550 OA
ENDBRANCH   5   6
ENDBRANCH   4   5
ENDBRANCH   3   4
ENDBRANCH   2   3
ENDBRANCH   1   2
BRANCH   1   9
ATOM      9  C   UNL     1       6.125 -35.379  20.801  1.00  0.00     0.000 C 
BRANCH   9  10
ATOM     10  C   UNL     1       5.789 -35.972  22.177  1.00  0.00    -0.000 C 
BRANCH  10  11
ATOM     11  C   UNL     1       5.931 -34.953  23.321  1.00  0.00    -0.000 C 
BRANCH  11  12
ATOM     12  C   UNL     1       5.903 -35.555  24.741  1.00  0.00    -0.000 C 
BRANCH  12  13
ATOM     13  C   UNL     1       5.685 -37.076  24.797  1.00  0.00    -0.003 C 
ATOM     14  C   UNL     1       4.694 -37.496  25.883  1.00  0.00     0.004 C 
ENDBRANCH  12  13
ENDBRANCH  11  12
ENDBRANCH  10  11
ENDBRANCH   9  10
ENDBRANCH   1   9
TORSDOF 10
ENDMDL
MODEL 4
REMARK VINA RESULT:    -3.570      1.389      2.206
REMARK INTER + INTRA:          -6.245
REMARK INTER:                  -5.736
REMARK INTRA:                  -0.509
REMARK UNBOUND:                -0.589
REMARK SMILES CCCCCCCCCCCC(=O)[O-]
REMARK SMILES IDX 7 1 8 2 9 3 10 4 11 5 12 6 13 7 14 8 6 9 5 10 4 11 3 12 2 13
REMARK SMILES IDX 1 14
REMARK H PARENT
REMARK Flexibility Score: inf
ROOT
ATOM      1  C   UNL     1       5.234 -37.255  20.773  1.00  0.00     0.000 C 
ENDROOT
BRANCH   1   2
ATOM      2  C   UNL     1       4.805 -35.788  20.644  1.00  0.00     0.000 C 
BRANCH   2   3
ATOM      3  C   UNL     1       4.830 -35.085  22.005  1.00  0.00     0.000 C 
BRANCH   3   4
ATOM      4  C   UNL     1       6.124 -35.399  22.764  1.00  0.00     0.006 C 
BRANCH   4   5
ATOM      5  C   UNL     1       5.884 -35.427  24.275  1.00  0.00     0.053 C 
BRANCH   5   6
ATOM      6  C   UNL     1       5.514 -36.806  24.722  1.00  0.00     0.041 C 
ATOM      7  O   UNL     1       5.912 -37.810  24.075  1.00  0.00    -0.550 OA
ATOM      8  O   UNL     1       4.770 -36.985  25.882  1.00  0.00    -0.550 OA
ENDBRANCH   5   6
ENDBRANCH   4   5
ENDBRANCH   3   4
ENDBRANCH   2   3
ENDBRANCH   1   2
BRANCH   1   9
ATOM      9  C   UNL     1       4.804 -38.066  19.546  1.00  0.00     0.000 C 
BRANCH   9  10
ATOM     10  C   UNL     1       3.413 -37.633  19.059  1.00  0.00    -0.000 C 
BRANCH  10  11
ATOM     11  C   UNL     1       3.399 -37.215  17.578  1.00  0.00    -0.000 C 
BRANCH  11  12
ATOM     12  C   UNL     1       2.029 -37.333  16.879  1.00  0.00    -0.000 C 
BRANCH  12  13
ATOM     13  C   UNL     1       1.875 -36.483  15.606  1.00  0.00    -0.003 C 
ATOM     14  C   UNL     1       3.079 -36.589  14.670  1.00  0.00     0.004 C 
ENDBRANCH  12  13
ENDBRANCH  11  12
ENDBRANCH  10  11
ENDBRANCH   9  10
ENDBRANCH   1   9
TORSDOF 10
ENDMDL
MODEL 5
REMARK VINA RESULT:    -2.406      2.104      2.867
REMARK INTER + INTRA:          -4.402
REMARK INTER:                  -4.229
REMARK INTRA:                  -0.173
REMARK UNBOUND:                -0.589
REMARK SMILES CCCCCCCCCCCC(=O)[O-]
REMARK SMILES IDX 7 1 8 2 9 3 10 4 11 5 12 6 13 7 14 8 6 9 5 10 4 11 3 12 2 13
REMARK SMILES IDX 1 14
REMARK H PARENT
REMARK Flexibility Score: inf
ROOT
ATOM      1  C   UNL     1       4.653 -35.784  19.762  1.00  0.00     0.000 C 
ENDROOT
BRANCH   1   2
ATOM      2  C   UNL     1       6.017 -35.684  20.456  1.00  0.00     0.000 C 
BRANCH   2   3
ATOM      3  C   UNL     1       5.872 -35.822  21.976  1.00  0.00     0.000 C 
BRANCH   3   4
ATOM      4  C   UNL     1       5.256 -37.174  22.350  1.00  0.00     0.006 C 
BRANCH   4   5
ATOM      5  C   UNL     1       6.034 -38.329  21.714  1.00  0.00     0.053 C 
BRANCH   5   6
ATOM      6  C   UNL     1       5.717 -39.619  22.403  1.00  0.00     0.041 C 
ATOM      7  O   UNL     1       5.295 -39.616  23.589  1.00  0.00    -0.550 OA
ATOM      8  O   UNL     1       5.839 -40.821  21.718  1.00  0.00    -0.550 OA
ENDBRANCH   5   6
ENDBRANCH   4   5
ENDBRANCH   3   4
ENDBRANCH   2   3
ENDBRANCH   1   2
BRANCH   1   9
ATOM      9  C   UNL     1       4.464 -37.159  19.114  1.00  0.00     0.000 C 
BRANCH   9  10
ATOM     10  C   UNL     1       3.000 -37.615  19.207  1.00  0.00    -0.000 C 
BRANCH  10  11
ATOM     11  C   UNL     1       2.320 -37.733  17.832  1.00  0.00    -0.000 C 
BRANCH  11  12
ATOM     12  C   UNL     1       3.006 -36.949  16.694  1.00  0.00    -0.000 C 
BRANCH  12  13
ATOM     13  C   UNL     1       3.367 -37.786  15.454  1.00  0.00    -0.003 C 
ATOM     14  C   UNL     1       3.309 -36.982  14.156  1.00  0.00     0.004 C 
ENDBRANCH  12  13
ENDBRANCH  11  12
ENDBRANCH  10  11
ENDBRANCH   9  10
ENDBRANCH   1   9
TORSDOF 10
ENDMDL
MODEL 6
REMARK VINA RESULT:    -2.384      3.595      7.111
REMARK INTER + INTRA:          -4.366
REMARK INTER:                  -3.666
REMARK INTRA:                  -0.701
REMARK UNBOUND:                -0.589
REMARK SMILES CCCCCCCCCCCC(=O)[O-]
REMARK SMILES IDX 7 1 8 2 9 3 10 4 11 5 12 6 13 7 14 8 6 9 5 10 4 11 3 12 2 13
REMARK SMILES IDX 1 14
REMARK H PARENT
REMARK Flexibility Score: inf
ROOT
ATOM      1  C   UNL     1       5.783 -36.124  21.108  1.00  0.00     0.000 C 
ENDROOT
BRANCH   1   2
ATOM      2  C   UNL     1       5.179 -35.976  19.706  1.00  0.00     0.000 C 
BRANCH   2   3
ATOM      3  C   UNL     1       4.581 -37.301  19.222  1.00  0.00     0.000 C 
BRANCH   3   4
ATOM      4  C   UNL     1       3.060 -37.195  19.066  1.00  0.00     0.006 C 
BRANCH   4   5
ATOM      5  C   UNL     1       2.580 -37.944  17.819  1.00  0.00     0.053 C 
BRANCH   5   6
ATOM      6  C   UNL     1       3.130 -37.308  16.581  1.00  0.00     0.041 C 
ATOM      7  O   UNL     1       3.296 -37.992  15.538  1.00  0.00    -0.550 OA
ATOM      8  O   UNL     1       3.412 -35.947  16.565  1.00  0.00    -0.550 OA
ENDBRANCH   5   6
ENDBRANCH   4   5
ENDBRANCH   3   4
ENDBRANCH   2   3
ENDBRANCH   1   2
BRANCH   1   9
ATOM      9  C   UNL     1       4.837 -35.568  22.178  1.00  0.00     0.000 C 
BRANCH   9  10
ATOM     10  C   UNL     1       5.585 -35.308  23.494  1.00  0.00    -0.000 C 
BRANCH  10  11
ATOM     11  C   UNL     1       6.120 -36.596  24.143  1.00  0.00    -0.000 C 
BRANCH  11  12
ATOM     12  C   UNL     1       5.045 -37.642  24.506  1.00  0.00    -0.000 C 
BRANCH  12  13
ATOM     13  C   UNL     1       5.419 -39.097  24.178  1.00  0.00    -0.003 C 
ATOM     14  C   UNL     1       5.367 -39.402  22.681  1.00  0.00     0.004 C 
ENDBRANCH  12  13
ENDBRANCH  11  12
ENDBRANCH  10  11
ENDBRANCH   9  10
ENDBRANCH   1   9
TORSDOF 10
ENDMDL
MODEL 7
REMARK VINA RESULT:    -2.357      4.268      7.432
REMARK INTER + INTRA:          -4.324
REMARK INTER:                  -3.628
REMARK INTRA:                  -0.696
REMARK UNBOUND:                -0.589
REMARK SMILES CCCCCCCCCCCC(=O)[O-]
REMARK SMILES IDX 7 1 8 2 9 3 10 4 11 5 12 6 13 7 14 8 6 9 5 10 4 11 3 12 2 13
REMARK SMILES IDX 1 14
REMARK H PARENT
REMARK Flexibility Score: inf
ROOT
ATOM      1  C   UNL     1       3.986 -36.433  19.710  1.00  0.00     0.000 C 
ENDROOT
BRANCH   1   2
ATOM      2  C   UNL     1       2.949 -37.557  19.824  1.00  0.00     0.000 C 
BRANCH   2   3
ATOM      3  C   UNL     1       2.239 -37.789  18.486  1.00  0.00     0.000 C 
BRANCH   3   4
ATOM      4  C   UNL     1       3.174 -37.496  17.308  1.00  0.00     0.006 C 
BRANCH   4   5
ATOM      5  C   UNL     1       2.384 -37.053  16.074  1.00  0.00     0.053 C 
BRANCH   5   6
ATOM      6  C   UNL     1       3.157 -37.338  14.825  1.00  0.00     0.041 C 
ATOM      7  O   UNL     1       3.154 -36.512  13.875  1.00  0.00    -0.550 OA
ATOM      8  O   UNL     1       3.922 -38.495  14.730  1.00  0.00    -0.550 OA
ENDBRANCH   5   6
ENDBRANCH   4   5
ENDBRANCH   3   4
ENDBRANCH   2   3
ENDBRANCH   1   2
BRANCH   1   9
ATOM      9  C   UNL     1       5.365 -36.906  20.181  1.00  0.00     0.000 C 
BRANCH   9  10
ATOM     10  C   UNL     1       5.402 -38.434  20.331  1.00  0.00    -0.000 C 
BRANCH  10  11
ATOM     11  C   UNL     1       6.000 -38.891  21.673  1.00  0.00    -0.000 C 
BRANCH  11  12
ATOM     12  C   UNL     1       5.060 -39.741  22.552  1.00  0.00    -0.000 C 
BRANCH  12  13
ATOM     13  C   UNL     1       5.226 -39.536  24.067  1.00  0.00    -0.003 C 
ATOM     14  C   UNL     1       5.339 -38.063  24.460  1.00  0.00     0.004 C 
ENDBRANCH  12  13
ENDBRANCH  11  12
ENDBRANCH  10  11
ENDBRANCH   9  10
ENDBRANCH   1   9
TORSDOF 10
ENDMDL
MODEL 8
REMARK VINA RESULT:    -2.061      3.875      7.554
REMARK INTER + INTRA:          -3.854
REMARK INTER:                  -3.672
REMARK INTRA:                  -0.182
REMARK UNBOUND:                -0.589
REMARK SMILES CCCCCCCCCCCC(=O)[O-]
REMARK SMILES IDX 7 1 8 2 9 3 10 4 11 5 12 6 13 7 14 8 6 9 5 10 4 11 3 12 2 13
REMARK SMILES IDX 1 14
REMARK H PARENT
REMARK Flexibility Score: inf
ROOT
ATOM      1  C   UNL     1       5.718 -37.092  22.301  1.00  0.00     0.000 C 
ENDROOT
BRANCH   1   2
ATOM      2  C   UNL     1       5.552 -37.857  20.982  1.00  0.00     0.000 C 
BRANCH   2   3
ATOM      3  C   UNL     1       5.021 -36.939  19.876  1.00  0.00     0.000 C 
BRANCH   3   4
ATOM      4  C   UNL     1       4.054 -37.690  18.954  1.00  0.00     0.006 C 
BRANCH   4   5
ATOM      5  C   UNL     1       2.634 -37.686  19.525  1.00  0.00     0.053 C 
BRANCH   5   6
ATOM      6  C   UNL     1       1.624 -37.725  18.421  1.00  0.00     0.041 C 
ATOM      7  O   UNL     1       1.981 -37.528  17.230  1.00  0.00    -0.550 OA
ATOM      8  O   UNL     1       0.298 -38.028  18.702  1.00  0.00    -0.550 OA
ENDBRANCH   5   6
ENDBRANCH   4   5
ENDBRANCH   3   4
ENDBRANCH   2   3
ENDBRANCH   1   2
BRANCH   1   9
ATOM      9  C   UNL     1       5.964 -35.601  22.046  1.00  0.00     0.000 C 
BRANCH   9  10
ATOM     10  C   UNL     1       5.576 -34.761  23.272  1.00  0.00    -0.000 C 
BRANCH  10  11
ATOM     11  C   UNL     1       6.124 -35.335  24.590  1.00  0.00    -0.000 C 
BRANCH  11  12
ATOM     12  C   UNL     1       5.080 -36.035  25.484  1.00  0.00    -0.000 C 
BRANCH  12  13
ATOM     13  C   UNL     1       5.028 -37.566  25.344  1.00  0.00    -0.003 C 
ATOM     14  C   UNL     1       4.154 -38.232  26.407  1.00  0.00     0.004 C 
ENDBRANCH  12  13
ENDBRANCH  11  12
ENDBRANCH  10  11
ENDBRANCH   9  10
ENDBRANCH   1   9
TORSDOF 10
ENDMDL
