MODEL 1
REMARK VINA RESULT:    -5.153      0.000      0.000
REMARK INTER + INTRA:          -6.359
REMARK INTER:                  -6.057
REMARK INTRA:                  -0.302
REMARK UNBOUND:                -0.302
REMARK SMILES O=c1cc(-c2ccc(O)c(O)c2)oc2cc(O)cc(O)c12
REMARK SMILES IDX 4 1 3 2 2 3 1 4 21 5 19 6 18 7 16 8 15 9 14 10 13 11 5 12
REMARK SMILES IDX 6 13 7 14 8 15 12 16 10 17 9 18 11 20 20 22 17 24
REMARK H PARENT 9 19 11 21 20 23 17 25
REMARK Flexibility Score: inf
ROOT
ATOM      1  C   UNL     1     173.007 170.796 149.140  1.00  0.00     0.138 A 
ATOM      2  C   UNL     1     172.117 171.845 148.865  1.00  0.00     0.100 A 
ATOM      3  C   UNL     1     172.612 173.134 148.667  1.00  0.00     0.197 A 
ATOM      4  O   UNL     1     171.796 174.043 148.362  1.00  0.00    -0.289 OA
ATOM      5  C   UNL     1     174.002 173.380 148.777  1.00  0.00     0.107 A 
ATOM      6  C   UNL     1     174.613 174.662 148.635  1.00  0.00     0.134 A 
ATOM      7  C   UNL     1     176.010 174.764 148.648  1.00  0.00     0.093 A 
ATOM      8  C   UNL     1     176.814 173.639 148.857  1.00  0.00     0.123 A 
ATOM      9  C   UNL     1     176.223 172.393 149.050  1.00  0.00     0.094 A 
ATOM     10  C   UNL     1     174.833 172.253 149.008  1.00  0.00     0.146 A 
ATOM     11  O   UNL     1     174.312 171.044 149.182  1.00  0.00    -0.456 OA
ENDROOT
BRANCH   1  12
ATOM     12  C   UNL     1     172.535 169.406 149.359  1.00  0.00     0.021 A 
ATOM     13  C   UNL     1     171.334 169.130 150.042  1.00  0.00     0.016 A 
ATOM     14  C   UNL     1     170.919 167.812 150.243  1.00  0.00     0.051 A 
ATOM     15  C   UNL     1     171.698 166.745 149.775  1.00  0.00     0.157 A 
ATOM     16  C   UNL     1     173.316 168.329 148.904  1.00  0.00     0.062 A 
ATOM     17  C   UNL     1     172.903 167.007 149.104  1.00  0.00     0.158 A 
BRANCH  15  18
ATOM     18  O   UNL     1     171.280 165.431 149.976  1.00  0.00    -0.504 OA
ATOM     19  H   UNL     1     170.383 165.102 149.638  1.00  0.00     0.293 HD
ENDBRANCH  15  18
BRANCH  17  20
ATOM     20  O   UNL     1     173.703 165.968 148.628  1.00  0.00    -0.504 OA
ATOM     21  H   UNL     1     173.939 165.166 149.201  1.00  0.00     0.293 HD
ENDBRANCH  17  20
ENDBRANCH   1  12
BRANCH   6  22
ATOM     22  O   UNL     1     173.902 175.858 148.507  1.00  0.00    -0.507 OA
ATOM     23  H   UNL     1     173.807 176.383 147.652  1.00  0.00     0.293 HD
ENDBRANCH   6  22
BRANCH   8  24
ATOM     24  O   UNL     1     178.202 173.754 148.883  1.00  0.00    -0.508 OA
ATOM     25  H   UNL     1     178.659 174.657 148.923  1.00  0.00     0.293 HD
ENDBRANCH   8  24
TORSDOF 5
ENDMDL
MODEL 2
REMARK VINA RESULT:    -5.153      3.824      6.761
REMARK INTER + INTRA:          -6.359
REMARK INTER:                  -6.055
REMARK INTRA:                  -0.304
REMARK UNBOUND:                -0.302
REMARK SMILES O=c1cc(-c2ccc(O)c(O)c2)oc2cc(O)cc(O)c12
REMARK SMILES IDX 4 1 3 2 2 3 1 4 21 5 19 6 18 7 16 8 15 9 14 10 13 11 5 12
REMARK SMILES IDX 6 13 7 14 8 15 12 16 10 17 9 18 11 20 20 22 17 24
REMARK H PARENT 9 19 11 21 20 23 17 25
REMARK Flexibility Score: inf
ROOT
ATOM      1  C   UNL     1     170.793 175.136 149.131  1.00  0.00     0.138 A 
ATOM      2  C   UNL     1     171.845 176.029 148.883  1.00  0.00     0.100 A 
ATOM      3  C   UNL     1     173.135 175.538 148.689  1.00  0.00     0.197 A 
ATOM      4  O   UNL     1     174.048 176.359 148.409  1.00  0.00    -0.289 OA
ATOM      5  C   UNL     1     173.379 174.146 148.776  1.00  0.00     0.107 A 
ATOM      6  C   UNL     1     174.662 173.536 148.636  1.00  0.00     0.134 A 
ATOM      7  C   UNL     1     174.763 172.139 148.624  1.00  0.00     0.093 A 
ATOM      8  C   UNL     1     173.636 171.332 148.806  1.00  0.00     0.123 A 
ATOM      9  C   UNL     1     172.388 171.921 148.998  1.00  0.00     0.094 A 
ATOM     10  C   UNL     1     172.249 173.311 148.980  1.00  0.00     0.146 A 
ATOM     11  O   UNL     1     171.039 173.830 149.151  1.00  0.00    -0.456 OA
ENDROOT
BRANCH   1  12
ATOM     12  C   UNL     1     169.400 175.604 149.344  1.00  0.00     0.021 A 
ATOM     13  C   UNL     1     169.120 176.815 150.009  1.00  0.00     0.016 A 
ATOM     14  C   UNL     1     167.800 177.226 150.205  1.00  0.00     0.051 A 
ATOM     15  C   UNL     1     166.736 176.435 149.752  1.00  0.00     0.157 A 
ATOM     16  C   UNL     1     168.326 174.811 148.904  1.00  0.00     0.062 A 
ATOM     17  C   UNL     1     167.003 175.221 149.099  1.00  0.00     0.158 A 
BRANCH  15  18
ATOM     18  O   UNL     1     165.420 176.850 149.948  1.00  0.00    -0.504 OA
ATOM     19  H   UNL     1     164.892 177.305 149.212  1.00  0.00     0.293 HD
ENDBRANCH  15  18
BRANCH  17  20
ATOM     20  O   UNL     1     165.967 174.408 148.638  1.00  0.00    -0.504 OA
ATOM     21  H   UNL     1     166.062 173.401 148.573  1.00  0.00     0.293 HD
ENDBRANCH  17  20
ENDBRANCH   1  12
BRANCH   6  22
ATOM     22  O   UNL     1     175.860 174.249 148.533  1.00  0.00    -0.507 OA
ATOM     23  H   UNL     1     176.710 174.022 149.024  1.00  0.00     0.293 HD
ENDBRANCH   6  22
BRANCH   8  24
ATOM     24  O   UNL     1     173.750 169.944 148.808  1.00  0.00    -0.508 OA
ATOM     25  H   UNL     1     173.715 169.408 147.948  1.00  0.00     0.293 HD
ENDBRANCH   8  24
TORSDOF 5
ENDMDL
MODEL 3
REMARK VINA RESULT:    -5.144      3.831      6.682
REMARK INTER + INTRA:          -6.348
REMARK INTER:                  -6.046
REMARK INTRA:                  -0.301
REMARK UNBOUND:                -0.302
REMARK SMILES O=c1cc(-c2ccc(O)c(O)c2)oc2cc(O)cc(O)c12
REMARK SMILES IDX 4 1 3 2 2 3 1 4 21 5 19 6 18 7 16 8 15 9 14 10 13 11 5 12
REMARK SMILES IDX 6 13 7 14 8 15 12 16 10 17 9 18 11 20 20 22 17 24
REMARK H PARENT 9 19 11 21 20 23 17 25
REMARK Flexibility Score: inf
ROOT
ATOM      1  C   UNL     1     177.229 173.043 149.130  1.00  0.00     0.138 A 
ATOM      2  C   UNL     1     176.157 172.174 148.880  1.00  0.00     0.100 A 
ATOM      3  C   UNL     1     174.878 172.696 148.687  1.00  0.00     0.197 A 
ATOM      4  O   UNL     1     173.947 171.897 148.403  1.00  0.00    -0.289 OA
ATOM      5  C   UNL     1     174.666 174.093 148.776  1.00  0.00     0.107 A 
ATOM      6  C   UNL     1     173.398 174.733 148.637  1.00  0.00     0.134 A 
ATOM      7  C   UNL     1     173.330 176.131 148.629  1.00  0.00     0.093 A 
ATOM      8  C   UNL     1     174.475 176.911 148.814  1.00  0.00     0.123 A 
ATOM      9  C   UNL     1     175.709 176.294 149.004  1.00  0.00     0.094 A 
ATOM     10  C   UNL     1     175.816 174.901 148.984  1.00  0.00     0.146 A 
ATOM     11  O   UNL     1     177.014 174.354 149.154  1.00  0.00    -0.456 OA
ENDROOT
BRANCH   1  12
ATOM     12  C   UNL     1     178.611 172.541 149.343  1.00  0.00     0.021 A 
ATOM     13  C   UNL     1     178.865 171.348 150.048  1.00  0.00     0.016 A 
ATOM     14  C   UNL     1     180.175 170.906 150.243  1.00  0.00     0.051 A 
ATOM     15  C   UNL     1     181.255 171.648 149.747  1.00  0.00     0.157 A 
ATOM     16  C   UNL     1     179.701 173.286 148.860  1.00  0.00     0.062 A 
ATOM     17  C   UNL     1     181.014 172.845 149.053  1.00  0.00     0.158 A 
BRANCH  15  18
ATOM     18  O   UNL     1     182.561 171.202 149.942  1.00  0.00    -0.504 OA
ATOM     19  H   UNL     1     183.216 171.715 150.521  1.00  0.00     0.293 HD
ENDBRANCH  15  18
BRANCH  17  20
ATOM     20  O   UNL     1     182.067 173.609 148.550  1.00  0.00    -0.504 OA
ATOM     21  H   UNL     1     183.019 173.264 148.528  1.00  0.00     0.293 HD
ENDBRANCH  17  20
ENDBRANCH   1  12
BRANCH   6  22
ATOM     22  O   UNL     1     172.185 174.048 148.532  1.00  0.00    -0.507 OA
ATOM     23  H   UNL     1     171.813 173.662 147.678  1.00  0.00     0.293 HD
ENDBRANCH   6  22
BRANCH   8  24
ATOM     24  O   UNL     1     174.394 178.302 148.819  1.00  0.00    -0.508 OA
ATOM     25  H   UNL     1     175.224 178.882 148.778  1.00  0.00     0.293 HD
ENDBRANCH   8  24
TORSDOF 5
ENDMDL
MODEL 4
REMARK VINA RESULT:    -5.143      3.925      9.570
REMARK INTER + INTRA:          -6.346
REMARK INTER:                  -6.043
REMARK INTRA:                  -0.303
REMARK UNBOUND:                -0.302
REMARK SMILES O=c1cc(-c2ccc(O)c(O)c2)oc2cc(O)cc(O)c12
REMARK SMILES IDX 4 1 3 2 2 3 1 4 21 5 19 6 18 7 16 8 15 9 14 10 13 11 5 12
REMARK SMILES IDX 6 13 7 14 8 15 12 16 10 17 9 18 11 20 20 22 17 24
REMARK H PARENT 9 19 11 21 20 23 17 25
REMARK Flexibility Score: inf
ROOT
ATOM      1  C   UNL     1     175.109 177.349 149.150  1.00  0.00     0.138 A 
ATOM      2  C   UNL     1     175.989 176.287 148.898  1.00  0.00     0.100 A 
ATOM      3  C   UNL     1     175.482 175.002 148.705  1.00  0.00     0.197 A 
ATOM      4  O   UNL     1     176.291 174.080 148.420  1.00  0.00    -0.289 OA
ATOM      5  C   UNL     1     174.087 174.775 148.795  1.00  0.00     0.107 A 
ATOM      6  C   UNL     1     173.462 173.499 148.656  1.00  0.00     0.134 A 
ATOM      7  C   UNL     1     172.064 173.415 148.648  1.00  0.00     0.093 A 
ATOM      8  C   UNL     1     171.271 174.551 148.834  1.00  0.00     0.123 A 
ATOM      9  C   UNL     1     171.875 175.792 149.025  1.00  0.00     0.094 A 
ATOM     10  C   UNL     1     173.267 175.914 149.003  1.00  0.00     0.146 A 
ATOM     11  O   UNL     1     173.801 177.118 149.174  1.00  0.00    -0.456 OA
ENDROOT
BRANCH   1  12
ATOM     12  C   UNL     1     175.595 178.736 149.363  1.00  0.00     0.021 A 
ATOM     13  C   UNL     1     176.805 179.001 150.035  1.00  0.00     0.016 A 
ATOM     14  C   UNL     1     177.233 180.316 150.231  1.00  0.00     0.051 A 
ATOM     15  C   UNL     1     176.459 181.389 149.770  1.00  0.00     0.157 A 
ATOM     16  C   UNL     1     174.819 179.819 148.915  1.00  0.00     0.062 A 
ATOM     17  C   UNL     1     175.245 181.137 149.110  1.00  0.00     0.158 A 
BRANCH  15  18
ATOM     18  O   UNL     1     176.890 182.700 149.966  1.00  0.00    -0.504 OA
ATOM     19  H   UNL     1     177.339 183.227 149.225  1.00  0.00     0.293 HD
ENDBRANCH  15  18
BRANCH  17  20
ATOM     20  O   UNL     1     174.450 182.183 148.641  1.00  0.00    -0.504 OA
ATOM     21  H   UNL     1     173.814 182.066 147.861  1.00  0.00     0.293 HD
ENDBRANCH  17  20
ENDBRANCH   1  12
BRANCH   6  22
ATOM     22  O   UNL     1     174.160 172.293 148.549  1.00  0.00    -0.507 OA
ATOM     23  H   UNL     1     173.828 171.476 148.061  1.00  0.00     0.293 HD
ENDBRANCH   6  22
BRANCH   8  24
ATOM     24  O   UNL     1     169.881 174.454 148.840  1.00  0.00    -0.508 OA
ATOM     25  H   UNL     1     169.394 173.849 149.491  1.00  0.00     0.293 HD
ENDBRANCH   8  24
TORSDOF 5
ENDMDL
MODEL 5
REMARK VINA RESULT:    -5.091      3.938      6.683
REMARK INTER + INTRA:          -6.286
REMARK INTER:                  -5.998
REMARK INTRA:                  -0.288
REMARK UNBOUND:                -0.302
REMARK SMILES O=c1cc(-c2ccc(O)c(O)c2)oc2cc(O)cc(O)c12
REMARK SMILES IDX 4 1 3 2 2 3 1 4 21 5 19 6 18 7 16 8 15 9 14 10 13 11 5 12
REMARK SMILES IDX 6 13 7 14 8 15 12 16 10 17 9 18 11 20 20 22 17 24
REMARK H PARENT 9 19 11 21 20 23 17 25
REMARK Flexibility Score: inf
ROOT
ATOM      1  C   UNL     1     170.759 175.136 149.200  1.00  0.00     0.138 A 
ATOM      2  C   UNL     1     171.095 173.779 149.089  1.00  0.00     0.100 A 
ATOM      3  C   UNL     1     172.430 173.411 148.921  1.00  0.00     0.197 A 
ATOM      4  O   UNL     1     172.707 172.183 148.885  1.00  0.00    -0.289 OA
ATOM      5  C   UNL     1     173.430 174.409 148.834  1.00  0.00     0.107 A 
ATOM      6  C   UNL     1     174.818 174.151 148.623  1.00  0.00     0.134 A 
ATOM      7  C   UNL     1     175.730 175.213 148.671  1.00  0.00     0.093 A 
ATOM      8  C   UNL     1     175.298 176.528 148.862  1.00  0.00     0.123 A 
ATOM      9  C   UNL     1     173.939 176.794 149.015  1.00  0.00     0.094 A 
ATOM     10  C   UNL     1     173.007 175.753 149.007  1.00  0.00     0.146 A 
ATOM     11  O   UNL     1     171.723 176.050 149.171  1.00  0.00    -0.456 OA
ENDROOT
BRANCH   1  12
ATOM     12  C   UNL     1     169.354 175.583 149.380  1.00  0.00     0.021 A 
ATOM     13  C   UNL     1     169.041 176.795 150.027  1.00  0.00     0.016 A 
ATOM     14  C   UNL     1     167.710 177.186 150.192  1.00  0.00     0.051 A 
ATOM     15  C   UNL     1     166.669 176.374 149.723  1.00  0.00     0.157 A 
ATOM     16  C   UNL     1     168.304 174.769 148.923  1.00  0.00     0.062 A 
ATOM     17  C   UNL     1     166.970 175.158 149.087  1.00  0.00     0.158 A 
BRANCH  15  18
ATOM     18  O   UNL     1     165.343 176.769 149.887  1.00  0.00    -0.504 OA
ATOM     19  H   UNL     1     165.092 177.743 150.020  1.00  0.00     0.293 HD
ENDBRANCH  15  18
BRANCH  17  20
ATOM     20  O   UNL     1     165.957 174.325 148.611  1.00  0.00    -0.504 OA
ATOM     21  H   UNL     1     165.038 174.300 149.036  1.00  0.00     0.293 HD
ENDBRANCH  17  20
ENDBRANCH   1  12
BRANCH   6  22
ATOM     22  O   UNL     1     175.344 172.888 148.339  1.00  0.00    -0.507 OA
ATOM     23  H   UNL     1     176.313 172.700 148.135  1.00  0.00     0.293 HD
ENDBRANCH   6  22
BRANCH   8  24
ATOM     24  O   UNL     1     176.212 177.579 148.894  1.00  0.00    -0.508 OA
ATOM     25  H   UNL     1     176.190 178.322 148.205  1.00  0.00     0.293 HD
ENDBRANCH   8  24
TORSDOF 5
ENDMDL
MODEL 6
REMARK VINA RESULT:    -5.056      3.949      9.157
REMARK INTER + INTRA:          -6.245
REMARK INTER:                  -5.958
REMARK INTRA:                  -0.287
REMARK UNBOUND:                -0.302
REMARK SMILES O=c1cc(-c2ccc(O)c(O)c2)oc2cc(O)cc(O)c12
REMARK SMILES IDX 4 1 3 2 2 3 1 4 21 5 19 6 18 7 16 8 15 9 14 10 13 11 5 12
REMARK SMILES IDX 6 13 7 14 8 15 12 16 10 17 9 18 11 20 20 22 17 24
REMARK H PARENT 9 19 11 21 20 23 17 25
REMARK Flexibility Score: inf
ROOT
ATOM      1  C   UNL     1     175.091 177.414 149.175  1.00  0.00     0.138 A 
ATOM      2  C   UNL     1     173.729 177.104 149.045  1.00  0.00     0.100 A 
ATOM      3  C   UNL     1     173.338 175.778 148.864  1.00  0.00     0.197 A 
ATOM      4  O   UNL     1     172.106 175.523 148.811  1.00  0.00    -0.289 OA
ATOM      5  C   UNL     1     174.318 174.760 148.780  1.00  0.00     0.107 A 
ATOM      6  C   UNL     1     174.037 173.379 148.556  1.00  0.00     0.134 A 
ATOM      7  C   UNL     1     175.081 172.446 148.609  1.00  0.00     0.093 A 
ATOM      8  C   UNL     1     176.402 172.852 148.819  1.00  0.00     0.123 A 
ATOM      9  C   UNL     1     176.691 174.204 148.985  1.00  0.00     0.094 A 
ATOM     10  C   UNL     1     175.668 175.156 148.971  1.00  0.00     0.146 A 
ATOM     11  O   UNL     1     175.987 176.433 149.149  1.00  0.00    -0.456 OA
ENDROOT
BRANCH   1  12
ATOM     12  C   UNL     1     175.563 178.808 149.370  1.00  0.00     0.021 A 
ATOM     13  C   UNL     1     176.761 179.095 150.052  1.00  0.00     0.016 A 
ATOM     14  C   UNL     1     177.176 180.417 150.231  1.00  0.00     0.051 A 
ATOM     15  C   UNL     1     176.399 181.475 149.741  1.00  0.00     0.157 A 
ATOM     16  C   UNL     1     174.783 179.877 148.893  1.00  0.00     0.062 A 
ATOM     17  C   UNL     1     175.196 181.201 149.070  1.00  0.00     0.158 A 
BRANCH  15  18
ATOM     18  O   UNL     1     176.818 182.793 149.919  1.00  0.00    -0.504 OA
ATOM     19  H   UNL     1     176.629 183.508 149.226  1.00  0.00     0.293 HD
ENDBRANCH  15  18
BRANCH  17  20
ATOM     20  O   UNL     1     174.398 182.232 148.573  1.00  0.00    -0.504 OA
ATOM     21  H   UNL     1     174.757 183.169 148.432  1.00  0.00     0.293 HD
ENDBRANCH  17  20
ENDBRANCH   1  12
BRANCH   6  22
ATOM     22  O   UNL     1     172.768 172.878 148.253  1.00  0.00    -0.507 OA
ATOM     23  H   UNL     1     172.356 172.868 147.333  1.00  0.00     0.293 HD
ENDBRANCH   6  22
BRANCH   8  24
ATOM     24  O   UNL     1     177.435 171.918 148.855  1.00  0.00    -0.508 OA
ATOM     25  H   UNL     1     178.019 171.805 149.675  1.00  0.00     0.293 HD
ENDBRANCH   8  24
TORSDOF 5
ENDMDL
MODEL 7
REMARK VINA RESULT:    -5.056      1.275      2.896
REMARK INTER + INTRA:          -6.245
REMARK INTER:                  -5.958
REMARK INTRA:                  -0.287
REMARK UNBOUND:                -0.302
REMARK SMILES O=c1cc(-c2ccc(O)c(O)c2)oc2cc(O)cc(O)c12
REMARK SMILES IDX 4 1 3 2 2 3 1 4 21 5 19 6 18 7 16 8 15 9 14 10 13 11 5 12
REMARK SMILES IDX 6 13 7 14 8 15 12 16 10 17 9 18 11 20 20 22 17 24
REMARK H PARENT 9 19 11 21 20 23 17 25
REMARK Flexibility Score: inf
ROOT
ATOM      1  C   UNL     1     172.996 170.777 149.220  1.00  0.00     0.138 A 
ATOM      2  C   UNL     1     174.354 171.115 149.133  1.00  0.00     0.100 A 
ATOM      3  C   UNL     1     174.723 172.449 148.958  1.00  0.00     0.197 A 
ATOM      4  O   UNL     1     175.950 172.730 148.945  1.00  0.00    -0.289 OA
ATOM      5  C   UNL     1     173.724 173.445 148.838  1.00  0.00     0.107 A 
ATOM      6  C   UNL     1     173.982 174.831 148.617  1.00  0.00     0.134 A 
ATOM      7  C   UNL     1     172.918 175.741 148.632  1.00  0.00     0.093 A 
ATOM      8  C   UNL     1     171.600 175.308 148.801  1.00  0.00     0.123 A 
ATOM      9  C   UNL     1     171.334 173.950 148.964  1.00  0.00     0.094 A 
ATOM     10  C   UNL     1     172.377 173.021 148.988  1.00  0.00     0.146 A 
ATOM     11  O   UNL     1     172.081 171.738 149.161  1.00  0.00    -0.456 OA
ENDROOT
BRANCH   1  12
ATOM     12  C   UNL     1     172.548 169.373 149.406  1.00  0.00     0.021 A 
ATOM     13  C   UNL     1     171.351 169.062 150.079  1.00  0.00     0.016 A 
ATOM     14  C   UNL     1     170.959 167.732 150.249  1.00  0.00     0.051 A 
ATOM     15  C   UNL     1     171.757 166.690 149.760  1.00  0.00     0.157 A 
ATOM     16  C   UNL     1     173.350 168.321 148.929  1.00  0.00     0.062 A 
ATOM     17  C   UNL     1     172.960 166.988 149.098  1.00  0.00     0.158 A 
BRANCH  15  18
ATOM     18  O   UNL     1     171.362 165.364 149.930  1.00  0.00    -0.504 OA
ATOM     19  H   UNL     1     170.694 165.097 150.644  1.00  0.00     0.293 HD
ENDBRANCH  15  18
BRANCH  17  20
ATOM     20  O   UNL     1     173.779 165.974 148.602  1.00  0.00    -0.504 OA
ATOM     21  H   UNL     1     173.477 165.008 148.566  1.00  0.00     0.293 HD
ENDBRANCH  17  20
ENDBRANCH   1  12
BRANCH   6  22
ATOM     22  O   UNL     1     175.250 175.358 148.354  1.00  0.00    -0.507 OA
ATOM     23  H   UNL     1     175.465 175.995 147.602  1.00  0.00     0.293 HD
ENDBRANCH   6  22
BRANCH   8  24
ATOM     24  O   UNL     1     170.547 176.220 148.800  1.00  0.00    -0.508 OA
ATOM     25  H   UNL     1     169.645 175.988 148.400  1.00  0.00     0.293 HD
ENDBRANCH   8  24
TORSDOF 5
ENDMDL
MODEL 8
REMARK VINA RESULT:    -5.046      2.792      6.870
REMARK INTER + INTRA:          -6.233
REMARK INTER:                  -5.946
REMARK INTRA:                  -0.287
REMARK UNBOUND:                -0.302
REMARK SMILES O=c1cc(-c2ccc(O)c(O)c2)oc2cc(O)cc(O)c12
REMARK SMILES IDX 4 1 3 2 2 3 1 4 21 5 19 6 18 7 16 8 15 9 14 10 13 11 5 12
REMARK SMILES IDX 6 13 7 14 8 15 12 16 10 17 9 18 11 20 20 22 17 24
REMARK H PARENT 9 19 11 21 20 23 17 25
REMARK Flexibility Score: inf
ROOT
ATOM      1  C   UNL     1     177.393 172.980 149.231  1.00  0.00     0.138 A 
ATOM      2  C   UNL     1     177.062 174.338 149.116  1.00  0.00     0.100 A 
ATOM      3  C   UNL     1     175.729 174.710 148.940  1.00  0.00     0.197 A 
ATOM      4  O   UNL     1     175.455 175.938 148.902  1.00  0.00    -0.289 OA
ATOM      5  C   UNL     1     174.727 173.714 148.846  1.00  0.00     0.107 A 
ATOM      6  C   UNL     1     173.341 173.976 148.625  1.00  0.00     0.134 A 
ATOM      7  C   UNL     1     172.425 172.917 148.668  1.00  0.00     0.093 A 
ATOM      8  C   UNL     1     172.853 171.600 148.862  1.00  0.00     0.123 A 
ATOM      9  C   UNL     1     174.210 171.331 149.024  1.00  0.00     0.094 A 
ATOM     10  C   UNL     1     175.145 172.369 149.022  1.00  0.00     0.146 A 
ATOM     11  O   UNL     1     176.427 172.069 149.195  1.00  0.00    -0.456 OA
ENDROOT
BRANCH   1  12
ATOM     12  C   UNL     1     178.795 172.529 149.419  1.00  0.00     0.021 A 
ATOM     13  C   UNL     1     179.103 171.337 150.105  1.00  0.00     0.016 A 
ATOM     14  C   UNL     1     180.431 170.941 150.277  1.00  0.00     0.051 A 
ATOM     15  C   UNL     1     181.476 171.731 149.778  1.00  0.00     0.157 A 
ATOM     16  C   UNL     1     179.850 173.321 148.933  1.00  0.00     0.062 A 
ATOM     17  C   UNL     1     181.181 172.927 149.105  1.00  0.00     0.158 A 
BRANCH  15  18
ATOM     18  O   UNL     1     182.800 171.332 149.951  1.00  0.00    -0.504 OA
ATOM     19  H   UNL     1     183.105 170.851 150.790  1.00  0.00     0.293 HD
ENDBRANCH  15  18
BRANCH  17  20
ATOM     20  O   UNL     1     182.198 173.738 148.599  1.00  0.00    -0.504 OA
ATOM     21  H   UNL     1     182.835 173.415 147.879  1.00  0.00     0.293 HD
ENDBRANCH  17  20
ENDBRANCH   1  12
BRANCH   6  22
ATOM     22  O   UNL     1     172.820 175.240 148.338  1.00  0.00    -0.507 OA
ATOM     23  H   UNL     1     172.417 175.510 147.454  1.00  0.00     0.293 HD
ENDBRANCH   6  22
BRANCH   8  24
ATOM     24  O   UNL     1     171.935 170.552 148.887  1.00  0.00    -0.508 OA
ATOM     25  H   UNL     1     171.498 170.250 149.751  1.00  0.00     0.293 HD
ENDBRANCH   8  24
TORSDOF 5
ENDMDL
MODEL 9
REMARK VINA RESULT:    -4.748      4.460      7.410
REMARK INTER + INTRA:          -5.882
REMARK INTER:                  -5.589
REMARK INTRA:                  -0.293
REMARK UNBOUND:                -0.302
REMARK SMILES O=c1cc(-c2ccc(O)c(O)c2)oc2cc(O)cc(O)c12
REMARK SMILES IDX 4 1 3 2 2 3 1 4 21 5 19 6 18 7 16 8 15 9 14 10 13 11 5 12
REMARK SMILES IDX 6 13 7 14 8 15 12 16 10 17 9 18 11 20 20 22 17 24
REMARK H PARENT 9 19 11 21 20 23 17 25
REMARK Flexibility Score: inf
ROOT
ATOM      1  C   UNL     1     175.844 176.951 149.758  1.00  0.00     0.138 A 
ATOM      2  C   UNL     1     176.765 177.173 150.792  1.00  0.00     0.100 A 
ATOM      3  C   UNL     1     177.057 178.478 151.188  1.00  0.00     0.197 A 
ATOM      4  O   UNL     1     177.841 178.644 152.159  1.00  0.00    -0.289 OA
ATOM      5  C   UNL     1     176.446 179.568 150.522  1.00  0.00     0.107 A 
ATOM      6  C   UNL     1     176.699 180.942 150.814  1.00  0.00     0.134 A 
ATOM      7  C   UNL     1     175.947 181.933 150.169  1.00  0.00     0.093 A 
ATOM      8  C   UNL     1     174.995 181.601 149.201  1.00  0.00     0.123 A 
ATOM      9  C   UNL     1     174.781 180.264 148.872  1.00  0.00     0.094 A 
ATOM     10  C   UNL     1     175.490 179.251 149.522  1.00  0.00     0.146 A 
ATOM     11  O   UNL     1     175.243 177.989 149.188  1.00  0.00    -0.456 OA
ENDROOT
BRANCH   1  12
ATOM     12  C   UNL     1     175.497 175.582 149.298  1.00  0.00     0.021 A 
ATOM     13  C   UNL     1     174.375 175.338 148.483  1.00  0.00     0.016 A 
ATOM     14  C   UNL     1     174.066 174.039 148.073  1.00  0.00     0.051 A 
ATOM     15  C   UNL     1     174.864 172.960 148.475  1.00  0.00     0.157 A 
ATOM     16  C   UNL     1     176.286 174.492 149.708  1.00  0.00     0.062 A 
ATOM     17  C   UNL     1     175.979 173.190 149.298  1.00  0.00     0.158 A 
BRANCH  15  18
ATOM     18  O   UNL     1     174.553 171.666 148.062  1.00  0.00    -0.504 OA
ATOM     19  H   UNL     1     174.817 170.856 148.612  1.00  0.00     0.293 HD
ENDBRANCH  15  18
BRANCH  17  20
ATOM     20  O   UNL     1     176.792 172.138 149.719  1.00  0.00    -0.504 OA
ATOM     21  H   UNL     1     176.430 171.364 150.264  1.00  0.00     0.293 HD
ENDBRANCH  17  20
ENDBRANCH   1  12
BRANCH   6  22
ATOM     22  O   UNL     1     177.684 181.385 151.700  1.00  0.00    -0.507 OA
ATOM     23  H   UNL     1     178.574 180.933 151.846  1.00  0.00     0.293 HD
ENDBRANCH   6  22
BRANCH   8  24
ATOM     24  O   UNL     1     174.264 182.594 148.554  1.00  0.00    -0.508 OA
ATOM     25  H   UNL     1     173.319 182.827 148.838  1.00  0.00     0.293 HD
ENDBRANCH   8  24
TORSDOF 5
ENDMDL
