MODEL 1
REMARK VINA RESULT:    -7.068      0.000      0.000
REMARK INTER + INTRA:         -11.137
REMARK INTER:                  -9.753
REMARK INTRA:                  -1.384
REMARK UNBOUND:                -1.384
REMARK SMILES O=C([O-])[C@H]1O[C@H](Oc2cc3oc(-c4ccccc4)cc(=O)c3c(O)c2O)[C@@H](O)[C@H](O)[C@@H]1O
REMARK SMILES IDX 7 1 6 2 4 3 31 4 5 5 29 6 27 7 2 8 1 9 3 10 32 11 30 13
REMARK SMILES IDX 28 15 8 17 25 18 9 19 23 20 10 21 22 22 11 23 20 24 12 25
REMARK SMILES IDX 19 26 21 27 26 28 24 30 13 32 14 33 18 34 15 35 17 36 16 37
REMARK H PARENT 32 12 30 14 28 16 26 29 24 31
REMARK Flexibility Score: inf
ROOT
ATOM      1  O   UNL     1       3.309  64.448  48.021  1.00  0.00    -0.458 OA
ENDROOT
BRANCH   1   2
ATOM      2  C   UNL     1       3.028  65.723  47.433  1.00  0.00     0.339 C 
ATOM      3  C   UNL     1       0.717  65.304  47.377  1.00  0.00     0.199 C 
ATOM      4  C   UNL     1       0.384  66.404  48.411  1.00  0.00     0.180 C 
ATOM      5  O   UNL     1       1.866  65.650  46.622  1.00  0.00    -0.328 OA
ATOM      6  C   UNL     1       1.598  66.697  49.318  1.00  0.00     0.181 C 
ATOM      7  C   UNL     1       2.895  66.841  48.497  1.00  0.00     0.214 C 
BRANCH   3   8
ATOM      8  C   UNL     1      -0.430  65.133  46.425  1.00  0.00     0.073 C 
ATOM      9  O   UNL     1      -1.371  65.969  46.406  1.00  0.00    -0.547 OA
ATOM     10  O   UNL     1      -0.442  64.068  45.530  1.00  0.00    -0.547 OA
ENDBRANCH   3   8
BRANCH   4  11
ATOM     11  O   UNL     1      -0.708  66.019  49.207  1.00  0.00    -0.387 OA
ATOM     12  H   UNL     1      -0.943  66.797  49.777  1.00  0.00     0.211 HD
ENDBRANCH   4  11
BRANCH   6  13
ATOM     13  O   UNL     1       1.745  65.742  50.343  1.00  0.00    -0.387 OA
ATOM     14  H   UNL     1       1.622  64.839  49.956  1.00  0.00     0.211 HD
ENDBRANCH   6  13
BRANCH   7  15
ATOM     15  O   UNL     1       2.890  68.092  47.857  1.00  0.00    -0.384 OA
ATOM     16  H   UNL     1       2.745  67.920  46.889  1.00  0.00     0.211 HD
ENDBRANCH   7  15
ENDBRANCH   1   2
BRANCH   1  17
ATOM     17  C   UNL     1       4.583  63.940  48.332  1.00  0.00     0.172 A 
ATOM     18  C   UNL     1       4.885  63.712  49.684  1.00  0.00     0.201 A 
ATOM     19  C   UNL     1       5.538  63.652  47.346  1.00  0.00     0.098 A 
ATOM     20  C   UNL     1       6.156  63.201  50.056  1.00  0.00     0.176 A 
ATOM     21  C   UNL     1       6.791  63.151  47.696  1.00  0.00     0.146 A 
ATOM     22  C   UNL     1       7.116  62.920  49.051  1.00  0.00     0.111 A 
ATOM     23  O   UNL     1       7.671  62.894  46.734  1.00  0.00    -0.456 OA
ATOM     24  C   UNL     1       8.405  62.419  49.333  1.00  0.00     0.197 A 
ATOM     25  C   UNL     1       8.890  62.411  46.965  1.00  0.00     0.138 A 
ATOM     26  C   UNL     1       9.293  62.165  48.287  1.00  0.00     0.100 A 
ATOM     27  O   UNL     1       8.781  62.194  50.516  1.00  0.00    -0.289 OA
BRANCH  18  28
ATOM     28  O   UNL     1       3.894  64.013  50.623  1.00  0.00    -0.502 OA
ATOM     29  H   UNL     1       3.987  63.877  51.618  1.00  0.00     0.293 HD
ENDBRANCH  18  28
BRANCH  20  30
ATOM     30  O   UNL     1       6.483  62.965  51.395  1.00  0.00    -0.504 OA
ATOM     31  H   UNL     1       7.317  62.490  51.708  1.00  0.00     0.293 HD
ENDBRANCH  20  30
BRANCH  25  32
ATOM     32  C   UNL     1       9.790  62.163  45.812  1.00  0.00     0.017 A 
ATOM     33  C   UNL     1       9.689  62.977  44.668  1.00  0.00     0.012 A 
ATOM     34  C   UNL     1      10.730  61.112  45.816  1.00  0.00     0.012 A 
ATOM     35  C   UNL     1      10.521  62.758  43.565  1.00  0.00     0.001 A 
ATOM     36  C   UNL     1      11.558  60.898  44.710  1.00  0.00     0.001 A 
ATOM     37  C   UNL     1      11.456  61.721  43.587  1.00  0.00     0.000 A 
ENDBRANCH  25  32
ENDBRANCH   1  17
TORSDOF 9
ENDMDL
MODEL 2
REMARK VINA RESULT:    -7.041     10.563     13.406
REMARK INTER + INTRA:         -11.100
REMARK INTER:                 -10.099
REMARK INTRA:                  -1.001
REMARK UNBOUND:                -1.384
REMARK SMILES O=C([O-])[C@H]1O[C@H](Oc2cc3oc(-c4ccccc4)cc(=O)c3c(O)c2O)[C@@H](O)[C@H](O)[C@@H]1O
REMARK SMILES IDX 7 1 6 2 4 3 31 4 5 5 29 6 27 7 2 8 1 9 3 10 32 11 30 13
REMARK SMILES IDX 28 15 8 17 25 18 9 19 23 20 10 21 22 22 11 23 20 24 12 25
REMARK SMILES IDX 19 26 21 27 26 28 24 30 13 32 14 33 18 34 15 35 17 36 16 37
REMARK H PARENT 32 12 30 14 28 16 26 29 24 31
REMARK Flexibility Score: inf
ROOT
ATOM      1  O   UNL     1       5.603  61.051  61.006  1.00  0.00    -0.458 OA
ENDROOT
BRANCH   1   2
ATOM      2  C   UNL     1       4.846  60.223  60.116  1.00  0.00     0.339 C 
ATOM      3  C   UNL     1       4.416  58.634  61.792  1.00  0.00     0.199 C 
ATOM      4  C   UNL     1       2.897  58.919  61.822  1.00  0.00     0.180 C 
ATOM      5  O   UNL     1       4.949  58.860  60.498  1.00  0.00    -0.328 OA
ATOM      6  C   UNL     1       2.591  60.346  61.318  1.00  0.00     0.181 C 
ATOM      7  C   UNL     1       3.365  60.666  60.023  1.00  0.00     0.214 C 
BRANCH   3   8
ATOM      8  C   UNL     1       4.675  57.202  62.158  1.00  0.00     0.073 C 
ATOM      9  O   UNL     1       5.657  56.900  62.886  1.00  0.00    -0.547 OA
ATOM     10  O   UNL     1       3.810  56.204  61.726  1.00  0.00    -0.547 OA
ENDBRANCH   3   8
BRANCH   4  11
ATOM     11  O   UNL     1       2.391  58.768  63.124  1.00  0.00    -0.387 OA
ATOM     12  H   UNL     1       2.427  57.801  63.342  1.00  0.00     0.211 HD
ENDBRANCH   4  11
BRANCH   6  13
ATOM     13  O   UNL     1       2.819  61.324  62.306  1.00  0.00    -0.387 OA
ATOM     14  H   UNL     1       2.006  61.409  62.862  1.00  0.00     0.211 HD
ENDBRANCH   6  13
BRANCH   7  15
ATOM     15  O   UNL     1       2.748  60.000  58.950  1.00  0.00    -0.384 OA
ATOM     16  H   UNL     1       3.467  59.764  58.306  1.00  0.00     0.211 HD
ENDBRANCH   7  15
ENDBRANCH   1   2
BRANCH   1  17
ATOM     17  C   UNL     1       6.918  61.506  60.802  1.00  0.00     0.172 A 
ATOM     18  C   UNL     1       7.799  61.475  61.893  1.00  0.00     0.201 A 
ATOM     19  C   UNL     1       7.365  61.974  59.557  1.00  0.00     0.098 A 
ATOM     20  C   UNL     1       9.138  61.923  61.744  1.00  0.00     0.176 A 
ATOM     21  C   UNL     1       8.677  62.418  59.395  1.00  0.00     0.146 A 
ATOM     22  C   UNL     1       9.577  62.400  60.483  1.00  0.00     0.111 A 
ATOM     23  O   UNL     1       9.063  62.858  58.202  1.00  0.00    -0.456 OA
ATOM     24  C   UNL     1      10.887  62.872  60.250  1.00  0.00     0.197 A 
ATOM     25  C   UNL     1      10.292  63.299  57.946  1.00  0.00     0.138 A 
ATOM     26  C   UNL     1      11.243  63.322  58.978  1.00  0.00     0.100 A 
ATOM     27  O   UNL     1      11.751  62.900  61.168  1.00  0.00    -0.289 OA
BRANCH  18  28
ATOM     28  O   UNL     1       7.300  60.996  63.107  1.00  0.00    -0.502 OA
ATOM     29  H   UNL     1       7.835  60.464  63.778  1.00  0.00     0.293 HD
ENDBRANCH  18  28
BRANCH  20  30
ATOM     30  O   UNL     1      10.037  61.903  62.815  1.00  0.00    -0.504 OA
ATOM     31  H   UNL     1       9.832  62.240  63.744  1.00  0.00     0.293 HD
ENDBRANCH  20  30
BRANCH  25  32
ATOM     32  C   UNL     1      10.612  63.768  56.575  1.00  0.00     0.017 A 
ATOM     33  C   UNL     1      10.967  65.114  56.369  1.00  0.00     0.012 A 
ATOM     34  C   UNL     1      10.540  62.907  55.460  1.00  0.00     0.012 A 
ATOM     35  C   UNL     1      11.265  65.582  55.085  1.00  0.00     0.001 A 
ATOM     36  C   UNL     1      10.837  63.382  54.178  1.00  0.00     0.001 A 
ATOM     37  C   UNL     1      11.202  64.717  53.992  1.00  0.00     0.000 A 
ENDBRANCH  25  32
ENDBRANCH   1  17
TORSDOF 9
ENDMDL
MODEL 3
REMARK VINA RESULT:    -6.926      7.046     10.199
REMARK INTER + INTRA:         -10.942
REMARK INTER:                  -9.623
REMARK INTRA:                  -1.319
REMARK UNBOUND:                -1.384
REMARK SMILES O=C([O-])[C@H]1O[C@H](Oc2cc3oc(-c4ccccc4)cc(=O)c3c(O)c2O)[C@@H](O)[C@H](O)[C@@H]1O
REMARK SMILES IDX 7 1 6 2 4 3 31 4 5 5 29 6 27 7 2 8 1 9 3 10 32 11 30 13
REMARK SMILES IDX 28 15 8 17 25 18 9 19 23 20 10 21 22 22 11 23 20 24 12 25
REMARK SMILES IDX 19 26 21 27 26 28 24 30 13 32 14 33 18 34 15 35 17 36 16 37
REMARK H PARENT 32 12 30 14 28 16 26 29 24 31
REMARK Flexibility Score: inf
ROOT
ATOM      1  O   UNL     1       6.806  60.180  57.489  1.00  0.00    -0.458 OA
ENDROOT
BRANCH   1   2
ATOM      2  C   UNL     1       5.399  60.396  57.646  1.00  0.00     0.339 C 
ATOM      3  C   UNL     1       5.456  59.804  59.918  1.00  0.00     0.199 C 
ATOM      4  C   UNL     1       5.099  61.225  60.408  1.00  0.00     0.180 C 
ATOM      5  O   UNL     1       4.875  59.544  58.651  1.00  0.00    -0.328 OA
ATOM      6  C   UNL     1       5.502  62.289  59.365  1.00  0.00     0.181 C 
ATOM      7  C   UNL     1       5.066  61.879  57.943  1.00  0.00     0.214 C 
BRANCH   3   8
ATOM      8  C   UNL     1       4.935  58.783  60.886  1.00  0.00     0.073 C 
ATOM      9  O   UNL     1       5.543  58.562  61.967  1.00  0.00    -0.547 OA
ATOM     10  O   UNL     1       3.754  58.100  60.614  1.00  0.00    -0.547 OA
ENDBRANCH   3   8
BRANCH   4  11
ATOM     11  O   UNL     1       5.741  61.504  61.627  1.00  0.00    -0.387 OA
ATOM     12  H   UNL     1       6.178  62.390  61.532  1.00  0.00     0.211 HD
ENDBRANCH   4  11
BRANCH   6  13
ATOM     13  O   UNL     1       6.877  62.591  59.411  1.00  0.00    -0.387 OA
ATOM     14  H   UNL     1       7.319  62.179  58.627  1.00  0.00     0.211 HD
ENDBRANCH   6  13
BRANCH   7  15
ATOM     15  O   UNL     1       3.680  62.077  57.820  1.00  0.00    -0.384 OA
ATOM     16  H   UNL     1       3.391  62.593  58.618  1.00  0.00     0.211 HD
ENDBRANCH   7  15
ENDBRANCH   1   2
BRANCH   1  17
ATOM     17  C   UNL     1       7.650  60.832  56.572  1.00  0.00     0.172 A 
ATOM     18  C   UNL     1       8.824  61.421  57.066  1.00  0.00     0.201 A 
ATOM     19  C   UNL     1       7.358  60.902  55.202  1.00  0.00     0.098 A 
ATOM     20  C   UNL     1       9.712  62.093  56.186  1.00  0.00     0.176 A 
ATOM     21  C   UNL     1       8.220  61.559  54.325  1.00  0.00     0.146 A 
ATOM     22  C   UNL     1       9.403  62.163  54.804  1.00  0.00     0.111 A 
ATOM     23  O   UNL     1       7.908  61.607  53.033  1.00  0.00    -0.456 OA
ATOM     24  C   UNL     1      10.225  62.818  53.861  1.00  0.00     0.197 A 
ATOM     25  C   UNL     1       8.665  62.207  52.119  1.00  0.00     0.138 A 
ATOM     26  C   UNL     1       9.853  62.840  52.517  1.00  0.00     0.100 A 
ATOM     27  O   UNL     1      11.294  63.391  54.205  1.00  0.00    -0.289 OA
BRANCH  18  28
ATOM     28  O   UNL     1       9.065  61.317  58.439  1.00  0.00    -0.502 OA
ATOM     29  H   UNL     1       9.657  60.621  58.867  1.00  0.00     0.293 HD
ENDBRANCH  18  28
BRANCH  20  30
ATOM     30  O   UNL     1      10.888  62.688  56.652  1.00  0.00    -0.504 OA
ATOM     31  H   UNL     1      10.958  63.635  56.993  1.00  0.00     0.293 HD
ENDBRANCH  20  30
BRANCH  25  32
ATOM     32  C   UNL     1       8.217  62.200  50.704  1.00  0.00     0.017 A 
ATOM     33  C   UNL     1       9.154  61.954  49.682  1.00  0.00     0.012 A 
ATOM     34  C   UNL     1       6.879  62.464  50.348  1.00  0.00     0.012 A 
ATOM     35  C   UNL     1       8.758  61.950  48.342  1.00  0.00     0.001 A 
ATOM     36  C   UNL     1       6.489  62.460  49.004  1.00  0.00     0.001 A 
ATOM     37  C   UNL     1       7.427  62.201  48.003  1.00  0.00     0.000 A 
ENDBRANCH  25  32
ENDBRANCH   1  17
TORSDOF 9
ENDMDL
MODEL 4
REMARK VINA RESULT:    -6.633      1.167      2.016
REMARK INTER + INTRA:         -10.537
REMARK INTER:                  -9.712
REMARK INTRA:                  -0.825
REMARK UNBOUND:                -1.384
REMARK SMILES O=C([O-])[C@H]1O[C@H](Oc2cc3oc(-c4ccccc4)cc(=O)c3c(O)c2O)[C@@H](O)[C@H](O)[C@@H]1O
REMARK SMILES IDX 7 1 6 2 4 3 31 4 5 5 29 6 27 7 2 8 1 9 3 10 32 11 30 13
REMARK SMILES IDX 28 15 8 17 25 18 9 19 23 20 10 21 22 22 11 23 20 24 12 25
REMARK SMILES IDX 19 26 21 27 26 28 24 30 13 32 14 33 18 34 15 35 17 36 16 37
REMARK H PARENT 32 12 30 14 28 16 26 29 24 31
REMARK Flexibility Score: inf
ROOT
ATOM      1  O   UNL     1       3.483  64.364  48.832  1.00  0.00    -0.458 OA
ENDROOT
BRANCH   1   2
ATOM      2  C   UNL     1       2.825  64.617  47.585  1.00  0.00     0.339 C 
ATOM      3  C   UNL     1       1.392  66.211  48.548  1.00  0.00     0.199 C 
ATOM      4  C   UNL     1       1.999  67.392  47.756  1.00  0.00     0.180 C 
ATOM      5  O   UNL     1       1.478  65.007  47.805  1.00  0.00    -0.328 OA
ATOM      6  C   UNL     1       3.450  67.086  47.330  1.00  0.00     0.181 C 
ATOM      7  C   UNL     1       3.576  65.669  46.732  1.00  0.00     0.214 C 
BRANCH   3   8
ATOM      8  C   UNL     1      -0.057  66.478  48.834  1.00  0.00     0.073 C 
ATOM      9  O   UNL     1      -0.950  66.021  48.073  1.00  0.00    -0.547 OA
ATOM     10  O   UNL     1      -0.424  67.200  49.964  1.00  0.00    -0.547 OA
ENDBRANCH   3   8
BRANCH   4  11
ATOM     11  O   UNL     1       1.980  68.566  48.528  1.00  0.00    -0.387 OA
ATOM     12  H   UNL     1       2.360  69.292  47.967  1.00  0.00     0.211 HD
ENDBRANCH   4  11
BRANCH   6  13
ATOM     13  O   UNL     1       4.370  67.282  48.378  1.00  0.00    -0.387 OA
ATOM     14  H   UNL     1       4.213  68.175  48.775  1.00  0.00     0.211 HD
ENDBRANCH   6  13
BRANCH   7  15
ATOM     15  O   UNL     1       3.044  65.677  45.432  1.00  0.00    -0.384 OA
ATOM     16  H   UNL     1       3.597  65.054  44.890  1.00  0.00     0.211 HD
ENDBRANCH   7  15
ENDBRANCH   1   2
BRANCH   1  17
ATOM     17  C   UNL     1       4.765  63.811  48.997  1.00  0.00     0.172 A 
ATOM     18  C   UNL     1       5.165  63.458  50.295  1.00  0.00     0.201 A 
ATOM     19  C   UNL     1       5.636  63.599  47.917  1.00  0.00     0.098 A 
ATOM     20  C   UNL     1       6.449  62.897  50.520  1.00  0.00     0.176 A 
ATOM     21  C   UNL     1       6.901  63.050  48.122  1.00  0.00     0.146 A 
ATOM     22  C   UNL     1       7.323  62.694  49.422  1.00  0.00     0.111 A 
ATOM     23  O   UNL     1       7.699  62.868  47.075  1.00  0.00    -0.456 OA
ATOM     24  C   UNL     1       8.619  62.150  49.557  1.00  0.00     0.197 A 
ATOM     25  C   UNL     1       8.921  62.349  47.167  1.00  0.00     0.138 A 
ATOM     26  C   UNL     1       9.418  61.979  48.427  1.00  0.00     0.100 A 
ATOM     27  O   UNL     1       9.079  61.815  50.682  1.00  0.00    -0.289 OA
BRANCH  18  28
ATOM     28  O   UNL     1       4.255  63.687  51.331  1.00  0.00    -0.502 OA
ATOM     29  H   UNL     1       3.452  63.110  51.528  1.00  0.00     0.293 HD
ENDBRANCH  18  28
BRANCH  20  30
ATOM     30  O   UNL     1       6.873  62.536  51.803  1.00  0.00    -0.504 OA
ATOM     31  H   UNL     1       6.256  62.324  52.573  1.00  0.00     0.293 HD
ENDBRANCH  20  30
BRANCH  25  32
ATOM     32  C   UNL     1       9.726  62.193  45.930  1.00  0.00     0.017 A 
ATOM     33  C   UNL     1      10.681  61.162  45.851  1.00  0.00     0.012 A 
ATOM     34  C   UNL     1       9.583  63.071  44.836  1.00  0.00     0.012 A 
ATOM     35  C   UNL     1      11.457  60.999  44.699  1.00  0.00     0.001 A 
ATOM     36  C   UNL     1      10.364  62.904  43.687  1.00  0.00     0.001 A 
ATOM     37  C   UNL     1      11.297  61.868  43.618  1.00  0.00     0.000 A 
ENDBRANCH  25  32
ENDBRANCH   1  17
TORSDOF 9
ENDMDL
MODEL 5
REMARK VINA RESULT:    -6.451      2.690      8.950
REMARK INTER + INTRA:         -10.286
REMARK INTER:                  -9.784
REMARK INTRA:                  -0.502
REMARK UNBOUND:                -1.384
REMARK SMILES O=C([O-])[C@H]1O[C@H](Oc2cc3oc(-c4ccccc4)cc(=O)c3c(O)c2O)[C@@H](O)[C@H](O)[C@@H]1O
REMARK SMILES IDX 7 1 6 2 4 3 31 4 5 5 29 6 27 7 2 8 1 9 3 10 32 11 30 13
REMARK SMILES IDX 28 15 8 17 25 18 9 19 23 20 10 21 22 22 11 23 20 24 12 25
REMARK SMILES IDX 19 26 21 27 26 28 24 30 13 32 14 33 18 34 15 35 17 36 16 37
REMARK H PARENT 32 12 30 14 28 16 26 29 24 31
REMARK Flexibility Score: inf
ROOT
ATOM      1  O   UNL     1       8.279  64.535  47.589  1.00  0.00    -0.458 OA
ENDROOT
BRANCH   1   2
ATOM      2  C   UNL     1       9.201  63.514  47.990  1.00  0.00     0.339 C 
ATOM      3  C   UNL     1      10.216  64.913  49.582  1.00  0.00     0.199 C 
ATOM      4  C   UNL     1       9.728  64.075  50.786  1.00  0.00     0.180 C 
ATOM      5  O   UNL     1      10.415  64.093  48.443  1.00  0.00    -0.328 OA
ATOM      6  C   UNL     1       8.457  63.277  50.427  1.00  0.00     0.181 C 
ATOM      7  C   UNL     1       8.599  62.573  49.062  1.00  0.00     0.214 C 
BRANCH   3   8
ATOM      8  C   UNL     1      11.522  65.572  49.914  1.00  0.00     0.073 C 
ATOM      9  O   UNL     1      12.579  65.220  49.326  1.00  0.00    -0.547 OA
ATOM     10  O   UNL     1      11.567  66.603  50.845  1.00  0.00    -0.547 OA
ENDBRANCH   3   8
BRANCH   4  11
ATOM     11  O   UNL     1       9.459  64.905  51.889  1.00  0.00    -0.387 OA
ATOM     12  H   UNL     1       9.287  64.312  52.666  1.00  0.00     0.211 HD
ENDBRANCH   4  11
BRANCH   6  13
ATOM     13  O   UNL     1       7.294  64.070  50.475  1.00  0.00    -0.387 OA
ATOM     14  H   UNL     1       6.543  63.514  50.802  1.00  0.00     0.211 HD
ENDBRANCH   6  13
BRANCH   7  15
ATOM     15  O   UNL     1       9.433  61.452  49.215  1.00  0.00    -0.384 OA
ATOM     16  H   UNL     1       9.144  60.783  48.540  1.00  0.00     0.211 HD
ENDBRANCH   7  15
ENDBRANCH   1   2
BRANCH   1  17
ATOM     17  C   UNL     1       6.932  64.344  47.233  1.00  0.00     0.172 A 
ATOM     18  C   UNL     1       6.652  63.457  46.182  1.00  0.00     0.201 A 
ATOM     19  C   UNL     1       5.881  64.998  47.892  1.00  0.00     0.098 A 
ATOM     20  C   UNL     1       5.310  63.227  45.780  1.00  0.00     0.176 A 
ATOM     21  C   UNL     1       4.558  64.783  47.508  1.00  0.00     0.146 A 
ATOM     22  C   UNL     1       4.256  63.899  46.449  1.00  0.00     0.111 A 
ATOM     23  O   UNL     1       3.589  65.424  48.154  1.00  0.00    -0.456 OA
ATOM     24  C   UNL     1       2.896  63.735  46.108  1.00  0.00     0.197 A 
ATOM     25  C   UNL     1       2.298  65.284  47.864  1.00  0.00     0.138 A 
ATOM     26  C   UNL     1       1.917  64.430  46.817  1.00  0.00     0.100 A 
ATOM     27  O   UNL     1       2.540  62.972  45.169  1.00  0.00    -0.289 OA
BRANCH  18  28
ATOM     28  O   UNL     1       7.738  62.831  45.564  1.00  0.00    -0.502 OA
ATOM     29  H   UNL     1       8.628  63.271  45.384  1.00  0.00     0.293 HD
ENDBRANCH  18  28
BRANCH  20  30
ATOM     30  O   UNL     1       5.003  62.348  44.736  1.00  0.00    -0.504 OA
ATOM     31  H   UNL     1       5.561  62.226  43.904  1.00  0.00     0.293 HD
ENDBRANCH  20  30
BRANCH  25  32
ATOM     32  C   UNL     1       1.302  66.051  48.652  1.00  0.00     0.017 A 
ATOM     33  C   UNL     1       0.081  66.417  48.056  1.00  0.00     0.012 A 
ATOM     34  C   UNL     1       1.556  66.454  49.979  1.00  0.00     0.012 A 
ATOM     35  C   UNL     1      -0.871  67.147  48.775  1.00  0.00     0.001 A 
ATOM     36  C   UNL     1       0.601  67.186  50.693  1.00  0.00     0.001 A 
ATOM     37  C   UNL     1      -0.612  67.529  50.092  1.00  0.00     0.000 A 
ENDBRANCH  25  32
ENDBRANCH   1  17
TORSDOF 9
ENDMDL
MODEL 6
REMARK VINA RESULT:    -6.339      4.172      9.266
REMARK INTER + INTRA:         -10.132
REMARK INTER:                  -9.967
REMARK INTRA:                  -0.164
REMARK UNBOUND:                -1.384
REMARK SMILES O=C([O-])[C@H]1O[C@H](Oc2cc3oc(-c4ccccc4)cc(=O)c3c(O)c2O)[C@@H](O)[C@H](O)[C@@H]1O
REMARK SMILES IDX 7 1 6 2 4 3 31 4 5 5 29 6 27 7 2 8 1 9 3 10 32 11 30 13
REMARK SMILES IDX 28 15 8 17 25 18 9 19 23 20 10 21 22 22 11 23 20 24 12 25
REMARK SMILES IDX 19 26 21 27 26 28 24 30 13 32 14 33 18 34 15 35 17 36 16 37
REMARK H PARENT 32 12 30 14 28 16 26 29 24 31
REMARK Flexibility Score: inf
ROOT
ATOM      1  O   UNL     1       7.218  61.568  53.816  1.00  0.00    -0.458 OA
ENDROOT
BRANCH   1   2
ATOM      2  C   UNL     1       8.135  60.658  54.436  1.00  0.00     0.339 C 
ATOM      3  C   UNL     1       8.886  62.287  55.953  1.00  0.00     0.199 C 
ATOM      4  C   UNL     1       8.301  61.562  57.186  1.00  0.00     0.180 C 
ATOM      5  O   UNL     1       9.258  61.358  54.949  1.00  0.00    -0.328 OA
ATOM      6  C   UNL     1       7.122  60.650  56.785  1.00  0.00     0.181 C 
ATOM      7  C   UNL     1       7.458  59.807  55.538  1.00  0.00     0.214 C 
BRANCH   3   8
ATOM      8  C   UNL     1      10.110  63.060  56.347  1.00  0.00     0.073 C 
ATOM      9  O   UNL     1      10.832  63.600  55.468  1.00  0.00    -0.547 OA
ATOM     10  O   UNL     1      10.435  63.216  57.690  1.00  0.00    -0.547 OA
ENDBRANCH   3   8
BRANCH   4  11
ATOM     11  O   UNL     1       7.864  62.492  58.145  1.00  0.00    -0.387 OA
ATOM     12  H   UNL     1       6.906  62.675  57.960  1.00  0.00     0.211 HD
ENDBRANCH   4  11
BRANCH   6  13
ATOM     13  O   UNL     1       5.924  61.370  56.608  1.00  0.00    -0.387 OA
ATOM     14  H   UNL     1       6.145  62.287  56.309  1.00  0.00     0.211 HD
ENDBRANCH   6  13
BRANCH   7  15
ATOM     15  O   UNL     1       8.322  58.765  55.915  1.00  0.00    -0.384 OA
ATOM     16  H   UNL     1       7.945  58.363  56.742  1.00  0.00     0.211 HD
ENDBRANCH   7  15
ENDBRANCH   1   2
BRANCH   1  17
ATOM     17  C   UNL     1       7.156  61.880  52.446  1.00  0.00     0.172 A 
ATOM     18  C   UNL     1       8.282  61.597  51.658  1.00  0.00     0.201 A 
ATOM     19  C   UNL     1       6.018  62.449  51.856  1.00  0.00     0.098 A 
ATOM     20  C   UNL     1       8.276  61.892  50.270  1.00  0.00     0.176 A 
ATOM     21  C   UNL     1       5.996  62.745  50.494  1.00  0.00     0.146 A 
ATOM     22  C   UNL     1       7.122  62.472  49.686  1.00  0.00     0.111 A 
ATOM     23  O   UNL     1       4.900  63.286  49.972  1.00  0.00    -0.456 OA
ATOM     24  C   UNL     1       7.033  62.805  48.317  1.00  0.00     0.197 A 
ATOM     25  C   UNL     1       4.781  63.601  48.685  1.00  0.00     0.138 A 
ATOM     26  C   UNL     1       5.860  63.372  47.817  1.00  0.00     0.100 A 
ATOM     27  O   UNL     1       7.995  62.605  47.526  1.00  0.00    -0.289 OA
BRANCH  18  28
ATOM     28  O   UNL     1       9.387  61.028  52.298  1.00  0.00    -0.502 OA
ATOM     29  H   UNL     1      10.048  60.406  51.857  1.00  0.00     0.293 HD
ENDBRANCH  18  28
BRANCH  20  30
ATOM     30  O   UNL     1       9.384  61.620  49.462  1.00  0.00    -0.504 OA
ATOM     31  H   UNL     1      10.303  62.017  49.593  1.00  0.00     0.293 HD
ENDBRANCH  20  30
BRANCH  25  32
ATOM     32  C   UNL     1       3.509  64.203  48.212  1.00  0.00     0.017 A 
ATOM     33  C   UNL     1       3.158  64.100  46.852  1.00  0.00     0.012 A 
ATOM     34  C   UNL     1       2.652  64.906  49.083  1.00  0.00     0.012 A 
ATOM     35  C   UNL     1       1.970  64.666  46.381  1.00  0.00     0.001 A 
ATOM     36  C   UNL     1       1.465  65.471  48.604  1.00  0.00     0.001 A 
ATOM     37  C   UNL     1       1.123  65.349  47.256  1.00  0.00     0.000 A 
ENDBRANCH  25  32
ENDBRANCH   1  17
TORSDOF 9
ENDMDL
MODEL 7
REMARK VINA RESULT:    -6.188      3.209      8.184
REMARK INTER + INTRA:          -9.923
REMARK INTER:                  -8.879
REMARK INTRA:                  -1.044
REMARK UNBOUND:                -1.384
REMARK SMILES O=C([O-])[C@H]1O[C@H](Oc2cc3oc(-c4ccccc4)cc(=O)c3c(O)c2O)[C@@H](O)[C@H](O)[C@@H]1O
REMARK SMILES IDX 7 1 6 2 4 3 31 4 5 5 29 6 27 7 2 8 1 9 3 10 32 11 30 13
REMARK SMILES IDX 28 15 8 17 25 18 9 19 23 20 10 21 22 22 11 23 20 24 12 25
REMARK SMILES IDX 19 26 21 27 26 28 24 30 13 32 14 33 18 34 15 35 17 36 16 37
REMARK H PARENT 32 12 30 14 28 16 26 29 24 31
REMARK Flexibility Score: inf
ROOT
ATOM      1  O   UNL     1       6.582  64.539  48.686  1.00  0.00    -0.458 OA
ENDROOT
BRANCH   1   2
ATOM      2  C   UNL     1       7.668  63.656  48.378  1.00  0.00     0.339 C 
ATOM      3  C   UNL     1       9.174  64.880  49.702  1.00  0.00     0.199 C 
ATOM      4  C   UNL     1       9.359  63.743  50.732  1.00  0.00     0.180 C 
ATOM      5  O   UNL     1       8.902  64.356  48.413  1.00  0.00    -0.328 OA
ATOM      6  C   UNL     1       8.136  62.802  50.745  1.00  0.00     0.181 C 
ATOM      7  C   UNL     1       7.700  62.423  49.314  1.00  0.00     0.214 C 
BRANCH   3   8
ATOM      8  C   UNL     1      10.428  65.700  49.615  1.00  0.00     0.073 C 
ATOM      9  O   UNL     1      10.695  66.549  50.505  1.00  0.00    -0.547 OA
ATOM     10  O   UNL     1      11.322  65.500  48.569  1.00  0.00    -0.547 OA
ENDBRANCH   3   8
BRANCH   4  11
ATOM     11  O   UNL     1       9.552  64.270  52.021  1.00  0.00    -0.387 OA
ATOM     12  H   UNL     1       9.349  65.240  51.974  1.00  0.00     0.211 HD
ENDBRANCH   4  11
BRANCH   6  13
ATOM     13  O   UNL     1       7.060  63.331  51.483  1.00  0.00    -0.387 OA
ATOM     14  H   UNL     1       6.901  64.262  51.190  1.00  0.00     0.211 HD
ENDBRANCH   6  13
BRANCH   7  15
ATOM     15  O   UNL     1       8.603  61.476  48.802  1.00  0.00    -0.384 OA
ATOM     16  H   UNL     1       8.256  61.198  47.913  1.00  0.00     0.211 HD
ENDBRANCH   7  15
ENDBRANCH   1   2
BRANCH   1  17
ATOM     17  C   UNL     1       5.382  64.662  47.964  1.00  0.00     0.172 A 
ATOM     18  C   UNL     1       4.876  65.953  47.749  1.00  0.00     0.201 A 
ATOM     19  C   UNL     1       4.693  63.550  47.457  1.00  0.00     0.098 A 
ATOM     20  C   UNL     1       3.668  66.137  47.027  1.00  0.00     0.176 A 
ATOM     21  C   UNL     1       3.505  63.714  46.747  1.00  0.00     0.146 A 
ATOM     22  C   UNL     1       2.977  65.006  46.525  1.00  0.00     0.111 A 
ATOM     23  O   UNL     1       2.879  62.637  46.285  1.00  0.00    -0.456 OA
ATOM     24  C   UNL     1       1.766  65.097  45.806  1.00  0.00     0.197 A 
ATOM     25  C   UNL     1       1.742  62.689  45.595  1.00  0.00     0.138 A 
ATOM     26  C   UNL     1       1.148  63.935  45.341  1.00  0.00     0.100 A 
ATOM     27  O   UNL     1       1.221  66.210  45.571  1.00  0.00    -0.289 OA
BRANCH  18  28
ATOM     28  O   UNL     1       5.606  67.024  48.273  1.00  0.00    -0.502 OA
ATOM     29  H   UNL     1       6.577  66.979  48.545  1.00  0.00     0.293 HD
ENDBRANCH  18  28
BRANCH  20  30
ATOM     30  O   UNL     1       3.143  67.413  46.798  1.00  0.00    -0.504 OA
ATOM     31  H   UNL     1       3.646  68.276  46.939  1.00  0.00     0.293 HD
ENDBRANCH  20  30
BRANCH  25  32
ATOM     32  C   UNL     1       1.130  61.420  45.129  1.00  0.00     0.017 A 
ATOM     33  C   UNL     1      -0.187  61.105  45.512  1.00  0.00     0.012 A 
ATOM     34  C   UNL     1       1.845  60.499  44.336  1.00  0.00     0.012 A 
ATOM     35  C   UNL     1      -0.783  59.912  45.092  1.00  0.00     0.001 A 
ATOM     36  C   UNL     1       1.243  59.306  43.921  1.00  0.00     0.001 A 
ATOM     37  C   UNL     1      -0.070  59.014  44.296  1.00  0.00     0.000 A 
ENDBRANCH  25  32
ENDBRANCH   1  17
TORSDOF 9
ENDMDL
MODEL 8
REMARK VINA RESULT:    -6.160      2.480      8.622
REMARK INTER + INTRA:          -9.885
REMARK INTER:                  -9.018
REMARK INTRA:                  -0.867
REMARK UNBOUND:                -1.384
REMARK SMILES O=C([O-])[C@H]1O[C@H](Oc2cc3oc(-c4ccccc4)cc(=O)c3c(O)c2O)[C@@H](O)[C@H](O)[C@@H]1O
REMARK SMILES IDX 7 1 6 2 4 3 31 4 5 5 29 6 27 7 2 8 1 9 3 10 32 11 30 13
REMARK SMILES IDX 28 15 8 17 25 18 9 19 23 20 10 21 22 22 11 23 20 24 12 25
REMARK SMILES IDX 19 26 21 27 26 28 24 30 13 32 14 33 18 34 15 35 17 36 16 37
REMARK H PARENT 32 12 30 14 28 16 26 29 24 31
REMARK Flexibility Score: inf
ROOT
ATOM      1  O   UNL     1       7.952  65.134  47.175  1.00  0.00    -0.458 OA
ENDROOT
BRANCH   1   2
ATOM      2  C   UNL     1       8.702  65.252  48.390  1.00  0.00     0.339 C 
ATOM      3  C   UNL     1       7.793  63.271  49.266  1.00  0.00     0.199 C 
ATOM      4  C   UNL     1       9.141  62.514  49.237  1.00  0.00     0.180 C 
ATOM      5  O   UNL     1       7.997  64.659  49.468  1.00  0.00    -0.328 OA
ATOM      6  C   UNL     1      10.091  63.113  48.179  1.00  0.00     0.181 C 
ATOM      7  C   UNL     1      10.125  64.653  48.258  1.00  0.00     0.214 C 
BRANCH   3   8
ATOM      8  C   UNL     1       6.942  62.757  50.389  1.00  0.00     0.073 C 
ATOM      9  O   UNL     1       5.705  62.994  50.409  1.00  0.00    -0.547 OA
ATOM     10  O   UNL     1       7.506  61.983  51.396  1.00  0.00    -0.547 OA
ENDBRANCH   3   8
BRANCH   4  11
ATOM     11  O   UNL     1       8.937  61.151  48.959  1.00  0.00    -0.387 OA
ATOM     12  H   UNL     1       9.121  61.019  47.993  1.00  0.00     0.211 HD
ENDBRANCH   4  11
BRANCH   6  13
ATOM     13  O   UNL     1       9.788  62.674  46.876  1.00  0.00    -0.387 OA
ATOM     14  H   UNL     1       9.838  63.448  46.261  1.00  0.00     0.211 HD
ENDBRANCH   6  13
BRANCH   7  15
ATOM     15  O   UNL     1      10.893  65.034  49.371  1.00  0.00    -0.384 OA
ATOM     16  H   UNL     1      10.589  65.942  49.635  1.00  0.00     0.211 HD
ENDBRANCH   7  15
ENDBRANCH   1   2
BRANCH   1  17
ATOM     17  C   UNL     1       6.568  64.904  47.073  1.00  0.00     0.172 A 
ATOM     18  C   UNL     1       6.136  63.881  46.216  1.00  0.00     0.201 A 
ATOM     19  C   UNL     1       5.627  65.650  47.798  1.00  0.00     0.098 A 
ATOM     20  C   UNL     1       4.751  63.605  46.073  1.00  0.00     0.176 A 
ATOM     21  C   UNL     1       4.264  65.392  47.668  1.00  0.00     0.146 A 
ATOM     22  C   UNL     1       3.809  64.370  46.805  1.00  0.00     0.111 A 
ATOM     23  O   UNL     1       3.402  66.123  48.368  1.00  0.00    -0.456 OA
ATOM     24  C   UNL     1       2.414  64.169  46.717  1.00  0.00     0.197 A 
ATOM     25  C   UNL     1       2.083  65.951  48.315  1.00  0.00     0.138 A 
ATOM     26  C   UNL     1       1.552  64.962  47.473  1.00  0.00     0.100 A 
ATOM     27  O   UNL     1       1.923  63.285  45.964  1.00  0.00    -0.289 OA
BRANCH  18  28
ATOM     28  O   UNL     1       7.118  63.167  45.522  1.00  0.00    -0.502 OA
ATOM     29  H   UNL     1       7.991  62.857  45.920  1.00  0.00     0.293 HD
ENDBRANCH  18  28
BRANCH  20  30
ATOM     30  O   UNL     1       4.293  62.591  45.225  1.00  0.00    -0.504 OA
ATOM     31  H   UNL     1       3.324  62.335  45.106  1.00  0.00     0.293 HD
ENDBRANCH  20  30
BRANCH  25  32
ATOM     32  C   UNL     1       1.216  66.827  49.141  1.00  0.00     0.017 A 
ATOM     33  C   UNL     1       1.805  67.786  49.987  1.00  0.00     0.012 A 
ATOM     34  C   UNL     1      -0.189  66.706  49.128  1.00  0.00     0.012 A 
ATOM     35  C   UNL     1       1.009  68.618  50.780  1.00  0.00     0.001 A 
ATOM     36  C   UNL     1      -0.979  67.541  49.926  1.00  0.00     0.001 A 
ATOM     37  C   UNL     1      -0.381  68.497  50.749  1.00  0.00     0.000 A 
ENDBRANCH  25  32
ENDBRANCH   1  17
TORSDOF 9
ENDMDL
MODEL 9
REMARK VINA RESULT:    -6.130      3.340      9.158
REMARK INTER + INTRA:          -9.843
REMARK INTER:                  -8.421
REMARK INTRA:                  -1.421
REMARK UNBOUND:                -1.384
REMARK SMILES O=C([O-])[C@H]1O[C@H](Oc2cc3oc(-c4ccccc4)cc(=O)c3c(O)c2O)[C@@H](O)[C@H](O)[C@@H]1O
REMARK SMILES IDX 7 1 6 2 4 3 31 4 5 5 29 6 27 7 2 8 1 9 3 10 32 11 30 13
REMARK SMILES IDX 28 15 8 17 25 18 9 19 23 20 10 21 22 22 11 23 20 24 12 25
REMARK SMILES IDX 19 26 21 27 26 28 24 30 13 32 14 33 18 34 15 35 17 36 16 37
REMARK H PARENT 32 12 30 14 28 16 26 29 24 31
REMARK Flexibility Score: inf
ROOT
ATOM      1  O   UNL     1       9.335  64.552  49.803  1.00  0.00    -0.458 OA
ENDROOT
BRANCH   1   2
ATOM      2  C   UNL     1       9.680  65.838  50.332  1.00  0.00     0.339 C 
ATOM      3  C   UNL     1      11.452  64.957  51.597  1.00  0.00     0.199 C 
ATOM      4  C   UNL     1      12.541  65.691  50.781  1.00  0.00     0.180 C 
ATOM      5  O   UNL     1      10.249  65.707  51.625  1.00  0.00    -0.328 OA
ATOM      6  C   UNL     1      12.039  66.020  49.359  1.00  0.00     0.181 C 
ATOM      7  C   UNL     1      10.621  66.625  49.386  1.00  0.00     0.214 C 
BRANCH   3   8
ATOM      8  C   UNL     1      11.914  64.768  53.012  1.00  0.00     0.073 C 
ATOM      9  O   UNL     1      11.390  65.431  53.946  1.00  0.00    -0.547 OA
ATOM     10  O   UNL     1      12.899  63.832  53.306  1.00  0.00    -0.547 OA
ENDBRANCH   3   8
BRANCH   4  11
ATOM     11  O   UNL     1      13.705  64.908  50.693  1.00  0.00    -0.387 OA
ATOM     12  H   UNL     1      14.287  65.325  50.006  1.00  0.00     0.211 HD
ENDBRANCH   4  11
BRANCH   6  13
ATOM     13  O   UNL     1      12.105  64.909  48.496  1.00  0.00    -0.387 OA
ATOM     14  H   UNL     1      13.057  64.696  48.326  1.00  0.00     0.211 HD
ENDBRANCH   6  13
BRANCH   7  15
ATOM     15  O   UNL     1      10.705  67.959  49.821  1.00  0.00    -0.384 OA
ATOM     16  H   UNL     1      11.661  68.136  50.024  1.00  0.00     0.211 HD
ENDBRANCH   7  15
ENDBRANCH   1   2
BRANCH   1  17
ATOM     17  C   UNL     1       8.347  64.289  48.838  1.00  0.00     0.172 A 
ATOM     18  C   UNL     1       8.733  63.609  47.673  1.00  0.00     0.201 A 
ATOM     19  C   UNL     1       7.009  64.675  49.008  1.00  0.00     0.098 A 
ATOM     20  C   UNL     1       7.778  63.317  46.665  1.00  0.00     0.176 A 
ATOM     21  C   UNL     1       6.059  64.397  48.027  1.00  0.00     0.146 A 
ATOM     22  C   UNL     1       6.430  63.718  46.845  1.00  0.00     0.111 A 
ATOM     23  O   UNL     1       4.801  64.781  48.222  1.00  0.00    -0.456 OA
ATOM     24  C   UNL     1       5.418  63.477  45.890  1.00  0.00     0.197 A 
ATOM     25  C   UNL     1       3.823  64.560  47.348  1.00  0.00     0.138 A 
ATOM     26  C   UNL     1       4.113  63.900  46.144  1.00  0.00     0.100 A 
ATOM     27  O   UNL     1       5.665  62.886  44.804  1.00  0.00    -0.289 OA
BRANCH  18  28
ATOM     28  O   UNL     1      10.078  63.246  47.559  1.00  0.00    -0.502 OA
ATOM     29  H   UNL     1      10.426  62.302  47.639  1.00  0.00     0.293 HD
ENDBRANCH  18  28
BRANCH  20  30
ATOM     30  O   UNL     1       8.136  62.641  45.495  1.00  0.00    -0.504 OA
ATOM     31  H   UNL     1       8.830  62.959  44.836  1.00  0.00     0.293 HD
ENDBRANCH  20  30
BRANCH  25  32
ATOM     32  C   UNL     1       2.455  65.036  47.671  1.00  0.00     0.017 A 
ATOM     33  C   UNL     1       1.470  65.045  46.666  1.00  0.00     0.012 A 
ATOM     34  C   UNL     1       2.119  65.512  48.955  1.00  0.00     0.012 A 
ATOM     35  C   UNL     1       0.176  65.496  46.944  1.00  0.00     0.001 A 
ATOM     36  C   UNL     1       0.823  65.963  49.226  1.00  0.00     0.001 A 
ATOM     37  C   UNL     1      -0.148  65.953  48.223  1.00  0.00     0.000 A 
ENDBRANCH  25  32
ENDBRANCH   1  17
TORSDOF 9
ENDMDL
