MODEL 1
REMARK VINA RESULT:    -3.279      0.000      0.000
REMARK INTER + INTRA:          -7.769
REMARK INTER:                  -5.772
REMARK INTRA:                  -1.997
REMARK UNBOUND:                -1.997
REMARK SMILES CCCCCCCCCCCCCCC(=O)[O-]
REMARK SMILES IDX 9 1 10 2 11 3 12 4 13 5 14 6 15 7 16 8 17 9 8 10 7 11 6 12
REMARK SMILES IDX 5 13 4 14 3 15 2 16 1 17
REMARK H PARENT
REMARK Flexibility Score: inf
ROOT
ATOM      1  C   UNL     1      60.447  34.496  57.498  1.00  0.00     0.000 C 
ENDROOT
BRANCH   1   2
ATOM      2  C   UNL     1      61.047  33.091  57.665  1.00  0.00     0.000 C 
BRANCH   2   3
ATOM      3  C   UNL     1      60.026  32.128  58.283  1.00  0.00     0.000 C 
BRANCH   3   4
ATOM      4  C   UNL     1      60.723  31.074  59.155  1.00  0.00     0.000 C 
BRANCH   4   5
ATOM      5  C   UNL     1      61.030  31.583  60.576  1.00  0.00     0.006 C 
BRANCH   5   6
ATOM      6  C   UNL     1      61.095  30.480  61.645  1.00  0.00     0.053 C 
BRANCH   6   7
ATOM      7  C   UNL     1      62.263  29.567  61.438  1.00  0.00     0.041 C 
ATOM      8  O   UNL     1      62.089  28.322  61.362  1.00  0.00    -0.550 OA
ATOM      9  O   UNL     1      63.549  30.087  61.364  1.00  0.00    -0.550 OA
ENDBRANCH   6   7
ENDBRANCH   5   6
ENDBRANCH   4   5
ENDBRANCH   3   4
ENDBRANCH   2   3
ENDBRANCH   1   2
BRANCH   1  10
ATOM     10  C   UNL     1      61.293  35.586  58.177  1.00  0.00     0.000 C 
BRANCH  10  11
ATOM     11  C   UNL     1      60.824  35.895  59.606  1.00  0.00    -0.000 C 
BRANCH  11  12
ATOM     12  C   UNL     1      61.738  35.222  60.640  1.00  0.00    -0.000 C 
BRANCH  12  13
ATOM     13  C   UNL     1      63.061  35.980  60.859  1.00  0.00    -0.000 C 
BRANCH  13  14
ATOM     14  C   UNL     1      64.326  35.102  60.861  1.00  0.00    -0.000 C 
BRANCH  14  15
ATOM     15  C   UNL     1      64.011  33.598  60.792  1.00  0.00    -0.000 C 
BRANCH  15  16
ATOM     16  C   UNL     1      64.325  32.993  59.415  1.00  0.00    -0.003 C 
ATOM     17  C   UNL     1      64.925  34.010  58.444  1.00  0.00     0.004 C 
ENDBRANCH  15  16
ENDBRANCH  14  15
ENDBRANCH  13  14
ENDBRANCH  12  13
ENDBRANCH  11  12
ENDBRANCH  10  11
ENDBRANCH   1  10
TORSDOF 13
ENDMDL
MODEL 2
REMARK VINA RESULT:    -3.276      1.033      2.973
REMARK INTER + INTRA:          -7.762
REMARK INTER:                  -5.868
REMARK INTRA:                  -1.894
REMARK UNBOUND:                -1.997
REMARK SMILES CCCCCCCCCCCCCCC(=O)[O-]
REMARK SMILES IDX 9 1 10 2 11 3 12 4 13 5 14 6 15 7 16 8 17 9 8 10 7 11 6 12
REMARK SMILES IDX 5 13 4 14 3 15 2 16 1 17
REMARK H PARENT
REMARK Flexibility Score: inf
ROOT
ATOM      1  C   UNL     1      64.317  33.595  59.591  1.00  0.00     0.000 C 
ENDROOT
BRANCH   1   2
ATOM      2  C   UNL     1      63.684  32.201  59.455  1.00  0.00     0.000 C 
BRANCH   2   3
ATOM      3  C   UNL     1      62.455  32.243  58.538  1.00  0.00     0.000 C 
BRANCH   3   4
ATOM      4  C   UNL     1      61.234  31.618  59.228  1.00  0.00     0.000 C 
BRANCH   4   5
ATOM      5  C   UNL     1      61.212  31.870  60.747  1.00  0.00     0.006 C 
BRANCH   5   6
ATOM      6  C   UNL     1      60.846  30.637  61.589  1.00  0.00     0.053 C 
BRANCH   6   7
ATOM      7  C   UNL     1      61.629  29.427  61.182  1.00  0.00     0.041 C 
ATOM      8  O   UNL     1      61.040  28.426  60.695  1.00  0.00    -0.550 OA
ATOM      9  O   UNL     1      63.005  29.392  61.370  1.00  0.00    -0.550 OA
ENDBRANCH   6   7
ENDBRANCH   5   6
ENDBRANCH   4   5
ENDBRANCH   3   4
ENDBRANCH   2   3
ENDBRANCH   1   2
BRANCH   1  10
ATOM     10  C   UNL     1      64.381  34.076  61.049  1.00  0.00     0.000 C 
BRANCH  10  11
ATOM     11  C   UNL     1      65.101  35.424  61.198  1.00  0.00    -0.000 C 
BRANCH  11  12
ATOM     12  C   UNL     1      64.118  36.527  61.620  1.00  0.00    -0.000 C 
BRANCH  12  13
ATOM     13  C   UNL     1      63.327  37.113  60.436  1.00  0.00    -0.000 C 
BRANCH  13  14
ATOM     14  C   UNL     1      61.795  37.040  60.572  1.00  0.00    -0.000 C 
BRANCH  14  15
ATOM     15  C   UNL     1      61.256  35.601  60.495  1.00  0.00    -0.000 C 
BRANCH  15  16
ATOM     16  C   UNL     1      60.482  35.330  59.196  1.00  0.00    -0.003 C 
ATOM     17  C   UNL     1      61.280  35.694  57.944  1.00  0.00     0.004 C 
ENDBRANCH  15  16
ENDBRANCH  14  15
ENDBRANCH  13  14
ENDBRANCH  12  13
ENDBRANCH  11  12
ENDBRANCH  10  11
ENDBRANCH   1  10
TORSDOF 13
ENDMDL
MODEL 3
REMARK VINA RESULT:    -3.201      2.843      5.457
REMARK INTER + INTRA:          -7.631
REMARK INTER:                  -5.641
REMARK INTRA:                  -1.990
REMARK UNBOUND:                -1.997
REMARK SMILES CCCCCCCCCCCCCCC(=O)[O-]
REMARK SMILES IDX 9 1 10 2 11 3 12 4 13 5 14 6 15 7 16 8 17 9 8 10 7 11 6 12
REMARK SMILES IDX 5 13 4 14 3 15 2 16 1 17
REMARK H PARENT
REMARK Flexibility Score: inf
ROOT
ATOM      1  C   UNL     1      63.934  33.211  58.944  1.00  0.00     0.000 C 
ENDROOT
BRANCH   1   2
ATOM      2  C   UNL     1      64.412  33.521  60.371  1.00  0.00     0.000 C 
BRANCH   2   3
ATOM      3  C   UNL     1      64.930  34.961  60.476  1.00  0.00     0.000 C 
BRANCH   3   4
ATOM      4  C   UNL     1      64.137  35.755  61.525  1.00  0.00     0.000 C 
BRANCH   4   5
ATOM      5  C   UNL     1      63.229  36.830  60.899  1.00  0.00     0.006 C 
BRANCH   5   6
ATOM      6  C   UNL     1      61.753  36.418  60.774  1.00  0.00     0.053 C 
BRANCH   6   7
ATOM      7  C   UNL     1      61.372  36.123  59.356  1.00  0.00     0.041 C 
ATOM      8  O   UNL     1      62.195  36.321  58.424  1.00  0.00    -0.550 OA
ATOM      9  O   UNL     1      60.096  35.660  59.061  1.00  0.00    -0.550 OA
ENDBRANCH   6   7
ENDBRANCH   5   6
ENDBRANCH   4   5
ENDBRANCH   3   4
ENDBRANCH   2   3
ENDBRANCH   1   2
BRANCH   1  10
ATOM     10  C   UNL     1      62.508  32.639  58.909  1.00  0.00     0.000 C 
BRANCH  10  11
ATOM     11  C   UNL     1      61.816  32.687  60.279  1.00  0.00    -0.000 C 
BRANCH  11  12
ATOM     12  C   UNL     1      60.839  31.512  60.440  1.00  0.00    -0.000 C 
BRANCH  12  13
ATOM     13  C   UNL     1      61.168  30.618  61.650  1.00  0.00    -0.000 C 
BRANCH  13  14
ATOM     14  C   UNL     1      62.051  29.395  61.339  1.00  0.00    -0.000 C 
BRANCH  14  15
ATOM     15  C   UNL     1      63.543  29.750  61.212  1.00  0.00    -0.000 C 
BRANCH  15  16
ATOM     16  C   UNL     1      64.217  29.043  60.026  1.00  0.00    -0.003 C 
ATOM     17  C   UNL     1      65.360  29.858  59.421  1.00  0.00     0.004 C 
ENDBRANCH  15  16
ENDBRANCH  14  15
ENDBRANCH  13  14
ENDBRANCH  12  13
ENDBRANCH  11  12
ENDBRANCH  10  11
ENDBRANCH   1  10
TORSDOF 13
ENDMDL
MODEL 4
REMARK VINA RESULT:    -3.185      2.184      3.681
REMARK INTER + INTRA:          -7.602
REMARK INTER:                  -5.626
REMARK INTRA:                  -1.976
REMARK UNBOUND:                -1.997
REMARK SMILES CCCCCCCCCCCCCCC(=O)[O-]
REMARK SMILES IDX 9 1 10 2 11 3 12 4 13 5 14 6 15 7 16 8 17 9 8 10 7 11 6 12
REMARK SMILES IDX 5 13 4 14 3 15 2 16 1 17
REMARK H PARENT
REMARK Flexibility Score: inf
ROOT
ATOM      1  C   UNL     1      64.470  31.034  59.746  1.00  0.00     0.000 C 
ENDROOT
BRANCH   1   2
ATOM      2  C   UNL     1      64.008  30.537  61.124  1.00  0.00     0.000 C 
BRANCH   2   3
ATOM      3  C   UNL     1      62.948  29.438  60.984  1.00  0.00     0.000 C 
BRANCH   3   4
ATOM      4  C   UNL     1      61.650  29.831  61.706  1.00  0.00     0.000 C 
BRANCH   4   5
ATOM      5  C   UNL     1      60.627  30.503  60.772  1.00  0.00     0.006 C 
BRANCH   5   6
ATOM      6  C   UNL     1      60.714  30.048  59.306  1.00  0.00     0.053 C 
BRANCH   6   7
ATOM      7  C   UNL     1      60.629  31.202  58.355  1.00  0.00     0.041 C 
ATOM      8  O   UNL     1      59.635  31.975  58.384  1.00  0.00    -0.550 OA
ATOM      9  O   UNL     1      61.630  31.404  57.414  1.00  0.00    -0.550 OA
ENDBRANCH   6   7
ENDBRANCH   5   6
ENDBRANCH   4   5
ENDBRANCH   3   4
ENDBRANCH   2   3
ENDBRANCH   1   2
BRANCH   1  10
ATOM     10  C   UNL     1      64.191  32.530  59.532  1.00  0.00     0.000 C 
BRANCH  10  11
ATOM     11  C   UNL     1      63.218  33.106  60.570  1.00  0.00    -0.000 C 
BRANCH  11  12
ATOM     12  C   UNL     1      62.226  34.077  59.912  1.00  0.00    -0.000 C 
BRANCH  12  13
ATOM     13  C   UNL     1      62.061  35.392  60.696  1.00  0.00    -0.000 C 
BRANCH  13  14
ATOM     14  C   UNL     1      63.143  36.454  60.428  1.00  0.00    -0.000 C 
BRANCH  14  15
ATOM     15  C   UNL     1      64.280  36.426  61.464  1.00  0.00    -0.000 C 
BRANCH  15  16
ATOM     16  C   UNL     1      65.602  35.910  60.875  1.00  0.00    -0.003 C 
ATOM     17  C   UNL     1      65.609  35.907  59.347  1.00  0.00     0.004 C 
ENDBRANCH  15  16
ENDBRANCH  14  15
ENDBRANCH  13  14
ENDBRANCH  12  13
ENDBRANCH  11  12
ENDBRANCH  10  11
ENDBRANCH   1  10
TORSDOF 13
ENDMDL
MODEL 5
REMARK VINA RESULT:    -3.153      1.408      3.224
REMARK INTER + INTRA:          -7.545
REMARK INTER:                  -5.870
REMARK INTRA:                  -1.675
REMARK UNBOUND:                -1.997
REMARK SMILES CCCCCCCCCCCCCCC(=O)[O-]
REMARK SMILES IDX 9 1 10 2 11 3 12 4 13 5 14 6 15 7 16 8 17 9 8 10 7 11 6 12
REMARK SMILES IDX 5 13 4 14 3 15 2 16 1 17
REMARK H PARENT
REMARK Flexibility Score: inf
ROOT
ATOM      1  C   UNL     1      62.317  32.486  58.508  1.00  0.00     0.000 C 
ENDROOT
BRANCH   1   2
ATOM      2  C   UNL     1      61.176  32.542  59.535  1.00  0.00     0.000 C 
BRANCH   2   3
ATOM      3  C   UNL     1      60.665  31.134  59.866  1.00  0.00     0.000 C 
BRANCH   3   4
ATOM      4  C   UNL     1      60.921  30.788  61.340  1.00  0.00     0.000 C 
BRANCH   4   5
ATOM      5  C   UNL     1      62.038  29.744  61.523  1.00  0.00     0.006 C 
BRANCH   5   6
ATOM      6  C   UNL     1      62.494  29.069  60.220  1.00  0.00     0.053 C 
BRANCH   6   7
ATOM      7  C   UNL     1      63.922  29.382  59.897  1.00  0.00     0.041 C 
ATOM      8  O   UNL     1      64.749  29.600  60.822  1.00  0.00    -0.550 OA
ATOM      9  O   UNL     1      64.335  29.466  58.573  1.00  0.00    -0.550 OA
ENDBRANCH   6   7
ENDBRANCH   5   6
ENDBRANCH   4   5
ENDBRANCH   3   4
ENDBRANCH   2   3
ENDBRANCH   1   2
BRANCH   1  10
ATOM     10  C   UNL     1      63.649  33.003  59.075  1.00  0.00     0.000 C 
BRANCH  10  11
ATOM     11  C   UNL     1      63.591  33.259  60.588  1.00  0.00    -0.000 C 
BRANCH  11  12
ATOM     12  C   UNL     1      64.480  34.450  60.977  1.00  0.00    -0.000 C 
BRANCH  12  13
ATOM     13  C   UNL     1      63.724  35.792  60.973  1.00  0.00    -0.000 C 
BRANCH  13  14
ATOM     14  C   UNL     1      62.194  35.681  60.829  1.00  0.00    -0.000 C 
BRANCH  14  15
ATOM     15  C   UNL     1      61.511  37.045  60.630  1.00  0.00    -0.000 C 
BRANCH  15  16
ATOM     16  C   UNL     1      60.731  37.125  59.309  1.00  0.00    -0.003 C 
ATOM     17  C   UNL     1      59.762  35.958  59.120  1.00  0.00     0.004 C 
ENDBRANCH  15  16
ENDBRANCH  14  15
ENDBRANCH  13  14
ENDBRANCH  12  13
ENDBRANCH  11  12
ENDBRANCH  10  11
ENDBRANCH   1  10
TORSDOF 13
ENDMDL
MODEL 6
REMARK VINA RESULT:    -3.136      1.499      2.875
REMARK INTER + INTRA:          -7.516
REMARK INTER:                  -5.798
REMARK INTRA:                  -1.718
REMARK UNBOUND:                -1.997
REMARK SMILES CCCCCCCCCCCCCCC(=O)[O-]
REMARK SMILES IDX 9 1 10 2 11 3 12 4 13 5 14 6 15 7 16 8 17 9 8 10 7 11 6 12
REMARK SMILES IDX 5 13 4 14 3 15 2 16 1 17
REMARK H PARENT
REMARK Flexibility Score: inf
ROOT
ATOM      1  C   UNL     1      61.361  30.965  58.066  1.00  0.00     0.000 C 
ENDROOT
BRANCH   1   2
ATOM      2  C   UNL     1      60.365  30.907  59.235  1.00  0.00     0.000 C 
BRANCH   2   3
ATOM      3  C   UNL     1      60.962  31.541  60.497  1.00  0.00     0.000 C 
BRANCH   3   4
ATOM      4  C   UNL     1      61.095  30.505  61.623  1.00  0.00     0.000 C 
BRANCH   4   5
ATOM      5  C   UNL     1      62.273  29.536  61.407  1.00  0.00     0.006 C 
BRANCH   5   6
ATOM      6  C   UNL     1      63.633  30.225  61.213  1.00  0.00     0.053 C 
BRANCH   6   7
ATOM      7  C   UNL     1      64.593  29.367  60.449  1.00  0.00     0.041 C 
ATOM      8  O   UNL     1      65.543  29.892  59.811  1.00  0.00    -0.550 OA
ATOM      9  O   UNL     1      64.419  27.989  60.414  1.00  0.00    -0.550 OA
ENDBRANCH   6   7
ENDBRANCH   5   6
ENDBRANCH   4   5
ENDBRANCH   3   4
ENDBRANCH   2   3
ENDBRANCH   1   2
BRANCH   1  10
ATOM     10  C   UNL     1      62.410  32.076  58.237  1.00  0.00     0.000 C 
BRANCH  10  11
ATOM     11  C   UNL     1      62.126  33.300  57.354  1.00  0.00    -0.000 C 
BRANCH  11  12
ATOM     12  C   UNL     1      62.449  34.602  58.102  1.00  0.00    -0.000 C 
BRANCH  12  13
ATOM     13  C   UNL     1      61.574  34.811  59.352  1.00  0.00    -0.000 C 
BRANCH  13  14
ATOM     14  C   UNL     1      62.344  35.153  60.641  1.00  0.00    -0.000 C 
BRANCH  14  15
ATOM     15  C   UNL     1      63.612  34.302  60.825  1.00  0.00    -0.000 C 
BRANCH  15  16
ATOM     16  C   UNL     1      64.778  35.105  61.422  1.00  0.00    -0.003 C 
ATOM     17  C   UNL     1      65.083  36.380  60.637  1.00  0.00     0.004 C 
ENDBRANCH  15  16
ENDBRANCH  14  15
ENDBRANCH  13  14
ENDBRANCH  12  13
ENDBRANCH  11  12
ENDBRANCH  10  11
ENDBRANCH   1  10
TORSDOF 13
ENDMDL
MODEL 7
REMARK VINA RESULT:    -3.110     10.533     12.674
REMARK INTER + INTRA:          -7.471
REMARK INTER:                  -5.725
REMARK INTRA:                  -1.746
REMARK UNBOUND:                -1.997
REMARK SMILES CCCCCCCCCCCCCCC(=O)[O-]
REMARK SMILES IDX 9 1 10 2 11 3 12 4 13 5 14 6 15 7 16 8 17 9 8 10 7 11 6 12
REMARK SMILES IDX 5 13 4 14 3 15 2 16 1 17
REMARK H PARENT
REMARK Flexibility Score: inf
ROOT
ATOM      1  C   UNL     1      54.800  25.722  49.792  1.00  0.00     0.000 C 
ENDROOT
BRANCH   1   2
ATOM      2  C   UNL     1      53.801  26.753  49.246  1.00  0.00     0.000 C 
BRANCH   2   3
ATOM      3  C   UNL     1      53.365  27.731  50.344  1.00  0.00     0.000 C 
BRANCH   3   4
ATOM      4  C   UNL     1      53.730  29.175  49.971  1.00  0.00     0.000 C 
BRANCH   4   5
ATOM      5  C   UNL     1      55.157  29.561  50.404  1.00  0.00     0.006 C 
BRANCH   5   6
ATOM      6  C   UNL     1      55.420  29.427  51.912  1.00  0.00     0.053 C 
BRANCH   6   7
ATOM      7  C   UNL     1      54.934  30.621  52.674  1.00  0.00     0.041 C 
ATOM      8  O   UNL     1      55.682  31.623  52.827  1.00  0.00    -0.550 OA
ATOM      9  O   UNL     1      53.668  30.615  53.246  1.00  0.00    -0.550 OA
ENDBRANCH   6   7
ENDBRANCH   5   6
ENDBRANCH   4   5
ENDBRANCH   3   4
ENDBRANCH   2   3
ENDBRANCH   1   2
BRANCH   1  10
ATOM     10  C   UNL     1      56.249  26.235  49.777  1.00  0.00     0.000 C 
BRANCH  10  11
ATOM     11  C   UNL     1      56.951  26.071  51.133  1.00  0.00    -0.000 C 
BRANCH  11  12
ATOM     12  C   UNL     1      58.456  25.829  50.944  1.00  0.00    -0.000 C 
BRANCH  12  13
ATOM     13  C   UNL     1      58.962  26.243  49.550  1.00  0.00    -0.000 C 
BRANCH  13  14
ATOM     14  C   UNL     1      60.353  26.904  49.528  1.00  0.00    -0.000 C 
BRANCH  14  15
ATOM     15  C   UNL     1      60.311  28.371  49.066  1.00  0.00    -0.000 C 
BRANCH  15  16
ATOM     16  C   UNL     1      58.984  29.062  49.418  1.00  0.00    -0.003 C 
ATOM     17  C   UNL     1      59.015  29.742  50.787  1.00  0.00     0.004 C 
ENDBRANCH  15  16
ENDBRANCH  14  15
ENDBRANCH  13  14
ENDBRANCH  12  13
ENDBRANCH  11  12
ENDBRANCH  10  11
ENDBRANCH   1  10
TORSDOF 13
ENDMDL
MODEL 8
REMARK VINA RESULT:    -3.092      2.705      4.583
REMARK INTER + INTRA:          -7.439
REMARK INTER:                  -5.457
REMARK INTRA:                  -1.982
REMARK UNBOUND:                -1.997
REMARK SMILES CCCCCCCCCCCCCCC(=O)[O-]
REMARK SMILES IDX 9 1 10 2 11 3 12 4 13 5 14 6 15 7 16 8 17 9 8 10 7 11 6 12
REMARK SMILES IDX 5 13 4 14 3 15 2 16 1 17
REMARK H PARENT
REMARK Flexibility Score: inf
ROOT
ATOM      1  C   UNL     1      62.211  29.667  61.128  1.00  0.00     0.000 C 
ENDROOT
BRANCH   1   2
ATOM      2  C   UNL     1      63.631  30.209  61.349  1.00  0.00     0.000 C 
BRANCH   2   3
ATOM      3  C   UNL     1      64.505  29.981  60.110  1.00  0.00     0.000 C 
BRANCH   3   4
ATOM      4  C   UNL     1      64.782  31.303  59.380  1.00  0.00     0.000 C 
BRANCH   4   5
ATOM      5  C   UNL     1      64.132  31.364  57.986  1.00  0.00     0.006 C 
BRANCH   5   6
ATOM      6  C   UNL     1      63.473  30.049  57.536  1.00  0.00     0.053 C 
BRANCH   6   7
ATOM      7  C   UNL     1      64.247  29.378  56.445  1.00  0.00     0.041 C 
ATOM      8  O   UNL     1      65.484  29.181  56.574  1.00  0.00    -0.550 OA
ATOM      9  O   UNL     1      63.610  29.000  55.270  1.00  0.00    -0.550 OA
ENDBRANCH   6   7
ENDBRANCH   5   6
ENDBRANCH   4   5
ENDBRANCH   3   4
ENDBRANCH   2   3
ENDBRANCH   1   2
BRANCH   1  10
ATOM     10  C   UNL     1      61.146  30.776  61.129  1.00  0.00     0.000 C 
BRANCH  10  11
ATOM     11  C   UNL     1      60.603  31.078  59.725  1.00  0.00    -0.000 C 
BRANCH  11  12
ATOM     12  C   UNL     1      60.983  32.500  59.285  1.00  0.00    -0.000 C 
BRANCH  12  13
ATOM     13  C   UNL     1      61.771  33.272  60.359  1.00  0.00    -0.000 C 
BRANCH  13  14
ATOM     14  C   UNL     1      61.541  34.794  60.372  1.00  0.00    -0.000 C 
BRANCH  14  15
ATOM     15  C   UNL     1      62.809  35.589  60.730  1.00  0.00    -0.000 C 
BRANCH  15  16
ATOM     16  C   UNL     1      64.021  34.679  60.984  1.00  0.00    -0.003 C 
ATOM     17  C   UNL     1      65.321  35.462  61.172  1.00  0.00     0.004 C 
ENDBRANCH  15  16
ENDBRANCH  14  15
ENDBRANCH  13  14
ENDBRANCH  12  13
ENDBRANCH  11  12
ENDBRANCH  10  11
ENDBRANCH   1  10
TORSDOF 13
ENDMDL
MODEL 9
REMARK VINA RESULT:    -3.067     10.552     12.788
REMARK INTER + INTRA:          -7.395
REMARK INTER:                  -5.374
REMARK INTRA:                  -2.020
REMARK UNBOUND:                -1.997
REMARK SMILES CCCCCCCCCCCCCCC(=O)[O-]
REMARK SMILES IDX 9 1 10 2 11 3 12 4 13 5 14 6 15 7 16 8 17 9 8 10 7 11 6 12
REMARK SMILES IDX 5 13 4 14 3 15 2 16 1 17
REMARK H PARENT
REMARK Flexibility Score: inf
ROOT
ATOM      1  C   UNL     1      60.698  28.884  49.615  1.00  0.00     0.000 C 
ENDROOT
BRANCH   1   2
ATOM      2  C   UNL     1      59.257  29.381  49.426  1.00  0.00     0.000 C 
BRANCH   2   3
ATOM      3  C   UNL     1      58.246  28.291  49.803  1.00  0.00     0.000 C 
BRANCH   3   4
ATOM      4  C   UNL     1      56.993  28.902  50.447  1.00  0.00     0.000 C 
BRANCH   4   5
ATOM      5  C   UNL     1      55.938  27.844  50.821  1.00  0.00     0.006 C 
BRANCH   5   6
ATOM      6  C   UNL     1      55.902  26.626  49.884  1.00  0.00     0.053 C 
BRANCH   6   7
ATOM      7  C   UNL     1      54.518  26.336  49.393  1.00  0.00     0.041 C 
ATOM      8  O   UNL     1      53.681  27.269  49.270  1.00  0.00    -0.550 OA
ATOM      9  O   UNL     1      54.140  25.031  49.105  1.00  0.00    -0.550 OA
ENDBRANCH   6   7
ENDBRANCH   5   6
ENDBRANCH   4   5
ENDBRANCH   3   4
ENDBRANCH   2   3
ENDBRANCH   1   2
BRANCH   1  10
ATOM     10  C   UNL     1      60.854  27.386  49.306  1.00  0.00     0.000 C 
BRANCH  10  11
ATOM     11  C   UNL     1      62.073  26.761  50.000  1.00  0.00    -0.000 C 
BRANCH  11  12
ATOM     12  C   UNL     1      61.926  25.235  50.095  1.00  0.00    -0.000 C 
BRANCH  12  13
ATOM     13  C   UNL     1      60.463  24.764  49.999  1.00  0.00    -0.000 C 
BRANCH  13  14
ATOM     14  C   UNL     1      59.816  24.363  51.338  1.00  0.00    -0.000 C 
BRANCH  14  15
ATOM     15  C   UNL     1      58.731  25.352  51.799  1.00  0.00    -0.000 C 
BRANCH  15  16
ATOM     16  C   UNL     1      59.078  26.024  53.137  1.00  0.00    -0.003 C 
ATOM     17  C   UNL     1      59.835  27.340  52.960  1.00  0.00     0.004 C 
ENDBRANCH  15  16
ENDBRANCH  14  15
ENDBRANCH  13  14
ENDBRANCH  12  13
ENDBRANCH  11  12
ENDBRANCH  10  11
ENDBRANCH   1  10
TORSDOF 13
ENDMDL
