MODEL 1
REMARK VINA RESULT:    -3.764      0.000      0.000
REMARK INTER + INTRA:          -5.584
REMARK INTER:                  -5.084
REMARK INTRA:                  -0.500
REMARK UNBOUND:                -0.500
REMARK SMILES O=c1c(-c2ccc(O)cc2)coc2c([C@H]3O[C@H](CO)[C@H](O)[C@@H](O)[C@@H]3O)c(O)ccc12
REMARK SMILES IDX 3 1 11 2 12 3 13 4 30 5 2 6 1 7 29 8 28 9 26 10 14 11 4 12
REMARK SMILES IDX 5 13 6 14 7 15 10 16 9 17 8 18 15 20 24 21 16 22 22 23 17 24
REMARK SMILES IDX 20 25 25 26 23 28 18 30 19 31 21 33 27 35
REMARK H PARENT 8 19 25 27 23 29 19 32 21 34 27 36
REMARK Flexibility Score: inf
ROOT
ATOM      1  C   UNL     1       7.024  -3.719   9.856  1.00  0.00     0.065 A 
ATOM      2  C   UNL     1       6.307  -4.146  10.979  1.00  0.00     0.208 A 
ATOM      3  O   UNL     1       6.013  -5.426  11.140  1.00  0.00    -0.463 OA
ATOM      4  C   UNL     1       6.357  -6.374  10.281  1.00  0.00     0.147 A 
ATOM      5  C   UNL     1       6.982  -6.042   9.064  1.00  0.00     0.066 A 
ATOM      6  C   UNL     1       7.374  -4.691   8.882  1.00  0.00     0.200 A 
ATOM      7  O   UNL     1       8.065  -4.365   7.875  1.00  0.00    -0.288 OA
ATOM      8  C   UNL     1       7.054  -6.985   8.039  1.00  0.00     0.020 A 
ATOM      9  C   UNL     1       6.649  -8.286   8.264  1.00  0.00     0.047 A 
ATOM     10  C   UNL     1       6.179  -8.669   9.537  1.00  0.00     0.125 A 
ATOM     11  C   UNL     1       6.181  -7.758  10.623  1.00  0.00     0.069 A 
ENDROOT
BRANCH   1  12
ATOM     12  C   UNL     1       7.633  -2.381   9.865  1.00  0.00    -0.011 A 
ATOM     13  C   UNL     1       8.990  -2.216  10.140  1.00  0.00     0.013 A 
ATOM     14  C   UNL     1       9.577  -0.957  10.120  1.00  0.00     0.047 A 
ATOM     15  C   UNL     1       8.794   0.158   9.747  1.00  0.00     0.115 A 
ATOM     16  C   UNL     1       6.861  -1.253   9.489  1.00  0.00     0.013 A 
ATOM     17  C   UNL     1       7.454   0.015   9.397  1.00  0.00     0.047 A 
BRANCH  15  18
ATOM     18  O   UNL     1       9.394   1.425   9.674  1.00  0.00    -0.508 OA
ATOM     19  H   UNL     1      10.168   1.693  10.273  1.00  0.00     0.293 HD
ENDBRANCH  15  18
ENDBRANCH   1  12
BRANCH  11  20
ATOM     20  C   UNL     1       6.140  -8.268  12.083  1.00  0.00     0.188 C 
ATOM     21  C   UNL     1       6.785  -7.213  13.060  1.00  0.00     0.179 C 
ATOM     22  O   UNL     1       6.796  -9.521  12.151  1.00  0.00    -0.362 OA
ATOM     23  C   UNL     1       8.197  -7.710  13.517  1.00  0.00     0.177 C 
ATOM     24  C   UNL     1       7.091  -9.984  13.495  1.00  0.00     0.176 C 
ATOM     25  C   UNL     1       7.947  -8.987  14.377  1.00  0.00     0.177 C 
BRANCH  21  26
ATOM     26  O   UNL     1       5.907  -7.075  14.138  1.00  0.00    -0.387 OA
ATOM     27  H   UNL     1       6.098  -6.210  14.620  1.00  0.00     0.211 HD
ENDBRANCH  21  26
BRANCH  23  28
ATOM     28  O   UNL     1       9.058  -8.106  12.449  1.00  0.00    -0.387 OA
ATOM     29  H   UNL     1       8.719  -7.677  11.614  1.00  0.00     0.211 HD
ENDBRANCH  23  28
BRANCH  24  30
ATOM     30  C   UNL     1       5.896 -10.746  14.189  1.00  0.00     0.191 C 
BRANCH  30  31
ATOM     31  O   UNL     1       6.234 -11.390  15.392  1.00  0.00    -0.394 OA
ATOM     32  H   UNL     1       6.202 -12.376  15.167  1.00  0.00     0.210 HD
ENDBRANCH  30  31
ENDBRANCH  24  30
BRANCH  25  33
ATOM     33  O   UNL     1       7.326  -8.588  15.573  1.00  0.00    -0.388 OA
ATOM     34  H   UNL     1       6.631  -7.905  15.299  1.00  0.00     0.211 HD
ENDBRANCH  25  33
ENDBRANCH  11  20
BRANCH  10  35
ATOM     35  O   UNL     1       5.875 -10.024   9.792  1.00  0.00    -0.507 OA
ATOM     36  H   UNL     1       5.792 -10.372  10.746  1.00  0.00     0.293 HD
ENDBRANCH  10  35
TORSDOF 9
ENDMDL
MODEL 2
REMARK VINA RESULT:    -2.810      1.068      1.772
REMARK INTER + INTRA:          -4.296
REMARK INTER:                  -3.743
REMARK INTRA:                  -0.552
REMARK UNBOUND:                -0.500
REMARK SMILES O=c1c(-c2ccc(O)cc2)coc2c([C@H]3O[C@H](CO)[C@H](O)[C@@H](O)[C@@H]3O)c(O)ccc12
REMARK SMILES IDX 3 1 11 2 12 3 13 4 30 5 2 6 1 7 29 8 28 9 26 10 14 11 4 12
REMARK SMILES IDX 5 13 6 14 7 15 10 16 9 17 8 18 15 20 24 21 16 22 22 23 17 24
REMARK SMILES IDX 20 25 25 26 23 28 18 30 19 31 21 33 27 35
REMARK H PARENT 8 19 25 27 23 29 19 32 21 34 27 36
REMARK Flexibility Score: inf
ROOT
ATOM      1  C   UNL     1       7.004  -4.022  10.040  1.00  0.00     0.065 A 
ATOM      2  C   UNL     1       6.668  -4.372  11.352  1.00  0.00     0.208 A 
ATOM      3  O   UNL     1       6.436  -5.637  11.669  1.00  0.00    -0.463 OA
ATOM      4  C   UNL     1       6.497  -6.636  10.802  1.00  0.00     0.147 A 
ATOM      5  C   UNL     1       6.714  -6.383   9.435  1.00  0.00     0.066 A 
ATOM      6  C   UNL     1       7.033  -5.052   9.063  1.00  0.00     0.200 A 
ATOM      7  O   UNL     1       7.379  -4.795   7.875  1.00  0.00    -0.288 OA
ATOM      8  C   UNL     1       6.464  -7.381   8.494  1.00  0.00     0.020 A 
ATOM      9  C   UNL     1       6.146  -8.660   8.908  1.00  0.00     0.047 A 
ATOM     10  C   UNL     1       6.093  -8.964  10.284  1.00  0.00     0.125 A 
ATOM     11  C   UNL     1       6.432  -7.996  11.262  1.00  0.00     0.069 A 
ENDROOT
BRANCH   1  12
ATOM     12  C   UNL     1       7.587  -2.697   9.783  1.00  0.00    -0.011 A 
ATOM     13  C   UNL     1       6.801  -1.654   9.293  1.00  0.00     0.013 A 
ATOM     14  C   UNL     1       7.340  -0.392   9.077  1.00  0.00     0.047 A 
ATOM     15  C   UNL     1       8.688  -0.153   9.427  1.00  0.00     0.115 A 
ATOM     16  C   UNL     1       8.936  -2.441  10.133  1.00  0.00     0.013 A 
ATOM     17  C   UNL     1       9.478  -1.155   9.986  1.00  0.00     0.047 A 
BRANCH  15  18
ATOM     18  O   UNL     1       9.223   1.133   9.260  1.00  0.00    -0.508 OA
ATOM     19  H   UNL     1      10.099   1.416   9.687  1.00  0.00     0.293 HD
ENDBRANCH  15  18
ENDBRANCH   1  12
BRANCH  11  20
ATOM     20  C   UNL     1       6.843  -8.425  12.690  1.00  0.00     0.188 C 
ATOM     21  C   UNL     1       8.337  -8.927  12.713  1.00  0.00     0.179 C 
ATOM     22  O   UNL     1       5.945  -9.419  13.147  1.00  0.00    -0.362 OA
ATOM     23  C   UNL     1       8.368 -10.487  12.839  1.00  0.00     0.177 C 
ATOM     24  C   UNL     1       6.370 -10.122  14.345  1.00  0.00     0.176 C 
ATOM     25  C   UNL     1       7.789 -10.817  14.249  1.00  0.00     0.177 C 
BRANCH  21  26
ATOM     26  O   UNL     1       8.954  -8.304  13.800  1.00  0.00    -0.387 OA
ATOM     27  H   UNL     1       8.252  -7.981  14.447  1.00  0.00     0.211 HD
ENDBRANCH  21  26
BRANCH  23  28
ATOM     28  O   UNL     1       7.546 -11.173  11.895  1.00  0.00    -0.387 OA
ATOM     29  H   UNL     1       8.124 -11.431  11.123  1.00  0.00     0.211 HD
ENDBRANCH  23  28
BRANCH  24  30
ATOM     30  C   UNL     1       5.997  -9.384  15.689  1.00  0.00     0.191 C 
BRANCH  30  31
ATOM     31  O   UNL     1       6.899  -8.375  16.071  1.00  0.00    -0.394 OA
ATOM     32  H   UNL     1       6.310  -7.583  16.294  1.00  0.00     0.210 HD
ENDBRANCH  30  31
ENDBRANCH  24  30
BRANCH  25  33
ATOM     33  O   UNL     1       8.717 -10.381  15.210  1.00  0.00    -0.388 OA
ATOM     34  H   UNL     1       8.213  -9.721  15.789  1.00  0.00     0.211 HD
ENDBRANCH  25  33
ENDBRANCH  11  20
BRANCH  10  35
ATOM     35  O   UNL     1       5.880 -10.297  10.697  1.00  0.00    -0.507 OA
ATOM     36  H   UNL     1       6.555 -10.775  11.294  1.00  0.00     0.293 HD
ENDBRANCH  10  35
TORSDOF 9
ENDMDL
MODEL 3
REMARK VINA RESULT:    -2.252      1.437      2.476
REMARK INTER + INTRA:          -3.541
REMARK INTER:                  -3.487
REMARK INTRA:                  -0.055
REMARK UNBOUND:                -0.500
REMARK SMILES O=c1c(-c2ccc(O)cc2)coc2c([C@H]3O[C@H](CO)[C@H](O)[C@@H](O)[C@@H]3O)c(O)ccc12
REMARK SMILES IDX 3 1 11 2 12 3 13 4 30 5 2 6 1 7 29 8 28 9 26 10 14 11 4 12
REMARK SMILES IDX 5 13 6 14 7 15 10 16 9 17 8 18 15 20 24 21 16 22 22 23 17 24
REMARK SMILES IDX 20 25 25 26 23 28 18 30 19 31 21 33 27 35
REMARK H PARENT 8 19 25 27 23 29 19 32 21 34 27 36
REMARK Flexibility Score: inf
ROOT
ATOM      1  C   UNL     1       7.941  -2.645  10.151  1.00  0.00     0.065 A 
ATOM      2  C   UNL     1       7.979  -3.398  11.331  1.00  0.00     0.208 A 
ATOM      3  O   UNL     1       7.617  -4.672  11.324  1.00  0.00    -0.463 OA
ATOM      4  C   UNL     1       7.202  -5.313  10.243  1.00  0.00     0.147 A 
ATOM      5  C   UNL     1       7.018  -4.624   9.030  1.00  0.00     0.066 A 
ATOM      6  C   UNL     1       7.455  -3.276   8.976  1.00  0.00     0.200 A 
ATOM      7  O   UNL     1       7.448  -2.654   7.875  1.00  0.00    -0.288 OA
ATOM      8  C   UNL     1       6.291  -5.214   7.996  1.00  0.00     0.020 A 
ATOM      9  C   UNL     1       5.877  -6.528   8.103  1.00  0.00     0.047 A 
ATOM     10  C   UNL     1       6.206  -7.282   9.249  1.00  0.00     0.125 A 
ATOM     11  C   UNL     1       7.022  -6.739  10.273  1.00  0.00     0.069 A 
ENDROOT
BRANCH   1  12
ATOM     12  C   UNL     1       8.659  -1.364  10.100  1.00  0.00    -0.011 A 
ATOM     13  C   UNL     1       9.967  -1.260  10.575  1.00  0.00     0.013 A 
ATOM     14  C   UNL     1      10.661  -0.059  10.502  1.00  0.00     0.047 A 
ATOM     15  C   UNL     1      10.050   1.049   9.873  1.00  0.00     0.115 A 
ATOM     16  C   UNL     1       8.061  -0.245   9.469  1.00  0.00     0.013 A 
ATOM     17  C   UNL     1       8.773   0.955   9.325  1.00  0.00     0.047 A 
BRANCH  15  18
ATOM     18  O   UNL     1      10.767   2.249   9.749  1.00  0.00    -0.508 OA
ATOM     19  H   UNL     1      10.924   2.871  10.537  1.00  0.00     0.293 HD
ENDBRANCH  15  18
ENDBRANCH   1  12
BRANCH  11  20
ATOM     20  C   UNL     1       7.775  -7.664  11.259  1.00  0.00     0.188 C 
ATOM     21  C   UNL     1       6.760  -8.439  12.181  1.00  0.00     0.179 C 
ATOM     22  O   UNL     1       8.686  -6.885  12.013  1.00  0.00    -0.362 OA
ATOM     23  C   UNL     1       6.777  -7.823  13.620  1.00  0.00     0.177 C 
ATOM     24  C   UNL     1       9.251  -7.557  13.170  1.00  0.00     0.176 C 
ATOM     25  C   UNL     1       8.192  -8.124  14.202  1.00  0.00     0.177 C 
BRANCH  21  26
ATOM     26  O   UNL     1       7.159  -9.777  12.182  1.00  0.00    -0.387 OA
ATOM     27  H   UNL     1       6.400 -10.357  11.861  1.00  0.00     0.211 HD
ENDBRANCH  21  26
BRANCH  23  28
ATOM     28  O   UNL     1       6.619  -6.405  13.658  1.00  0.00    -0.387 OA
ATOM     29  H   UNL     1       6.906  -6.093  14.563  1.00  0.00     0.211 HD
ENDBRANCH  23  28
BRANCH  24  30
ATOM     30  C   UNL     1      10.515  -8.443  12.845  1.00  0.00     0.191 C 
BRANCH  30  31
ATOM     31  O   UNL     1      11.626  -7.723  12.371  1.00  0.00    -0.394 OA
ATOM     32  H   UNL     1      12.395  -8.378  12.430  1.00  0.00     0.210 HD
ENDBRANCH  30  31
ENDBRANCH  24  30
BRANCH  25  33
ATOM     33  O   UNL     1       8.282  -9.509  14.425  1.00  0.00    -0.388 OA
ATOM     34  H   UNL     1       8.160  -9.628  15.422  1.00  0.00     0.211 HD
ENDBRANCH  25  33
ENDBRANCH  11  20
BRANCH  10  35
ATOM     35  O   UNL     1       5.881  -8.654   9.300  1.00  0.00    -0.507 OA
ATOM     36  H   UNL     1       5.532  -9.078  10.160  1.00  0.00     0.293 HD
ENDBRANCH  10  35
TORSDOF 9
ENDMDL
