MODEL 1
REMARK VINA RESULT:     3.812      0.000      0.000
REMARK INTER + INTRA:           6.575
REMARK INTER:                   7.378
REMARK INTRA:                  -0.803
REMARK UNBOUND:                -0.803
REMARK SMILES CCCCCCCCCCCCCCCCCC(=O)[O-]
REMARK SMILES IDX 10 1 11 2 12 3 13 4 14 5 15 6 16 7 17 8 18 9 19 10 20 11
REMARK SMILES IDX 9 12 8 13 7 14 6 15 5 16 4 17 3 18 2 19 1 20
REMARK H PARENT
REMARK Flexibility Score: inf
ROOT
ATOM      1  C   UNL     1      59.081  -4.280  -1.653  1.00  0.00     0.000 C 
ENDROOT
BRANCH   1   2
ATOM      2  C   UNL     1      59.102  -5.433  -0.638  1.00  0.00     0.000 C 
BRANCH   2   3
ATOM      3  C   UNL     1      58.257  -5.093   0.595  1.00  0.00     0.000 C 
BRANCH   3   4
ATOM      4  C   UNL     1      57.165  -6.149   0.821  1.00  0.00     0.000 C 
BRANCH   4   5
ATOM      5  C   UNL     1      57.369  -6.957   2.115  1.00  0.00     0.000 C 
BRANCH   5   6
ATOM      6  C   UNL     1      58.835  -7.113   2.565  1.00  0.00     0.000 C 
BRANCH   6   7
ATOM      7  C   UNL     1      59.060  -7.125   4.089  1.00  0.00     0.006 C 
BRANCH   7   8
ATOM      8  C   UNL     1      57.792  -6.833   4.912  1.00  0.00     0.053 C 
BRANCH   8   9
ATOM      9  C   UNL     1      57.890  -5.550   5.678  1.00  0.00     0.041 C 
ATOM     10  O   UNL     1      58.263  -5.555   6.881  1.00  0.00    -0.550 OA
ATOM     11  O   UNL     1      57.603  -4.341   5.054  1.00  0.00    -0.550 OA
ENDBRANCH   8   9
ENDBRANCH   7   8
ENDBRANCH   6   7
ENDBRANCH   5   6
ENDBRANCH   4   5
ENDBRANCH   3   4
ENDBRANCH   2   3
ENDBRANCH   1   2
BRANCH   1  12
ATOM     12  C   UNL     1      59.118  -4.768  -3.112  1.00  0.00     0.000 C 
BRANCH  12  13
ATOM     13  C   UNL     1      58.969  -3.659  -4.173  1.00  0.00    -0.000 C 
BRANCH  13  14
ATOM     14  C   UNL     1      57.782  -3.833  -5.141  1.00  0.00    -0.000 C 
BRANCH  14  15
ATOM     15  C   UNL     1      58.147  -3.772  -6.635  1.00  0.00    -0.000 C 
BRANCH  15  16
ATOM     16  C   UNL     1      58.741  -2.418  -7.050  1.00  0.00    -0.000 C 
BRANCH  16  17
ATOM     17  C   UNL     1      57.652  -1.337  -7.116  1.00  0.00    -0.000 C 
BRANCH  17  18
ATOM     18  C   UNL     1      57.964  -0.125  -6.225  1.00  0.00    -0.000 C 
BRANCH  18  19
ATOM     19  C   UNL     1      58.444   1.093  -7.027  1.00  0.00    -0.003 C 
ATOM     20  C   UNL     1      57.420   2.223  -6.977  1.00  0.00     0.004 C 
ENDBRANCH  18  19
ENDBRANCH  17  18
ENDBRANCH  16  17
ENDBRANCH  15  16
ENDBRANCH  14  15
ENDBRANCH  13  14
ENDBRANCH  12  13
ENDBRANCH   1  12
TORSDOF 16
ENDMDL
