MODEL 1
REMARK VINA RESULT:    -4.097      0.000      0.000
REMARK INTER + INTRA:          -5.746
REMARK INTER:                  -5.534
REMARK INTRA:                  -0.212
REMARK UNBOUND:                -0.212
REMARK SMILES CCCCCCCC(=O)[O-]
REMARK SMILES IDX 5 1 6 2 7 3 8 4 9 5 10 6 4 7 3 8 2 9 1 10
REMARK H PARENT
REMARK Flexibility Score: inf
ROOT
ATOM      1  C   UNL     1     114.844 114.099 123.290  1.00  0.00     0.000 C 
ENDROOT
BRANCH   1   2
ATOM      2  C   UNL     1     113.540 114.899 123.147  1.00  0.00     0.006 C 
BRANCH   2   3
ATOM      3  C   UNL     1     113.290 115.369 121.707  1.00  0.00     0.053 C 
BRANCH   3   4
ATOM      4  C   UNL     1     111.850 115.190 121.343  1.00  0.00     0.041 C 
ATOM      5  O   UNL     1     111.197 116.148 120.851  1.00  0.00    -0.550 OA
ATOM      6  O   UNL     1     111.214 113.980 121.593  1.00  0.00    -0.550 OA
ENDBRANCH   3   4
ENDBRANCH   2   3
ENDBRANCH   1   2
BRANCH   1   7
ATOM      7  C   UNL     1     115.461 114.218 124.692  1.00  0.00     0.000 C 
BRANCH   7   8
ATOM      8  C   UNL     1     114.421 114.714 125.708  1.00  0.00    -0.000 C 
BRANCH   8   9
ATOM      9  C   UNL     1     115.055 115.145 127.039  1.00  0.00    -0.003 C 
ATOM     10  C   UNL     1     114.016 115.521 128.096  1.00  0.00     0.004 C 
ENDBRANCH   8   9
ENDBRANCH   7   8
ENDBRANCH   1   7
TORSDOF 6
ENDMDL
MODEL 2
REMARK VINA RESULT:    -3.625      7.407      9.135
REMARK INTER + INTRA:          -5.109
REMARK INTER:                  -4.698
REMARK INTRA:                  -0.411
REMARK UNBOUND:                -0.212
REMARK SMILES CCCCCCCC(=O)[O-]
REMARK SMILES IDX 5 1 6 2 7 3 8 4 9 5 10 6 4 7 3 8 2 9 1 10
REMARK H PARENT
REMARK Flexibility Score: inf
ROOT
ATOM      1  C   UNL     1     111.099 114.139 133.231  1.00  0.00     0.000 C 
ENDROOT
BRANCH   1   2
ATOM      2  C   UNL     1     110.286 113.439 132.130  1.00  0.00     0.006 C 
BRANCH   2   3
ATOM      3  C   UNL     1     110.972 113.501 130.759  1.00  0.00     0.053 C 
BRANCH   3   4
ATOM      4  C   UNL     1     109.980 113.853 129.695  1.00  0.00     0.041 C 
ATOM      5  O   UNL     1     109.433 114.987 129.688  1.00  0.00    -0.550 OA
ATOM      6  O   UNL     1     109.622 112.909 128.739  1.00  0.00    -0.550 OA
ENDBRANCH   3   4
ENDBRANCH   2   3
ENDBRANCH   1   2
BRANCH   1   7
ATOM      7  C   UNL     1     110.423 115.420 133.743  1.00  0.00     0.000 C 
BRANCH   7   8
ATOM      8  C   UNL     1     108.998 115.548 133.183  1.00  0.00    -0.000 C 
BRANCH   8   9
ATOM      9  C   UNL     1     108.738 116.917 132.535  1.00  0.00    -0.003 C 
ATOM     10  C   UNL     1     109.252 118.080 133.383  1.00  0.00     0.004 C 
ENDBRANCH   8   9
ENDBRANCH   7   8
ENDBRANCH   1   7
TORSDOF 6
ENDMDL
MODEL 3
REMARK VINA RESULT:    -3.590      8.331     10.125
REMARK INTER + INTRA:          -5.061
REMARK INTER:                  -4.628
REMARK INTRA:                  -0.433
REMARK UNBOUND:                -0.212
REMARK SMILES CCCCCCCC(=O)[O-]
REMARK SMILES IDX 5 1 6 2 7 3 8 4 9 5 10 6 4 7 3 8 2 9 1 10
REMARK H PARENT
REMARK Flexibility Score: inf
ROOT
ATOM      1  C   UNL     1     110.983 113.943 133.439  1.00  0.00     0.000 C 
ENDROOT
BRANCH   1   2
ATOM      2  C   UNL     1     110.626 115.408 133.732  1.00  0.00     0.006 C 
BRANCH   2   3
ATOM      3  C   UNL     1     109.186 115.757 133.330  1.00  0.00     0.053 C 
BRANCH   3   4
ATOM      4  C   UNL     1     109.075 117.212 133.000  1.00  0.00     0.041 C 
ATOM      5  O   UNL     1     108.109 117.633 132.309  1.00  0.00    -0.550 OA
ATOM      6  O   UNL     1     110.064 118.097 133.412  1.00  0.00    -0.550 OA
ENDBRANCH   3   4
ENDBRANCH   2   3
ENDBRANCH   1   2
BRANCH   1   7
ATOM      7  C   UNL     1     110.227 113.379 132.227  1.00  0.00     0.000 C 
BRANCH   7   8
ATOM      8  C   UNL     1     111.035 113.583 130.936  1.00  0.00    -0.000 C 
BRANCH   8   9
ATOM      9  C   UNL     1     110.140 113.719 129.694  1.00  0.00    -0.003 C 
ATOM     10  C   UNL     1     109.119 114.850 129.821  1.00  0.00     0.004 C 
ENDBRANCH   8   9
ENDBRANCH   7   8
ENDBRANCH   1   7
TORSDOF 6
ENDMDL
MODEL 4
REMARK VINA RESULT:    -3.578      3.385      5.231
REMARK INTER + INTRA:          -5.044
REMARK INTER:                  -4.649
REMARK INTRA:                  -0.395
REMARK UNBOUND:                -0.212
REMARK SMILES CCCCCCCC(=O)[O-]
REMARK SMILES IDX 5 1 6 2 7 3 8 4 9 5 10 6 4 7 3 8 2 9 1 10
REMARK H PARENT
REMARK Flexibility Score: inf
ROOT
ATOM      1  C   UNL     1     113.994 113.478 122.885  1.00  0.00     0.000 C 
ENDROOT
BRANCH   1   2
ATOM      2  C   UNL     1     114.852 114.324 123.838  1.00  0.00     0.006 C 
BRANCH   2   3
ATOM      3  C   UNL     1     114.118 114.675 125.140  1.00  0.00     0.053 C 
BRANCH   3   4
ATOM      4  C   UNL     1     115.075 114.689 126.290  1.00  0.00     0.041 C 
ATOM      5  O   UNL     1     114.852 115.420 127.291  1.00  0.00    -0.550 OA
ATOM      6  O   UNL     1     116.240 113.933 126.235  1.00  0.00    -0.550 OA
ENDBRANCH   3   4
ENDBRANCH   2   3
ENDBRANCH   1   2
BRANCH   1   7
ATOM      7  C   UNL     1     112.550 113.990 122.774  1.00  0.00     0.000 C 
BRANCH   7   8
ATOM      8  C   UNL     1     112.216 114.378 121.326  1.00  0.00    -0.000 C 
BRANCH   8   9
ATOM      9  C   UNL     1     111.797 115.850 121.190  1.00  0.00    -0.003 C 
ATOM     10  C   UNL     1     112.380 116.735 122.291  1.00  0.00     0.004 C 
ENDBRANCH   8   9
ENDBRANCH   7   8
ENDBRANCH   1   7
TORSDOF 6
ENDMDL
MODEL 5
REMARK VINA RESULT:    -3.561      6.334      8.114
REMARK INTER + INTRA:          -5.023
REMARK INTER:                  -4.658
REMARK INTRA:                  -0.365
REMARK UNBOUND:                -0.212
REMARK SMILES CCCCCCCC(=O)[O-]
REMARK SMILES IDX 5 1 6 2 7 3 8 4 9 5 10 6 4 7 3 8 2 9 1 10
REMARK H PARENT
REMARK Flexibility Score: inf
ROOT
ATOM      1  C   UNL     1     110.353 113.441 131.825  1.00  0.00     0.000 C 
ENDROOT
BRANCH   1   2
ATOM      2  C   UNL     1     110.647 113.734 130.345  1.00  0.00     0.006 C 
BRANCH   2   3
ATOM      3  C   UNL     1     109.593 114.645 129.702  1.00  0.00     0.053 C 
BRANCH   3   4
ATOM      4  C   UNL     1     109.861 114.800 128.238  1.00  0.00     0.041 C 
ATOM      5  O   UNL     1     109.012 114.410 127.393  1.00  0.00    -0.550 OA
ATOM      6  O   UNL     1     111.070 115.329 127.805  1.00  0.00    -0.550 OA
ENDBRANCH   3   4
ENDBRANCH   2   3
ENDBRANCH   1   2
BRANCH   1   7
ATOM      7  C   UNL     1     111.402 114.046 132.769  1.00  0.00     0.000 C 
BRANCH   7   8
ATOM      8  C   UNL     1     110.732 114.903 133.854  1.00  0.00    -0.000 C 
BRANCH   8   9
ATOM      9  C   UNL     1     109.477 115.628 133.344  1.00  0.00    -0.003 C 
ATOM     10  C   UNL     1     109.618 117.149 133.374  1.00  0.00     0.004 C 
ENDBRANCH   8   9
ENDBRANCH   7   8
ENDBRANCH   1   7
TORSDOF 6
ENDMDL
MODEL 6
REMARK VINA RESULT:    -3.533      5.746      7.259
REMARK INTER + INTRA:          -4.984
REMARK INTER:                  -4.774
REMARK INTRA:                  -0.210
REMARK UNBOUND:                -0.212
REMARK SMILES CCCCCCCC(=O)[O-]
REMARK SMILES IDX 5 1 6 2 7 3 8 4 9 5 10 6 4 7 3 8 2 9 1 10
REMARK H PARENT
REMARK Flexibility Score: inf
ROOT
ATOM      1  C   UNL     1     109.537 114.095 130.167  1.00  0.00     0.000 C 
ENDROOT
BRANCH   1   2
ATOM      2  C   UNL     1     109.578 113.709 128.680  1.00  0.00     0.006 C 
BRANCH   2   3
ATOM      3  C   UNL     1     108.991 114.797 127.771  1.00  0.00     0.053 C 
BRANCH   3   4
ATOM      4  C   UNL     1     110.065 115.735 127.319  1.00  0.00     0.041 C 
ATOM      5  O   UNL     1     111.277 115.450 127.508  1.00  0.00    -0.550 OA
ATOM      6  O   UNL     1     109.727 116.949 126.733  1.00  0.00    -0.550 OA
ENDBRANCH   3   4
ENDBRANCH   2   3
ENDBRANCH   1   2
BRANCH   1   7
ATOM      7  C   UNL     1     110.766 113.597 130.943  1.00  0.00     0.000 C 
BRANCH   7   8
ATOM      8  C   UNL     1     110.406 113.301 132.407  1.00  0.00    -0.000 C 
BRANCH   8   9
ATOM      9  C   UNL     1     111.071 114.279 133.387  1.00  0.00    -0.003 C 
ATOM     10  C   UNL     1     110.222 115.522 133.652  1.00  0.00     0.004 C 
ENDBRANCH   8   9
ENDBRANCH   7   8
ENDBRANCH   1   7
TORSDOF 6
ENDMDL
MODEL 7
REMARK VINA RESULT:    -3.406      7.166      8.182
REMARK INTER + INTRA:          -4.813
REMARK INTER:                  -4.411
REMARK INTRA:                  -0.402
REMARK UNBOUND:                -0.212
REMARK SMILES CCCCCCCC(=O)[O-]
REMARK SMILES IDX 5 1 6 2 7 3 8 4 9 5 10 6 4 7 3 8 2 9 1 10
REMARK H PARENT
REMARK Flexibility Score: inf
ROOT
ATOM      1  C   UNL     1     110.851 113.577 130.530  1.00  0.00     0.000 C 
ENDROOT
BRANCH   1   2
ATOM      2  C   UNL     1     109.870 114.361 129.644  1.00  0.00     0.006 C 
BRANCH   2   3
ATOM      3  C   UNL     1     108.416 113.901 129.823  1.00  0.00     0.053 C 
BRANCH   3   4
ATOM      4  C   UNL     1     107.884 113.344 128.541  1.00  0.00     0.041 C 
ATOM      5  O   UNL     1     108.134 113.918 127.448  1.00  0.00    -0.550 OA
ATOM      6  O   UNL     1     107.071 112.217 128.556  1.00  0.00    -0.550 OA
ENDBRANCH   3   4
ENDBRANCH   2   3
ENDBRANCH   1   2
BRANCH   1   7
ATOM      7  C   UNL     1     110.327 113.374 131.959  1.00  0.00     0.000 C 
BRANCH   7   8
ATOM      8  C   UNL     1     111.299 113.968 132.989  1.00  0.00    -0.000 C 
BRANCH   8   9
ATOM      9  C   UNL     1     110.679 115.124 133.790  1.00  0.00    -0.003 C 
ATOM     10  C   UNL     1     109.361 115.617 133.193  1.00  0.00     0.004 C 
ENDBRANCH   8   9
ENDBRANCH   7   8
ENDBRANCH   1   7
TORSDOF 6
ENDMDL
MODEL 8
REMARK VINA RESULT:    -3.384      8.290      9.863
REMARK INTER + INTRA:          -4.783
REMARK INTER:                  -4.256
REMARK INTRA:                  -0.527
REMARK UNBOUND:                -0.212
REMARK SMILES CCCCCCCC(=O)[O-]
REMARK SMILES IDX 5 1 6 2 7 3 8 4 9 5 10 6 4 7 3 8 2 9 1 10
REMARK H PARENT
REMARK Flexibility Score: inf
ROOT
ATOM      1  C   UNL     1     111.161 113.645 131.183  1.00  0.00     0.000 C 
ENDROOT
BRANCH   1   2
ATOM      2  C   UNL     1     110.413 113.545 132.521  1.00  0.00     0.006 C 
BRANCH   2   3
ATOM      3  C   UNL     1     110.717 114.723 133.457  1.00  0.00     0.053 C 
BRANCH   3   4
ATOM      4  C   UNL     1     109.612 115.730 133.405  1.00  0.00     0.041 C 
ATOM      5  O   UNL     1     108.428 115.361 133.187  1.00  0.00    -0.550 OA
ATOM      6  O   UNL     1     109.897 117.083 133.547  1.00  0.00    -0.550 OA
ENDBRANCH   3   4
ENDBRANCH   2   3
ENDBRANCH   1   2
BRANCH   1   7
ATOM      7  C   UNL     1     110.260 113.341 129.976  1.00  0.00     0.000 C 
BRANCH   7   8
ATOM      8  C   UNL     1     109.877 114.634 129.240  1.00  0.00    -0.000 C 
BRANCH   8   9
ATOM      9  C   UNL     1     108.524 115.198 129.700  1.00  0.00    -0.003 C 
ATOM     10  C   UNL     1     107.496 114.105 129.992  1.00  0.00     0.004 C 
ENDBRANCH   8   9
ENDBRANCH   7   8
ENDBRANCH   1   7
TORSDOF 6
ENDMDL
MODEL 9
REMARK VINA RESULT:    -3.350      7.180      9.161
REMARK INTER + INTRA:          -4.737
REMARK INTER:                  -4.161
REMARK INTRA:                  -0.576
REMARK UNBOUND:                -0.212
REMARK SMILES CCCCCCCC(=O)[O-]
REMARK SMILES IDX 5 1 6 2 7 3 8 4 9 5 10 6 4 7 3 8 2 9 1 10
REMARK H PARENT
REMARK Flexibility Score: inf
ROOT
ATOM      1  C   UNL     1     107.795 114.922 132.545  1.00  0.00     0.000 C 
ENDROOT
BRANCH   1   2
ATOM      2  C   UNL     1     108.004 114.237 131.186  1.00  0.00     0.006 C 
BRANCH   2   3
ATOM      3  C   UNL     1     108.763 115.123 130.188  1.00  0.00     0.053 C 
BRANCH   3   4
ATOM      4  C   UNL     1     109.892 114.362 129.569  1.00  0.00     0.041 C 
ATOM      5  O   UNL     1     110.401 113.380 130.171  1.00  0.00    -0.550 OA
ATOM      6  O   UNL     1     110.417 114.768 128.348  1.00  0.00    -0.550 OA
ENDBRANCH   3   4
ENDBRANCH   2   3
ENDBRANCH   1   2
BRANCH   1   7
ATOM      7  C   UNL     1     108.772 116.083 132.780  1.00  0.00     0.000 C 
BRANCH   7   8
ATOM      8  C   UNL     1     109.813 115.715 133.849  1.00  0.00    -0.000 C 
BRANCH   8   9
ATOM      9  C   UNL     1     111.015 114.957 133.267  1.00  0.00    -0.003 C 
ATOM     10  C   UNL     1     110.983 113.462 133.585  1.00  0.00     0.004 C 
ENDBRANCH   8   9
ENDBRANCH   7   8
ENDBRANCH   1   7
TORSDOF 6
ENDMDL
