MODEL 1
REMARK VINA RESULT:    -4.281      0.000      0.000
REMARK INTER + INTRA:          -6.127
REMARK INTER:                  -5.782
REMARK INTRA:                  -0.345
REMARK UNBOUND:                -0.345
REMARK SMILES CCCCCCC=CC(=O)[O-]
REMARK SMILES IDX 5 1 6 2 7 3 8 4 9 5 10 6 11 7 4 8 3 9 2 10 1 11
REMARK H PARENT
REMARK Flexibility Score: inf
ROOT
ATOM      1  C   UNL     1      85.105 -68.494  13.774  1.00  0.00     0.004 C 
ENDROOT
BRANCH   1   2
ATOM      2  C   UNL     1      84.755 -68.933  15.204  1.00  0.00     0.027 C 
BRANCH   2   3
ATOM      3  C   UNL     1      83.571 -68.174  15.730  1.00  0.00    -0.025 C 
ATOM      4  C   UNL     1      83.284 -66.940  15.299  1.00  0.00     0.020 C 
BRANCH   4   5
ATOM      5  C   UNL     1      82.138 -66.172  15.811  1.00  0.00     0.064 C 
ATOM      6  O   UNL     1      81.059 -66.744  16.124  1.00  0.00    -0.545 OA
ATOM      7  O   UNL     1      82.246 -64.795  15.951  1.00  0.00    -0.545 OA
ENDBRANCH   4   5
ENDBRANCH   2   3
ENDBRANCH   1   2
BRANCH   1   8
ATOM      8  C   UNL     1      86.586 -68.727  13.423  1.00  0.00     0.000 C 
BRANCH   8   9
ATOM      9  C   UNL     1      87.021 -70.205  13.364  1.00  0.00    -0.000 C 
BRANCH   9  10
ATOM     10  C   UNL     1      88.395 -70.503  13.988  1.00  0.00    -0.003 C 
ATOM     11  C   UNL     1      88.373 -70.480  15.516  1.00  0.00     0.004 C 
ENDBRANCH   9  10
ENDBRANCH   8   9
ENDBRANCH   1   8
TORSDOF 6
ENDMDL
MODEL 2
REMARK VINA RESULT:    -3.757     19.500     20.634
REMARK INTER + INTRA:          -5.419
REMARK INTER:                  -4.716
REMARK INTRA:                  -0.704
REMARK UNBOUND:                -0.345
REMARK SMILES CCCCCCC=CC(=O)[O-]
REMARK SMILES IDX 5 1 6 2 7 3 8 4 9 5 10 6 11 7 4 8 3 9 2 10 1 11
REMARK H PARENT
REMARK Flexibility Score: inf
ROOT
ATOM      1  C   UNL     1      75.820 -72.700  -4.101  1.00  0.00     0.004 C 
ENDROOT
BRANCH   1   2
ATOM      2  C   UNL     1      77.266 -73.001  -3.680  1.00  0.00     0.027 C 
BRANCH   2   3
ATOM      3  C   UNL     1      77.390 -74.388  -3.118  1.00  0.00    -0.025 C 
ATOM      4  C   UNL     1      77.972 -74.613  -1.934  1.00  0.00     0.020 C 
BRANCH   4   5
ATOM      5  C   UNL     1      78.117 -75.965  -1.371  1.00  0.00     0.064 C 
ATOM      6  O   UNL     1      78.909 -76.802  -1.882  1.00  0.00    -0.545 OA
ATOM      7  O   UNL     1      77.369 -76.325  -0.258  1.00  0.00    -0.545 OA
ENDBRANCH   4   5
ENDBRANCH   2   3
ENDBRANCH   1   2
BRANCH   1   8
ATOM      8  C   UNL     1      75.224 -71.485  -3.368  1.00  0.00     0.000 C 
BRANCH   8   9
ATOM      9  C   UNL     1      74.434 -71.816  -2.086  1.00  0.00    -0.000 C 
BRANCH   9  10
ATOM     10  C   UNL     1      73.962 -73.276  -1.973  1.00  0.00    -0.003 C 
ATOM     11  C   UNL     1      74.505 -73.985  -0.733  1.00  0.00     0.004 C 
ENDBRANCH   9  10
ENDBRANCH   8   9
ENDBRANCH   1   8
TORSDOF 6
ENDMDL
MODEL 3
REMARK VINA RESULT:    -3.698     18.867     19.554
REMARK INTER + INTRA:          -5.340
REMARK INTER:                  -4.963
REMARK INTRA:                  -0.377
REMARK UNBOUND:                -0.345
REMARK SMILES CCCCCCC=CC(=O)[O-]
REMARK SMILES IDX 5 1 6 2 7 3 8 4 9 5 10 6 11 7 4 8 3 9 2 10 1 11
REMARK H PARENT
REMARK Flexibility Score: inf
ROOT
ATOM      1  C   UNL     1      76.090 -72.788  -3.769  1.00  0.00     0.004 C 
ENDROOT
BRANCH   1   2
ATOM      2  C   UNL     1      75.092 -73.269  -2.705  1.00  0.00     0.027 C 
BRANCH   2   3
ATOM      3  C   UNL     1      74.353 -72.114  -2.092  1.00  0.00    -0.025 C 
ATOM      4  C   UNL     1      74.135 -72.043  -0.774  1.00  0.00     0.020 C 
BRANCH   4   5
ATOM      5  C   UNL     1      73.400 -70.929  -0.155  1.00  0.00     0.064 C 
ATOM      6  O   UNL     1      72.157 -70.996   0.039  1.00  0.00    -0.545 OA
ATOM      7  O   UNL     1      74.089 -69.783   0.222  1.00  0.00    -0.545 OA
ENDBRANCH   4   5
ENDBRANCH   2   3
ENDBRANCH   1   2
BRANCH   1   8
ATOM      8  C   UNL     1      77.503 -73.363  -3.566  1.00  0.00     0.000 C 
BRANCH   8   9
ATOM      9  C   UNL     1      77.789 -73.917  -2.156  1.00  0.00    -0.000 C 
BRANCH   9  10
ATOM     10  C   UNL     1      78.236 -75.388  -2.115  1.00  0.00    -0.003 C 
ATOM     11  C   UNL     1      77.781 -76.115  -0.850  1.00  0.00     0.004 C 
ENDBRANCH   9  10
ENDBRANCH   8   9
ENDBRANCH   1   8
TORSDOF 6
ENDMDL
MODEL 4
REMARK VINA RESULT:    -3.648     13.299     15.008
REMARK INTER + INTRA:          -5.272
REMARK INTER:                  -4.740
REMARK INTRA:                  -0.533
REMARK UNBOUND:                -0.345
REMARK SMILES CCCCCCC=CC(=O)[O-]
REMARK SMILES IDX 5 1 6 2 7 3 8 4 9 5 10 6 11 7 4 8 3 9 2 10 1 11
REMARK H PARENT
REMARK Flexibility Score: inf
ROOT
ATOM      1  C   UNL     1      87.650 -78.029   3.927  1.00  0.00     0.004 C 
ENDROOT
BRANCH   1   2
ATOM      2  C   UNL     1      88.473 -76.794   4.326  1.00  0.00     0.027 C 
BRANCH   2   3
ATOM      3  C   UNL     1      87.620 -75.558   4.346  1.00  0.00    -0.025 C 
ATOM      4  C   UNL     1      87.471 -74.793   3.259  1.00  0.00     0.020 C 
BRANCH   4   5
ATOM      5  C   UNL     1      86.653 -73.571   3.260  1.00  0.00     0.064 C 
ATOM      6  O   UNL     1      85.409 -73.620   3.458  1.00  0.00    -0.545 OA
ATOM      7  O   UNL     1      87.261 -72.342   3.040  1.00  0.00    -0.545 OA
ENDBRANCH   4   5
ENDBRANCH   2   3
ENDBRANCH   1   2
BRANCH   1   8
ATOM      8  C   UNL     1      88.339 -78.881   2.845  1.00  0.00     0.000 C 
BRANCH   8   9
ATOM      9  C   UNL     1      88.642 -78.144   1.525  1.00  0.00    -0.000 C 
BRANCH   9  10
ATOM     10  C   UNL     1      87.408 -77.812   0.669  1.00  0.00    -0.003 C 
ATOM     11  C   UNL     1      87.745 -76.966  -0.559  1.00  0.00     0.004 C 
ENDBRANCH   9  10
ENDBRANCH   8   9
ENDBRANCH   1   8
TORSDOF 6
ENDMDL
MODEL 5
REMARK VINA RESULT:    -3.634     18.949     19.627
REMARK INTER + INTRA:          -5.254
REMARK INTER:                  -4.913
REMARK INTRA:                  -0.341
REMARK UNBOUND:                -0.345
REMARK SMILES CCCCCCC=CC(=O)[O-]
REMARK SMILES IDX 5 1 6 2 7 3 8 4 9 5 10 6 11 7 4 8 3 9 2 10 1 11
REMARK H PARENT
REMARK Flexibility Score: inf
ROOT
ATOM      1  C   UNL     1      74.883 -71.726  -3.079  1.00  0.00     0.004 C 
ENDROOT
BRANCH   1   2
ATOM      2  C   UNL     1      74.600 -72.671  -1.901  1.00  0.00     0.027 C 
BRANCH   2   3
ATOM      3  C   UNL     1      73.678 -72.032  -0.902  1.00  0.00    -0.025 C 
ATOM      4  C   UNL     1      73.865 -70.776  -0.482  1.00  0.00     0.020 C 
BRANCH   4   5
ATOM      5  C   UNL     1      72.984 -70.135   0.506  1.00  0.00     0.064 C 
ATOM      6  O   UNL     1      72.006 -70.755   1.005  1.00  0.00    -0.545 OA
ATOM      7  O   UNL     1      73.233 -68.826   0.897  1.00  0.00    -0.545 OA
ENDBRANCH   4   5
ENDBRANCH   2   3
ENDBRANCH   1   2
BRANCH   1   8
ATOM      8  C   UNL     1      75.968 -72.263  -4.029  1.00  0.00     0.000 C 
BRANCH   8   9
ATOM      9  C   UNL     1      77.220 -72.835  -3.336  1.00  0.00    -0.000 C 
BRANCH   9  10
ATOM     10  C   UNL     1      77.472 -74.333  -3.582  1.00  0.00    -0.003 C 
ATOM     11  C   UNL     1      77.955 -75.070  -2.334  1.00  0.00     0.004 C 
ENDBRANCH   9  10
ENDBRANCH   8   9
ENDBRANCH   1   8
TORSDOF 6
ENDMDL
MODEL 6
REMARK VINA RESULT:    -3.592     18.970     19.733
REMARK INTER + INTRA:          -5.198
REMARK INTER:                  -4.798
REMARK INTRA:                  -0.400
REMARK UNBOUND:                -0.345
REMARK SMILES CCCCCCC=CC(=O)[O-]
REMARK SMILES IDX 5 1 6 2 7 3 8 4 9 5 10 6 11 7 4 8 3 9 2 10 1 11
REMARK H PARENT
REMARK Flexibility Score: inf
ROOT
ATOM      1  C   UNL     1      77.480 -73.347  -3.586  1.00  0.00     0.004 C 
ENDROOT
BRANCH   1   2
ATOM      2  C   UNL     1      76.021 -72.900  -3.760  1.00  0.00     0.027 C 
BRANCH   2   3
ATOM      3  C   UNL     1      75.305 -72.857  -2.441  1.00  0.00    -0.025 C 
ATOM      4  C   UNL     1      74.455 -71.869  -2.138  1.00  0.00     0.020 C 
BRANCH   4   5
ATOM      5  C   UNL     1      73.755 -71.799  -0.846  1.00  0.00     0.064 C 
ATOM      6  O   UNL     1      73.860 -70.788  -0.102  1.00  0.00    -0.545 OA
ATOM      7  O   UNL     1      72.964 -72.866  -0.440  1.00  0.00    -0.545 OA
ENDBRANCH   4   5
ENDBRANCH   2   3
ENDBRANCH   1   2
BRANCH   1   8
ATOM      8  C   UNL     1      77.729 -74.065  -2.247  1.00  0.00     0.000 C 
BRANCH   8   9
ATOM      9  C   UNL     1      78.213 -75.524  -2.366  1.00  0.00    -0.000 C 
BRANCH   9  10
ATOM     10  C   UNL     1      78.044 -76.370  -1.093  1.00  0.00    -0.003 C 
ATOM     11  C   UNL     1      76.771 -76.034  -0.317  1.00  0.00     0.004 C 
ENDBRANCH   9  10
ENDBRANCH   8   9
ENDBRANCH   1   8
TORSDOF 6
ENDMDL
MODEL 7
REMARK VINA RESULT:    -3.548     18.834     19.563
REMARK INTER + INTRA:          -5.138
REMARK INTER:                  -4.646
REMARK INTRA:                  -0.491
REMARK UNBOUND:                -0.345
REMARK SMILES CCCCCCC=CC(=O)[O-]
REMARK SMILES IDX 5 1 6 2 7 3 8 4 9 5 10 6 11 7 4 8 3 9 2 10 1 11
REMARK H PARENT
REMARK Flexibility Score: inf
ROOT
ATOM      1  C   UNL     1      75.274 -74.007  -0.711  1.00  0.00     0.004 C 
ENDROOT
BRANCH   1   2
ATOM      2  C   UNL     1      73.949 -73.625  -1.390  1.00  0.00     0.027 C 
BRANCH   2   3
ATOM      3  C   UNL     1      73.232 -72.556  -0.617  1.00  0.00    -0.025 C 
ATOM      4  C   UNL     1      73.776 -71.349  -0.423  1.00  0.00     0.020 C 
BRANCH   4   5
ATOM      5  C   UNL     1      73.098 -70.292   0.343  1.00  0.00     0.064 C 
ATOM      6  O   UNL     1      73.627 -69.159   0.500  1.00  0.00    -0.545 OA
ATOM      7  O   UNL     1      71.853 -70.547   0.903  1.00  0.00    -0.545 OA
ENDBRANCH   4   5
ENDBRANCH   2   3
ENDBRANCH   1   2
BRANCH   1   8
ATOM      8  C   UNL     1      76.281 -74.646  -1.684  1.00  0.00     0.000 C 
BRANCH   8   9
ATOM      9  C   UNL     1      77.324 -73.677  -2.278  1.00  0.00    -0.000 C 
BRANCH   9  10
ATOM     10  C   UNL     1      77.063 -73.255  -3.733  1.00  0.00    -0.003 C 
ATOM     11  C   UNL     1      76.120 -72.057  -3.847  1.00  0.00     0.004 C 
ENDBRANCH   9  10
ENDBRANCH   8   9
ENDBRANCH   1   8
TORSDOF 6
ENDMDL
MODEL 8
REMARK VINA RESULT:    -3.480     19.279     20.124
REMARK INTER + INTRA:          -5.046
REMARK INTER:                  -4.430
REMARK INTRA:                  -0.616
REMARK UNBOUND:                -0.345
REMARK SMILES CCCCCCC=CC(=O)[O-]
REMARK SMILES IDX 5 1 6 2 7 3 8 4 9 5 10 6 11 7 4 8 3 9 2 10 1 11
REMARK H PARENT
REMARK Flexibility Score: inf
ROOT
ATOM      1  C   UNL     1      76.694 -75.071  -2.182  1.00  0.00     0.004 C 
ENDROOT
BRANCH   1   2
ATOM      2  C   UNL     1      76.144 -75.025  -0.748  1.00  0.00     0.027 C 
BRANCH   2   3
ATOM      3  C   UNL     1      74.771 -74.418  -0.712  1.00  0.00    -0.025 C 
ATOM      4  C   UNL     1      74.593 -73.092  -0.692  1.00  0.00     0.020 C 
BRANCH   4   5
ATOM      5  C   UNL     1      73.257 -72.477  -0.642  1.00  0.00     0.064 C 
ATOM      6  O   UNL     1      73.119 -71.229  -0.526  1.00  0.00    -0.545 OA
ATOM      7  O   UNL     1      72.130 -73.284  -0.724  1.00  0.00    -0.545 OA
ENDBRANCH   4   5
ENDBRANCH   2   3
ENDBRANCH   1   2
BRANCH   1   8
ATOM      8  C   UNL     1      77.776 -74.008  -2.442  1.00  0.00     0.000 C 
BRANCH   8   9
ATOM      9  C   UNL     1      77.508 -73.082  -3.645  1.00  0.00    -0.000 C 
BRANCH   9  10
ATOM     10  C   UNL     1      76.023 -72.823  -3.948  1.00  0.00    -0.003 C 
ATOM     11  C   UNL     1      75.637 -71.349  -3.828  1.00  0.00     0.004 C 
ENDBRANCH   9  10
ENDBRANCH   8   9
ENDBRANCH   1   8
TORSDOF 6
ENDMDL
MODEL 9
REMARK VINA RESULT:    -3.461     19.634     20.565
REMARK INTER + INTRA:          -5.019
REMARK INTER:                  -4.349
REMARK INTRA:                  -0.671
REMARK UNBOUND:                -0.345
REMARK SMILES CCCCCCC=CC(=O)[O-]
REMARK SMILES IDX 5 1 6 2 7 3 8 4 9 5 10 6 11 7 4 8 3 9 2 10 1 11
REMARK H PARENT
REMARK Flexibility Score: inf
ROOT
ATOM      1  C   UNL     1      78.541 -75.240  -1.876  1.00  0.00     0.004 C 
ENDROOT
BRANCH   1   2
ATOM      2  C   UNL     1      77.937 -75.030  -3.273  1.00  0.00     0.027 C 
BRANCH   2   3
ATOM      3  C   UNL     1      77.196 -73.727  -3.353  1.00  0.00    -0.025 C 
ATOM      4  C   UNL     1      75.919 -73.672  -3.746  1.00  0.00     0.020 C 
BRANCH   4   5
ATOM      5  C   UNL     1      75.178 -72.404  -3.846  1.00  0.00     0.064 C 
ATOM      6  O   UNL     1      75.783 -71.302  -3.944  1.00  0.00    -0.545 OA
ATOM      7  O   UNL     1      73.790 -72.422  -3.832  1.00  0.00    -0.545 OA
ENDBRANCH   4   5
ENDBRANCH   2   3
ENDBRANCH   1   2
BRANCH   1   8
ATOM      8  C   UNL     1      77.925 -76.439  -1.133  1.00  0.00     0.000 C 
BRANCH   8   9
ATOM      9  C   UNL     1      76.780 -76.088  -0.161  1.00  0.00    -0.000 C 
BRANCH   9  10
ATOM     10  C   UNL     1      75.381 -76.031  -0.799  1.00  0.00    -0.003 C 
ATOM     11  C   UNL     1      74.607 -74.767  -0.427  1.00  0.00     0.004 C 
ENDBRANCH   9  10
ENDBRANCH   8   9
ENDBRANCH   1   8
TORSDOF 6
ENDMDL
