MODEL 1
REMARK VINA RESULT:    -2.593      0.000      0.000
REMARK INTER + INTRA:          -3.427
REMARK INTER:                  -3.200
REMARK INTRA:                  -0.228
REMARK UNBOUND:                -0.228
REMARK SMILES CCCCCC=O
REMARK SMILES IDX 4 1 3 2 2 3 1 4 5 5 6 6 7 7
REMARK H PARENT
REMARK Flexibility Score: inf
ROOT
ATOM      1  C   UNL     1      -5.316  83.805  -9.006  1.00  0.00     0.008 C 
ENDROOT
BRANCH   1   2
ATOM      2  C   UNL     1      -4.928  82.733 -10.037  1.00  0.00     0.000 C 
BRANCH   2   3
ATOM      3  C   UNL     1      -3.531  82.171  -9.745  1.00  0.00    -0.003 C 
ATOM      4  C   UNL     1      -3.348  81.898  -8.256  1.00  0.00     0.004 C 
ENDBRANCH   2   3
ENDBRANCH   1   2
BRANCH   1   5
ATOM      5  C   UNL     1      -4.892  85.212  -9.448  1.00  0.00     0.072 C 
BRANCH   5   6
ATOM      6  C   UNL     1      -4.035  85.899  -8.424  1.00  0.00     0.224 C 
ATOM      7  O   UNL     1      -2.956  85.418  -8.113  1.00  0.00    -0.303 OA
ENDBRANCH   5   6
ENDBRANCH   1   5
TORSDOF 4
ENDMDL
MODEL 2
REMARK VINA RESULT:    -2.490      1.291      3.148
REMARK INTER + INTRA:          -3.299
REMARK INTER:                  -3.079
REMARK INTRA:                  -0.220
REMARK UNBOUND:                -0.228
REMARK SMILES CCCCCC=O
REMARK SMILES IDX 4 1 3 2 2 3 1 4 5 5 6 6 7 7
REMARK H PARENT
REMARK Flexibility Score: inf
ROOT
ATOM      1  C   UNL     1      -4.864  82.712 -10.018  1.00  0.00     0.008 C 
ENDROOT
BRANCH   1   2
ATOM      2  C   UNL     1      -5.243  83.695  -8.900  1.00  0.00     0.000 C 
BRANCH   2   3
ATOM      3  C   UNL     1      -4.804  85.121  -9.251  1.00  0.00    -0.003 C 
ATOM      4  C   UNL     1      -3.618  85.558  -8.399  1.00  0.00     0.004 C 
ENDBRANCH   2   3
ENDBRANCH   1   2
BRANCH   1   5
ATOM      5  C   UNL     1      -3.498  82.056  -9.774  1.00  0.00     0.072 C 
BRANCH   5   6
ATOM      6  C   UNL     1      -3.232  81.816  -8.316  1.00  0.00     0.224 C 
ATOM      7  O   UNL     1      -2.171  82.169  -7.825  1.00  0.00    -0.303 OA
ENDBRANCH   5   6
ENDBRANCH   1   5
TORSDOF 4
ENDMDL
MODEL 3
REMARK VINA RESULT:    -2.450      1.246      2.199
REMARK INTER + INTRA:          -3.251
REMARK INTER:                  -3.022
REMARK INTRA:                  -0.229
REMARK UNBOUND:                -0.228
REMARK SMILES CCCCCC=O
REMARK SMILES IDX 4 1 3 2 2 3 1 4 5 5 6 6 7 7
REMARK H PARENT
REMARK Flexibility Score: inf
ROOT
ATOM      1  C   UNL     1      -3.818  82.723  -7.511  1.00  0.00     0.008 C 
ENDROOT
BRANCH   1   2
ATOM      2  C   UNL     1      -3.078  81.864  -8.549  1.00  0.00     0.000 C 
BRANCH   2   3
ATOM      3  C   UNL     1      -3.633  82.107  -9.957  1.00  0.00    -0.003 C 
ATOM      4  C   UNL     1      -4.985  82.810  -9.903  1.00  0.00     0.004 C 
ENDBRANCH   2   3
ENDBRANCH   1   2
BRANCH   1   5
ATOM      5  C   UNL     1      -2.896  83.763  -6.859  1.00  0.00     0.072 C 
BRANCH   5   6
ATOM      6  C   UNL     1      -3.273  85.169  -7.226  1.00  0.00     0.224 C 
ATOM      7  O   UNL     1      -3.273  85.513  -8.398  1.00  0.00    -0.303 OA
ENDBRANCH   5   6
ENDBRANCH   1   5
TORSDOF 4
ENDMDL
MODEL 4
REMARK VINA RESULT:    -2.442      1.874      3.515
REMARK INTER + INTRA:          -3.240
REMARK INTER:                  -3.190
REMARK INTRA:                  -0.051
REMARK UNBOUND:                -0.228
REMARK SMILES CCCCCC=O
REMARK SMILES IDX 4 1 3 2 2 3 1 4 5 5 6 6 7 7
REMARK H PARENT
REMARK Flexibility Score: inf
ROOT
ATOM      1  C   UNL     1      -3.670  83.046  -9.109  1.00  0.00     0.008 C 
ENDROOT
BRANCH   1   2
ATOM      2  C   UNL     1      -4.941  82.790  -9.934  1.00  0.00     0.000 C 
BRANCH   2   3
ATOM      3  C   UNL     1      -6.010  83.848  -9.638  1.00  0.00    -0.003 C 
ATOM      4  C   UNL     1      -5.559  85.231 -10.097  1.00  0.00     0.004 C 
ENDBRANCH   2   3
ENDBRANCH   1   2
BRANCH   1   5
ATOM      5  C   UNL     1      -2.879  81.756  -8.850  1.00  0.00     0.072 C 
BRANCH   5   6
ATOM      6  C   UNL     1      -2.917  81.343  -7.407  1.00  0.00     0.224 C 
ATOM      7  O   UNL     1      -2.169  81.875  -6.601  1.00  0.00    -0.303 OA
ENDBRANCH   5   6
ENDBRANCH   1   5
TORSDOF 4
ENDMDL
MODEL 5
REMARK VINA RESULT:    -2.412      0.820      1.507
REMARK INTER + INTRA:          -3.203
REMARK INTER:                  -3.075
REMARK INTRA:                  -0.129
REMARK UNBOUND:                -0.228
REMARK SMILES CCCCCC=O
REMARK SMILES IDX 4 1 3 2 2 3 1 4 5 5 6 6 7 7
REMARK H PARENT
REMARK Flexibility Score: inf
ROOT
ATOM      1  C   UNL     1      -4.937  85.256  -9.631  1.00  0.00     0.008 C 
ENDROOT
BRANCH   1   2
ATOM      2  C   UNL     1      -5.684  83.987  -9.194  1.00  0.00     0.000 C 
BRANCH   2   3
ATOM      3  C   UNL     1      -5.185  82.762  -9.970  1.00  0.00    -0.003 C 
ATOM      4  C   UNL     1      -3.761  82.397  -9.567  1.00  0.00     0.004 C 
ENDBRANCH   2   3
ENDBRANCH   1   2
BRANCH   1   5
ATOM      5  C   UNL     1      -4.426  86.068  -8.433  1.00  0.00     0.072 C 
BRANCH   5   6
ATOM      6  C   UNL     1      -3.036  85.671  -8.025  1.00  0.00     0.224 C 
ATOM      7  O   UNL     1      -2.250  86.522  -7.636  1.00  0.00    -0.303 OA
ENDBRANCH   5   6
ENDBRANCH   1   5
TORSDOF 4
ENDMDL
MODEL 6
REMARK VINA RESULT:    -2.404      8.780      9.692
REMARK INTER + INTRA:          -3.194
REMARK INTER:                  -3.022
REMARK INTRA:                  -0.172
REMARK UNBOUND:                -0.228
REMARK SMILES CCCCCC=O
REMARK SMILES IDX 4 1 3 2 2 3 1 4 5 5 6 6 7 7
REMARK H PARENT
REMARK Flexibility Score: inf
ROOT
ATOM      1  C   UNL     1      -5.284  89.906 -14.874  1.00  0.00     0.008 C 
ENDROOT
BRANCH   1   2
ATOM      2  C   UNL     1      -4.027  90.222 -14.049  1.00  0.00     0.000 C 
BRANCH   2   3
ATOM      3  C   UNL     1      -4.378  91.064 -12.817  1.00  0.00    -0.003 C 
ATOM      4  C   UNL     1      -4.094  92.543 -13.060  1.00  0.00     0.004 C 
ENDBRANCH   2   3
ENDBRANCH   1   2
BRANCH   1   5
ATOM      5  C   UNL     1      -5.123  90.304 -16.349  1.00  0.00     0.072 C 
BRANCH   5   6
ATOM      6  C   UNL     1      -3.850  91.057 -16.601  1.00  0.00     0.224 C 
ATOM      7  O   UNL     1      -3.201  90.834 -17.612  1.00  0.00    -0.303 OA
ENDBRANCH   5   6
ENDBRANCH   1   5
TORSDOF 4
ENDMDL
MODEL 7
REMARK VINA RESULT:    -2.369      2.157      2.660
REMARK INTER + INTRA:          -3.150
REMARK INTER:                  -2.981
REMARK INTRA:                  -0.169
REMARK UNBOUND:                -0.228
REMARK SMILES CCCCCC=O
REMARK SMILES IDX 4 1 3 2 2 3 1 4 5 5 6 6 7 7
REMARK H PARENT
REMARK Flexibility Score: inf
ROOT
ATOM      1  C   UNL     1      -4.080  83.189  -9.099  1.00  0.00     0.008 C 
ENDROOT
BRANCH   1   2
ATOM      2  C   UNL     1      -3.129  81.996  -9.278  1.00  0.00     0.000 C 
BRANCH   2   3
ATOM      3  C   UNL     1      -2.753  81.386  -7.923  1.00  0.00    -0.003 C 
ATOM      4  C   UNL     1      -3.817  81.682  -6.871  1.00  0.00     0.004 C 
ENDBRANCH   2   3
ENDBRANCH   1   2
BRANCH   1   5
ATOM      5  C   UNL     1      -5.299  83.103 -10.028  1.00  0.00     0.072 C 
BRANCH   5   6
ATOM      6  C   UNL     1      -6.596  83.188  -9.278  1.00  0.00     0.224 C 
ATOM      7  O   UNL     1      -6.597  83.499  -8.097  1.00  0.00    -0.303 OA
ENDBRANCH   5   6
ENDBRANCH   1   5
TORSDOF 4
ENDMDL
MODEL 8
REMARK VINA RESULT:    -2.334      2.251      3.961
REMARK INTER + INTRA:          -3.107
REMARK INTER:                  -3.046
REMARK INTRA:                  -0.062
REMARK UNBOUND:                -0.228
REMARK SMILES CCCCCC=O
REMARK SMILES IDX 4 1 3 2 2 3 1 4 5 5 6 6 7 7
REMARK H PARENT
REMARK Flexibility Score: inf
ROOT
ATOM      1  C   UNL     1      -3.744  84.771  -8.735  1.00  0.00     0.008 C 
ENDROOT
BRANCH   1   2
ATOM      2  C   UNL     1      -2.926  85.094  -7.475  1.00  0.00     0.000 C 
BRANCH   2   3
ATOM      3  C   UNL     1      -2.233  86.455  -7.605  1.00  0.00    -0.003 C 
ATOM      4  C   UNL     1      -1.876  87.025  -6.236  1.00  0.00     0.004 C 
ENDBRANCH   2   3
ENDBRANCH   1   2
BRANCH   1   5
ATOM      5  C   UNL     1      -4.293  83.338  -8.717  1.00  0.00     0.072 C 
BRANCH   5   6
ATOM      6  C   UNL     1      -3.379  82.368  -9.409  1.00  0.00     0.224 C 
ATOM      7  O   UNL     1      -2.653  81.640  -8.750  1.00  0.00    -0.303 OA
ENDBRANCH   5   6
ENDBRANCH   1   5
TORSDOF 4
ENDMDL
