MODEL 1
REMARK VINA RESULT:    35.148      0.000      0.000
REMARK INTER + INTRA:          41.029
REMARK INTER:                  41.312
REMARK INTRA:                  -0.283
REMARK UNBOUND:                -0.283
REMARK SMILES O=c1cc(-c2ccc(O)c(O)c2)oc2cc(O)cc(O)c12
REMARK SMILES IDX 4 1 3 2 2 3 1 4 21 5 19 6 18 7 16 8 15 9 14 10 13 11 5 12
REMARK SMILES IDX 6 13 7 14 8 15 12 16 10 17 9 18 11 20 20 22 17 24
REMARK H PARENT 9 19 11 21 20 23 17 25
REMARK Flexibility Score: inf
ROOT
ATOM      1  C   UNL     1      10.652  24.004  -5.471  1.00  0.00     0.138 A 
ATOM      2  C   UNL     1      11.511  24.720  -6.319  1.00  0.00     0.100 A 
ATOM      3  C   UNL     1      12.867  24.393  -6.358  1.00  0.00     0.197 A 
ATOM      4  O   UNL     1      13.631  25.041  -7.124  1.00  0.00    -0.289 OA
ATOM      5  C   UNL     1      13.354  23.347  -5.548  1.00  0.00     0.107 A 
ATOM      6  C   UNL     1      14.713  22.953  -5.526  1.00  0.00     0.134 A 
ATOM      7  C   UNL     1      15.117  21.897  -4.696  1.00  0.00     0.093 A 
ATOM      8  C   UNL     1      14.188  21.230  -3.889  1.00  0.00     0.123 A 
ATOM      9  C   UNL     1      12.846  21.616  -3.909  1.00  0.00     0.094 A 
ATOM     10  C   UNL     1      12.424  22.666  -4.729  1.00  0.00     0.146 A 
ATOM     11  O   UNL     1      11.141  23.014  -4.727  1.00  0.00    -0.456 OA
ENDROOT
BRANCH   1  12
ATOM     12  C   UNL     1       9.200  24.307  -5.389  1.00  0.00     0.021 A 
ATOM     13  C   UNL     1       8.424  24.287  -6.558  1.00  0.00     0.016 A 
ATOM     14  C   UNL     1       7.057  24.563  -6.507  1.00  0.00     0.051 A 
ATOM     15  C   UNL     1       6.431  24.853  -5.291  1.00  0.00     0.157 A 
ATOM     16  C   UNL     1       8.569  24.585  -4.162  1.00  0.00     0.062 A 
ATOM     17  C   UNL     1       7.197  24.860  -4.102  1.00  0.00     0.158 A 
BRANCH  15  18
ATOM     18  O   UNL     1       5.062  25.125  -5.309  1.00  0.00    -0.504 OA
ATOM     19  H   UNL     1       4.671  26.048  -5.427  1.00  0.00     0.293 HD
ENDBRANCH  15  18
BRANCH  17  20
ATOM     20  O   UNL     1       6.640  25.125  -2.849  1.00  0.00    -0.504 OA
ATOM     21  H   UNL     1       6.741  24.520  -2.047  1.00  0.00     0.293 HD
ENDBRANCH  17  20
ENDBRANCH   1  12
BRANCH   6  22
ATOM     22  O   UNL     1      15.661  23.600  -6.320  1.00  0.00    -0.507 OA
ATOM     23  H   UNL     1      16.007  23.189  -7.179  1.00  0.00     0.293 HD
ENDBRANCH   6  22
BRANCH   8  24
ATOM     24  O   UNL     1      14.588  20.180  -3.065  1.00  0.00    -0.508 OA
ATOM     25  H   UNL     1      15.167  19.424  -3.413  1.00  0.00     0.293 HD
ENDBRANCH   8  24
TORSDOF 5
ENDMDL
MODEL 2
REMARK VINA RESULT:    37.895      2.254      2.642
REMARK INTER + INTRA:          44.258
REMARK INTER:                  44.558
REMARK INTRA:                  -0.300
REMARK UNBOUND:                -0.283
REMARK SMILES O=c1cc(-c2ccc(O)c(O)c2)oc2cc(O)cc(O)c12
REMARK SMILES IDX 4 1 3 2 2 3 1 4 21 5 19 6 18 7 16 8 15 9 14 10 13 11 5 12
REMARK SMILES IDX 6 13 7 14 8 15 12 16 10 17 9 18 11 20 20 22 17 24
REMARK H PARENT 9 19 11 21 20 23 17 25
REMARK Flexibility Score: inf
ROOT
ATOM      1  C   UNL     1      10.867  22.427  -5.718  1.00  0.00     0.138 A 
ATOM      2  C   UNL     1      11.556  23.573  -6.149  1.00  0.00     0.100 A 
ATOM      3  C   UNL     1      12.889  23.752  -5.779  1.00  0.00     0.197 A 
ATOM      4  O   UNL     1      13.500  24.782  -6.173  1.00  0.00    -0.289 OA
ATOM      5  C   UNL     1      13.526  22.780  -4.982  1.00  0.00     0.107 A 
ATOM      6  C   UNL     1      14.874  22.885  -4.561  1.00  0.00     0.134 A 
ATOM      7  C   UNL     1      15.436  21.871  -3.773  1.00  0.00     0.093 A 
ATOM      8  C   UNL     1      14.678  20.756  -3.398  1.00  0.00     0.123 A 
ATOM      9  C   UNL     1      13.348  20.649  -3.811  1.00  0.00     0.094 A 
ATOM     10  C   UNL     1      12.769  21.649  -4.597  1.00  0.00     0.146 A 
ATOM     11  O   UNL     1      11.501  21.523  -4.974  1.00  0.00    -0.456 OA
ENDROOT
BRANCH   1  12
ATOM     12  C   UNL     1       9.448  22.184  -6.082  1.00  0.00     0.021 A 
ATOM     13  C   UNL     1       8.559  23.267  -6.158  1.00  0.00     0.016 A 
ATOM     14  C   UNL     1       7.222  23.065  -6.504  1.00  0.00     0.051 A 
ATOM     15  C   UNL     1       6.743  21.783  -6.791  1.00  0.00     0.157 A 
ATOM     16  C   UNL     1       8.971  20.894  -6.385  1.00  0.00     0.062 A 
ATOM     17  C   UNL     1       7.632  20.683  -6.734  1.00  0.00     0.158 A 
BRANCH  15  18
ATOM     18  O   UNL     1       5.395  21.649  -7.124  1.00  0.00    -0.504 OA
ATOM     19  H   UNL     1       5.063  21.209  -7.971  1.00  0.00     0.293 HD
ENDBRANCH  15  18
BRANCH  17  20
ATOM     20  O   UNL     1       7.232  19.377  -7.023  1.00  0.00    -0.504 OA
ATOM     21  H   UNL     1       6.429  18.927  -6.608  1.00  0.00     0.293 HD
ENDBRANCH  17  20
ENDBRANCH   1  12
BRANCH   6  22
ATOM     22  O   UNL     1      15.654  23.985  -4.921  1.00  0.00    -0.507 OA
ATOM     23  H   UNL     1      16.508  24.217  -4.427  1.00  0.00     0.293 HD
ENDBRANCH   6  22
BRANCH   8  24
ATOM     24  O   UNL     1      15.236  19.748  -2.615  1.00  0.00    -0.508 OA
ATOM     25  H   UNL     1      15.759  18.983  -3.029  1.00  0.00     0.293 HD
ENDBRANCH   8  24
TORSDOF 5
ENDMDL
