MODEL 1
REMARK VINA RESULT:    -3.950      0.000      0.000
REMARK INTER + INTRA:          -4.065
REMARK INTER:                  -4.065
REMARK INTRA:                   0.000
REMARK UNBOUND:                 0.000
REMARK SMILES CC1(C)[C@H]2CC[C@]1(C)[C@H](O)C2
REMARK SMILES IDX 1 1 2 2 4 3 5 4 6 5 7 6 9 7 11 8 8 9 3 10 10 11
REMARK H PARENT 10 12
REMARK Flexibility Score: inf
ROOT
ATOM      1  C   UNL     1     167.664 166.647 167.878  1.00  0.00     0.012 C 
ATOM      2  C   UNL     1     168.429 167.237 169.103  1.00  0.00    -0.025 C 
ATOM      3  C   UNL     1     167.617 168.268 169.904  1.00  0.00    -0.002 C 
ATOM      4  C   UNL     1     168.631 168.785 170.953  1.00  0.00     0.005 C 
ATOM      5  C   UNL     1     169.962 168.778 170.175  1.00  0.00     0.010 C 
ATOM      6  C   UNL     1     169.530 168.273 168.770  1.00  0.00    -0.001 C 
ATOM      7  C   UNL     1     168.725 169.422 168.085  1.00  0.00     0.121 C 
ATOM      8  C   UNL     1     167.409 169.427 168.896  1.00  0.00     0.036 C 
ATOM      9  C   UNL     1     170.698 167.750 167.923  1.00  0.00     0.015 C 
ATOM     10  C   UNL     1     168.892 166.009 169.947  1.00  0.00     0.012 C 
ENDROOT
BRANCH   7  11
ATOM     11  O   UNL     1     169.368 170.669 168.174  1.00  0.00    -0.393 OA
ATOM     12  H   UNL     1     168.938 171.156 168.923  1.00  0.00     0.210 HD
ENDBRANCH   7  11
TORSDOF 1
ENDMDL
MODEL 2
REMARK VINA RESULT:    -3.944      1.374      1.734
REMARK INTER + INTRA:          -4.059
REMARK INTER:                  -4.059
REMARK INTRA:                   0.000
REMARK UNBOUND:                 0.000
REMARK SMILES CC1(C)[C@H]2CC[C@]1(C)[C@H](O)C2
REMARK SMILES IDX 1 1 2 2 4 3 5 4 6 5 7 6 9 7 11 8 8 9 3 10 10 11
REMARK H PARENT 10 12
REMARK Flexibility Score: inf
ROOT
ATOM      1  C   UNL     1     165.570 167.926 167.875  1.00  0.00     0.012 C 
ATOM      2  C   UNL     1     166.538 168.107 169.085  1.00  0.00    -0.025 C 
ATOM      3  C   UNL     1     166.428 169.481 169.767  1.00  0.00    -0.002 C 
ATOM      4  C   UNL     1     167.563 169.449 170.820  1.00  0.00     0.005 C 
ATOM      5  C   UNL     1     168.669 168.646 170.106  1.00  0.00     0.010 C 
ATOM      6  C   UNL     1     168.026 168.338 168.725  1.00  0.00    -0.001 C 
ATOM      7  C   UNL     1     167.982 169.674 167.920  1.00  0.00     0.121 C 
ATOM      8  C   UNL     1     166.887 170.470 168.666  1.00  0.00     0.036 C 
ATOM      9  C   UNL     1     168.712 167.189 167.975  1.00  0.00     0.015 C 
ATOM     10  C   UNL     1     166.254 166.906 170.040  1.00  0.00     0.012 C 
ENDROOT
BRANCH   7  11
ATOM     11  O   UNL     1     169.204 170.368 167.942  1.00  0.00    -0.393 OA
ATOM     12  H   UNL     1     169.493 170.462 166.998  1.00  0.00     0.210 HD
ENDBRANCH   7  11
TORSDOF 1
ENDMDL
MODEL 3
REMARK VINA RESULT:    -3.923      2.263      2.883
REMARK INTER + INTRA:          -4.037
REMARK INTER:                  -4.037
REMARK INTRA:                   0.000
REMARK UNBOUND:                 0.000
REMARK SMILES CC1(C)[C@H]2CC[C@]1(C)[C@H](O)C2
REMARK SMILES IDX 1 1 2 2 4 3 5 4 6 5 7 6 9 7 11 8 8 9 3 10 10 11
REMARK H PARENT 10 12
REMARK Flexibility Score: inf
ROOT
ATOM      1  C   UNL     1     167.181 165.356 168.047  1.00  0.00     0.012 C 
ATOM      2  C   UNL     1     167.111 166.423 169.183  1.00  0.00    -0.025 C 
ATOM      3  C   UNL     1     165.762 166.458 169.920  1.00  0.00    -0.002 C 
ATOM      4  C   UNL     1     165.910 167.665 170.878  1.00  0.00     0.005 C 
ATOM      5  C   UNL     1     166.753 168.656 170.053  1.00  0.00     0.010 C 
ATOM      6  C   UNL     1     166.963 167.891 168.716  1.00  0.00    -0.001 C 
ATOM      7  C   UNL     1     165.596 167.877 167.964  1.00  0.00     0.121 C 
ATOM      8  C   UNL     1     164.762 166.898 168.821  1.00  0.00     0.036 C 
ATOM      9  C   UNL     1     168.124 168.439 167.875  1.00  0.00     0.015 C 
ATOM     10  C   UNL     1     168.329 166.131 170.115  1.00  0.00     0.012 C 
ENDROOT
BRANCH   7  11
ATOM     11  O   UNL     1     164.985 169.141 167.915  1.00  0.00    -0.393 OA
ATOM     12  H   UNL     1     164.449 169.228 168.745  1.00  0.00     0.210 HD
ENDBRANCH   7  11
TORSDOF 1
ENDMDL
MODEL 4
REMARK VINA RESULT:    -3.920      2.366      3.679
REMARK INTER + INTRA:          -4.034
REMARK INTER:                  -4.034
REMARK INTRA:                   0.000
REMARK UNBOUND:                 0.000
REMARK SMILES CC1(C)[C@H]2CC[C@]1(C)[C@H](O)C2
REMARK SMILES IDX 1 1 2 2 4 3 5 4 6 5 7 6 9 7 11 8 8 9 3 10 10 11
REMARK H PARENT 10 12
REMARK Flexibility Score: inf
ROOT
ATOM      1  C   UNL     1     170.071 166.862 168.067  1.00  0.00     0.012 C 
ATOM      2  C   UNL     1     169.004 166.890 169.204  1.00  0.00    -0.025 C 
ATOM      3  C   UNL     1     168.877 165.562 169.968  1.00  0.00    -0.002 C 
ATOM      4  C   UNL     1     167.684 165.813 170.924  1.00  0.00     0.005 C 
ATOM      5  C   UNL     1     166.752 166.706 170.081  1.00  0.00     0.010 C 
ATOM      6  C   UNL     1     167.528 166.835 168.740  1.00  0.00    -0.001 C 
ATOM      7  C   UNL     1     167.447 165.454 168.017  1.00  0.00     0.121 C 
ATOM      8  C   UNL     1     168.367 164.572 168.891  1.00  0.00     0.036 C 
ATOM      9  C   UNL     1     167.060 168.012 167.875  1.00  0.00     0.015 C 
ATOM     10  C   UNL     1     169.381 168.104 170.110  1.00  0.00     0.012 C 
ENDROOT
BRANCH   7  11
ATOM     11  O   UNL     1     166.143 164.931 167.981  1.00  0.00    -0.393 OA
ATOM     12  H   UNL     1     165.963 164.687 167.037  1.00  0.00     0.210 HD
ENDBRANCH   7  11
TORSDOF 1
ENDMDL
MODEL 5
REMARK VINA RESULT:    -3.853      1.776      2.757
REMARK INTER + INTRA:          -3.965
REMARK INTER:                  -3.965
REMARK INTRA:                   0.000
REMARK UNBOUND:                 0.000
REMARK SMILES CC1(C)[C@H]2CC[C@]1(C)[C@H](O)C2
REMARK SMILES IDX 1 1 2 2 4 3 5 4 6 5 7 6 9 7 11 8 8 9 3 10 10 11
REMARK H PARENT 10 12
REMARK Flexibility Score: inf
ROOT
ATOM      1  C   UNL     1     166.980 168.667 167.875  1.00  0.00     0.012 C 
ATOM      2  C   UNL     1     167.502 167.803 169.064  1.00  0.00    -0.025 C 
ATOM      3  C   UNL     1     168.741 168.390 169.761  1.00  0.00    -0.002 C 
ATOM      4  C   UNL     1     169.126 167.296 170.786  1.00  0.00     0.005 C 
ATOM      5  C   UNL     1     168.782 165.991 170.040  1.00  0.00     0.010 C 
ATOM      6  C   UNL     1     168.260 166.512 168.672  1.00  0.00    -0.001 C 
ATOM      7  C   UNL     1     169.488 167.060 167.879  1.00  0.00     0.121 C 
ATOM      8  C   UNL     1     169.829 168.351 168.658  1.00  0.00     0.036 C 
ATOM      9  C   UNL     1     167.441 165.472 167.896  1.00  0.00     0.015 C 
ATOM     10  C   UNL     1     166.281 167.606 170.014  1.00  0.00     0.012 C 
ENDROOT
BRANCH   7  11
ATOM     11  O   UNL     1     170.580 166.175 167.879  1.00  0.00    -0.393 OA
ATOM     12  H   UNL     1     170.207 165.268 167.736  1.00  0.00     0.210 HD
ENDBRANCH   7  11
TORSDOF 1
ENDMDL
MODEL 6
REMARK VINA RESULT:    -3.763      2.620      3.846
REMARK INTER + INTRA:          -3.873
REMARK INTER:                  -3.873
REMARK INTRA:                   0.000
REMARK UNBOUND:                 0.000
REMARK SMILES CC1(C)[C@H]2CC[C@]1(C)[C@H](O)C2
REMARK SMILES IDX 1 1 2 2 4 3 5 4 6 5 7 6 9 7 11 8 8 9 3 10 10 11
REMARK H PARENT 10 12
REMARK Flexibility Score: inf
ROOT
ATOM      1  C   UNL     1     165.767 167.445 171.480  1.00  0.00     0.012 C 
ATOM      2  C   UNL     1     166.643 167.745 170.224  1.00  0.00    -0.025 C 
ATOM      3  C   UNL     1     165.836 168.218 169.004  1.00  0.00    -0.002 C 
ATOM      4  C   UNL     1     166.902 168.309 167.885  1.00  0.00     0.005 C 
ATOM      5  C   UNL     1     167.841 167.131 168.210  1.00  0.00     0.010 C 
ATOM      6  C   UNL     1     167.176 166.505 169.467  1.00  0.00    -0.001 C 
ATOM      7  C   UNL     1     165.866 165.796 169.001  1.00  0.00     0.121 C 
ATOM      8  C   UNL     1     164.951 166.994 168.659  1.00  0.00     0.036 C 
ATOM      9  C   UNL     1     168.118 165.595 170.267  1.00  0.00     0.015 C 
ATOM     10  C   UNL     1     167.726 168.765 170.696  1.00  0.00     0.012 C 
ENDROOT
BRANCH   7  11
ATOM     11  O   UNL     1     166.057 164.977 167.875  1.00  0.00    -0.393 OA
ATOM     12  H   UNL     1     165.187 164.941 167.402  1.00  0.00     0.210 HD
ENDBRANCH   7  11
TORSDOF 1
ENDMDL
MODEL 7
REMARK VINA RESULT:    -3.746      1.167      2.809
REMARK INTER + INTRA:          -3.856
REMARK INTER:                  -3.856
REMARK INTRA:                   0.000
REMARK UNBOUND:                 0.000
REMARK SMILES CC1(C)[C@H]2CC[C@]1(C)[C@H](O)C2
REMARK SMILES IDX 1 1 2 2 4 3 5 4 6 5 7 6 9 7 11 8 8 9 3 10 10 11
REMARK H PARENT 10 12
REMARK Flexibility Score: inf
ROOT
ATOM      1  C   UNL     1     169.422 167.864 171.551  1.00  0.00     0.012 C 
ATOM      2  C   UNL     1     168.707 167.494 170.215  1.00  0.00    -0.025 C 
ATOM      3  C   UNL     1     169.667 167.043 169.102  1.00  0.00    -0.002 C 
ATOM      4  C   UNL     1     168.737 166.873 167.876  1.00  0.00     0.005 C 
ATOM      5  C   UNL     1     167.707 168.004 168.068  1.00  0.00     0.010 C 
ATOM      6  C   UNL     1     168.196 168.689 169.374  1.00  0.00    -0.001 C 
ATOM      7  C   UNL     1     169.511 169.459 169.037  1.00  0.00     0.121 C 
ATOM      8  C   UNL     1     170.520 168.307 168.826  1.00  0.00     0.036 C 
ATOM      9  C   UNL     1     167.126 169.561 170.044  1.00  0.00     0.015 C 
ATOM     10  C   UNL     1     167.633 166.425 170.590  1.00  0.00     0.012 C 
ENDROOT
BRANCH   7  11
ATOM     11  O   UNL     1     169.403 170.245 167.877  1.00  0.00    -0.393 OA
ATOM     12  H   UNL     1     168.715 170.934 168.067  1.00  0.00     0.210 HD
ENDBRANCH   7  11
TORSDOF 1
ENDMDL
MODEL 8
REMARK VINA RESULT:    -3.568      1.326      2.960
REMARK INTER + INTRA:          -3.673
REMARK INTER:                  -3.673
REMARK INTRA:                   0.000
REMARK UNBOUND:                 0.000
REMARK SMILES CC1(C)[C@H]2CC[C@]1(C)[C@H](O)C2
REMARK SMILES IDX 1 1 2 2 4 3 5 4 6 5 7 6 9 7 11 8 8 9 3 10 10 11
REMARK H PARENT 10 12
REMARK Flexibility Score: inf
ROOT
ATOM      1  C   UNL     1     169.872 168.708 170.535  1.00  0.00     0.012 C 
ATOM      2  C   UNL     1     168.539 168.134 169.962  1.00  0.00    -0.025 C 
ATOM      3  C   UNL     1     168.560 167.921 168.439  1.00  0.00    -0.002 C 
ATOM      4  C   UNL     1     167.109 167.487 168.119  1.00  0.00     0.005 C 
ATOM      5  C   UNL     1     166.276 168.318 169.116  1.00  0.00     0.010 C 
ATOM      6  C   UNL     1     167.364 169.136 169.866  1.00  0.00    -0.001 C 
ATOM      7  C   UNL     1     167.908 170.213 168.875  1.00  0.00     0.121 C 
ATOM      8  C   UNL     1     168.717 169.355 167.875  1.00  0.00     0.036 C 
ATOM      9  C   UNL     1     166.878 169.718 171.201  1.00  0.00     0.015 C 
ATOM     10  C   UNL     1     168.252 166.834 170.775  1.00  0.00     0.012 C 
ENDROOT
BRANCH   7  11
ATOM     11  O   UNL     1     166.886 170.916 168.215  1.00  0.00    -0.393 OA
ATOM     12  H   UNL     1     166.939 171.854 168.533  1.00  0.00     0.210 HD
ENDBRANCH   7  11
TORSDOF 1
ENDMDL
MODEL 9
REMARK VINA RESULT:    -3.308      1.962      3.377
REMARK INTER + INTRA:          -3.405
REMARK INTER:                  -3.405
REMARK INTRA:                   0.000
REMARK UNBOUND:                 0.000
REMARK SMILES CC1(C)[C@H]2CC[C@]1(C)[C@H](O)C2
REMARK SMILES IDX 1 1 2 2 4 3 5 4 6 5 7 6 9 7 11 8 8 9 3 10 10 11
REMARK H PARENT 10 12
REMARK Flexibility Score: inf
ROOT
ATOM      1  C   UNL     1     167.416 169.507 171.496  1.00  0.00     0.012 C 
ATOM      2  C   UNL     1     167.782 168.687 170.219  1.00  0.00    -0.025 C 
ATOM      3  C   UNL     1     168.197 169.556 169.021  1.00  0.00    -0.002 C 
ATOM      4  C   UNL     1     168.368 168.528 167.877  1.00  0.00     0.005 C 
ATOM      5  C   UNL     1     167.260 167.498 168.174  1.00  0.00     0.010 C 
ATOM      6  C   UNL     1     166.585 168.084 169.445  1.00  0.00    -0.001 C 
ATOM      7  C   UNL     1     165.784 169.351 169.009  1.00  0.00     0.121 C 
ATOM      8  C   UNL     1     166.913 170.359 168.694  1.00  0.00     0.036 C 
ATOM      9  C   UNL     1     165.744 167.059 170.217  1.00  0.00     0.015 C 
ATOM     10  C   UNL     1     168.876 167.669 170.668  1.00  0.00     0.012 C 
ENDROOT
BRANCH   7  11
ATOM     11  O   UNL     1     164.984 169.129 167.875  1.00  0.00    -0.393 OA
ATOM     12  H   UNL     1     165.482 168.496 167.298  1.00  0.00     0.210 HD
ENDBRANCH   7  11
TORSDOF 1
ENDMDL
