MODEL 1
REMARK VINA RESULT:    -5.938      0.000      0.000
REMARK INTER + INTRA:          -5.938
REMARK INTER:                  -5.938
REMARK INTRA:                   0.000
REMARK UNBOUND:                 0.000
REMARK SMILES CC1(C)O[C@]2(C)CC[C@H]1CC2
REMARK SMILES IDX 1 1 2 2 9 3 10 4 11 5 5 6 4 7 7 8 8 9 6 10 3 11
REMARK H PARENT
REMARK Flexibility Score: inf
ROOT
ATOM      1  C   UNL     1     -34.394  11.701  55.548  1.00  0.00     0.042 C 
ATOM      2  C   UNL     1     -34.029  12.658  56.705  1.00  0.00     0.066 C 
ATOM      3  C   UNL     1     -34.336  14.154  56.309  1.00  0.00     0.021 C 
ATOM      4  C   UNL     1     -35.860  14.296  56.075  1.00  0.00     0.009 C 
ATOM      5  C   UNL     1     -36.618  13.727  57.299  1.00  0.00     0.035 C 
ATOM      6  C   UNL     1     -35.600  13.288  58.391  1.00  0.00     0.066 C 
ATOM      7  O   UNL     1     -34.767  12.252  57.867  1.00  0.00    -0.369 OA
ATOM      8  C   UNL     1     -34.715  14.508  58.778  1.00  0.00     0.035 C 
ATOM      9  C   UNL     1     -34.002  15.059  57.519  1.00  0.00     0.009 C 
ATOM     10  C   UNL     1     -36.338  12.753  59.624  1.00  0.00     0.042 C 
ATOM     11  C   UNL     1     -32.526  12.468  57.000  1.00  0.00     0.042 C 
ENDROOT
TORSDOF 0
ENDMDL
MODEL 2
REMARK VINA RESULT:    -5.911      7.213      8.968
REMARK INTER + INTRA:          -5.911
REMARK INTER:                  -5.911
REMARK INTRA:                   0.000
REMARK UNBOUND:                 0.000
REMARK SMILES CC1(C)O[C@]2(C)CC[C@H]1CC2
REMARK SMILES IDX 1 1 2 2 9 3 10 4 11 5 5 6 4 7 7 8 8 9 6 10 3 11
REMARK H PARENT
REMARK Flexibility Score: inf
ROOT
ATOM      1  C   UNL     1     -29.988  16.861  57.370  1.00  0.00     0.042 C 
ATOM      2  C   UNL     1     -29.413  18.290  57.262  1.00  0.00     0.066 C 
ATOM      3  C   UNL     1     -27.982  18.368  57.925  1.00  0.00     0.021 C 
ATOM      4  C   UNL     1     -27.026  17.441  57.135  1.00  0.00     0.009 C 
ATOM      5  C   UNL     1     -27.118  17.781  55.627  1.00  0.00     0.035 C 
ATOM      6  C   UNL     1     -28.068  18.996  55.418  1.00  0.00     0.066 C 
ATOM      7  O   UNL     1     -29.377  18.653  55.874  1.00  0.00    -0.369 OA
ATOM      8  C   UNL     1     -27.537  20.201  56.249  1.00  0.00     0.035 C 
ATOM      9  C   UNL     1     -27.435  19.804  57.742  1.00  0.00     0.009 C 
ATOM     10  C   UNL     1     -28.142  19.366  53.933  1.00  0.00     0.042 C 
ATOM     11  C   UNL     1     -30.399  19.237  57.980  1.00  0.00     0.042 C 
ENDROOT
TORSDOF 0
ENDMDL
MODEL 3
REMARK VINA RESULT:    -5.898      1.969      3.592
REMARK INTER + INTRA:          -5.898
REMARK INTER:                  -5.898
REMARK INTRA:                   0.000
REMARK UNBOUND:                 0.000
REMARK SMILES CC1(C)O[C@]2(C)CC[C@H]1CC2
REMARK SMILES IDX 1 1 2 2 9 3 10 4 11 5 5 6 4 7 7 8 8 9 6 10 3 11
REMARK H PARENT
REMARK Flexibility Score: inf
ROOT
ATOM      1  C   UNL     1     -35.918  14.081  56.263  1.00  0.00     0.042 C 
ATOM      2  C   UNL     1     -34.590  14.816  55.978  1.00  0.00     0.066 C 
ATOM      3  C   UNL     1     -34.100  15.601  57.257  1.00  0.00     0.021 C 
ATOM      4  C   UNL     1     -33.811  14.575  58.380  1.00  0.00     0.009 C 
ATOM      5  C   UNL     1     -32.871  13.474  57.833  1.00  0.00     0.035 C 
ATOM      6  C   UNL     1     -32.458  13.812  56.371  1.00  0.00     0.066 C 
ATOM      7  O   UNL     1     -33.625  13.844  55.549  1.00  0.00    -0.369 OA
ATOM      8  C   UNL     1     -31.779  15.213  56.349  1.00  0.00     0.035 C 
ATOM      9  C   UNL     1     -32.745  16.273  56.931  1.00  0.00     0.009 C 
ATOM     10  C   UNL     1     -31.499  12.747  55.828  1.00  0.00     0.042 C 
ATOM     11  C   UNL     1     -34.846  15.789  54.806  1.00  0.00     0.042 C 
ENDROOT
TORSDOF 0
ENDMDL
MODEL 4
REMARK VINA RESULT:    -5.883      6.986      8.422
REMARK INTER + INTRA:          -5.883
REMARK INTER:                  -5.883
REMARK INTRA:                   0.000
REMARK UNBOUND:                 0.000
REMARK SMILES CC1(C)O[C@]2(C)CC[C@H]1CC2
REMARK SMILES IDX 1 1 2 2 9 3 10 4 11 5 5 6 4 7 7 8 8 9 6 10 3 11
REMARK H PARENT
REMARK Flexibility Score: inf
ROOT
ATOM      1  C   UNL     1     -30.676  17.316  56.116  1.00  0.00     0.042 C 
ATOM      2  C   UNL     1     -29.495  18.167  56.632  1.00  0.00     0.066 C 
ATOM      3  C   UNL     1     -28.650  18.738  55.427  1.00  0.00     0.021 C 
ATOM      4  C   UNL     1     -29.555  19.684  54.600  1.00  0.00     0.009 C 
ATOM      5  C   UNL     1     -30.209  20.719  55.548  1.00  0.00     0.035 C 
ATOM      6  C   UNL     1     -29.672  20.521  56.995  1.00  0.00     0.066 C 
ATOM      7  O   UNL     1     -30.027  19.216  57.454  1.00  0.00    -0.369 OA
ATOM      8  C   UNL     1     -28.121  20.654  56.981  1.00  0.00     0.035 C 
ATOM      9  C   UNL     1     -27.516  19.621  56.000  1.00  0.00     0.009 C 
ATOM     10  C   UNL     1     -30.287  21.562  57.938  1.00  0.00     0.042 C 
ATOM     11  C   UNL     1     -28.626  17.253  57.523  1.00  0.00     0.042 C 
ENDROOT
TORSDOF 0
ENDMDL
MODEL 5
REMARK VINA RESULT:    -5.849      6.992      8.803
REMARK INTER + INTRA:          -5.849
REMARK INTER:                  -5.849
REMARK INTRA:                   0.000
REMARK UNBOUND:                 0.000
REMARK SMILES CC1(C)O[C@]2(C)CC[C@H]1CC2
REMARK SMILES IDX 1 1 2 2 9 3 10 4 11 5 5 6 4 7 7 8 8 9 6 10 3 11
REMARK H PARENT
REMARK Flexibility Score: inf
ROOT
ATOM      1  C   UNL     1     -28.696  17.269  57.549  1.00  0.00     0.042 C 
ATOM      2  C   UNL     1     -29.657  18.388  57.093  1.00  0.00     0.066 C 
ATOM      3  C   UNL     1     -29.331  19.741  57.838  1.00  0.00     0.021 C 
ATOM      4  C   UNL     1     -27.903  20.187  57.439  1.00  0.00     0.009 C 
ATOM      5  C   UNL     1     -27.785  20.193  55.895  1.00  0.00     0.035 C 
ATOM      6  C   UNL     1     -29.161  19.837  55.260  1.00  0.00     0.066 C 
ATOM      7  O   UNL     1     -29.541  18.523  55.669  1.00  0.00    -0.369 OA
ATOM      8  C   UNL     1     -30.226  20.856  55.759  1.00  0.00     0.035 C 
ATOM      9  C   UNL     1     -30.287  20.835  57.306  1.00  0.00     0.009 C 
ATOM     10  C   UNL     1     -29.066  19.872  53.731  1.00  0.00     0.042 C 
ATOM     11  C   UNL     1     -31.093  17.920  57.415  1.00  0.00     0.042 C 
ENDROOT
TORSDOF 0
ENDMDL
MODEL 6
REMARK VINA RESULT:    -5.796      6.387      7.800
REMARK INTER + INTRA:          -5.796
REMARK INTER:                  -5.796
REMARK INTRA:                   0.000
REMARK UNBOUND:                 0.000
REMARK SMILES CC1(C)O[C@]2(C)CC[C@H]1CC2
REMARK SMILES IDX 1 1 2 2 9 3 10 4 11 5 5 6 4 7 7 8 8 9 6 10 3 11
REMARK H PARENT
REMARK Flexibility Score: inf
ROOT
ATOM      1  C   UNL     1     -29.997  19.881  54.378  1.00  0.00     0.042 C 
ATOM      2  C   UNL     1     -29.165  18.941  55.278  1.00  0.00     0.066 C 
ATOM      3  C   UNL     1     -28.604  19.719  56.531  1.00  0.00     0.021 C 
ATOM      4  C   UNL     1     -29.803  20.207  57.381  1.00  0.00     0.009 C 
ATOM      5  C   UNL     1     -30.745  19.012  57.664  1.00  0.00     0.035 C 
ATOM      6  C   UNL     1     -30.131  17.706  57.081  1.00  0.00     0.066 C 
ATOM      7  O   UNL     1     -30.001  17.840  55.665  1.00  0.00    -0.369 OA
ATOM      8  C   UNL     1     -28.721  17.489  57.704  1.00  0.00     0.035 C 
ATOM      9  C   UNL     1     -27.827  18.720  57.420  1.00  0.00     0.009 C 
ATOM     10  C   UNL     1     -31.038  16.509  57.384  1.00  0.00     0.042 C 
ATOM     11  C   UNL     1     -28.009  18.385  54.417  1.00  0.00     0.042 C 
ENDROOT
TORSDOF 0
ENDMDL
MODEL 7
REMARK VINA RESULT:    -5.787      1.071      2.624
REMARK INTER + INTRA:          -5.787
REMARK INTER:                  -5.787
REMARK INTRA:                   0.000
REMARK UNBOUND:                 0.000
REMARK SMILES CC1(C)O[C@]2(C)CC[C@H]1CC2
REMARK SMILES IDX 1 1 2 2 9 3 10 4 11 5 5 6 4 7 7 8 8 9 6 10 3 11
REMARK H PARENT
REMARK Flexibility Score: inf
ROOT
ATOM      1  C   UNL     1     -32.387  12.685  56.828  1.00  0.00     0.042 C 
ATOM      2  C   UNL     1     -33.878  12.561  57.210  1.00  0.00     0.066 C 
ATOM      3  C   UNL     1     -34.270  13.649  58.284  1.00  0.00     0.021 C 
ATOM      4  C   UNL     1     -34.087  15.050  57.651  1.00  0.00     0.009 C 
ATOM      5  C   UNL     1     -34.838  15.099  56.298  1.00  0.00     0.035 C 
ATOM      6  C   UNL     1     -35.599  13.761  56.069  1.00  0.00     0.066 C 
ATOM      7  O   UNL     1     -34.658  12.688  56.012  1.00  0.00    -0.369 OA
ATOM      8  C   UNL     1     -36.573  13.524  57.260  1.00  0.00     0.035 C 
ATOM      9  C   UNL     1     -35.781  13.511  58.590  1.00  0.00     0.009 C 
ATOM     10  C   UNL     1     -36.375  13.809  54.748  1.00  0.00     0.042 C 
ATOM     11  C   UNL     1     -34.091  11.138  57.772  1.00  0.00     0.042 C 
ENDROOT
TORSDOF 0
ENDMDL
MODEL 8
REMARK VINA RESULT:    -5.779      1.226      2.557
REMARK INTER + INTRA:          -5.779
REMARK INTER:                  -5.779
REMARK INTRA:                   0.000
REMARK UNBOUND:                 0.000
REMARK SMILES CC1(C)O[C@]2(C)CC[C@H]1CC2
REMARK SMILES IDX 1 1 2 2 9 3 10 4 11 5 5 6 4 7 7 8 8 9 6 10 3 11
REMARK H PARENT
REMARK Flexibility Score: inf
ROOT
ATOM      1  C   UNL     1     -34.872  15.534  55.961  1.00  0.00     0.042 C 
ATOM      2  C   UNL     1     -34.785  14.043  56.355  1.00  0.00     0.066 C 
ATOM      3  C   UNL     1     -33.328  13.679  56.841  1.00  0.00     0.021 C 
ATOM      4  C   UNL     1     -33.019  14.498  58.118  1.00  0.00     0.009 C 
ATOM      5  C   UNL     1     -34.166  14.302  59.139  1.00  0.00     0.035 C 
ATOM      6  C   UNL     1     -35.198  13.279  58.580  1.00  0.00     0.066 C 
ATOM      7  O   UNL     1     -35.764  13.794  57.374  1.00  0.00    -0.369 OA
ATOM      8  C   UNL     1     -34.467  11.941  58.271  1.00  0.00     0.035 C 
ATOM      9  C   UNL     1     -33.313  12.193  57.271  1.00  0.00     0.009 C 
ATOM     10  C   UNL     1     -36.323  13.050  59.596  1.00  0.00     0.042 C 
ATOM     11  C   UNL     1     -35.168  13.216  55.109  1.00  0.00     0.042 C 
ENDROOT
TORSDOF 0
ENDMDL
MODEL 9
REMARK VINA RESULT:    -5.759      1.159      3.472
REMARK INTER + INTRA:          -5.759
REMARK INTER:                  -5.759
REMARK INTRA:                   0.000
REMARK UNBOUND:                 0.000
REMARK SMILES CC1(C)O[C@]2(C)CC[C@H]1CC2
REMARK SMILES IDX 1 1 2 2 9 3 10 4 11 5 5 6 4 7 7 8 8 9 6 10 3 11
REMARK H PARENT
REMARK Flexibility Score: inf
ROOT
ATOM      1  C   UNL     1     -34.152  15.002  58.981  1.00  0.00     0.042 C 
ATOM      2  C   UNL     1     -34.496  13.858  58.003  1.00  0.00     0.066 C 
ATOM      3  C   UNL     1     -35.074  14.434  56.652  1.00  0.00     0.021 C 
ATOM      4  C   UNL     1     -33.975  15.287  55.973  1.00  0.00     0.009 C 
ATOM      5  C   UNL     1     -32.673  14.456  55.878  1.00  0.00     0.035 C 
ATOM      6  C   UNL     1     -32.926  13.016  56.411  1.00  0.00     0.066 C 
ATOM      7  O   UNL     1     -33.307  13.084  57.785  1.00  0.00    -0.369 OA
ATOM      8  C   UNL     1     -34.082  12.371  55.592  1.00  0.00     0.035 C 
ATOM      9  C   UNL     1     -35.351  13.251  55.694  1.00  0.00     0.009 C 
ATOM     10  C   UNL     1     -31.653  12.172  56.291  1.00  0.00     0.042 C 
ATOM     11  C   UNL     1     -35.536  12.954  58.701  1.00  0.00     0.042 C 
ENDROOT
TORSDOF 0
ENDMDL
