MODEL 1
REMARK VINA RESULT:    -6.869      0.000      0.000
REMARK INTER + INTRA:         -10.114
REMARK INTER:                  -9.680
REMARK INTRA:                  -0.434
REMARK UNBOUND:                -0.434
REMARK SMILES C[C@H](CO)CCC(=O)[C@H](C)[C@H]1C(=O)C[C@H]2[C@H]3CC=C4C[C@H](O)CC[C@]4(C)[C@H]3CC[C@]12C
REMARK SMILES IDX 6 1 5 2 2 3 1 4 3 5 4 6 7 8 8 9 9 10 10 11 11 12 12 13 30 14
REMARK SMILES IDX 13 15 14 16 15 17 29 18 31 19 16 20 28 21 27 22 17 23 25 24
REMARK SMILES IDX 18 25 19 26 24 27 26 28 20 29 23 30 21 31 22 32
REMARK H PARENT 4 7 22 33
REMARK Flexibility Score: inf
ROOT
ATOM      1  C   UNL     1     140.734 142.288 145.368  1.00  0.00     0.076 C 
ENDROOT
BRANCH   1   2
ATOM      2  C   UNL     1     139.450 142.838 146.008  1.00  0.00     0.013 C 
BRANCH   2   3
ATOM      3  C   UNL     1     139.220 142.310 147.444  1.00  0.00     0.012 C 
ATOM      4  C   UNL     1     137.903 142.875 147.998  1.00  0.00     0.010 C 
BRANCH   3   5
ATOM      5  C   UNL     1     140.393 142.672 148.376  1.00  0.00     0.159 C 
BRANCH   5   6
ATOM      6  O   UNL     1     140.793 141.547 149.110  1.00  0.00    -0.396 OA
ATOM      7  H   UNL     1     140.925 141.857 150.043  1.00  0.00     0.210 HD
ENDBRANCH   5   6
ENDBRANCH   3   5
ENDBRANCH   2   3
ENDBRANCH   1   2
BRANCH   1   8
ATOM      8  C   UNL     1     140.408 141.326 144.250  1.00  0.00     0.136 C 
ATOM      9  O   UNL     1     139.568 141.648 143.422  1.00  0.00    -0.299 OA
BRANCH   8  10
ATOM     10  C   UNL     1     141.074 139.965 144.137  1.00  0.00     0.064 C 
ATOM     11  C   UNL     1     140.004 138.934 143.729  1.00  0.00     0.017 C 
BRANCH  10  12
ATOM     12  C   UNL     1     141.814 139.567 145.460  1.00  0.00     0.072 C 
ATOM     13  C   UNL     1     140.967 138.783 146.448  1.00  0.00     0.137 C 
ATOM     14  C   UNL     1     143.077 138.635 145.356  1.00  0.00    -0.019 C 
ATOM     15  O   UNL     1     139.782 138.985 146.654  1.00  0.00    -0.299 OA
ATOM     16  C   UNL     1     141.753 137.788 147.243  1.00  0.00     0.080 C 
ATOM     17  C   UNL     1     143.168 138.166 146.832  1.00  0.00     0.007 C 
ATOM     18  C   UNL     1     144.412 139.337 145.012  1.00  0.00     0.008 C 
ATOM     19  C   UNL     1     142.808 137.483 144.332  1.00  0.00     0.012 C 
ATOM     20  C   UNL     1     144.362 137.276 147.240  1.00  0.00     0.001 C 
ATOM     21  C   UNL     1     145.648 138.457 145.351  1.00  0.00     0.005 C 
ATOM     22  C   UNL     1     145.686 137.986 146.842  1.00  0.00     0.003 C 
ATOM     23  C   UNL     1     144.332 135.833 146.728  1.00  0.00     0.031 C 
ATOM     24  C   UNL     1     146.970 137.152 147.302  1.00  0.00    -0.008 C 
ATOM     25  C   UNL     1     145.499 135.076 147.268  1.00  0.00    -0.027 C 
ATOM     26  C   UNL     1     146.707 135.640 147.467  1.00  0.00    -0.065 C 
ATOM     27  C   UNL     1     147.405 137.686 148.705  1.00  0.00     0.014 C 
ATOM     28  C   UNL     1     148.149 137.350 146.311  1.00  0.00     0.016 C 
ATOM     29  C   UNL     1     147.801 134.792 148.088  1.00  0.00     0.063 C 
ATOM     30  C   UNL     1     148.522 136.869 149.388  1.00  0.00     0.033 C 
ATOM     31  C   UNL     1     148.212 135.361 149.457  1.00  0.00     0.118 C 
BRANCH  31  32
ATOM     32  O   UNL     1     147.243 135.083 150.440  1.00  0.00    -0.393 OA
ATOM     33  H   UNL     1     146.600 135.838 150.465  1.00  0.00     0.210 HD
ENDBRANCH  31  32
ENDBRANCH  10  12
ENDBRANCH   8  10
ENDBRANCH   1   8
TORSDOF 8
ENDMDL
MODEL 2
REMARK VINA RESULT:    -6.856      1.620      2.671
REMARK INTER + INTRA:         -10.096
REMARK INTER:                  -9.676
REMARK INTRA:                  -0.420
REMARK UNBOUND:                -0.434
REMARK SMILES C[C@H](CO)CCC(=O)[C@H](C)[C@H]1C(=O)C[C@H]2[C@H]3CC=C4C[C@H](O)CC[C@]4(C)[C@H]3CC[C@]12C
REMARK SMILES IDX 6 1 5 2 2 3 1 4 3 5 4 6 7 8 8 9 9 10 10 11 11 12 12 13 30 14
REMARK SMILES IDX 13 15 14 16 15 17 29 18 31 19 16 20 28 21 27 22 17 23 25 24
REMARK SMILES IDX 18 25 19 26 24 27 26 28 20 29 23 30 21 31 22 32
REMARK H PARENT 4 7 22 33
REMARK Flexibility Score: inf
ROOT
ATOM      1  C   UNL     1     139.291 140.956 146.013  1.00  0.00     0.076 C 
ENDROOT
BRANCH   1   2
ATOM      2  C   UNL     1     139.389 140.997 147.546  1.00  0.00     0.013 C 
BRANCH   2   3
ATOM      3  C   UNL     1     138.816 142.302 148.150  1.00  0.00     0.012 C 
ATOM      4  C   UNL     1     137.506 142.670 147.436  1.00  0.00     0.010 C 
BRANCH   3   5
ATOM      5  C   UNL     1     139.825 143.463 148.051  1.00  0.00     0.159 C 
BRANCH   5   6
ATOM      6  O   UNL     1     141.088 143.046 148.493  1.00  0.00    -0.396 OA
ATOM      7  H   UNL     1     141.623 143.873 148.622  1.00  0.00     0.210 HD
ENDBRANCH   5   6
ENDBRANCH   3   5
ENDBRANCH   2   3
ENDBRANCH   1   2
BRANCH   1   8
ATOM      8  C   UNL     1     139.217 139.531 145.517  1.00  0.00     0.136 C 
ATOM      9  O   UNL     1     138.642 138.698 146.203  1.00  0.00    -0.299 OA
BRANCH   8  10
ATOM     10  C   UNL     1     139.853 139.099 144.206  1.00  0.00     0.064 C 
ATOM     11  C   UNL     1     138.729 138.687 143.236  1.00  0.00     0.017 C 
BRANCH  10  12
ATOM     12  C   UNL     1     140.908 137.960 144.418  1.00  0.00     0.072 C 
ATOM     13  C   UNL     1     141.598 137.492 143.147  1.00  0.00     0.137 C 
ATOM     14  C   UNL     1     142.153 138.258 145.332  1.00  0.00    -0.019 C 
ATOM     15  O   UNL     1     141.050 137.384 142.063  1.00  0.00    -0.299 OA
ATOM     16  C   UNL     1     143.016 137.065 143.367  1.00  0.00     0.080 C 
ATOM     17  C   UNL     1     143.079 137.096 144.886  1.00  0.00     0.007 C 
ATOM     18  C   UNL     1     141.926 138.109 146.855  1.00  0.00     0.008 C 
ATOM     19  C   UNL     1     142.716 139.683 145.020  1.00  0.00     0.012 C 
ATOM     20  C   UNL     1     144.429 136.922 145.614  1.00  0.00     0.001 C 
ATOM     21  C   UNL     1     143.262 137.988 147.643  1.00  0.00     0.005 C 
ATOM     22  C   UNL     1     144.175 136.821 147.144  1.00  0.00     0.003 C 
ATOM     23  C   UNL     1     145.503 137.968 145.300  1.00  0.00     0.031 C 
ATOM     24  C   UNL     1     145.528 136.566 147.957  1.00  0.00    -0.008 C 
ATOM     25  C   UNL     1     146.772 137.626 146.006  1.00  0.00    -0.027 C 
ATOM     26  C   UNL     1     146.796 137.057 147.228  1.00  0.00    -0.065 C 
ATOM     27  C   UNL     1     145.686 135.021 148.140  1.00  0.00     0.014 C 
ATOM     28  C   UNL     1     145.469 137.226 149.361  1.00  0.00     0.016 C 
ATOM     29  C   UNL     1     148.144 136.686 147.820  1.00  0.00     0.063 C 
ATOM     30  C   UNL     1     147.035 134.580 148.746  1.00  0.00     0.033 C 
ATOM     31  C   UNL     1     148.252 135.162 148.000  1.00  0.00     0.118 C 
BRANCH  31  32
ATOM     32  O   UNL     1     148.456 134.513 146.768  1.00  0.00    -0.393 OA
ATOM     33  H   UNL     1     149.431 134.496 146.584  1.00  0.00     0.210 HD
ENDBRANCH  31  32
ENDBRANCH  10  12
ENDBRANCH   8  10
ENDBRANCH   1   8
TORSDOF 8
ENDMDL
MODEL 3
REMARK VINA RESULT:    -6.494      6.395     12.777
REMARK INTER + INTRA:          -9.586
REMARK INTER:                  -9.348
REMARK INTRA:                  -0.238
REMARK UNBOUND:                -0.434
REMARK SMILES C[C@H](CO)CCC(=O)[C@H](C)[C@H]1C(=O)C[C@H]2[C@H]3CC=C4C[C@H](O)CC[C@]4(C)[C@H]3CC[C@]12C
REMARK SMILES IDX 6 1 5 2 2 3 1 4 3 5 4 6 7 8 8 9 9 10 10 11 11 12 12 13 30 14
REMARK SMILES IDX 13 15 14 16 15 17 29 18 31 19 16 20 28 21 27 22 17 23 25 24
REMARK SMILES IDX 18 25 19 26 24 27 26 28 20 29 23 30 21 31 22 32
REMARK H PARENT 4 7 22 33
REMARK Flexibility Score: inf
ROOT
ATOM      1  C   UNL     1     138.503 141.283 145.970  1.00  0.00     0.076 C 
ENDROOT
BRANCH   1   2
ATOM      2  C   UNL     1     138.086 142.540 146.749  1.00  0.00     0.013 C 
BRANCH   2   3
ATOM      3  C   UNL     1     138.957 142.786 148.003  1.00  0.00     0.012 C 
ATOM      4  C   UNL     1     140.006 143.868 147.701  1.00  0.00     0.010 C 
BRANCH   3   5
ATOM      5  C   UNL     1     139.645 141.491 148.478  1.00  0.00     0.159 C 
BRANCH   5   6
ATOM      6  O   UNL     1     140.810 141.797 149.196  1.00  0.00    -0.396 OA
ATOM      7  H   UNL     1     141.569 141.491 148.635  1.00  0.00     0.210 HD
ENDBRANCH   5   6
ENDBRANCH   3   5
ENDBRANCH   2   3
ENDBRANCH   1   2
BRANCH   1   8
ATOM      8  C   UNL     1     138.978 141.645 144.581  1.00  0.00     0.136 C 
ATOM      9  O   UNL     1     140.162 141.898 144.411  1.00  0.00    -0.299 OA
BRANCH   8  10
ATOM     10  C   UNL     1     138.027 141.724 143.399  1.00  0.00     0.064 C 
ATOM     11  C   UNL     1     138.373 140.584 142.421  1.00  0.00     0.017 C 
BRANCH  10  12
ATOM     12  C   UNL     1     138.066 143.133 142.713  1.00  0.00     0.072 C 
ATOM     13  C   UNL     1     138.854 143.183 141.415  1.00  0.00     0.137 C 
ATOM     14  C   UNL     1     136.705 143.775 142.252  1.00  0.00    -0.019 C 
ATOM     15  O   UNL     1     139.888 142.569 141.211  1.00  0.00    -0.299 OA
ATOM     16  C   UNL     1     138.299 144.156 140.422  1.00  0.00     0.080 C 
ATOM     17  C   UNL     1     137.251 144.852 141.279  1.00  0.00     0.007 C 
ATOM     18  C   UNL     1     135.898 144.510 143.348  1.00  0.00     0.008 C 
ATOM     19  C   UNL     1     135.807 142.691 141.571  1.00  0.00     0.012 C 
ATOM     20  C   UNL     1     136.243 145.829 140.636  1.00  0.00     0.001 C 
ATOM     21  C   UNL     1     134.826 145.466 142.750  1.00  0.00     0.005 C 
ATOM     22  C   UNL     1     135.416 146.518 141.756  1.00  0.00     0.003 C 
ATOM     23  C   UNL     1     135.330 145.239 139.556  1.00  0.00     0.031 C 
ATOM     24  C   UNL     1     134.398 147.600 141.164  1.00  0.00    -0.008 C 
ATOM     25  C   UNL     1     134.474 146.312 138.971  1.00  0.00    -0.027 C 
ATOM     26  C   UNL     1     133.994 147.341 139.698  1.00  0.00    -0.065 C 
ATOM     27  C   UNL     1     135.115 148.989 141.192  1.00  0.00     0.014 C 
ATOM     28  C   UNL     1     133.112 147.690 142.030  1.00  0.00     0.016 C 
ATOM     29  C   UNL     1     133.192 148.412 138.982  1.00  0.00     0.063 C 
ATOM     30  C   UNL     1     134.345 150.125 140.485  1.00  0.00     0.033 C 
ATOM     31  C   UNL     1     133.922 149.765 139.047  1.00  0.00     0.118 C 
BRANCH  31  32
ATOM     32  O   UNL     1     135.020 149.799 138.167  1.00  0.00    -0.393 OA
ATOM     33  H   UNL     1     134.682 149.670 137.244  1.00  0.00     0.210 HD
ENDBRANCH  31  32
ENDBRANCH  10  12
ENDBRANCH   8  10
ENDBRANCH   1   8
TORSDOF 8
ENDMDL
MODEL 4
REMARK VINA RESULT:    -6.411      5.405      9.162
REMARK INTER + INTRA:          -9.469
REMARK INTER:                  -8.770
REMARK INTRA:                  -0.698
REMARK UNBOUND:                -0.434
REMARK SMILES C[C@H](CO)CCC(=O)[C@H](C)[C@H]1C(=O)C[C@H]2[C@H]3CC=C4C[C@H](O)CC[C@]4(C)[C@H]3CC[C@]12C
REMARK SMILES IDX 6 1 5 2 2 3 1 4 3 5 4 6 7 8 8 9 9 10 10 11 11 12 12 13 30 14
REMARK SMILES IDX 13 15 14 16 15 17 29 18 31 19 16 20 28 21 27 22 17 23 25 24
REMARK SMILES IDX 18 25 19 26 24 27 26 28 20 29 23 30 21 31 22 32
REMARK H PARENT 4 7 22 33
REMARK Flexibility Score: inf
ROOT
ATOM      1  C   UNL     1     135.011 147.281 141.176  1.00  0.00     0.076 C 
ENDROOT
BRANCH   1   2
ATOM      2  C   UNL     1     134.754 148.178 142.398  1.00  0.00     0.013 C 
BRANCH   2   3
ATOM      3  C   UNL     1     135.792 147.967 143.526  1.00  0.00     0.012 C 
ATOM      4  C   UNL     1     135.553 148.992 144.646  1.00  0.00     0.010 C 
BRANCH   3   5
ATOM      5  C   UNL     1     137.235 148.080 142.997  1.00  0.00     0.159 C 
BRANCH   5   6
ATOM      6  O   UNL     1     138.004 148.882 143.852  1.00  0.00    -0.396 OA
ATOM      7  H   UNL     1     137.421 149.641 144.117  1.00  0.00     0.210 HD
ENDBRANCH   5   6
ENDBRANCH   3   5
ENDBRANCH   2   3
ENDBRANCH   1   2
BRANCH   1   8
ATOM      8  C   UNL     1     134.141 146.046 141.224  1.00  0.00     0.136 C 
ATOM      9  O   UNL     1     133.231 145.998 142.038  1.00  0.00    -0.299 OA
BRANCH   8  10
ATOM     10  C   UNL     1     134.378 144.858 140.307  1.00  0.00     0.064 C 
ATOM     11  C   UNL     1     133.080 144.584 139.524  1.00  0.00     0.017 C 
BRANCH  10  12
ATOM     12  C   UNL     1     134.876 143.601 141.099  1.00  0.00     0.072 C 
ATOM     13  C   UNL     1     135.078 142.356 140.251  1.00  0.00     0.137 C 
ATOM     14  C   UNL     1     136.266 143.684 141.830  1.00  0.00    -0.019 C 
ATOM     15  O   UNL     1     134.359 142.031 139.321  1.00  0.00    -0.299 OA
ATOM     16  C   UNL     1     136.199 141.488 140.731  1.00  0.00     0.080 C 
ATOM     17  C   UNL     1     136.527 142.170 142.051  1.00  0.00     0.007 C 
ATOM     18  C   UNL     1     136.261 144.358 143.223  1.00  0.00     0.008 C 
ATOM     19  C   UNL     1     137.314 144.387 140.907  1.00  0.00     0.012 C 
ATOM     20  C   UNL     1     137.781 141.757 142.851  1.00  0.00     0.001 C 
ATOM     21  C   UNL     1     137.535 144.019 144.049  1.00  0.00     0.005 C 
ATOM     22  C   UNL     1     137.772 142.483 144.224  1.00  0.00     0.003 C 
ATOM     23  C   UNL     1     139.125 141.938 142.137  1.00  0.00     0.031 C 
ATOM     24  C   UNL     1     139.009 142.045 145.138  1.00  0.00    -0.008 C 
ATOM     25  C   UNL     1     140.231 141.422 142.993  1.00  0.00    -0.027 C 
ATOM     26  C   UNL     1     140.222 141.524 144.338  1.00  0.00    -0.065 C 
ATOM     27  C   UNL     1     138.533 140.866 146.047  1.00  0.00     0.014 C 
ATOM     28  C   UNL     1     139.474 143.214 146.048  1.00  0.00     0.016 C 
ATOM     29  C   UNL     1     141.368 140.900 145.113  1.00  0.00     0.063 C 
ATOM     30  C   UNL     1     139.652 140.193 146.867  1.00  0.00     0.033 C 
ATOM     31  C   UNL     1     140.855 139.758 146.007  1.00  0.00     0.118 C 
BRANCH  31  32
ATOM     32  O   UNL     1     140.554 138.610 145.250  1.00  0.00    -0.393 OA
ATOM     33  H   UNL     1     141.039 137.840 145.647  1.00  0.00     0.210 HD
ENDBRANCH  31  32
ENDBRANCH  10  12
ENDBRANCH   8  10
ENDBRANCH   1   8
TORSDOF 8
ENDMDL
MODEL 5
REMARK VINA RESULT:    -6.220      2.327      7.934
REMARK INTER + INTRA:          -9.199
REMARK INTER:                  -8.300
REMARK INTRA:                  -0.899
REMARK UNBOUND:                -0.434
REMARK SMILES C[C@H](CO)CCC(=O)[C@H](C)[C@H]1C(=O)C[C@H]2[C@H]3CC=C4C[C@H](O)CC[C@]4(C)[C@H]3CC[C@]12C
REMARK SMILES IDX 6 1 5 2 2 3 1 4 3 5 4 6 7 8 8 9 9 10 10 11 11 12 12 13 30 14
REMARK SMILES IDX 13 15 14 16 15 17 29 18 31 19 16 20 28 21 27 22 17 23 25 24
REMARK SMILES IDX 18 25 19 26 24 27 26 28 20 29 23 30 21 31 22 32
REMARK H PARENT 4 7 22 33
REMARK Flexibility Score: inf
ROOT
ATOM      1  C   UNL     1     146.072 136.636 149.302  1.00  0.00     0.076 C 
ENDROOT
BRANCH   1   2
ATOM      2  C   UNL     1     145.303 135.732 150.278  1.00  0.00     0.013 C 
BRANCH   2   3
ATOM      3  C   UNL     1     143.848 136.202 150.514  1.00  0.00     0.012 C 
ATOM      4  C   UNL     1     143.565 136.269 152.023  1.00  0.00     0.010 C 
BRANCH   3   5
ATOM      5  C   UNL     1     142.832 135.275 149.818  1.00  0.00     0.159 C 
BRANCH   5   6
ATOM      6  O   UNL     1     143.416 134.027 149.557  1.00  0.00    -0.396 OA
ATOM      7  H   UNL     1     144.327 134.215 149.212  1.00  0.00     0.210 HD
ENDBRANCH   5   6
ENDBRANCH   3   5
ENDBRANCH   2   3
ENDBRANCH   1   2
BRANCH   1   8
ATOM      8  C   UNL     1     146.088 136.037 147.914  1.00  0.00     0.136 C 
ATOM      9  O   UNL     1     145.633 134.914 147.752  1.00  0.00    -0.299 OA
BRANCH   8  10
ATOM     10  C   UNL     1     146.672 136.778 146.723  1.00  0.00     0.064 C 
ATOM     11  C   UNL     1     148.156 137.071 147.016  1.00  0.00     0.017 C 
BRANCH  10  12
ATOM     12  C   UNL     1     145.861 138.076 146.389  1.00  0.00     0.072 C 
ATOM     13  C   UNL     1     146.357 138.837 145.171  1.00  0.00     0.137 C 
ATOM     14  C   UNL     1     144.334 137.930 146.039  1.00  0.00    -0.019 C 
ATOM     15  O   UNL     1     147.532 138.967 144.869  1.00  0.00    -0.299 OA
ATOM     16  C   UNL     1     145.262 139.521 144.413  1.00  0.00     0.080 C 
ATOM     17  C   UNL     1     144.096 139.308 145.367  1.00  0.00     0.007 C 
ATOM     18  C   UNL     1     143.368 137.831 147.243  1.00  0.00     0.008 C 
ATOM     19  C   UNL     1     144.118 136.707 145.088  1.00  0.00     0.012 C 
ATOM     20  C   UNL     1     142.658 139.666 144.932  1.00  0.00     0.001 C 
ATOM     21  C   UNL     1     141.894 138.127 146.845  1.00  0.00     0.005 C 
ATOM     22  C   UNL     1     141.704 139.514 146.149  1.00  0.00     0.003 C 
ATOM     23  C   UNL     1     142.118 138.917 143.709  1.00  0.00     0.031 C 
ATOM     24  C   UNL     1     140.206 139.940 145.789  1.00  0.00    -0.008 C 
ATOM     25  C   UNL     1     140.760 139.424 143.359  1.00  0.00    -0.027 C 
ATOM     26  C   UNL     1     139.868 139.823 144.288  1.00  0.00    -0.065 C 
ATOM     27  C   UNL     1     140.037 141.447 146.170  1.00  0.00     0.014 C 
ATOM     28  C   UNL     1     139.177 139.107 146.600  1.00  0.00     0.016 C 
ATOM     29  C   UNL     1     138.542 140.389 143.812  1.00  0.00     0.063 C 
ATOM     30  C   UNL     1     138.703 142.079 145.720  1.00  0.00     0.033 C 
ATOM     31  C   UNL     1     138.408 141.865 144.222  1.00  0.00     0.118 C 
BRANCH  31  32
ATOM     32  O   UNL     1     139.211 142.696 143.419  1.00  0.00    -0.393 OA
ATOM     33  H   UNL     1     139.009 143.640 143.647  1.00  0.00     0.210 HD
ENDBRANCH  31  32
ENDBRANCH  10  12
ENDBRANCH   8  10
ENDBRANCH   1   8
TORSDOF 8
ENDMDL
MODEL 6
REMARK VINA RESULT:    -6.113      6.101      9.489
REMARK INTER + INTRA:          -9.049
REMARK INTER:                  -8.998
REMARK INTRA:                  -0.051
REMARK UNBOUND:                -0.434
REMARK SMILES C[C@H](CO)CCC(=O)[C@H](C)[C@H]1C(=O)C[C@H]2[C@H]3CC=C4C[C@H](O)CC[C@]4(C)[C@H]3CC[C@]12C
REMARK SMILES IDX 6 1 5 2 2 3 1 4 3 5 4 6 7 8 8 9 9 10 10 11 11 12 12 13 30 14
REMARK SMILES IDX 13 15 14 16 15 17 29 18 31 19 16 20 28 21 27 22 17 23 25 24
REMARK SMILES IDX 18 25 19 26 24 27 26 28 20 29 23 30 21 31 22 32
REMARK H PARENT 4 7 22 33
REMARK Flexibility Score: inf
ROOT
ATOM      1  C   UNL     1     150.197 138.643 138.294  1.00  0.00     0.076 C 
ENDROOT
BRANCH   1   2
ATOM      2  C   UNL     1     151.615 138.324 137.795  1.00  0.00     0.013 C 
BRANCH   2   3
ATOM      3  C   UNL     1     152.063 136.884 138.138  1.00  0.00     0.012 C 
ATOM      4  C   UNL     1     150.920 135.901 137.836  1.00  0.00     0.010 C 
BRANCH   3   5
ATOM      5  C   UNL     1     152.499 136.761 139.611  1.00  0.00     0.159 C 
BRANCH   5   6
ATOM      6  O   UNL     1     152.121 135.512 140.125  1.00  0.00    -0.396 OA
ATOM      7  H   UNL     1     151.226 135.316 139.745  1.00  0.00     0.210 HD
ENDBRANCH   5   6
ENDBRANCH   3   5
ENDBRANCH   2   3
ENDBRANCH   1   2
BRANCH   1   8
ATOM      8  C   UNL     1     150.118 140.056 138.824  1.00  0.00     0.136 C 
ATOM      9  O   UNL     1     150.700 140.945 138.219  1.00  0.00    -0.299 OA
BRANCH   8  10
ATOM     10  C   UNL     1     149.359 140.399 140.094  1.00  0.00     0.064 C 
ATOM     11  C   UNL     1     149.606 141.885 140.420  1.00  0.00     0.017 C 
BRANCH  10  12
ATOM     12  C   UNL     1     149.750 139.454 141.281  1.00  0.00     0.072 C 
ATOM     13  C   UNL     1     151.144 139.684 141.840  1.00  0.00     0.137 C 
ATOM     14  C   UNL     1     148.893 139.518 142.599  1.00  0.00    -0.019 C 
ATOM     15  O   UNL     1     152.121 139.967 141.166  1.00  0.00    -0.299 OA
ATOM     16  C   UNL     1     151.242 139.424 143.311  1.00  0.00     0.080 C 
ATOM     17  C   UNL     1     149.874 138.813 143.573  1.00  0.00     0.007 C 
ATOM     18  C   UNL     1     147.580 138.701 142.594  1.00  0.00     0.008 C 
ATOM     19  C   UNL     1     148.587 141.008 142.964  1.00  0.00     0.012 C 
ATOM     20  C   UNL     1     149.400 138.552 145.019  1.00  0.00     0.001 C 
ATOM     21  C   UNL     1     147.028 138.460 144.028  1.00  0.00     0.005 C 
ATOM     22  C   UNL     1     148.058 137.771 144.983  1.00  0.00     0.003 C 
ATOM     23  C   UNL     1     149.300 139.783 145.927  1.00  0.00     0.031 C 
ATOM     24  C   UNL     1     147.543 137.402 146.451  1.00  0.00    -0.008 C 
ATOM     25  C   UNL     1     148.914 139.368 147.306  1.00  0.00    -0.027 C 
ATOM     26  C   UNL     1     148.073 138.343 147.553  1.00  0.00    -0.065 C 
ATOM     27  C   UNL     1     148.073 135.971 146.793  1.00  0.00     0.014 C 
ATOM     28  C   UNL     1     145.992 137.382 146.512  1.00  0.00     0.016 C 
ATOM     29  C   UNL     1     147.808 137.965 148.998  1.00  0.00     0.063 C 
ATOM     30  C   UNL     1     147.826 135.524 148.249  1.00  0.00     0.033 C 
ATOM     31  C   UNL     1     148.326 136.546 149.288  1.00  0.00     0.118 C 
BRANCH  31  32
ATOM     32  O   UNL     1     149.730 136.524 149.393  1.00  0.00    -0.393 OA
ATOM     33  H   UNL     1     149.988 135.744 149.947  1.00  0.00     0.210 HD
ENDBRANCH  31  32
ENDBRANCH  10  12
ENDBRANCH   8  10
ENDBRANCH   1   8
TORSDOF 8
ENDMDL
MODEL 7
REMARK VINA RESULT:    -6.113      5.002      6.918
REMARK INTER + INTRA:          -9.048
REMARK INTER:                  -8.671
REMARK INTRA:                  -0.378
REMARK UNBOUND:                -0.434
REMARK SMILES C[C@H](CO)CCC(=O)[C@H](C)[C@H]1C(=O)C[C@H]2[C@H]3CC=C4C[C@H](O)CC[C@]4(C)[C@H]3CC[C@]12C
REMARK SMILES IDX 6 1 5 2 2 3 1 4 3 5 4 6 7 8 8 9 9 10 10 11 11 12 12 13 30 14
REMARK SMILES IDX 13 15 14 16 15 17 29 18 31 19 16 20 28 21 27 22 17 23 25 24
REMARK SMILES IDX 18 25 19 26 24 27 26 28 20 29 23 30 21 31 22 32
REMARK H PARENT 4 7 22 33
REMARK Flexibility Score: inf
ROOT
ATOM      1  C   UNL     1     147.201 141.126 139.333  1.00  0.00     0.076 C 
ENDROOT
BRANCH   1   2
ATOM      2  C   UNL     1     146.160 141.641 138.327  1.00  0.00     0.013 C 
BRANCH   2   3
ATOM      3  C   UNL     1     146.094 143.186 138.268  1.00  0.00     0.012 C 
ATOM      4  C   UNL     1     147.487 143.773 138.546  1.00  0.00     0.010 C 
BRANCH   3   5
ATOM      5  C   UNL     1     145.066 143.748 139.269  1.00  0.00     0.159 C 
BRANCH   5   6
ATOM      6  O   UNL     1     145.677 143.986 140.509  1.00  0.00    -0.396 OA
ATOM      7  H   UNL     1     145.543 144.950 140.703  1.00  0.00     0.210 HD
ENDBRANCH   5   6
ENDBRANCH   3   5
ENDBRANCH   2   3
ENDBRANCH   1   2
BRANCH   1   8
ATOM      8  C   UNL     1     146.530 140.619 140.589  1.00  0.00     0.136 C 
ATOM      9  O   UNL     1     145.466 140.026 140.489  1.00  0.00    -0.299 OA
BRANCH   8  10
ATOM     10  C   UNL     1     147.126 140.845 141.969  1.00  0.00     0.064 C 
ATOM     11  C   UNL     1     148.292 141.843 141.834  1.00  0.00     0.017 C 
BRANCH  10  12
ATOM     12  C   UNL     1     147.565 139.499 142.641  1.00  0.00     0.072 C 
ATOM     13  C   UNL     1     149.004 139.095 142.367  1.00  0.00     0.137 C 
ATOM     14  C   UNL     1     147.530 139.405 144.211  1.00  0.00    -0.019 C 
ATOM     15  O   UNL     1     149.576 139.259 141.303  1.00  0.00    -0.299 OA
ATOM     16  C   UNL     1     149.641 138.365 143.508  1.00  0.00     0.080 C 
ATOM     17  C   UNL     1     148.433 138.159 144.410  1.00  0.00     0.007 C 
ATOM     18  C   UNL     1     146.154 139.082 144.840  1.00  0.00     0.008 C 
ATOM     19  C   UNL     1     148.102 140.719 144.838  1.00  0.00     0.012 C 
ATOM     20  C   UNL     1     148.614 137.614 145.843  1.00  0.00     0.001 C 
ATOM     21  C   UNL     1     146.277 138.583 146.308  1.00  0.00     0.005 C 
ATOM     22  C   UNL     1     147.216 137.342 146.465  1.00  0.00     0.003 C 
ATOM     23  C   UNL     1     149.483 138.459 146.780  1.00  0.00     0.031 C 
ATOM     24  C   UNL     1     147.329 136.705 147.928  1.00  0.00    -0.008 C 
ATOM     25  C   UNL     1     149.635 137.770 148.094  1.00  0.00    -0.027 C 
ATOM     26  C   UNL     1     148.652 137.034 148.651  1.00  0.00    -0.065 C 
ATOM     27  C   UNL     1     147.279 135.150 147.772  1.00  0.00     0.014 C 
ATOM     28  C   UNL     1     146.143 137.151 148.825  1.00  0.00     0.016 C 
ATOM     29  C   UNL     1     148.943 136.319 149.958  1.00  0.00     0.063 C 
ATOM     30  C   UNL     1     147.560 134.364 149.070  1.00  0.00     0.033 C 
ATOM     31  C   UNL     1     148.866 134.794 149.766  1.00  0.00     0.118 C 
BRANCH  31  32
ATOM     32  O   UNL     1     149.996 134.306 149.083  1.00  0.00    -0.393 OA
ATOM     33  H   UNL     1     149.685 133.826 148.272  1.00  0.00     0.210 HD
ENDBRANCH  31  32
ENDBRANCH  10  12
ENDBRANCH   8  10
ENDBRANCH   1   8
TORSDOF 8
ENDMDL
MODEL 8
REMARK VINA RESULT:    -6.092      4.669      7.667
REMARK INTER + INTRA:          -9.018
REMARK INTER:                  -8.275
REMARK INTRA:                  -0.743
REMARK UNBOUND:                -0.434
REMARK SMILES C[C@H](CO)CCC(=O)[C@H](C)[C@H]1C(=O)C[C@H]2[C@H]3CC=C4C[C@H](O)CC[C@]4(C)[C@H]3CC[C@]12C
REMARK SMILES IDX 6 1 5 2 2 3 1 4 3 5 4 6 7 8 8 9 9 10 10 11 11 12 12 13 30 14
REMARK SMILES IDX 13 15 14 16 15 17 29 18 31 19 16 20 28 21 27 22 17 23 25 24
REMARK SMILES IDX 18 25 19 26 24 27 26 28 20 29 23 30 21 31 22 32
REMARK H PARENT 4 7 22 33
REMARK Flexibility Score: inf
ROOT
ATOM      1  C   UNL     1     144.245 133.849 150.235  1.00  0.00     0.076 C 
ENDROOT
BRANCH   1   2
ATOM      2  C   UNL     1     144.021 133.738 148.719  1.00  0.00     0.013 C 
BRANCH   2   3
ATOM      3  C   UNL     1     142.940 134.715 148.199  1.00  0.00     0.012 C 
ATOM      4  C   UNL     1     141.750 134.734 149.171  1.00  0.00     0.010 C 
BRANCH   3   5
ATOM      5  C   UNL     1     142.468 134.336 146.782  1.00  0.00     0.159 C 
BRANCH   5   6
ATOM      6  O   UNL     1     143.397 134.775 145.828  1.00  0.00    -0.396 OA
ATOM      7  H   UNL     1     144.127 135.215 146.335  1.00  0.00     0.210 HD
ENDBRANCH   5   6
ENDBRANCH   3   5
ENDBRANCH   2   3
ENDBRANCH   1   2
BRANCH   1   8
ATOM      8  C   UNL     1     145.133 135.027 150.563  1.00  0.00     0.136 C 
ATOM      9  O   UNL     1     144.614 136.069 150.938  1.00  0.00    -0.299 OA
BRANCH   8  10
ATOM     10  C   UNL     1     146.644 134.963 150.418  1.00  0.00     0.064 C 
ATOM     11  C   UNL     1     147.255 134.743 151.815  1.00  0.00     0.017 C 
BRANCH  10  12
ATOM     12  C   UNL     1     147.216 136.237 149.709  1.00  0.00     0.072 C 
ATOM     13  C   UNL     1     148.705 136.462 149.915  1.00  0.00     0.137 C 
ATOM     14  C   UNL     1     147.124 136.322 148.140  1.00  0.00    -0.019 C 
ATOM     15  O   UNL     1     149.299 136.238 150.956  1.00  0.00    -0.299 OA
ATOM     16  C   UNL     1     149.377 137.098 148.738  1.00  0.00     0.080 C 
ATOM     17  C   UNL     1     148.165 137.444 147.886  1.00  0.00     0.007 C 
ATOM     18  C   UNL     1     145.772 136.808 147.566  1.00  0.00     0.008 C 
ATOM     19  C   UNL     1     147.501 134.942 147.508  1.00  0.00     0.012 C 
ATOM     20  C   UNL     1     148.349 137.950 146.439  1.00  0.00     0.001 C 
ATOM     21  C   UNL     1     145.892 137.276 146.088  1.00  0.00     0.005 C 
ATOM     22  C   UNL     1     146.970 138.388 145.873  1.00  0.00     0.003 C 
ATOM     23  C   UNL     1     149.064 136.996 145.477  1.00  0.00     0.031 C 
ATOM     24  C   UNL     1     147.096 138.994 144.398  1.00  0.00    -0.008 C 
ATOM     25  C   UNL     1     149.243 137.649 144.148  1.00  0.00    -0.027 C 
ATOM     26  C   UNL     1     148.335 138.496 143.623  1.00  0.00    -0.065 C 
ATOM     27  C   UNL     1     147.246 140.544 144.534  1.00  0.00     0.014 C 
ATOM     28  C   UNL     1     145.825 138.691 143.559  1.00  0.00     0.016 C 
ATOM     29  C   UNL     1     148.655 139.159 142.296  1.00  0.00     0.063 C 
ATOM     30  C   UNL     1     147.565 141.278 143.215  1.00  0.00     0.033 C 
ATOM     31  C   UNL     1     148.776 140.682 142.469  1.00  0.00     0.118 C 
BRANCH  31  32
ATOM     32  O   UNL     1     149.986 141.033 143.097  1.00  0.00    -0.393 OA
ATOM     33  H   UNL     1     150.734 140.689 142.543  1.00  0.00     0.210 HD
ENDBRANCH  31  32
ENDBRANCH  10  12
ENDBRANCH   8  10
ENDBRANCH   1   8
TORSDOF 8
ENDMDL
MODEL 9
REMARK VINA RESULT:    -6.065      4.463      7.188
REMARK INTER + INTRA:          -8.981
REMARK INTER:                  -8.570
REMARK INTRA:                  -0.410
REMARK UNBOUND:                -0.434
REMARK SMILES C[C@H](CO)CCC(=O)[C@H](C)[C@H]1C(=O)C[C@H]2[C@H]3CC=C4C[C@H](O)CC[C@]4(C)[C@H]3CC[C@]12C
REMARK SMILES IDX 6 1 5 2 2 3 1 4 3 5 4 6 7 8 8 9 9 10 10 11 11 12 12 13 30 14
REMARK SMILES IDX 13 15 14 16 15 17 29 18 31 19 16 20 28 21 27 22 17 23 25 24
REMARK SMILES IDX 18 25 19 26 24 27 26 28 20 29 23 30 21 31 22 32
REMARK H PARENT 4 7 22 33
REMARK Flexibility Score: inf
ROOT
ATOM      1  C   UNL     1     147.582 140.574 140.574  1.00  0.00     0.076 C 
ENDROOT
BRANCH   1   2
ATOM      2  C   UNL     1     146.942 141.583 141.540  1.00  0.00     0.013 C 
BRANCH   2   3
ATOM      3  C   UNL     1     146.801 142.996 140.926  1.00  0.00     0.012 C 
ATOM      4  C   UNL     1     146.253 142.885 139.494  1.00  0.00     0.010 C 
BRANCH   3   5
ATOM      5  C   UNL     1     148.144 143.752 140.928  1.00  0.00     0.159 C 
BRANCH   5   6
ATOM      6  O   UNL     1     148.068 144.872 141.767  1.00  0.00    -0.396 OA
ATOM      7  H   UNL     1     147.795 145.632 141.190  1.00  0.00     0.210 HD
ENDBRANCH   5   6
ENDBRANCH   3   5
ENDBRANCH   2   3
ENDBRANCH   1   2
BRANCH   1   8
ATOM      8  C   UNL     1     148.887 140.051 141.130  1.00  0.00     0.136 C 
ATOM      9  O   UNL     1     149.681 139.519 140.368  1.00  0.00    -0.299 OA
BRANCH   8  10
ATOM     10  C   UNL     1     149.229 140.146 142.607  1.00  0.00     0.064 C 
ATOM     11  C   UNL     1     150.730 140.470 142.736  1.00  0.00     0.017 C 
BRANCH  10  12
ATOM     12  C   UNL     1     148.830 138.844 143.383  1.00  0.00     0.072 C 
ATOM     13  C   UNL     1     150.000 138.069 143.963  1.00  0.00     0.137 C 
ATOM     14  C   UNL     1     147.916 138.987 144.656  1.00  0.00    -0.019 C 
ATOM     15  O   UNL     1     151.081 137.935 143.413  1.00  0.00    -0.299 OA
ATOM     16  C   UNL     1     149.673 137.377 145.250  1.00  0.00     0.080 C 
ATOM     17  C   UNL     1     148.169 137.601 145.306  1.00  0.00     0.007 C 
ATOM     18  C   UNL     1     146.396 139.100 144.390  1.00  0.00     0.008 C 
ATOM     19  C   UNL     1     148.392 140.199 145.522  1.00  0.00     0.012 C 
ATOM     20  C   UNL     1     147.374 137.239 146.578  1.00  0.00     0.001 C 
ATOM     21  C   UNL     1     145.549 138.800 145.659  1.00  0.00     0.005 C 
ATOM     22  C   UNL     1     145.855 137.405 146.296  1.00  0.00     0.003 C 
ATOM     23  C   UNL     1     147.782 137.973 147.860  1.00  0.00     0.031 C 
ATOM     24  C   UNL     1     144.965 136.976 147.552  1.00  0.00    -0.008 C 
ATOM     25  C   UNL     1     146.990 137.463 149.015  1.00  0.00    -0.027 C 
ATOM     26  C   UNL     1     145.703 137.075 148.904  1.00  0.00    -0.065 C 
ATOM     27  C   UNL     1     144.574 135.473 147.365  1.00  0.00     0.014 C 
ATOM     28  C   UNL     1     143.663 137.818 147.629  1.00  0.00     0.016 C 
ATOM     29  C   UNL     1     145.017 136.504 150.131  1.00  0.00     0.063 C 
ATOM     30  C   UNL     1     143.865 134.836 148.578  1.00  0.00     0.033 C 
ATOM     31  C   UNL     1     144.634 135.032 149.899  1.00  0.00     0.118 C 
BRANCH  31  32
ATOM     32  O   UNL     1     145.761 134.192 149.965  1.00  0.00    -0.393 OA
ATOM     33  H   UNL     1     146.000 133.920 149.042  1.00  0.00     0.210 HD
ENDBRANCH  31  32
ENDBRANCH  10  12
ENDBRANCH   8  10
ENDBRANCH   1   8
TORSDOF 8
ENDMDL
