MODEL 1
REMARK VINA RESULT:     0.775      0.000      0.000
REMARK INTER + INTRA:           3.038
REMARK INTER:                   1.138
REMARK INTRA:                   1.900
REMARK UNBOUND:                 1.900
REMARK SMILES Cc1cc2c(C(C)C)c(O)c(O)c(C=O)c2c(O)c1-c1c(C)cc2c(C(C)C)c(O)c(O)c(C=O)c2c1O
REMARK SMILES IDX 1 1 2 2 3 3 4 4 16 5 13 6 11 7 9 8 5 9 17 10 19 11 20 12
REMARK SMILES IDX 37 13 21 14 36 15 23 16 22 17 24 18 33 19 25 20 31 21 29 22
REMARK SMILES IDX 38 23 34 25 35 26 26 27 27 28 28 29 32 30 30 32 18 34 6 36
REMARK SMILES IDX 7 37 8 38 14 39 15 40 10 41 12 43
REMARK H PARENT 38 24 32 31 30 33 18 35 10 42 12 44
REMARK Flexibility Score: inf
ROOT
ATOM      1  C   UNL     1      -6.153  -0.132  -2.987  1.00  0.00     0.045 C 
ATOM      2  C   UNL     1      -6.584   1.123  -3.710  1.00  0.00    -0.039 A 
ATOM      3  C   UNL     1      -6.881   2.270  -2.973  1.00  0.00     0.013 A 
ATOM      4  C   UNL     1      -7.320   3.461  -3.590  1.00  0.00    -0.006 A 
ATOM      5  C   UNL     1      -7.358   3.524  -5.017  1.00  0.00     0.039 A 
ATOM      6  C   UNL     1      -7.667   4.770  -5.643  1.00  0.00     0.072 A 
ATOM      7  C   UNL     1      -7.865   5.922  -4.857  1.00  0.00     0.169 A 
ATOM      8  C   UNL     1      -7.836   5.844  -3.462  1.00  0.00     0.162 A 
ATOM      9  C   UNL     1      -7.684   4.602  -2.809  1.00  0.00     0.008 A 
ATOM     10  C   UNL     1      -7.048   2.347  -5.767  1.00  0.00     0.132 A 
ATOM     11  C   UNL     1      -6.681   1.154  -5.109  1.00  0.00     0.031 A 
ENDROOT
BRANCH  11  12
ATOM     12  C   UNL     1      -6.366  -0.069  -5.895  1.00  0.00     0.031 A 
ATOM     13  C   UNL     1      -5.352  -0.042  -6.874  1.00  0.00     0.132 A 
ATOM     14  C   UNL     1      -7.079  -1.253  -5.655  1.00  0.00    -0.039 A 
ATOM     15  C   UNL     1      -5.034  -1.218  -7.621  1.00  0.00     0.039 A 
ATOM     16  C   UNL     1      -6.817  -2.383  -6.432  1.00  0.00     0.013 A 
ATOM     17  C   UNL     1      -8.125  -1.327  -4.569  1.00  0.00     0.045 C 
ATOM     18  C   UNL     1      -5.849  -2.381  -7.456  1.00  0.00    -0.006 A 
ATOM     19  C   UNL     1      -3.941  -1.264  -8.538  1.00  0.00     0.072 A 
ATOM     20  C   UNL     1      -5.669  -3.514  -8.312  1.00  0.00     0.008 A 
ATOM     21  C   UNL     1      -3.698  -2.434  -9.283  1.00  0.00     0.169 A 
ATOM     22  C   UNL     1      -4.559  -3.531  -9.186  1.00  0.00     0.162 A 
BRANCH  13  23
ATOM     23  O   UNL     1      -4.678   1.161  -7.122  1.00  0.00    -0.507 OA
ATOM     24  H   UNL     1      -4.369   1.796  -6.399  1.00  0.00     0.293 HD
ENDBRANCH  13  23
BRANCH  19  25
ATOM     25  C   UNL     1      -2.993  -0.139  -8.681  1.00  0.00     0.264 C 
ATOM     26  O   UNL     1      -1.931  -0.105  -8.005  1.00  0.00    -0.298 OA
ENDBRANCH  19  25
BRANCH  20  27
ATOM     27  C   UNL     1      -6.620  -4.727  -8.350  1.00  0.00     0.017 C 
ATOM     28  C   UNL     1      -7.353  -4.847  -9.692  1.00  0.00     0.012 C 
ATOM     29  C   UNL     1      -5.982  -6.053  -7.887  1.00  0.00     0.012 C 
ENDBRANCH  20  27
BRANCH  21  30
ATOM     30  O   UNL     1      -2.585  -2.550 -10.125  1.00  0.00    -0.504 OA
ATOM     31  H   UNL     1      -1.914  -3.307 -10.079  1.00  0.00     0.293 HD
ENDBRANCH  21  30
BRANCH  22  32
ATOM     32  O   UNL     1      -4.301  -4.669  -9.958  1.00  0.00    -0.504 OA
ATOM     33  H   UNL     1      -3.367  -4.960 -10.221  1.00  0.00     0.293 HD
ENDBRANCH  22  32
ENDBRANCH  11  12
BRANCH  10  34
ATOM     34  O   UNL     1      -7.094   2.364  -7.167  1.00  0.00    -0.507 OA
ATOM     35  H   UNL     1      -6.488   2.930  -7.746  1.00  0.00     0.293 HD
ENDBRANCH  10  34
BRANCH   9  36
ATOM     36  C   UNL     1      -7.893   4.511  -1.287  1.00  0.00     0.017 C 
ATOM     37  C   UNL     1      -8.073   3.055  -0.846  1.00  0.00     0.012 C 
ATOM     38  C   UNL     1      -6.797   5.214  -0.465  1.00  0.00     0.012 C 
ENDBRANCH   9  36
BRANCH   6  39
ATOM     39  C   UNL     1      -7.773   4.904  -7.110  1.00  0.00     0.264 C 
ATOM     40  O   UNL     1      -7.280   5.903  -7.698  1.00  0.00    -0.298 OA
ENDBRANCH   6  39
BRANCH   8  41
ATOM     41  O   UNL     1      -7.963   7.014  -2.709  1.00  0.00    -0.504 OA
ATOM     42  H   UNL     1      -8.268   7.019  -1.742  1.00  0.00     0.293 HD
ENDBRANCH   8  41
BRANCH   7  43
ATOM     43  O   UNL     1      -8.125   7.171  -5.436  1.00  0.00    -0.504 OA
ATOM     44  H   UNL     1      -8.977   7.401  -5.929  1.00  0.00     0.293 HD
ENDBRANCH   7  43
TORSDOF 11
ENDMDL
MODEL 2
REMARK VINA RESULT:     1.041      4.719      9.369
REMARK INTER + INTRA:           3.428
REMARK INTER:                   1.750
REMARK INTRA:                   1.678
REMARK UNBOUND:                 1.900
REMARK SMILES Cc1cc2c(C(C)C)c(O)c(O)c(C=O)c2c(O)c1-c1c(C)cc2c(C(C)C)c(O)c(O)c(C=O)c2c1O
REMARK SMILES IDX 1 1 2 2 3 3 4 4 16 5 13 6 11 7 9 8 5 9 17 10 19 11 20 12
REMARK SMILES IDX 37 13 21 14 36 15 23 16 22 17 24 18 33 19 25 20 31 21 29 22
REMARK SMILES IDX 38 23 34 25 35 26 26 27 27 28 28 29 32 30 30 32 18 34 6 36
REMARK SMILES IDX 7 37 8 38 14 39 15 40 10 41 12 43
REMARK H PARENT 38 24 32 31 30 33 18 35 10 42 12 44
REMARK Flexibility Score: inf
ROOT
ATOM      1  C   UNL     1      -7.679  -3.097  -5.965  1.00  0.00     0.045 C 
ATOM      2  C   UNL     1      -7.218  -4.315  -6.732  1.00  0.00    -0.039 A 
ATOM      3  C   UNL     1      -7.603  -5.583  -6.297  1.00  0.00     0.013 A 
ATOM      4  C   UNL     1      -7.177  -6.759  -6.953  1.00  0.00    -0.006 A 
ATOM      5  C   UNL     1      -6.418  -6.638  -8.159  1.00  0.00     0.039 A 
ATOM      6  C   UNL     1      -6.106  -7.820  -8.897  1.00  0.00     0.072 A 
ATOM      7  C   UNL     1      -6.599  -9.068  -8.467  1.00  0.00     0.169 A 
ATOM      8  C   UNL     1      -7.330  -9.173  -7.281  1.00  0.00     0.162 A 
ATOM      9  C   UNL     1      -7.527  -8.050  -6.450  1.00  0.00     0.008 A 
ATOM     10  C   UNL     1      -6.031  -5.335  -8.602  1.00  0.00     0.132 A 
ATOM     11  C   UNL     1      -6.419  -4.188  -7.878  1.00  0.00     0.031 A 
ENDROOT
BRANCH  11  12
ATOM     12  C   UNL     1      -6.007  -2.835  -8.340  1.00  0.00     0.031 A 
ATOM     13  C   UNL     1      -4.782  -2.282  -7.913  1.00  0.00     0.132 A 
ATOM     14  C   UNL     1      -6.840  -2.111  -9.207  1.00  0.00    -0.039 A 
ATOM     15  C   UNL     1      -4.373  -0.990  -8.366  1.00  0.00     0.039 A 
ATOM     16  C   UNL     1      -6.473  -0.821  -9.594  1.00  0.00     0.013 A 
ATOM     17  C   UNL     1      -8.125  -2.705  -9.730  1.00  0.00     0.045 C 
ATOM     18  C   UNL     1      -5.283  -0.213  -9.147  1.00  0.00    -0.006 A 
ATOM     19  C   UNL     1      -3.092  -0.444  -8.050  1.00  0.00     0.072 A 
ATOM     20  C   UNL     1      -4.977   1.148  -9.468  1.00  0.00     0.008 A 
ATOM     21  C   UNL     1      -2.755   0.853  -8.483  1.00  0.00     0.169 A 
ATOM     22  C   UNL     1      -3.689   1.641  -9.161  1.00  0.00     0.162 A 
BRANCH  13  23
ATOM     23  O   UNL     1      -3.984  -3.007  -7.019  1.00  0.00    -0.507 OA
ATOM     24  H   UNL     1      -2.986  -2.877  -6.917  1.00  0.00     0.293 HD
ENDBRANCH  13  23
BRANCH  19  25
ATOM     25  C   UNL     1      -2.061  -1.230  -7.340  1.00  0.00     0.264 C 
ATOM     26  O   UNL     1      -0.840  -0.952  -7.471  1.00  0.00    -0.298 OA
ENDBRANCH  19  25
BRANCH  20  27
ATOM     27  C   UNL     1      -5.972   2.126 -10.124  1.00  0.00     0.017 C 
ATOM     28  C   UNL     1      -7.429   1.682  -9.938  1.00  0.00     0.012 C 
ATOM     29  C   UNL     1      -5.739   3.609  -9.768  1.00  0.00     0.012 C 
ENDBRANCH  20  27
BRANCH  21  30
ATOM     30  O   UNL     1      -1.479   1.389  -8.271  1.00  0.00    -0.504 OA
ATOM     31  H   UNL     1      -0.888   1.757  -9.006  1.00  0.00     0.293 HD
ENDBRANCH  21  30
BRANCH  22  32
ATOM     32  O   UNL     1      -3.329   2.935  -9.557  1.00  0.00    -0.504 OA
ATOM     33  H   UNL     1      -2.637   3.490  -9.070  1.00  0.00     0.293 HD
ENDBRANCH  22  32
ENDBRANCH  11  12
BRANCH  10  34
ATOM     34  O   UNL     1      -5.270  -5.177  -9.767  1.00  0.00    -0.507 OA
ATOM     35  H   UNL     1      -4.996  -5.940 -10.372  1.00  0.00     0.293 HD
ENDBRANCH  10  34
BRANCH   9  36
ATOM     36  C   UNL     1      -8.124  -8.238  -5.044  1.00  0.00     0.017 C 
ATOM     37  C   UNL     1      -7.491  -9.440  -4.337  1.00  0.00     0.012 C 
ATOM     38  C   UNL     1      -8.059  -6.974  -4.166  1.00  0.00     0.012 C 
ENDBRANCH   9  36
BRANCH   6  39
ATOM     39  C   UNL     1      -5.286  -7.783 -10.125  1.00  0.00     0.264 C 
ATOM     40  O   UNL     1      -4.041  -7.967 -10.067  1.00  0.00    -0.298 OA
ENDBRANCH   6  39
BRANCH   8  41
ATOM     41  O   UNL     1      -7.869 -10.410  -6.917  1.00  0.00    -0.504 OA
ATOM     42  H   UNL     1      -8.701 -10.798  -7.345  1.00  0.00     0.293 HD
ENDBRANCH   8  41
BRANCH   7  43
ATOM     43  O   UNL     1      -6.353 -10.243  -9.189  1.00  0.00    -0.504 OA
ATOM     44  H   UNL     1      -6.677 -10.407 -10.134  1.00  0.00     0.293 HD
ENDBRANCH   7  43
TORSDOF 11
ENDMDL
MODEL 3
REMARK VINA RESULT:     2.309      3.208      4.731
REMARK INTER + INTRA:           5.288
REMARK INTER:                   1.555
REMARK INTRA:                   3.733
REMARK UNBOUND:                 1.900
REMARK SMILES Cc1cc2c(C(C)C)c(O)c(O)c(C=O)c2c(O)c1-c1c(C)cc2c(C(C)C)c(O)c(O)c(C=O)c2c1O
REMARK SMILES IDX 1 1 2 2 3 3 4 4 16 5 13 6 11 7 9 8 5 9 17 10 19 11 20 12
REMARK SMILES IDX 37 13 21 14 36 15 23 16 22 17 24 18 33 19 25 20 31 21 29 22
REMARK SMILES IDX 38 23 34 25 35 26 26 27 27 28 28 29 32 30 30 32 18 34 6 36
REMARK SMILES IDX 7 37 8 38 14 39 15 40 10 41 12 43
REMARK H PARENT 38 24 32 31 30 33 18 35 10 42 12 44
REMARK Flexibility Score: inf
ROOT
ATOM      1  C   UNL     1      -3.193   1.118 -10.054  1.00  0.00     0.045 C 
ATOM      2  C   UNL     1      -4.158   2.098  -9.429  1.00  0.00    -0.039 A 
ATOM      3  C   UNL     1      -3.922   3.467  -9.556  1.00  0.00     0.013 A 
ATOM      4  C   UNL     1      -4.770   4.430  -8.967  1.00  0.00    -0.006 A 
ATOM      5  C   UNL     1      -5.962   3.988  -8.312  1.00  0.00     0.039 A 
ATOM      6  C   UNL     1      -6.889   4.966  -7.838  1.00  0.00     0.072 A 
ATOM      7  C   UNL     1      -6.651   6.334  -8.076  1.00  0.00     0.169 A 
ATOM      8  C   UNL     1      -5.476   6.752  -8.708  1.00  0.00     0.162 A 
ATOM      9  C   UNL     1      -4.471   5.824  -9.053  1.00  0.00     0.008 A 
ATOM     10  C   UNL     1      -6.201   2.584  -8.189  1.00  0.00     0.132 A 
ATOM     11  C   UNL     1      -5.292   1.652  -8.733  1.00  0.00     0.031 A 
ENDROOT
BRANCH  11  12
ATOM     12  C   UNL     1      -5.542   0.193  -8.596  1.00  0.00     0.031 A 
ATOM     13  C   UNL     1      -4.612  -0.626  -7.922  1.00  0.00     0.132 A 
ATOM     14  C   UNL     1      -6.710  -0.368  -9.133  1.00  0.00    -0.039 A 
ATOM     15  C   UNL     1      -4.854  -2.027  -7.773  1.00  0.00     0.039 A 
ATOM     16  C   UNL     1      -6.914  -1.746  -9.048  1.00  0.00     0.013 A 
ATOM     17  C   UNL     1      -7.753   0.496  -9.801  1.00  0.00     0.045 C 
ATOM     18  C   UNL     1      -5.983  -2.605  -8.431  1.00  0.00    -0.006 A 
ATOM     19  C   UNL     1      -3.996  -2.869  -7.003  1.00  0.00     0.072 A 
ATOM     20  C   UNL     1      -6.157  -4.026  -8.448  1.00  0.00     0.008 A 
ATOM     21  C   UNL     1      -4.254  -4.251  -6.924  1.00  0.00     0.169 A 
ATOM     22  C   UNL     1      -5.304  -4.821  -7.651  1.00  0.00     0.162 A 
BRANCH  13  23
ATOM     23  O   UNL     1      -3.435  -0.052  -7.426  1.00  0.00    -0.507 OA
ATOM     24  H   UNL     1      -3.384   0.488  -6.573  1.00  0.00     0.293 HD
ENDBRANCH  13  23
BRANCH  19  25
ATOM     25  C   UNL     1      -2.874  -2.324  -6.209  1.00  0.00     0.264 C 
ATOM     26  O   UNL     1      -1.785  -2.019  -6.762  1.00  0.00    -0.298 OA
ENDBRANCH  19  25
BRANCH  20  27
ATOM     27  C   UNL     1      -7.220  -4.756  -9.294  1.00  0.00     0.017 C 
ATOM     28  C   UNL     1      -8.006  -5.786  -8.474  1.00  0.00     0.012 C 
ATOM     29  C   UNL     1      -8.125  -3.823 -10.125  1.00  0.00     0.012 C 
ENDBRANCH  20  27
BRANCH  21  30
ATOM     30  O   UNL     1      -3.491  -5.095  -6.108  1.00  0.00    -0.504 OA
ATOM     31  H   UNL     1      -2.483  -5.047  -6.024  1.00  0.00     0.293 HD
ENDBRANCH  21  30
BRANCH  22  32
ATOM     32  O   UNL     1      -5.518  -6.202  -7.568  1.00  0.00    -0.504 OA
ATOM     33  H   UNL     1      -6.342  -6.658  -7.939  1.00  0.00     0.293 HD
ENDBRANCH  22  32
ENDBRANCH  11  12
BRANCH  10  34
ATOM     34  O   UNL     1      -7.347   2.113  -7.537  1.00  0.00    -0.507 OA
ATOM     35  H   UNL     1      -7.840   1.269  -7.797  1.00  0.00     0.293 HD
ENDBRANCH  10  34
BRANCH   9  36
ATOM     36  C   UNL     1      -3.096   6.332  -9.525  1.00  0.00     0.017 C 
ATOM     37  C   UNL     1      -3.043   7.862  -9.507  1.00  0.00     0.012 C 
ATOM     38  C   UNL     1      -1.909   5.721  -8.756  1.00  0.00     0.012 C 
ENDBRANCH   9  36
BRANCH   6  39
ATOM     39  C   UNL     1      -8.118   4.591  -7.110  1.00  0.00     0.264 C 
ATOM     40  O   UNL     1      -8.071   4.301  -5.885  1.00  0.00    -0.298 OA
ENDBRANCH   6  39
BRANCH   8  41
ATOM     41  O   UNL     1      -5.300   8.108  -8.995  1.00  0.00    -0.504 OA
ATOM     42  H   UNL     1      -5.881   8.837  -8.598  1.00  0.00     0.293 HD
ENDBRANCH   8  41
BRANCH   7  43
ATOM     43  O   UNL     1      -7.559   7.319  -7.667  1.00  0.00    -0.504 OA
ATOM     44  H   UNL     1      -7.342   8.050  -7.002  1.00  0.00     0.293 HD
ENDBRANCH   7  43
TORSDOF 11
ENDMDL
MODEL 4
REMARK VINA RESULT:     2.793     11.018     14.340
REMARK INTER + INTRA:           5.999
REMARK INTER:                   2.863
REMARK INTRA:                   3.137
REMARK UNBOUND:                 1.900
REMARK SMILES Cc1cc2c(C(C)C)c(O)c(O)c(C=O)c2c(O)c1-c1c(C)cc2c(C(C)C)c(O)c(O)c(C=O)c2c1O
REMARK SMILES IDX 1 1 2 2 3 3 4 4 16 5 13 6 11 7 9 8 5 9 17 10 19 11 20 12
REMARK SMILES IDX 37 13 21 14 36 15 23 16 22 17 24 18 33 19 25 20 31 21 29 22
REMARK SMILES IDX 38 23 34 25 35 26 26 27 27 28 28 29 32 30 30 32 18 34 6 36
REMARK SMILES IDX 7 37 8 38 14 39 15 40 10 41 12 43
REMARK H PARENT 38 24 32 31 30 33 18 35 10 42 12 44
REMARK Flexibility Score: inf
ROOT
ATOM      1  C   UNL     1      -2.540  -0.328   7.742  1.00  0.00     0.045 C 
ATOM      2  C   UNL     1      -3.507   0.726   8.231  1.00  0.00    -0.039 A 
ATOM      3  C   UNL     1      -3.018   1.967   8.640  1.00  0.00     0.013 A 
ATOM      4  C   UNL     1      -3.869   2.978   9.136  1.00  0.00    -0.006 A 
ATOM      5  C   UNL     1      -5.281   2.760   9.118  1.00  0.00     0.039 A 
ATOM      6  C   UNL     1      -6.148   3.833   9.489  1.00  0.00     0.072 A 
ATOM      7  C   UNL     1      -5.609   5.096   9.801  1.00  0.00     0.169 A 
ATOM      8  C   UNL     1      -4.225   5.292   9.826  1.00  0.00     0.162 A 
ATOM      9  C   UNL     1      -3.338   4.216   9.613  1.00  0.00     0.008 A 
ATOM     10  C   UNL     1      -5.777   1.488   8.693  1.00  0.00     0.132 A 
ATOM     11  C   UNL     1      -4.887   0.478   8.269  1.00  0.00     0.031 A 
ENDROOT
BRANCH  11  12
ATOM     12  C   UNL     1      -5.408  -0.846   7.835  1.00  0.00     0.031 A 
ATOM     13  C   UNL     1      -6.003  -0.992   6.565  1.00  0.00     0.132 A 
ATOM     14  C   UNL     1      -5.302  -1.952   8.692  1.00  0.00    -0.039 A 
ATOM     15  C   UNL     1      -6.491  -2.265   6.136  1.00  0.00     0.039 A 
ATOM     16  C   UNL     1      -5.841  -3.179   8.301  1.00  0.00     0.013 A 
ATOM     17  C   UNL     1      -4.613  -1.837  10.030  1.00  0.00     0.045 C 
ATOM     18  C   UNL     1      -6.490  -3.352   7.063  1.00  0.00    -0.006 A 
ATOM     19  C   UNL     1      -6.995  -2.480   4.817  1.00  0.00     0.072 A 
ATOM     20  C   UNL     1      -7.130  -4.588   6.725  1.00  0.00     0.008 A 
ATOM     21  C   UNL     1      -7.506  -3.743   4.458  1.00  0.00     0.169 A 
ATOM     22  C   UNL     1      -7.590  -4.771   5.402  1.00  0.00     0.162 A 
BRANCH  13  23
ATOM     23  O   UNL     1      -6.132   0.133   5.741  1.00  0.00    -0.507 OA
ATOM     24  H   UNL     1      -5.871   1.070   6.016  1.00  0.00     0.293 HD
ENDBRANCH  13  23
BRANCH  19  25
ATOM     25  C   UNL     1      -6.928  -1.435   3.774  1.00  0.00     0.264 C 
ATOM     26  O   UNL     1      -7.978  -1.010   3.224  1.00  0.00    -0.298 OA
ENDBRANCH  19  25
BRANCH  20  27
ATOM     27  C   UNL     1      -7.359  -5.742   7.721  1.00  0.00     0.017 C 
ATOM     28  C   UNL     1      -8.016  -5.263   9.022  1.00  0.00     0.012 C 
ATOM     29  C   UNL     1      -8.049  -6.982   7.114  1.00  0.00     0.012 C 
ENDBRANCH  20  27
BRANCH  21  30
ATOM     30  O   UNL     1      -7.925  -4.020   3.152  1.00  0.00    -0.504 OA
ATOM     31  H   UNL     1      -7.511  -3.613   2.322  1.00  0.00     0.293 HD
ENDBRANCH  21  30
BRANCH  22  32
ATOM     32  O   UNL     1      -8.125  -6.006   5.017  1.00  0.00    -0.504 OA
ATOM     33  H   UNL     1      -7.612  -6.684   4.468  1.00  0.00     0.293 HD
ENDBRANCH  22  32
ENDBRANCH  11  12
BRANCH  10  34
ATOM     34  O   UNL     1      -7.153   1.230   8.680  1.00  0.00    -0.507 OA
ATOM     35  H   UNL     1      -7.676   0.985   7.850  1.00  0.00     0.293 HD
ENDBRANCH  10  34
BRANCH   9  36
ATOM     36  C   UNL     1      -1.834   4.405   9.880  1.00  0.00     0.017 C 
ATOM     37  C   UNL     1      -1.105   3.059   9.880  1.00  0.00     0.012 C 
ATOM     38  C   UNL     1      -1.154   5.410   8.930  1.00  0.00     0.012 C 
ENDBRANCH   9  36
BRANCH   6  39
ATOM     39  C   UNL     1      -7.615   3.671   9.542  1.00  0.00     0.264 C 
ATOM     40  O   UNL     1      -8.125   2.563   9.857  1.00  0.00    -0.298 OA
ENDBRANCH   6  39
BRANCH   8  41
ATOM     41  O   UNL     1      -3.720   6.572  10.069  1.00  0.00    -0.504 OA
ATOM     42  H   UNL     1      -3.359   6.863  10.970  1.00  0.00     0.293 HD
ENDBRANCH   8  41
BRANCH   7  43
ATOM     43  O   UNL     1      -6.429   6.185  10.125  1.00  0.00    -0.504 OA
ATOM     44  H   UNL     1      -6.091   7.051  10.526  1.00  0.00     0.293 HD
ENDBRANCH   7  43
TORSDOF 11
ENDMDL
