MODEL 1
REMARK VINA RESULT:    -5.833      0.000      0.000
REMARK INTER + INTRA:          -6.004
REMARK INTER:                  -6.004
REMARK INTRA:                   0.000
REMARK UNBOUND:                 0.000
REMARK SMILES Cc1cccc(O)c1C
REMARK SMILES IDX 1 1 2 2 8 3 6 4 5 5 4 6 3 7 9 8 7 9
REMARK H PARENT 7 10
REMARK Flexibility Score: inf
ROOT
ATOM      1  C   UNL     1     -14.492   0.256 -10.120  1.00  0.00     0.045 C 
ATOM      2  C   UNL     1     -13.882   1.504  -9.535  1.00  0.00    -0.045 A 
ATOM      3  C   UNL     1     -12.485   1.617  -9.288  1.00  0.00    -0.006 A 
ATOM      4  C   UNL     1     -11.980   2.822  -8.736  1.00  0.00     0.118 A 
ATOM      5  C   UNL     1     -12.849   3.877  -8.443  1.00  0.00     0.046 A 
ATOM      6  C   UNL     1     -14.214   3.760  -8.689  1.00  0.00     0.004 A 
ATOM      7  C   UNL     1     -14.728   2.584  -9.229  1.00  0.00     0.004 A 
ATOM      8  C   UNL     1     -11.528   0.489  -9.597  1.00  0.00     0.048 C 
ENDROOT
BRANCH   4   9
ATOM      9  O   UNL     1     -10.621   3.005  -8.467  1.00  0.00    -0.508 OA
ATOM     10  H   UNL     1      -9.901   2.360  -8.766  1.00  0.00     0.293 HD
ENDBRANCH   4   9
TORSDOF 1
ENDMDL
MODEL 2
REMARK VINA RESULT:    -5.071      1.442      2.582
REMARK INTER + INTRA:          -5.219
REMARK INTER:                  -5.219
REMARK INTRA:                   0.000
REMARK UNBOUND:                 0.000
REMARK SMILES Cc1cccc(O)c1C
REMARK SMILES IDX 1 1 2 2 8 3 6 4 5 5 4 6 3 7 9 8 7 9
REMARK H PARENT 7 10
REMARK Flexibility Score: inf
ROOT
ATOM      1  C   UNL     1     -11.386   0.502  -9.626  1.00  0.00     0.045 C 
ATOM      2  C   UNL     1     -12.671   1.271  -9.462  1.00  0.00    -0.045 A 
ATOM      3  C   UNL     1     -12.693   2.616  -8.999  1.00  0.00    -0.006 A 
ATOM      4  C   UNL     1     -13.940   3.279  -8.869  1.00  0.00     0.118 A 
ATOM      5  C   UNL     1     -15.125   2.612  -9.194  1.00  0.00     0.046 A 
ATOM      6  C   UNL     1     -15.097   1.296  -9.647  1.00  0.00     0.004 A 
ATOM      7  C   UNL     1     -13.881   0.630  -9.780  1.00  0.00     0.004 A 
ATOM      8  C   UNL     1     -11.425   3.356  -8.642  1.00  0.00     0.048 C 
ENDROOT
BRANCH   4   9
ATOM      9  O   UNL     1     -14.038   4.599  -8.421  1.00  0.00    -0.508 OA
ATOM     10  H   UNL     1     -14.865   5.170  -8.542  1.00  0.00     0.293 HD
ENDBRANCH   4   9
TORSDOF 1
ENDMDL
MODEL 3
REMARK VINA RESULT:    -5.008      1.270      2.786
REMARK INTER + INTRA:          -5.155
REMARK INTER:                  -5.155
REMARK INTRA:                   0.000
REMARK UNBOUND:                 0.000
REMARK SMILES Cc1cccc(O)c1C
REMARK SMILES IDX 1 1 2 2 8 3 6 4 5 5 4 6 3 7 9 8 7 9
REMARK H PARENT 7 10
REMARK Flexibility Score: inf
ROOT
ATOM      1  C   UNL     1     -14.360   4.055  -8.796  1.00  0.00     0.045 C 
ATOM      2  C   UNL     1     -13.978   2.661  -9.222  1.00  0.00    -0.045 A 
ATOM      3  C   UNL     1     -12.628   2.211  -9.206  1.00  0.00    -0.006 A 
ATOM      4  C   UNL     1     -12.341   0.885  -9.621  1.00  0.00     0.118 A 
ATOM      5  C   UNL     1     -13.375   0.041 -10.037  1.00  0.00     0.046 A 
ATOM      6  C   UNL     1     -14.693   0.489 -10.049  1.00  0.00     0.004 A 
ATOM      7  C   UNL     1     -14.993   1.787  -9.646  1.00  0.00     0.004 A 
ATOM      8  C   UNL     1     -11.495   3.106  -8.761  1.00  0.00     0.048 C 
ENDROOT
BRANCH   4   9
ATOM      9  O   UNL     1     -11.040   0.374  -9.631  1.00  0.00    -0.508 OA
ATOM     10  H   UNL     1     -10.442   0.353  -8.816  1.00  0.00     0.293 HD
ENDBRANCH   4   9
TORSDOF 1
ENDMDL
MODEL 4
REMARK VINA RESULT:    -4.706     15.910     16.933
REMARK INTER + INTRA:          -4.843
REMARK INTER:                  -4.843
REMARK INTRA:                   0.000
REMARK UNBOUND:                 0.000
REMARK SMILES Cc1cccc(O)c1C
REMARK SMILES IDX 1 1 2 2 8 3 6 4 5 5 4 6 3 7 9 8 7 9
REMARK H PARENT 7 10
REMARK Flexibility Score: inf
ROOT
ATOM      1  C   UNL     1      -9.567   5.751   5.790  1.00  0.00     0.045 C 
ATOM      2  C   UNL     1     -10.496   5.164   6.821  1.00  0.00    -0.045 A 
ATOM      3  C   UNL     1     -11.826   4.771   6.504  1.00  0.00    -0.006 A 
ATOM      4  C   UNL     1     -12.644   4.225   7.525  1.00  0.00     0.118 A 
ATOM      5  C   UNL     1     -12.142   4.079   8.821  1.00  0.00     0.046 A 
ATOM      6  C   UNL     1     -10.840   4.464   9.125  1.00  0.00     0.004 A 
ATOM      7  C   UNL     1     -10.022   5.003   8.135  1.00  0.00     0.004 A 
ATOM      8  C   UNL     1     -12.389   4.921   5.109  1.00  0.00     0.048 C 
ENDROOT
BRANCH   4   9
ATOM      9  O   UNL     1     -13.960   3.818   7.287  1.00  0.00    -0.508 OA
ATOM     10  H   UNL     1     -14.480   4.069   6.457  1.00  0.00     0.293 HD
ENDBRANCH   4   9
TORSDOF 1
ENDMDL
MODEL 5
REMARK VINA RESULT:    -4.666     15.457     16.398
REMARK INTER + INTRA:          -4.802
REMARK INTER:                  -4.802
REMARK INTRA:                   0.000
REMARK UNBOUND:                 0.000
REMARK SMILES Cc1cccc(O)c1C
REMARK SMILES IDX 1 1 2 2 8 3 6 4 5 5 4 6 3 7 9 8 7 9
REMARK H PARENT 7 10
REMARK Flexibility Score: inf
ROOT
ATOM      1  C   UNL     1     -14.431   6.034   7.361  1.00  0.00     0.045 C 
ATOM      2  C   UNL     1     -13.356   4.979   7.384  1.00  0.00    -0.045 A 
ATOM      3  C   UNL     1     -12.834   4.406   6.190  1.00  0.00    -0.006 A 
ATOM      4  C   UNL     1     -11.822   3.417   6.287  1.00  0.00     0.118 A 
ATOM      5  C   UNL     1     -11.350   3.018   7.541  1.00  0.00     0.046 A 
ATOM      6  C   UNL     1     -11.864   3.584   8.705  1.00  0.00     0.004 A 
ATOM      7  C   UNL     1     -12.859   4.555   8.629  1.00  0.00     0.004 A 
ATOM      8  C   UNL     1     -13.330   4.822   4.825  1.00  0.00     0.048 C 
ENDROOT
BRANCH   4   9
ATOM      9  O   UNL     1     -11.264   2.811   5.159  1.00  0.00    -0.508 OA
ATOM     10  H   UNL     1     -10.996   3.320   4.327  1.00  0.00     0.293 HD
ENDBRANCH   4   9
TORSDOF 1
ENDMDL
MODEL 6
REMARK VINA RESULT:    -4.638      7.111      7.982
REMARK INTER + INTRA:          -4.773
REMARK INTER:                  -4.773
REMARK INTRA:                   0.000
REMARK UNBOUND:                 0.000
REMARK SMILES Cc1cccc(O)c1C
REMARK SMILES IDX 1 1 2 2 8 3 6 4 5 5 4 6 3 7 9 8 7 9
REMARK H PARENT 7 10
REMARK Flexibility Score: inf
ROOT
ATOM      1  C   UNL     1     -13.173  -6.921  -7.337  1.00  0.00     0.045 C 
ATOM      2  C   UNL     1     -12.121  -5.920  -7.737  1.00  0.00    -0.045 A 
ATOM      3  C   UNL     1     -11.139  -5.449  -6.821  1.00  0.00    -0.006 A 
ATOM      4  C   UNL     1     -10.178  -4.506  -7.267  1.00  0.00     0.118 A 
ATOM      5  C   UNL     1     -10.203  -4.052  -8.589  1.00  0.00     0.046 A 
ATOM      6  C   UNL     1     -11.166  -4.518  -9.480  1.00  0.00     0.004 A 
ATOM      7  C   UNL     1     -12.118  -5.443  -9.059  1.00  0.00     0.004 A 
ATOM      8  C   UNL     1     -11.094  -5.926  -5.388  1.00  0.00     0.048 C 
ENDROOT
BRANCH   4   9
ATOM      9  O   UNL     1      -9.185  -4.000  -6.424  1.00  0.00    -0.508 OA
ATOM     10  H   UNL     1      -9.015  -3.011  -6.293  1.00  0.00     0.293 HD
ENDBRANCH   4   9
TORSDOF 1
ENDMDL
MODEL 7
REMARK VINA RESULT:    -4.619      7.323      8.105
REMARK INTER + INTRA:          -4.754
REMARK INTER:                  -4.754
REMARK INTRA:                   0.000
REMARK UNBOUND:                 0.000
REMARK SMILES Cc1cccc(O)c1C
REMARK SMILES IDX 1 1 2 2 8 3 6 4 5 5 4 6 3 7 9 8 7 9
REMARK H PARENT 7 10
REMARK Flexibility Score: inf
ROOT
ATOM      1  C   UNL     1     -12.672  -6.005  -9.767  1.00  0.00     0.045 C 
ATOM      2  C   UNL     1     -12.075  -5.799  -8.398  1.00  0.00    -0.045 A 
ATOM      3  C   UNL     1     -10.924  -4.989  -8.189  1.00  0.00    -0.006 A 
ATOM      4  C   UNL     1     -10.418  -4.840  -6.873  1.00  0.00     0.118 A 
ATOM      5  C   UNL     1     -11.046  -5.483  -5.803  1.00  0.00     0.046 A 
ATOM      6  C   UNL     1     -12.172  -6.274  -6.014  1.00  0.00     0.004 A 
ATOM      7  C   UNL     1     -12.683  -6.432  -7.300  1.00  0.00     0.004 A 
ATOM      8  C   UNL     1     -10.229  -4.285  -9.331  1.00  0.00     0.048 C 
ENDROOT
BRANCH   4   9
ATOM      9  O   UNL     1      -9.292  -4.060  -6.593  1.00  0.00    -0.508 OA
ATOM     10  H   UNL     1      -8.456  -4.424  -6.155  1.00  0.00     0.293 HD
ENDBRANCH   4   9
TORSDOF 1
ENDMDL
MODEL 8
REMARK VINA RESULT:    -4.606      7.656      8.449
REMARK INTER + INTRA:          -4.741
REMARK INTER:                  -4.741
REMARK INTRA:                   0.000
REMARK UNBOUND:                 0.000
REMARK SMILES Cc1cccc(O)c1C
REMARK SMILES IDX 1 1 2 2 8 3 6 4 5 5 4 6 3 7 9 8 7 9
REMARK H PARENT 7 10
REMARK Flexibility Score: inf
ROOT
ATOM      1  C   UNL     1     -11.568  -5.874  -5.366  1.00  0.00     0.045 C 
ATOM      2  C   UNL     1     -11.743  -5.879  -6.862  1.00  0.00    -0.045 A 
ATOM      3  C   UNL     1     -10.892  -5.133  -7.725  1.00  0.00    -0.006 A 
ATOM      4  C   UNL     1     -11.115  -5.185  -9.125  1.00  0.00     0.118 A 
ATOM      5  C   UNL     1     -12.158  -5.960  -9.640  1.00  0.00     0.046 A 
ATOM      6  C   UNL     1     -12.986  -6.688  -8.790  1.00  0.00     0.004 A 
ATOM      7  C   UNL     1     -12.783  -6.648  -7.413  1.00  0.00     0.004 A 
ATOM      8  C   UNL     1      -9.759  -4.288  -7.190  1.00  0.00     0.048 C 
ENDROOT
BRANCH   4   9
ATOM      9  O   UNL     1     -10.320  -4.480 -10.032  1.00  0.00    -0.508 OA
ATOM     10  H   UNL     1      -9.618  -4.916 -10.615  1.00  0.00     0.293 HD
ENDBRANCH   4   9
TORSDOF 1
ENDMDL
MODEL 9
REMARK VINA RESULT:    -4.492     15.802     16.666
REMARK INTER + INTRA:          -4.623
REMARK INTER:                  -4.623
REMARK INTRA:                   0.000
REMARK UNBOUND:                 0.000
REMARK SMILES Cc1cccc(O)c1C
REMARK SMILES IDX 1 1 2 2 8 3 6 4 5 5 4 6 3 7 9 8 7 9
REMARK H PARENT 7 10
REMARK Flexibility Score: inf
ROOT
ATOM      1  C   UNL     1     -12.743   4.666   4.795  1.00  0.00     0.045 C 
ATOM      2  C   UNL     1     -12.339   4.806   6.240  1.00  0.00    -0.045 A 
ATOM      3  C   UNL     1     -11.028   5.205   6.622  1.00  0.00    -0.006 A 
ATOM      4  C   UNL     1     -10.718   5.317   8.002  1.00  0.00     0.118 A 
ATOM      5  C   UNL     1     -11.693   5.039   8.964  1.00  0.00     0.046 A 
ATOM      6  C   UNL     1     -12.974   4.650   8.583  1.00  0.00     0.004 A 
ATOM      7  C   UNL     1     -13.296   4.534   7.233  1.00  0.00     0.004 A 
ATOM      8  C   UNL     1      -9.959   5.510   5.599  1.00  0.00     0.048 C 
ENDROOT
BRANCH   4   9
ATOM      9  O   UNL     1      -9.452   5.703   8.451  1.00  0.00    -0.508 OA
ATOM     10  H   UNL     1      -8.619   5.657   7.879  1.00  0.00     0.293 HD
ENDBRANCH   4   9
TORSDOF 1
ENDMDL
