MODEL 1
REMARK VINA RESULT:    -5.083      0.000      0.000
REMARK INTER + INTRA:          -7.601
REMARK INTER:                  -7.163
REMARK INTRA:                  -0.438
REMARK UNBOUND:                -0.438
REMARK SMILES CCCCCCCCC(=O)[O-]
REMARK SMILES IDX 6 1 7 2 8 3 9 4 10 5 11 6 5 7 4 8 3 9 2 10 1 11
REMARK H PARENT
REMARK Flexibility Score: inf
ROOT
ATOM      1  C   UNL     1      50.350  51.564  22.069  1.00  0.00     0.000 C 
ENDROOT
BRANCH   1   2
ATOM      2  C   UNL     1      49.919  50.387  22.962  1.00  0.00     0.006 C 
BRANCH   2   3
ATOM      3  C   UNL     1      50.512  49.045  22.514  1.00  0.00     0.053 C 
BRANCH   3   4
ATOM      4  C   UNL     1      50.420  48.039  23.616  1.00  0.00     0.041 C 
ATOM      5  O   UNL     1      49.377  47.962  24.320  1.00  0.00    -0.550 OA
ATOM      6  O   UNL     1      51.464  47.151  23.836  1.00  0.00    -0.550 OA
ENDBRANCH   3   4
ENDBRANCH   2   3
ENDBRANCH   1   2
BRANCH   1   7
ATOM      7  C   UNL     1      51.546  51.285  21.135  1.00  0.00     0.000 C 
BRANCH   7   8
ATOM      8  C   UNL     1      52.705  52.297  21.235  1.00  0.00    -0.000 C 
BRANCH   8   9
ATOM      9  C   UNL     1      52.250  53.730  21.595  1.00  0.00    -0.000 C 
BRANCH   9  10
ATOM     10  C   UNL     1      52.977  54.315  22.817  1.00  0.00    -0.003 C 
ATOM     11  C   UNL     1      53.874  53.296  23.516  1.00  0.00     0.004 C 
ENDBRANCH   9  10
ENDBRANCH   8   9
ENDBRANCH   7   8
ENDBRANCH   1   7
TORSDOF 7
ENDMDL
MODEL 2
REMARK VINA RESULT:    -5.052      0.693      1.161
REMARK INTER + INTRA:          -7.557
REMARK INTER:                  -7.230
REMARK INTRA:                  -0.327
REMARK UNBOUND:                -0.438
REMARK SMILES CCCCCCCCC(=O)[O-]
REMARK SMILES IDX 6 1 7 2 8 3 9 4 10 5 11 6 5 7 4 8 3 9 2 10 1 11
REMARK H PARENT
REMARK Flexibility Score: inf
ROOT
ATOM      1  C   UNL     1      50.653  50.902  22.301  1.00  0.00     0.000 C 
ENDROOT
BRANCH   1   2
ATOM      2  C   UNL     1      50.087  49.471  22.274  1.00  0.00     0.006 C 
BRANCH   2   3
ATOM      3  C   UNL     1      49.392  49.076  23.584  1.00  0.00     0.053 C 
BRANCH   3   4
ATOM      4  C   UNL     1      49.981  47.813  24.126  1.00  0.00     0.041 C 
ATOM      5  O   UNL     1      51.185  47.523  23.895  1.00  0.00    -0.550 OA
ATOM      6  O   UNL     1      49.215  46.978  24.929  1.00  0.00    -0.550 OA
ENDBRANCH   3   4
ENDBRANCH   2   3
ENDBRANCH   1   2
BRANCH   1   7
ATOM      7  C   UNL     1      51.392  51.348  21.021  1.00  0.00     0.000 C 
BRANCH   7   8
ATOM      8  C   UNL     1      52.610  52.263  21.253  1.00  0.00    -0.000 C 
BRANCH   8   9
ATOM      9  C   UNL     1      52.237  53.731  21.561  1.00  0.00    -0.000 C 
BRANCH   9  10
ATOM     10  C   UNL     1      52.935  54.292  22.811  1.00  0.00    -0.003 C 
ATOM     11  C   UNL     1      53.810  53.257  23.516  1.00  0.00     0.004 C 
ENDBRANCH   9  10
ENDBRANCH   8   9
ENDBRANCH   7   8
ENDBRANCH   1   7
TORSDOF 7
ENDMDL
MODEL 3
REMARK VINA RESULT:    -4.941      2.628      4.929
REMARK INTER + INTRA:          -7.401
REMARK INTER:                  -6.864
REMARK INTRA:                  -0.538
REMARK UNBOUND:                -0.438
REMARK SMILES CCCCCCCCC(=O)[O-]
REMARK SMILES IDX 6 1 7 2 8 3 9 4 10 5 11 6 5 7 4 8 3 9 2 10 1 11
REMARK H PARENT
REMARK Flexibility Score: inf
ROOT
ATOM      1  C   UNL     1      52.669  52.134  21.242  1.00  0.00     0.000 C 
ENDROOT
BRANCH   1   2
ATOM      2  C   UNL     1      52.179  53.574  21.484  1.00  0.00     0.006 C 
BRANCH   2   3
ATOM      3  C   UNL     1      52.919  54.274  22.631  1.00  0.00     0.053 C 
BRANCH   3   4
ATOM      4  C   UNL     1      52.699  53.543  23.917  1.00  0.00     0.041 C 
ATOM      5  O   UNL     1      51.546  53.478  24.421  1.00  0.00    -0.550 OA
ATOM      6  O   UNL     1      53.757  52.890  24.535  1.00  0.00    -0.550 OA
ENDBRANCH   3   4
ENDBRANCH   2   3
ENDBRANCH   1   2
BRANCH   1   7
ATOM      7  C   UNL     1      51.559  51.080  21.047  1.00  0.00     0.000 C 
BRANCH   7   8
ATOM      8  C   UNL     1      50.266  51.334  21.848  1.00  0.00    -0.000 C 
BRANCH   8   9
ATOM      9  C   UNL     1      50.060  50.354  23.025  1.00  0.00    -0.000 C 
BRANCH   9  10
ATOM     10  C   UNL     1      50.188  48.876  22.621  1.00  0.00    -0.003 C 
ATOM     11  C   UNL     1      50.738  48.000  23.745  1.00  0.00     0.004 C 
ENDBRANCH   9  10
ENDBRANCH   8   9
ENDBRANCH   7   8
ENDBRANCH   1   7
TORSDOF 7
ENDMDL
MODEL 4
REMARK VINA RESULT:    -4.926      1.213      1.784
REMARK INTER + INTRA:          -7.380
REMARK INTER:                  -7.039
REMARK INTRA:                  -0.341
REMARK UNBOUND:                -0.438
REMARK SMILES CCCCCCCCC(=O)[O-]
REMARK SMILES IDX 6 1 7 2 8 3 9 4 10 5 11 6 5 7 4 8 3 9 2 10 1 11
REMARK H PARENT
REMARK Flexibility Score: inf
ROOT
ATOM      1  C   UNL     1      51.124  51.353  21.169  1.00  0.00     0.000 C 
ENDROOT
BRANCH   1   2
ATOM      2  C   UNL     1      50.706  50.769  22.531  1.00  0.00     0.006 C 
BRANCH   2   3
ATOM      3  C   UNL     1      50.515  49.247  22.497  1.00  0.00     0.053 C 
BRANCH   3   4
ATOM      4  C   UNL     1      49.648  48.805  23.632  1.00  0.00     0.041 C 
ATOM      5  O   UNL     1      48.645  49.490  23.970  1.00  0.00    -0.550 OA
ATOM      6  O   UNL     1      49.916  47.610  24.288  1.00  0.00    -0.550 OA
ENDBRANCH   3   4
ENDBRANCH   2   3
ENDBRANCH   1   2
BRANCH   1   7
ATOM      7  C   UNL     1      52.464  52.119  21.158  1.00  0.00     0.000 C 
BRANCH   7   8
ATOM      8  C   UNL     1      52.864  52.755  22.504  1.00  0.00    -0.000 C 
BRANCH   8   9
ATOM      9  C   UNL     1      52.693  54.291  22.542  1.00  0.00    -0.000 C 
BRANCH   9  10
ATOM     10  C   UNL     1      52.027  54.865  21.281  1.00  0.00    -0.003 C 
ATOM     11  C   UNL     1      52.579  56.234  20.890  1.00  0.00     0.004 C 
ENDBRANCH   9  10
ENDBRANCH   8   9
ENDBRANCH   7   8
ENDBRANCH   1   7
TORSDOF 7
ENDMDL
MODEL 5
REMARK VINA RESULT:    -4.887      2.396      3.187
REMARK INTER + INTRA:          -7.325
REMARK INTER:                  -6.695
REMARK INTRA:                  -0.630
REMARK UNBOUND:                -0.438
REMARK SMILES CCCCCCCCC(=O)[O-]
REMARK SMILES IDX 6 1 7 2 8 3 9 4 10 5 11 6 5 7 4 8 3 9 2 10 1 11
REMARK H PARENT
REMARK Flexibility Score: inf
ROOT
ATOM      1  C   UNL     1      51.502  50.897  21.240  1.00  0.00     0.000 C 
ENDROOT
BRANCH   1   2
ATOM      2  C   UNL     1      49.992  50.921  21.536  1.00  0.00     0.006 C 
BRANCH   2   3
ATOM      3  C   UNL     1      49.500  52.287  22.032  1.00  0.00     0.053 C 
BRANCH   3   4
ATOM      4  C   UNL     1      49.384  52.290  23.523  1.00  0.00     0.041 C 
ATOM      5  O   UNL     1      48.738  51.383  24.112  1.00  0.00    -0.550 OA
ATOM      6  O   UNL     1      50.032  53.267  24.268  1.00  0.00    -0.550 OA
ENDBRANCH   3   4
ENDBRANCH   2   3
ENDBRANCH   1   2
BRANCH   1   7
ATOM      7  C   UNL     1      52.157  52.277  21.018  1.00  0.00     0.000 C 
BRANCH   7   8
ATOM      8  C   UNL     1      53.051  52.770  22.174  1.00  0.00    -0.000 C 
BRANCH   8   9
ATOM      9  C   UNL     1      52.869  54.269  22.506  1.00  0.00    -0.000 C 
BRANCH   9  10
ATOM     10  C   UNL     1      52.003  55.023  21.483  1.00  0.00    -0.003 C 
ATOM     11  C   UNL     1      52.710  56.241  20.892  1.00  0.00     0.004 C 
ENDBRANCH   9  10
ENDBRANCH   8   9
ENDBRANCH   7   8
ENDBRANCH   1   7
TORSDOF 7
ENDMDL
MODEL 6
REMARK VINA RESULT:    -4.754      1.404      2.021
REMARK INTER + INTRA:          -7.138
REMARK INTER:                  -6.573
REMARK INTRA:                  -0.565
REMARK UNBOUND:                -0.438
REMARK SMILES CCCCCCCCC(=O)[O-]
REMARK SMILES IDX 6 1 7 2 8 3 9 4 10 5 11 6 5 7 4 8 3 9 2 10 1 11
REMARK H PARENT
REMARK Flexibility Score: inf
ROOT
ATOM      1  C   UNL     1      51.862  51.316  21.142  1.00  0.00     0.000 C 
ENDROOT
BRANCH   1   2
ATOM      2  C   UNL     1      50.492  50.614  21.168  1.00  0.00     0.006 C 
BRANCH   2   3
ATOM      3  C   UNL     1      50.399  49.521  22.240  1.00  0.00     0.053 C 
BRANCH   3   4
ATOM      4  C   UNL     1      49.296  49.826  23.202  1.00  0.00     0.041 C 
ATOM      5  O   UNL     1      48.722  50.947  23.176  1.00  0.00    -0.550 OA
ATOM      6  O   UNL     1      48.866  48.855  24.097  1.00  0.00    -0.550 OA
ENDBRANCH   3   4
ENDBRANCH   2   3
ENDBRANCH   1   2
BRANCH   1   7
ATOM      7  C   UNL     1      51.819  52.846  20.941  1.00  0.00     0.000 C 
BRANCH   7   8
ATOM      8  C   UNL     1      51.002  53.622  21.994  1.00  0.00    -0.000 C 
BRANCH   8   9
ATOM      9  C   UNL     1      51.509  53.429  23.442  1.00  0.00    -0.000 C 
BRANCH   9  10
ATOM     10  C   UNL     1      52.821  54.175  23.736  1.00  0.00    -0.003 C 
ATOM     11  C   UNL     1      54.036  53.250  23.761  1.00  0.00     0.004 C 
ENDBRANCH   9  10
ENDBRANCH   8   9
ENDBRANCH   7   8
ENDBRANCH   1   7
TORSDOF 7
ENDMDL
MODEL 7
REMARK VINA RESULT:    -4.551      2.440      2.952
REMARK INTER + INTRA:          -6.852
REMARK INTER:                  -6.308
REMARK INTRA:                  -0.544
REMARK UNBOUND:                -0.438
REMARK SMILES CCCCCCCCC(=O)[O-]
REMARK SMILES IDX 6 1 7 2 8 3 9 4 10 5 11 6 5 7 4 8 3 9 2 10 1 11
REMARK H PARENT
REMARK Flexibility Score: inf
ROOT
ATOM      1  C   UNL     1      50.750  49.992  21.810  1.00  0.00     0.000 C 
ENDROOT
BRANCH   1   2
ATOM      2  C   UNL     1      49.791  50.077  23.012  1.00  0.00     0.006 C 
BRANCH   2   3
ATOM      3  C   UNL     1      48.776  51.221  22.889  1.00  0.00     0.053 C 
BRANCH   3   4
ATOM      4  C   UNL     1      48.906  52.161  24.043  1.00  0.00     0.041 C 
ATOM      5  O   UNL     1      49.916  52.909  24.143  1.00  0.00    -0.550 OA
ATOM      6  O   UNL     1      47.890  52.251  24.986  1.00  0.00    -0.550 OA
ENDBRANCH   3   4
ENDBRANCH   2   3
ENDBRANCH   1   2
BRANCH   1   7
ATOM      7  C   UNL     1      50.965  51.311  21.038  1.00  0.00     0.000 C 
BRANCH   7   8
ATOM      8  C   UNL     1      52.308  52.017  21.311  1.00  0.00    -0.000 C 
BRANCH   8   9
ATOM      9  C   UNL     1      52.204  53.560  21.345  1.00  0.00    -0.000 C 
BRANCH   9  10
ATOM     10  C   UNL     1      52.790  54.185  22.621  1.00  0.00    -0.003 C 
ATOM     11  C   UNL     1      53.742  53.246  23.358  1.00  0.00     0.004 C 
ENDBRANCH   9  10
ENDBRANCH   8   9
ENDBRANCH   7   8
ENDBRANCH   1   7
TORSDOF 7
ENDMDL
MODEL 8
REMARK VINA RESULT:    -4.449      2.707      4.169
REMARK INTER + INTRA:          -6.707
REMARK INTER:                  -6.125
REMARK INTRA:                  -0.583
REMARK UNBOUND:                -0.438
REMARK SMILES CCCCCCCCC(=O)[O-]
REMARK SMILES IDX 6 1 7 2 8 3 9 4 10 5 11 6 5 7 4 8 3 9 2 10 1 11
REMARK H PARENT
REMARK Flexibility Score: inf
ROOT
ATOM      1  C   UNL     1      51.868  53.408  24.122  1.00  0.00     0.000 C 
ENDROOT
BRANCH   1   2
ATOM      2  C   UNL     1      50.343  53.515  23.941  1.00  0.00     0.006 C 
BRANCH   2   3
ATOM      3  C   UNL     1      49.565  53.253  25.237  1.00  0.00     0.053 C 
BRANCH   3   4
ATOM      4  C   UNL     1      48.323  52.472  24.951  1.00  0.00     0.041 C 
ATOM      5  O   UNL     1      48.209  51.833  23.872  1.00  0.00    -0.550 OA
ATOM      6  O   UNL     1      47.308  52.409  25.898  1.00  0.00    -0.550 OA
ENDBRANCH   3   4
ENDBRANCH   2   3
ENDBRANCH   1   2
BRANCH   1   7
ATOM      7  C   UNL     1      52.715  53.939  22.946  1.00  0.00     0.000 C 
BRANCH   7   8
ATOM      8  C   UNL     1      52.243  53.496  21.547  1.00  0.00    -0.000 C 
BRANCH   8   9
ATOM      9  C   UNL     1      52.577  52.023  21.215  1.00  0.00    -0.000 C 
BRANCH   9  10
ATOM     10  C   UNL     1      51.340  51.175  20.879  1.00  0.00    -0.003 C 
ATOM     11  C   UNL     1      50.821  50.383  22.077  1.00  0.00     0.004 C 
ENDBRANCH   9  10
ENDBRANCH   8   9
ENDBRANCH   7   8
ENDBRANCH   1   7
TORSDOF 7
ENDMDL
MODEL 9
REMARK VINA RESULT:    -4.407      3.749      5.600
REMARK INTER + INTRA:          -6.649
REMARK INTER:                  -6.114
REMARK INTRA:                  -0.535
REMARK UNBOUND:                -0.438
REMARK SMILES CCCCCCCCC(=O)[O-]
REMARK SMILES IDX 6 1 7 2 8 3 9 4 10 5 11 6 5 7 4 8 3 9 2 10 1 11
REMARK H PARENT
REMARK Flexibility Score: inf
ROOT
ATOM      1  C   UNL     1      51.494  51.033  21.118  1.00  0.00     0.000 C 
ENDROOT
BRANCH   1   2
ATOM      2  C   UNL     1      51.869  52.121  22.141  1.00  0.00     0.006 C 
BRANCH   2   3
ATOM      3  C   UNL     1      51.136  53.447  21.902  1.00  0.00     0.053 C 
BRANCH   3   4
ATOM      4  C   UNL     1      52.109  54.583  21.872  1.00  0.00     0.041 C 
ATOM      5  O   UNL     1      52.917  54.751  22.824  1.00  0.00    -0.550 OA
ATOM      6  O   UNL     1      52.158  55.427  20.771  1.00  0.00    -0.550 OA
ENDBRANCH   3   4
ENDBRANCH   2   3
ENDBRANCH   1   2
BRANCH   1   7
ATOM      7  C   UNL     1      50.218  50.229  21.442  1.00  0.00     0.000 C 
BRANCH   7   8
ATOM      8  C   UNL     1      50.358  49.217  22.597  1.00  0.00    -0.000 C 
BRANCH   8   9
ATOM      9  C   UNL     1      49.212  49.292  23.633  1.00  0.00    -0.000 C 
BRANCH   9  10
ATOM     10  C   UNL     1      48.222  50.438  23.369  1.00  0.00    -0.003 C 
ATOM     11  C   UNL     1      48.227  51.491  24.476  1.00  0.00     0.004 C 
ENDBRANCH   9  10
ENDBRANCH   8   9
ENDBRANCH   7   8
ENDBRANCH   1   7
TORSDOF 7
ENDMDL
