MODEL 1
REMARK VINA RESULT:    -4.421      0.000      0.000
REMARK INTER + INTRA:         -17.426
REMARK INTER:                 -11.658
REMARK INTRA:                  -5.768
REMARK UNBOUND:                -5.768
REMARK SMILES CCCCCCCCCCCCCCCCCCCCCCCCCCCCCC(=O)[O-]
REMARK SMILES IDX 16 1 17 2 18 3 19 4 20 5 21 6 22 7 23 8 24 9 25 10 26 11
REMARK SMILES IDX 27 12 28 13 29 14 30 15 31 16 32 17 15 18 14 19 13 20 12 21
REMARK SMILES IDX 11 22 10 23 9 24 8 25 7 26 6 27 5 28 4 29 3 30 2 31 1 32
REMARK H PARENT
REMARK Flexibility Score: inf
ROOT
ATOM      1  C   UNL     1      20.281  -7.524  48.883  1.00  0.00     0.000 C 
ENDROOT
BRANCH   1   2
ATOM      2  C   UNL     1      20.198  -6.354  47.890  1.00  0.00     0.000 C 
BRANCH   2   3
ATOM      3  C   UNL     1      21.478  -5.499  47.875  1.00  0.00     0.000 C 
BRANCH   3   4
ATOM      4  C   UNL     1      22.627  -6.185  47.117  1.00  0.00     0.000 C 
BRANCH   4   5
ATOM      5  C   UNL     1      23.981  -5.495  47.356  1.00  0.00     0.000 C 
BRANCH   5   6
ATOM      6  C   UNL     1      24.230  -4.330  46.385  1.00  0.00     0.000 C 
BRANCH   6   7
ATOM      7  C   UNL     1      24.081  -2.942  47.045  1.00  0.00     0.000 C 
BRANCH   7   8
ATOM      8  C   UNL     1      22.975  -2.100  46.386  1.00  0.00     0.000 C 
BRANCH   8   9
ATOM      9  C   UNL     1      22.509  -2.702  45.041  1.00  0.00     0.000 C 
BRANCH   9  10
ATOM     10  C   UNL     1      21.070  -3.245  45.075  1.00  0.00     0.000 C 
BRANCH  10  11
ATOM     11  C   UNL     1      20.723  -4.089  43.838  1.00  0.00     0.000 C 
BRANCH  11  12
ATOM     12  C   UNL     1      21.357  -5.496  43.892  1.00  0.00     0.000 C 
BRANCH  12  13
ATOM     13  C   UNL     1      20.506  -6.583  43.214  1.00  0.00     0.006 C 
BRANCH  13  14
ATOM     14  C   UNL     1      19.786  -7.493  44.216  1.00  0.00     0.053 C 
BRANCH  14  15
ATOM     15  C   UNL     1      18.393  -7.006  44.458  1.00  0.00     0.041 C 
ATOM     16  O   UNL     1      17.790  -7.308  45.521  1.00  0.00    -0.550 OA
ATOM     17  O   UNL     1      17.741  -6.253  43.487  1.00  0.00    -0.550 OA
ENDBRANCH  14  15
ENDBRANCH  13  14
ENDBRANCH  12  13
ENDBRANCH  11  12
ENDBRANCH  10  11
ENDBRANCH   9  10
ENDBRANCH   8   9
ENDBRANCH   7   8
ENDBRANCH   6   7
ENDBRANCH   5   6
ENDBRANCH   4   5
ENDBRANCH   3   4
ENDBRANCH   2   3
ENDBRANCH   1   2
BRANCH   1  18
ATOM     18  C   UNL     1      20.415  -7.051  50.342  1.00  0.00     0.000 C 
BRANCH  18  19
ATOM     19  C   UNL     1      21.444  -7.875  51.138  1.00  0.00     0.000 C 
BRANCH  19  20
ATOM     20  C   UNL     1      22.900  -7.399  50.966  1.00  0.00     0.000 C 
BRANCH  20  21
ATOM     21  C   UNL     1      23.883  -8.565  50.754  1.00  0.00     0.000 C 
BRANCH  21  22
ATOM     22  C   UNL     1      24.261  -8.763  49.270  1.00  0.00     0.000 C 
BRANCH  22  23
ATOM     23  C   UNL     1      25.718  -8.388  48.936  1.00  0.00     0.000 C 
BRANCH  23  24
ATOM     24  C   UNL     1      26.658  -8.268  50.149  1.00  0.00    -0.000 C 
BRANCH  24  25
ATOM     25  C   UNL     1      27.302  -6.879  50.350  1.00  0.00    -0.000 C 
BRANCH  25  26
ATOM     26  C   UNL     1      26.538  -5.701  49.721  1.00  0.00    -0.000 C 
BRANCH  26  27
ATOM     27  C   UNL     1      26.817  -4.362  50.424  1.00  0.00    -0.000 C 
BRANCH  27  28
ATOM     28  C   UNL     1      25.553  -3.499  50.598  1.00  0.00    -0.000 C 
BRANCH  28  29
ATOM     29  C   UNL     1      24.251  -4.281  50.855  1.00  0.00    -0.000 C 
BRANCH  29  30
ATOM     30  C   UNL     1      22.986  -3.439  50.611  1.00  0.00    -0.000 C 
BRANCH  30  31
ATOM     31  C   UNL     1      23.298  -1.943  50.450  1.00  0.00    -0.003 C 
ATOM     32  C   UNL     1      22.091  -1.133  49.975  1.00  0.00     0.004 C 
ENDBRANCH  30  31
ENDBRANCH  29  30
ENDBRANCH  28  29
ENDBRANCH  27  28
ENDBRANCH  26  27
ENDBRANCH  25  26
ENDBRANCH  24  25
ENDBRANCH  23  24
ENDBRANCH  22  23
ENDBRANCH  21  22
ENDBRANCH  20  21
ENDBRANCH  19  20
ENDBRANCH  18  19
ENDBRANCH   1  18
TORSDOF 28
ENDMDL
MODEL 2
REMARK VINA RESULT:    -4.410      1.457      5.089
REMARK INTER + INTRA:         -17.397
REMARK INTER:                 -11.315
REMARK INTRA:                  -6.081
REMARK UNBOUND:                -5.768
REMARK SMILES CCCCCCCCCCCCCCCCCCCCCCCCCCCCCC(=O)[O-]
REMARK SMILES IDX 16 1 17 2 18 3 19 4 20 5 21 6 22 7 23 8 24 9 25 10 26 11
REMARK SMILES IDX 27 12 28 13 29 14 30 15 31 16 32 17 15 18 14 19 13 20 12 21
REMARK SMILES IDX 11 22 10 23 9 24 8 25 7 26 6 27 5 28 4 29 3 30 2 31 1 32
REMARK H PARENT
REMARK Flexibility Score: inf
ROOT
ATOM      1  C   UNL     1      21.290  -6.040  48.153  1.00  0.00     0.000 C 
ENDROOT
BRANCH   1   2
ATOM      2  C   UNL     1      20.251  -7.116  48.505  1.00  0.00     0.000 C 
BRANCH   2   3
ATOM      3  C   UNL     1      20.258  -7.479  50.000  1.00  0.00     0.000 C 
BRANCH   3   4
ATOM      4  C   UNL     1      21.482  -6.905  50.733  1.00  0.00     0.000 C 
BRANCH   4   5
ATOM      5  C   UNL     1      22.585  -7.955  50.946  1.00  0.00     0.000 C 
BRANCH   5   6
ATOM      6  C   UNL     1      23.991  -7.403  50.662  1.00  0.00     0.000 C 
BRANCH   6   7
ATOM      7  C   UNL     1      24.432  -7.584  49.192  1.00  0.00     0.000 C 
BRANCH   7   8
ATOM      8  C   UNL     1      23.956  -8.923  48.602  1.00  0.00     0.000 C 
BRANCH   8   9
ATOM      9  C   UNL     1      23.791  -8.855  47.067  1.00  0.00     0.000 C 
BRANCH   9  10
ATOM     10  C   UNL     1      22.528  -9.565  46.551  1.00  0.00     0.000 C 
BRANCH  10  11
ATOM     11  C   UNL     1      22.108  -9.090  45.151  1.00  0.00     0.000 C 
BRANCH  11  12
ATOM     12  C   UNL     1      20.818  -9.784  44.660  1.00  0.00     0.000 C 
BRANCH  12  13
ATOM     13  C   UNL     1      20.127  -9.050  43.497  1.00  0.00     0.006 C 
BRANCH  13  14
ATOM     14  C   UNL     1      20.219  -7.524  43.613  1.00  0.00     0.053 C 
BRANCH  14  15
ATOM     15  C   UNL     1      18.906  -6.953  44.043  1.00  0.00     0.041 C 
ATOM     16  O   UNL     1      18.305  -7.426  45.043  1.00  0.00    -0.550 OA
ATOM     17  O   UNL     1      18.321  -5.925  43.312  1.00  0.00    -0.550 OA
ENDBRANCH  14  15
ENDBRANCH  13  14
ENDBRANCH  12  13
ENDBRANCH  11  12
ENDBRANCH  10  11
ENDBRANCH   9  10
ENDBRANCH   8   9
ENDBRANCH   7   8
ENDBRANCH   6   7
ENDBRANCH   5   6
ENDBRANCH   4   5
ENDBRANCH   3   4
ENDBRANCH   2   3
ENDBRANCH   1   2
BRANCH   1  18
ATOM     18  C   UNL     1      21.333  -5.734  46.644  1.00  0.00     0.000 C 
BRANCH  18  19
ATOM     19  C   UNL     1      22.773  -5.637  46.103  1.00  0.00     0.000 C 
BRANCH  19  20
ATOM     20  C   UNL     1      22.893  -4.880  44.766  1.00  0.00     0.000 C 
BRANCH  20  21
ATOM     21  C   UNL     1      21.596  -4.141  44.385  1.00  0.00     0.000 C 
BRANCH  21  22
ATOM     22  C   UNL     1      21.767  -2.606  44.375  1.00  0.00     0.000 C 
BRANCH  22  23
ATOM     23  C   UNL     1      22.833  -2.085  45.357  1.00  0.00     0.000 C 
BRANCH  23  24
ATOM     24  C   UNL     1      22.283  -1.480  46.661  1.00  0.00    -0.000 C 
BRANCH  24  25
ATOM     25  C   UNL     1      22.467  -2.352  47.922  1.00  0.00    -0.000 C 
BRANCH  25  26
ATOM     26  C   UNL     1      22.352  -1.605  49.262  1.00  0.00    -0.000 C 
BRANCH  26  27
ATOM     27  C   UNL     1      23.071  -2.328  50.414  1.00  0.00    -0.000 C 
BRANCH  27  28
ATOM     28  C   UNL     1      23.661  -3.687  49.996  1.00  0.00    -0.000 C 
BRANCH  28  29
ATOM     29  C   UNL     1      25.092  -3.966  50.491  1.00  0.00    -0.000 C 
BRANCH  29  30
ATOM     30  C   UNL     1      26.082  -4.242  49.346  1.00  0.00    -0.000 C 
BRANCH  30  31
ATOM     31  C   UNL     1      26.084  -3.127  48.289  1.00  0.00    -0.003 C 
ATOM     32  C   UNL     1      25.817  -3.648  46.876  1.00  0.00     0.004 C 
ENDBRANCH  30  31
ENDBRANCH  29  30
ENDBRANCH  28  29
ENDBRANCH  27  28
ENDBRANCH  26  27
ENDBRANCH  25  26
ENDBRANCH  24  25
ENDBRANCH  23  24
ENDBRANCH  22  23
ENDBRANCH  21  22
ENDBRANCH  20  21
ENDBRANCH  19  20
ENDBRANCH  18  19
ENDBRANCH   1  18
TORSDOF 28
ENDMDL
MODEL 3
REMARK VINA RESULT:    -4.381      2.919      6.387
REMARK INTER + INTRA:         -17.321
REMARK INTER:                 -11.277
REMARK INTRA:                  -6.044
REMARK UNBOUND:                -5.768
REMARK SMILES CCCCCCCCCCCCCCCCCCCCCCCCCCCCCC(=O)[O-]
REMARK SMILES IDX 16 1 17 2 18 3 19 4 20 5 21 6 22 7 23 8 24 9 25 10 26 11
REMARK SMILES IDX 27 12 28 13 29 14 30 15 31 16 32 17 15 18 14 19 13 20 12 21
REMARK SMILES IDX 11 22 10 23 9 24 8 25 7 26 6 27 5 28 4 29 3 30 2 31 1 32
REMARK H PARENT
REMARK Flexibility Score: inf
ROOT
ATOM      1  C   UNL     1      19.793  -4.338  43.742  1.00  0.00     0.000 C 
ENDROOT
BRANCH   1   2
ATOM      2  C   UNL     1      19.675  -5.624  42.908  1.00  0.00     0.000 C 
BRANCH   2   3
ATOM      3  C   UNL     1      20.992  -6.417  42.854  1.00  0.00     0.000 C 
BRANCH   3   4
ATOM      4  C   UNL     1      20.824  -7.860  43.358  1.00  0.00     0.000 C 
BRANCH   4   5
ATOM      5  C   UNL     1      21.783  -8.194  44.513  1.00  0.00     0.000 C 
BRANCH   5   6
ATOM      6  C   UNL     1      21.043  -8.512  45.823  1.00  0.00     0.000 C 
BRANCH   6   7
ATOM      7  C   UNL     1      20.072  -7.394  46.263  1.00  0.00     0.000 C 
BRANCH   7   8
ATOM      8  C   UNL     1      20.488  -6.753  47.598  1.00  0.00     0.000 C 
BRANCH   8   9
ATOM      9  C   UNL     1      20.731  -5.234  47.463  1.00  0.00     0.000 C 
BRANCH   9  10
ATOM     10  C   UNL     1      22.203  -4.826  47.652  1.00  0.00     0.000 C 
BRANCH  10  11
ATOM     11  C   UNL     1      23.146  -5.517  46.653  1.00  0.00     0.000 C 
BRANCH  11  12
ATOM     12  C   UNL     1      24.521  -4.820  46.568  1.00  0.00     0.000 C 
BRANCH  12  13
ATOM     13  C   UNL     1      25.153  -4.870  45.166  1.00  0.00     0.006 C 
BRANCH  13  14
ATOM     14  C   UNL     1      26.639  -4.494  45.165  1.00  0.00     0.053 C 
BRANCH  14  15
ATOM     15  C   UNL     1      26.802  -3.008  45.155  1.00  0.00     0.041 C 
ATOM     16  O   UNL     1      27.090  -2.393  46.215  1.00  0.00    -0.550 OA
ATOM     17  O   UNL     1      26.591  -2.293  43.981  1.00  0.00    -0.550 OA
ENDBRANCH  14  15
ENDBRANCH  13  14
ENDBRANCH  12  13
ENDBRANCH  11  12
ENDBRANCH  10  11
ENDBRANCH   9  10
ENDBRANCH   8   9
ENDBRANCH   7   8
ENDBRANCH   6   7
ENDBRANCH   5   6
ENDBRANCH   4   5
ENDBRANCH   3   4
ENDBRANCH   2   3
ENDBRANCH   1   2
BRANCH   1  18
ATOM     18  C   UNL     1      21.245  -4.037  44.159  1.00  0.00     0.000 C 
BRANCH  18  19
ATOM     19  C   UNL     1      21.411  -2.617  44.735  1.00  0.00     0.000 C 
BRANCH  19  20
ATOM     20  C   UNL     1      22.762  -1.956  44.400  1.00  0.00     0.000 C 
BRANCH  20  21
ATOM     21  C   UNL     1      23.500  -1.450  45.652  1.00  0.00     0.000 C 
BRANCH  21  22
ATOM     22  C   UNL     1      22.619  -1.489  46.920  1.00  0.00     0.000 C 
BRANCH  22  23
ATOM     23  C   UNL     1      23.413  -1.496  48.240  1.00  0.00     0.000 C 
BRANCH  23  24
ATOM     24  C   UNL     1      22.559  -1.515  49.520  1.00  0.00    -0.000 C 
BRANCH  24  25
ATOM     25  C   UNL     1      23.040  -2.487  50.619  1.00  0.00    -0.000 C 
BRANCH  25  26
ATOM     26  C   UNL     1      24.319  -3.276  50.289  1.00  0.00    -0.000 C 
BRANCH  26  27
ATOM     27  C   UNL     1      24.237  -4.753  50.710  1.00  0.00    -0.000 C 
BRANCH  27  28
ATOM     28  C   UNL     1      22.900  -5.113  51.384  1.00  0.00    -0.000 C 
BRANCH  28  29
ATOM     29  C   UNL     1      22.221  -6.393  50.860  1.00  0.00    -0.000 C 
BRANCH  29  30
ATOM     30  C   UNL     1      23.184  -7.589  50.767  1.00  0.00    -0.000 C 
BRANCH  30  31
ATOM     31  C   UNL     1      23.411  -8.050  49.318  1.00  0.00    -0.003 C 
ATOM     32  C   UNL     1      24.352  -9.251  49.218  1.00  0.00     0.004 C 
ENDBRANCH  30  31
ENDBRANCH  29  30
ENDBRANCH  28  29
ENDBRANCH  27  28
ENDBRANCH  26  27
ENDBRANCH  25  26
ENDBRANCH  24  25
ENDBRANCH  23  24
ENDBRANCH  22  23
ENDBRANCH  21  22
ENDBRANCH  20  21
ENDBRANCH  19  20
ENDBRANCH  18  19
ENDBRANCH   1  18
TORSDOF 28
ENDMDL
MODEL 4
REMARK VINA RESULT:    -4.373      2.726      5.215
REMARK INTER + INTRA:         -17.298
REMARK INTER:                 -11.407
REMARK INTRA:                  -5.891
REMARK UNBOUND:                -5.768
REMARK SMILES CCCCCCCCCCCCCCCCCCCCCCCCCCCCCC(=O)[O-]
REMARK SMILES IDX 16 1 17 2 18 3 19 4 20 5 21 6 22 7 23 8 24 9 25 10 26 11
REMARK SMILES IDX 27 12 28 13 29 14 30 15 31 16 32 17 15 18 14 19 13 20 12 21
REMARK SMILES IDX 11 22 10 23 9 24 8 25 7 26 6 27 5 28 4 29 3 30 2 31 1 32
REMARK H PARENT
REMARK Flexibility Score: inf
ROOT
ATOM      1  C   UNL     1      22.549  -7.691  46.006  1.00  0.00     0.000 C 
ENDROOT
BRANCH   1   2
ATOM      2  C   UNL     1      22.561  -6.635  44.889  1.00  0.00     0.000 C 
BRANCH   2   3
ATOM      3  C   UNL     1      22.165  -7.217  43.521  1.00  0.00     0.000 C 
BRANCH   3   4
ATOM      4  C   UNL     1      21.379  -8.532  43.653  1.00  0.00     0.000 C 
BRANCH   4   5
ATOM      5  C   UNL     1      19.868  -8.337  43.441  1.00  0.00     0.000 C 
BRANCH   5   6
ATOM      6  C   UNL     1      19.140  -7.922  44.730  1.00  0.00     0.000 C 
BRANCH   6   7
ATOM      7  C   UNL     1      18.687  -6.445  44.727  1.00  0.00     0.000 C 
BRANCH   7   8
ATOM      8  C   UNL     1      18.909  -5.771  43.361  1.00  0.00     0.000 C 
BRANCH   8   9
ATOM      9  C   UNL     1      19.632  -4.412  43.495  1.00  0.00     0.000 C 
BRANCH   9  10
ATOM     10  C   UNL     1      20.006  -4.053  44.943  1.00  0.00     0.000 C 
BRANCH  10  11
ATOM     11  C   UNL     1      20.996  -2.879  45.029  1.00  0.00     0.000 C 
BRANCH  11  12
ATOM     12  C   UNL     1      22.455  -3.325  44.792  1.00  0.00     0.000 C 
BRANCH  12  13
ATOM     13  C   UNL     1      23.356  -2.213  44.225  1.00  0.00     0.006 C 
BRANCH  13  14
ATOM     14  C   UNL     1      23.339  -0.938  45.076  1.00  0.00     0.053 C 
BRANCH  14  15
ATOM     15  C   UNL     1      24.095  -1.148  46.349  1.00  0.00     0.041 C 
ATOM     16  O   UNL     1      25.328  -0.896  46.404  1.00  0.00    -0.550 OA
ATOM     17  O   UNL     1      23.448  -1.667  47.464  1.00  0.00    -0.550 OA
ENDBRANCH  14  15
ENDBRANCH  13  14
ENDBRANCH  12  13
ENDBRANCH  11  12
ENDBRANCH  10  11
ENDBRANCH   9  10
ENDBRANCH   8   9
ENDBRANCH   7   8
ENDBRANCH   6   7
ENDBRANCH   5   6
ENDBRANCH   4   5
ENDBRANCH   3   4
ENDBRANCH   2   3
ENDBRANCH   1   2
BRANCH   1  18
ATOM     18  C   UNL     1      22.729  -7.072  47.405  1.00  0.00     0.000 C 
BRANCH  18  19
ATOM     19  C   UNL     1      21.756  -5.906  47.664  1.00  0.00     0.000 C 
BRANCH  19  20
ATOM     20  C   UNL     1      20.321  -6.349  48.009  1.00  0.00     0.000 C 
BRANCH  20  21
ATOM     21  C   UNL     1      20.286  -7.497  49.034  1.00  0.00     0.000 C 
BRANCH  21  22
ATOM     22  C   UNL     1      20.613  -7.026  50.468  1.00  0.00     0.000 C 
BRANCH  22  23
ATOM     23  C   UNL     1      21.897  -7.642  51.056  1.00  0.00     0.000 C 
BRANCH  23  24
ATOM     24  C   UNL     1      23.115  -6.701  51.100  1.00  0.00    -0.000 C 
BRANCH  24  25
ATOM     25  C   UNL     1      22.783  -5.199  51.235  1.00  0.00    -0.000 C 
BRANCH  25  26
ATOM     26  C   UNL     1      23.607  -4.259  50.338  1.00  0.00    -0.000 C 
BRANCH  26  27
ATOM     27  C   UNL     1      25.100  -4.628  50.294  1.00  0.00    -0.000 C 
BRANCH  27  28
ATOM     28  C   UNL     1      25.871  -3.887  49.186  1.00  0.00    -0.000 C 
BRANCH  28  29
ATOM     29  C   UNL     1      26.242  -4.739  47.958  1.00  0.00    -0.000 C 
BRANCH  29  30
ATOM     30  C   UNL     1      25.215  -4.629  46.818  1.00  0.00    -0.000 C 
BRANCH  30  31
ATOM     31  C   UNL     1      25.828  -4.938  45.443  1.00  0.00    -0.003 C 
ATOM     32  C   UNL     1      26.685  -3.793  44.905  1.00  0.00     0.004 C 
ENDBRANCH  30  31
ENDBRANCH  29  30
ENDBRANCH  28  29
ENDBRANCH  27  28
ENDBRANCH  26  27
ENDBRANCH  25  26
ENDBRANCH  24  25
ENDBRANCH  23  24
ENDBRANCH  22  23
ENDBRANCH  21  22
ENDBRANCH  20  21
ENDBRANCH  19  20
ENDBRANCH  18  19
ENDBRANCH   1  18
TORSDOF 28
ENDMDL
MODEL 5
REMARK VINA RESULT:    -4.360      1.950      5.063
REMARK INTER + INTRA:         -17.265
REMARK INTER:                 -11.324
REMARK INTRA:                  -5.941
REMARK UNBOUND:                -5.768
REMARK SMILES CCCCCCCCCCCCCCCCCCCCCCCCCCCCCC(=O)[O-]
REMARK SMILES IDX 16 1 17 2 18 3 19 4 20 5 21 6 22 7 23 8 24 9 25 10 26 11
REMARK SMILES IDX 27 12 28 13 29 14 30 15 31 16 32 17 15 18 14 19 13 20 12 21
REMARK SMILES IDX 11 22 10 23 9 24 8 25 7 26 6 27 5 28 4 29 3 30 2 31 1 32
REMARK H PARENT
REMARK Flexibility Score: inf
ROOT
ATOM      1  C   UNL     1      23.245  -4.550  49.568  1.00  0.00     0.000 C 
ENDROOT
BRANCH   1   2
ATOM      2  C   UNL     1      23.836  -5.912  49.968  1.00  0.00     0.000 C 
BRANCH   2   3
ATOM      3  C   UNL     1      23.170  -6.501  51.224  1.00  0.00     0.000 C 
BRANCH   3   4
ATOM      4  C   UNL     1      22.162  -7.611  50.882  1.00  0.00     0.000 C 
BRANCH   4   5
ATOM      5  C   UNL     1      20.755  -7.059  50.596  1.00  0.00     0.000 C 
BRANCH   5   6
ATOM      6  C   UNL     1      20.215  -7.498  49.225  1.00  0.00     0.000 C 
BRANCH   6   7
ATOM      7  C   UNL     1      20.227  -6.366  48.174  1.00  0.00     0.000 C 
BRANCH   7   8
ATOM      8  C   UNL     1      20.977  -6.768  46.893  1.00  0.00     0.000 C 
BRANCH   8   9
ATOM      9  C   UNL     1      22.102  -7.789  47.175  1.00  0.00     0.000 C 
BRANCH   9  10
ATOM     10  C   UNL     1      22.469  -8.654  45.956  1.00  0.00     0.000 C 
BRANCH  10  11
ATOM     11  C   UNL     1      21.245  -9.041  45.110  1.00  0.00     0.000 C 
BRANCH  11  12
ATOM     12  C   UNL     1      21.367  -8.555  43.649  1.00  0.00     0.000 C 
BRANCH  12  13
ATOM     13  C   UNL     1      20.320  -7.496  43.262  1.00  0.00     0.006 C 
BRANCH  13  14
ATOM     14  C   UNL     1      20.903  -6.080  43.182  1.00  0.00     0.053 C 
BRANCH  14  15
ATOM     15  C   UNL     1      19.807  -5.062  43.193  1.00  0.00     0.041 C 
ATOM     16  O   UNL     1      19.302  -4.686  44.283  1.00  0.00    -0.550 OA
ATOM     17  O   UNL     1      19.311  -4.561  41.995  1.00  0.00    -0.550 OA
ENDBRANCH  14  15
ENDBRANCH  13  14
ENDBRANCH  12  13
ENDBRANCH  11  12
ENDBRANCH  10  11
ENDBRANCH   9  10
ENDBRANCH   8   9
ENDBRANCH   7   8
ENDBRANCH   6   7
ENDBRANCH   5   6
ENDBRANCH   4   5
ENDBRANCH   3   4
ENDBRANCH   2   3
ENDBRANCH   1   2
BRANCH   1  18
ATOM     18  C   UNL     1      23.002  -3.634  50.782  1.00  0.00     0.000 C 
BRANCH  18  19
ATOM     19  C   UNL     1      23.166  -2.142  50.437  1.00  0.00     0.000 C 
BRANCH  19  20
ATOM     20  C   UNL     1      23.421  -1.866  48.943  1.00  0.00     0.000 C 
BRANCH  20  21
ATOM     21  C   UNL     1      24.811  -1.256  48.682  1.00  0.00     0.000 C 
BRANCH  21  22
ATOM     22  C   UNL     1      25.114  -1.087  47.177  1.00  0.00     0.000 C 
BRANCH  22  23
ATOM     23  C   UNL     1      26.165  -2.074  46.633  1.00  0.00     0.000 C 
BRANCH  23  24
ATOM     24  C   UNL     1      26.752  -3.046  47.672  1.00  0.00    -0.000 C 
BRANCH  24  25
ATOM     25  C   UNL     1      26.347  -4.525  47.494  1.00  0.00    -0.000 C 
BRANCH  25  26
ATOM     26  C   UNL     1      26.037  -4.955  46.049  1.00  0.00    -0.000 C 
BRANCH  26  27
ATOM     27  C   UNL     1      24.672  -5.651  45.911  1.00  0.00    -0.000 C 
BRANCH  27  28
ATOM     28  C   UNL     1      23.648  -4.815  45.121  1.00  0.00    -0.000 C 
BRANCH  28  29
ATOM     29  C   UNL     1      22.898  -3.747  45.938  1.00  0.00    -0.000 C 
BRANCH  29  30
ATOM     30  C   UNL     1      22.114  -2.757  45.058  1.00  0.00    -0.000 C 
BRANCH  30  31
ATOM     31  C   UNL     1      23.037  -1.842  44.238  1.00  0.00    -0.003 C 
ATOM     32  C   UNL     1      22.621  -0.372  44.300  1.00  0.00     0.004 C 
ENDBRANCH  30  31
ENDBRANCH  29  30
ENDBRANCH  28  29
ENDBRANCH  27  28
ENDBRANCH  26  27
ENDBRANCH  25  26
ENDBRANCH  24  25
ENDBRANCH  23  24
ENDBRANCH  22  23
ENDBRANCH  21  22
ENDBRANCH  20  21
ENDBRANCH  19  20
ENDBRANCH  18  19
ENDBRANCH   1  18
TORSDOF 28
ENDMDL
MODEL 6
REMARK VINA RESULT:    -4.356      1.527      2.077
REMARK INTER + INTRA:         -17.254
REMARK INTER:                 -11.172
REMARK INTRA:                  -6.082
REMARK UNBOUND:                -5.768
REMARK SMILES CCCCCCCCCCCCCCCCCCCCCCCCCCCCCC(=O)[O-]
REMARK SMILES IDX 16 1 17 2 18 3 19 4 20 5 21 6 22 7 23 8 24 9 25 10 26 11
REMARK SMILES IDX 27 12 28 13 29 14 30 15 31 16 32 17 15 18 14 19 13 20 12 21
REMARK SMILES IDX 11 22 10 23 9 24 8 25 7 26 6 27 5 28 4 29 3 30 2 31 1 32
REMARK H PARENT
REMARK Flexibility Score: inf
ROOT
ATOM      1  C   UNL     1      20.594  -7.284  48.183  1.00  0.00     0.000 C 
ENDROOT
BRANCH   1   2
ATOM      2  C   UNL     1      20.863  -5.936  47.496  1.00  0.00     0.000 C 
BRANCH   2   3
ATOM      3  C   UNL     1      22.351  -5.547  47.516  1.00  0.00     0.000 C 
BRANCH   3   4
ATOM      4  C   UNL     1      23.166  -6.308  46.457  1.00  0.00     0.000 C 
BRANCH   4   5
ATOM      5  C   UNL     1      24.352  -5.485  45.926  1.00  0.00     0.000 C 
BRANCH   5   6
ATOM      6  C   UNL     1      24.638  -4.241  46.782  1.00  0.00     0.000 C 
BRANCH   6   7
ATOM      7  C   UNL     1      25.996  -3.578  46.462  1.00  0.00     0.000 C 
BRANCH   7   8
ATOM      8  C   UNL     1      25.867  -2.060  46.247  1.00  0.00     0.000 C 
BRANCH   8   9
ATOM      9  C   UNL     1      24.791  -1.711  45.194  1.00  0.00     0.000 C 
BRANCH   9  10
ATOM     10  C   UNL     1      23.616  -0.896  45.761  1.00  0.00     0.000 C 
BRANCH  10  11
ATOM     11  C   UNL     1      22.272  -1.637  45.657  1.00  0.00     0.000 C 
BRANCH  11  12
ATOM     12  C   UNL     1      22.078  -2.307  44.280  1.00  0.00     0.000 C 
BRANCH  12  13
ATOM     13  C   UNL     1      21.481  -3.723  44.361  1.00  0.00     0.006 C 
BRANCH  13  14
ATOM     14  C   UNL     1      19.966  -3.722  44.598  1.00  0.00     0.053 C 
BRANCH  14  15
ATOM     15  C   UNL     1      19.247  -4.215  43.383  1.00  0.00     0.041 C 
ATOM     16  O   UNL     1      18.045  -3.897  43.184  1.00  0.00    -0.550 OA
ATOM     17  O   UNL     1      19.891  -5.066  42.492  1.00  0.00    -0.550 OA
ENDBRANCH  14  15
ENDBRANCH  13  14
ENDBRANCH  12  13
ENDBRANCH  11  12
ENDBRANCH  10  11
ENDBRANCH   9  10
ENDBRANCH   8   9
ENDBRANCH   7   8
ENDBRANCH   6   7
ENDBRANCH   5   6
ENDBRANCH   4   5
ENDBRANCH   3   4
ENDBRANCH   2   3
ENDBRANCH   1   2
BRANCH   1  18
ATOM     18  C   UNL     1      19.878  -7.125  49.537  1.00  0.00     0.000 C 
BRANCH  18  19
ATOM     19  C   UNL     1      20.753  -7.573  50.723  1.00  0.00     0.000 C 
BRANCH  19  20
ATOM     20  C   UNL     1      21.950  -6.646  51.007  1.00  0.00     0.000 C 
BRANCH  20  21
ATOM     21  C   UNL     1      23.187  -7.414  51.510  1.00  0.00     0.000 C 
BRANCH  21  22
ATOM     22  C   UNL     1      23.481  -8.680  50.677  1.00  0.00     0.000 C 
BRANCH  22  23
ATOM     23  C   UNL     1      24.051  -8.393  49.274  1.00  0.00     0.000 C 
BRANCH  23  24
ATOM     24  C   UNL     1      25.582  -8.255  49.204  1.00  0.00    -0.000 C 
BRANCH  24  25
ATOM     25  C   UNL     1      26.104  -6.826  48.941  1.00  0.00    -0.000 C 
BRANCH  25  26
ATOM     26  C   UNL     1      26.403  -5.991  50.199  1.00  0.00    -0.000 C 
BRANCH  26  27
ATOM     27  C   UNL     1      26.788  -4.537  49.875  1.00  0.00    -0.000 C 
BRANCH  27  28
ATOM     28  C   UNL     1      25.755  -3.514  50.383  1.00  0.00    -0.000 C 
BRANCH  28  29
ATOM     29  C   UNL     1      24.304  -4.023  50.457  1.00  0.00    -0.000 C 
BRANCH  29  30
ATOM     30  C   UNL     1      23.279  -2.892  50.650  1.00  0.00    -0.000 C 
BRANCH  30  31
ATOM     31  C   UNL     1      22.857  -2.247  49.320  1.00  0.00    -0.003 C 
ATOM     32  C   UNL     1      21.978  -1.012  49.513  1.00  0.00     0.004 C 
ENDBRANCH  30  31
ENDBRANCH  29  30
ENDBRANCH  28  29
ENDBRANCH  27  28
ENDBRANCH  26  27
ENDBRANCH  25  26
ENDBRANCH  24  25
ENDBRANCH  23  24
ENDBRANCH  22  23
ENDBRANCH  21  22
ENDBRANCH  20  21
ENDBRANCH  19  20
ENDBRANCH  18  19
ENDBRANCH   1  18
TORSDOF 28
ENDMDL
MODEL 7
REMARK VINA RESULT:    -4.327      2.730      5.995
REMARK INTER + INTRA:         -17.177
REMARK INTER:                 -11.330
REMARK INTRA:                  -5.846
REMARK UNBOUND:                -5.768
REMARK SMILES CCCCCCCCCCCCCCCCCCCCCCCCCCCCCC(=O)[O-]
REMARK SMILES IDX 16 1 17 2 18 3 19 4 20 5 21 6 22 7 23 8 24 9 25 10 26 11
REMARK SMILES IDX 27 12 28 13 29 14 30 15 31 16 32 17 15 18 14 19 13 20 12 21
REMARK SMILES IDX 11 22 10 23 9 24 8 25 7 26 6 27 5 28 4 29 3 30 2 31 1 32
REMARK H PARENT
REMARK Flexibility Score: inf
ROOT
ATOM      1  C   UNL     1      18.628  -4.586  43.349  1.00  0.00     0.000 C 
ENDROOT
BRANCH   1   2
ATOM      2  C   UNL     1      18.254  -6.074  43.254  1.00  0.00     0.000 C 
BRANCH   2   3
ATOM      3  C   UNL     1      18.649  -6.864  44.514  1.00  0.00     0.000 C 
BRANCH   3   4
ATOM      4  C   UNL     1      19.510  -8.094  44.183  1.00  0.00     0.000 C 
BRANCH   4   5
ATOM      5  C   UNL     1      20.909  -7.711  43.670  1.00  0.00     0.000 C 
BRANCH   5   6
ATOM      6  C   UNL     1      22.027  -8.118  44.644  1.00  0.00     0.000 C 
BRANCH   6   7
ATOM      7  C   UNL     1      21.527  -8.980  45.824  1.00  0.00     0.000 C 
BRANCH   7   8
ATOM      8  C   UNL     1      22.509  -8.972  47.008  1.00  0.00     0.000 C 
BRANCH   8   9
ATOM      9  C   UNL     1      23.893  -8.414  46.612  1.00  0.00     0.000 C 
BRANCH   9  10
ATOM     10  C   UNL     1      24.273  -7.121  47.354  1.00  0.00     0.000 C 
BRANCH  10  11
ATOM     11  C   UNL     1      24.639  -5.971  46.401  1.00  0.00     0.000 C 
BRANCH  11  12
ATOM     12  C   UNL     1      24.647  -4.601  47.112  1.00  0.00     0.000 C 
BRANCH  12  13
ATOM     13  C   UNL     1      25.898  -3.757  46.812  1.00  0.00     0.006 C 
BRANCH  13  14
ATOM     14  C   UNL     1      25.590  -2.262  46.663  1.00  0.00     0.053 C 
BRANCH  14  15
ATOM     15  C   UNL     1      25.386  -1.911  45.224  1.00  0.00     0.041 C 
ATOM     16  O   UNL     1      24.249  -2.033  44.696  1.00  0.00    -0.550 OA
ATOM     17  O   UNL     1      26.462  -1.490  44.451  1.00  0.00    -0.550 OA
ENDBRANCH  14  15
ENDBRANCH  13  14
ENDBRANCH  12  13
ENDBRANCH  11  12
ENDBRANCH  10  11
ENDBRANCH   9  10
ENDBRANCH   8   9
ENDBRANCH   7   8
ENDBRANCH   6   7
ENDBRANCH   5   6
ENDBRANCH   4   5
ENDBRANCH   3   4
ENDBRANCH   2   3
ENDBRANCH   1   2
BRANCH   1  18
ATOM     18  C   UNL     1      20.100  -4.323  42.981  1.00  0.00     0.000 C 
BRANCH  18  19
ATOM     19  C   UNL     1      20.853  -3.545  44.077  1.00  0.00     0.000 C 
BRANCH  19  20
ATOM     20  C   UNL     1      21.470  -4.437  45.171  1.00  0.00     0.000 C 
BRANCH  20  21
ATOM     21  C   UNL     1      20.631  -4.456  46.463  1.00  0.00     0.000 C 
BRANCH  21  22
ATOM     22  C   UNL     1      21.055  -5.582  47.431  1.00  0.00     0.000 C 
BRANCH  22  23
ATOM     23  C   UNL     1      19.896  -6.488  47.890  1.00  0.00     0.000 C 
BRANCH  23  24
ATOM     24  C   UNL     1      20.052  -7.091  49.297  1.00  0.00    -0.000 C 
BRANCH  24  25
ATOM     25  C   UNL     1      21.506  -7.222  49.800  1.00  0.00    -0.000 C 
BRANCH  25  26
ATOM     26  C   UNL     1      21.818  -6.484  51.115  1.00  0.00    -0.000 C 
BRANCH  26  27
ATOM     27  C   UNL     1      23.156  -5.727  51.074  1.00  0.00    -0.000 C 
BRANCH  27  28
ATOM     28  C   UNL     1      22.980  -4.198  51.027  1.00  0.00    -0.000 C 
BRANCH  28  29
ATOM     29  C   UNL     1      24.125  -3.422  50.350  1.00  0.00    -0.000 C 
BRANCH  29  30
ATOM     30  C   UNL     1      23.895  -1.901  50.336  1.00  0.00    -0.000 C 
BRANCH  30  31
ATOM     31  C   UNL     1      22.527  -1.518  49.750  1.00  0.00    -0.003 C 
ATOM     32  C   UNL     1      22.445  -1.739  48.240  1.00  0.00     0.004 C 
ENDBRANCH  30  31
ENDBRANCH  29  30
ENDBRANCH  28  29
ENDBRANCH  27  28
ENDBRANCH  26  27
ENDBRANCH  25  26
ENDBRANCH  24  25
ENDBRANCH  23  24
ENDBRANCH  22  23
ENDBRANCH  21  22
ENDBRANCH  20  21
ENDBRANCH  19  20
ENDBRANCH  18  19
ENDBRANCH   1  18
TORSDOF 28
ENDMDL
MODEL 8
REMARK VINA RESULT:    -4.275      2.502      5.904
REMARK INTER + INTRA:         -17.040
REMARK INTER:                 -11.100
REMARK INTRA:                  -5.940
REMARK UNBOUND:                -5.768
REMARK SMILES CCCCCCCCCCCCCCCCCCCCCCCCCCCCCC(=O)[O-]
REMARK SMILES IDX 16 1 17 2 18 3 19 4 20 5 21 6 22 7 23 8 24 9 25 10 26 11
REMARK SMILES IDX 27 12 28 13 29 14 30 15 31 16 32 17 15 18 14 19 13 20 12 21
REMARK SMILES IDX 11 22 10 23 9 24 8 25 7 26 6 27 5 28 4 29 3 30 2 31 1 32
REMARK H PARENT
REMARK Flexibility Score: inf
ROOT
ATOM      1  C   UNL     1      21.424  -5.621  45.870  1.00  0.00     0.000 C 
ENDROOT
BRANCH   1   2
ATOM      2  C   UNL     1      21.101  -5.477  47.365  1.00  0.00     0.000 C 
BRANCH   2   3
ATOM      3  C   UNL     1      19.871  -6.299  47.787  1.00  0.00     0.000 C 
BRANCH   3   4
ATOM      4  C   UNL     1      20.245  -7.483  48.695  1.00  0.00     0.000 C 
BRANCH   4   5
ATOM      5  C   UNL     1      20.376  -7.071  50.171  1.00  0.00     0.000 C 
BRANCH   5   6
ATOM      6  C   UNL     1      21.812  -7.217  50.700  1.00  0.00     0.000 C 
BRANCH   6   7
ATOM      7  C   UNL     1      22.448  -5.873  51.119  1.00  0.00     0.000 C 
BRANCH   7   8
ATOM      8  C   UNL     1      23.919  -5.763  50.680  1.00  0.00     0.000 C 
BRANCH   8   9
ATOM      9  C   UNL     1      24.418  -4.301  50.681  1.00  0.00     0.000 C 
BRANCH   9  10
ATOM     10  C   UNL     1      23.284  -3.263  50.630  1.00  0.00     0.000 C 
BRANCH  10  11
ATOM     11  C   UNL     1      23.744  -1.905  50.075  1.00  0.00     0.000 C 
BRANCH  11  12
ATOM     12  C   UNL     1      24.809  -2.056  48.967  1.00  0.00     0.000 C 
BRANCH  12  13
ATOM     13  C   UNL     1      24.340  -1.559  47.588  1.00  0.00     0.006 C 
BRANCH  13  14
ATOM     14  C   UNL     1      23.106  -2.307  47.070  1.00  0.00     0.053 C 
BRANCH  14  15
ATOM     15  C   UNL     1      22.643  -1.718  45.776  1.00  0.00     0.041 C 
ATOM     16  O   UNL     1      23.281  -0.770  45.246  1.00  0.00    -0.550 OA
ATOM     17  O   UNL     1      21.480  -2.185  45.175  1.00  0.00    -0.550 OA
ENDBRANCH  14  15
ENDBRANCH  13  14
ENDBRANCH  12  13
ENDBRANCH  11  12
ENDBRANCH  10  11
ENDBRANCH   9  10
ENDBRANCH   8   9
ENDBRANCH   7   8
ENDBRANCH   6   7
ENDBRANCH   5   6
ENDBRANCH   4   5
ENDBRANCH   3   4
ENDBRANCH   2   3
ENDBRANCH   1   2
BRANCH   1  18
ATOM     18  C   UNL     1      20.158  -5.642  44.993  1.00  0.00     0.000 C 
BRANCH  18  19
ATOM     19  C   UNL     1      20.262  -6.647  43.830  1.00  0.00     0.000 C 
BRANCH  19  20
ATOM     20  C   UNL     1      21.687  -7.173  43.578  1.00  0.00     0.000 C 
BRANCH  20  21
ATOM     21  C   UNL     1      21.799  -8.697  43.772  1.00  0.00     0.000 C 
BRANCH  21  22
ATOM     22  C   UNL     1      20.944  -9.212  44.950  1.00  0.00     0.000 C 
BRANCH  22  23
ATOM     23  C   UNL     1      21.752  -9.540  46.220  1.00  0.00     0.000 C 
BRANCH  23  24
ATOM     24  C   UNL     1      23.180  -8.966  46.253  1.00  0.00    -0.000 C 
BRANCH  24  25
ATOM     25  C   UNL     1      23.583  -8.277  47.575  1.00  0.00    -0.000 C 
BRANCH  25  26
ATOM     26  C   UNL     1      24.910  -7.498  47.534  1.00  0.00    -0.000 C 
BRANCH  26  27
ATOM     27  C   UNL     1      24.734  -6.038  47.082  1.00  0.00    -0.000 C 
BRANCH  27  28
ATOM     28  C   UNL     1      25.977  -5.170  47.355  1.00  0.00    -0.000 C 
BRANCH  28  29
ATOM     29  C   UNL     1      26.468  -4.329  46.162  1.00  0.00    -0.000 C 
BRANCH  29  30
ATOM     30  C   UNL     1      25.473  -4.310  44.989  1.00  0.00    -0.000 C 
BRANCH  30  31
ATOM     31  C   UNL     1      25.731  -3.147  44.018  1.00  0.00    -0.003 C 
ATOM     32  C   UNL     1      26.914  -3.405  43.085  1.00  0.00     0.004 C 
ENDBRANCH  30  31
ENDBRANCH  29  30
ENDBRANCH  28  29
ENDBRANCH  27  28
ENDBRANCH  26  27
ENDBRANCH  25  26
ENDBRANCH  24  25
ENDBRANCH  23  24
ENDBRANCH  22  23
ENDBRANCH  21  22
ENDBRANCH  20  21
ENDBRANCH  19  20
ENDBRANCH  18  19
ENDBRANCH   1  18
TORSDOF 28
ENDMDL
MODEL 9
REMARK VINA RESULT:    -4.272      1.355      4.940
REMARK INTER + INTRA:         -17.032
REMARK INTER:                 -11.012
REMARK INTRA:                  -6.020
REMARK UNBOUND:                -5.768
REMARK SMILES CCCCCCCCCCCCCCCCCCCCCCCCCCCCCC(=O)[O-]
REMARK SMILES IDX 16 1 17 2 18 3 19 4 20 5 21 6 22 7 23 8 24 9 25 10 26 11
REMARK SMILES IDX 27 12 28 13 29 14 30 15 31 16 32 17 15 18 14 19 13 20 12 21
REMARK SMILES IDX 11 22 10 23 9 24 8 25 7 26 6 27 5 28 4 29 3 30 2 31 1 32
REMARK H PARENT
REMARK Flexibility Score: inf
ROOT
ATOM      1  C   UNL     1      24.020  -1.348  45.481  1.00  0.00     0.000 C 
ENDROOT
BRANCH   1   2
ATOM      2  C   UNL     1      23.603  -2.356  44.398  1.00  0.00     0.000 C 
BRANCH   2   3
ATOM      3  C   UNL     1      22.082  -2.589  44.361  1.00  0.00     0.000 C 
BRANCH   3   4
ATOM      4  C   UNL     1      21.711  -4.055  44.639  1.00  0.00     0.000 C 
BRANCH   4   5
ATOM      5  C   UNL     1      20.656  -4.192  45.750  1.00  0.00     0.000 C 
BRANCH   5   6
ATOM      6  C   UNL     1      21.136  -5.072  46.916  1.00  0.00     0.000 C 
BRANCH   6   7
ATOM      7  C   UNL     1      20.126  -6.173  47.307  1.00  0.00     0.000 C 
BRANCH   7   8
ATOM      8  C   UNL     1      20.783  -7.562  47.393  1.00  0.00     0.000 C 
BRANCH   8   9
ATOM      9  C   UNL     1      22.303  -7.503  47.127  1.00  0.00     0.000 C 
BRANCH   9  10
ATOM     10  C   UNL     1      22.808  -8.611  46.186  1.00  0.00     0.000 C 
BRANCH  10  11
ATOM     11  C   UNL     1      21.876  -8.842  44.985  1.00  0.00     0.000 C 
BRANCH  11  12
ATOM     12  C   UNL     1      22.005  -7.731  43.921  1.00  0.00     0.000 C 
BRANCH  12  13
ATOM     13  C   UNL     1      20.659  -7.299  43.314  1.00  0.00     0.006 C 
BRANCH  13  14
ATOM     14  C   UNL     1      19.458  -8.003  43.957  1.00  0.00     0.053 C 
BRANCH  14  15
ATOM     15  C   UNL     1      18.358  -7.025  44.221  1.00  0.00     0.041 C 
ATOM     16  O   UNL     1      17.538  -7.230  45.155  1.00  0.00    -0.550 OA
ATOM     17  O   UNL     1      18.211  -5.908  43.408  1.00  0.00    -0.550 OA
ENDBRANCH  14  15
ENDBRANCH  13  14
ENDBRANCH  12  13
ENDBRANCH  11  12
ENDBRANCH  10  11
ENDBRANCH   9  10
ENDBRANCH   8   9
ENDBRANCH   7   8
ENDBRANCH   6   7
ENDBRANCH   5   6
ENDBRANCH   4   5
ENDBRANCH   3   4
ENDBRANCH   2   3
ENDBRANCH   1   2
BRANCH   1  18
ATOM     18  C   UNL     1      23.232  -1.531  46.792  1.00  0.00     0.000 C 
BRANCH  18  19
ATOM     19  C   UNL     1      23.854  -2.600  47.710  1.00  0.00     0.000 C 
BRANCH  19  20
ATOM     20  C   UNL     1      23.108  -2.796  49.043  1.00  0.00     0.000 C 
BRANCH  20  21
ATOM     21  C   UNL     1      24.064  -3.005  50.232  1.00  0.00     0.000 C 
BRANCH  21  22
ATOM     22  C   UNL     1      24.101  -4.471  50.716  1.00  0.00     0.000 C 
BRANCH  22  23
ATOM     23  C   UNL     1      23.061  -5.384  50.038  1.00  0.00     0.000 C 
BRANCH  23  24
ATOM     24  C   UNL     1      22.093  -6.101  50.997  1.00  0.00    -0.000 C 
BRANCH  24  25
ATOM     25  C   UNL     1      22.075  -7.641  50.887  1.00  0.00    -0.000 C 
BRANCH  25  26
ATOM     26  C   UNL     1      23.406  -8.341  51.215  1.00  0.00    -0.000 C 
BRANCH  26  27
ATOM     27  C   UNL     1      24.045  -9.016  49.990  1.00  0.00    -0.000 C 
BRANCH  27  28
ATOM     28  C   UNL     1      25.576  -8.859  49.947  1.00  0.00    -0.000 C 
BRANCH  28  29
ATOM     29  C   UNL     1      26.086  -7.496  49.445  1.00  0.00    -0.000 C 
BRANCH  29  30
ATOM     30  C   UNL     1      26.967  -7.608  48.189  1.00  0.00    -0.000 C 
BRANCH  30  31
ATOM     31  C   UNL     1      26.291  -7.018  46.941  1.00  0.00    -0.003 C 
ATOM     32  C   UNL     1      25.450  -5.780  47.253  1.00  0.00     0.004 C 
ENDBRANCH  30  31
ENDBRANCH  29  30
ENDBRANCH  28  29
ENDBRANCH  27  28
ENDBRANCH  26  27
ENDBRANCH  25  26
ENDBRANCH  24  25
ENDBRANCH  23  24
ENDBRANCH  22  23
ENDBRANCH  21  22
ENDBRANCH  20  21
ENDBRANCH  19  20
ENDBRANCH  18  19
ENDBRANCH   1  18
TORSDOF 28
ENDMDL
