MODEL 1
REMARK VINA RESULT:    -2.998      0.000      0.000
REMARK INTER + INTRA:          -3.261
REMARK INTER:                  -3.261
REMARK INTRA:                   0.000
REMARK UNBOUND:                 0.000
REMARK SMILES [NH3+]CC(=O)[O-]
REMARK SMILES IDX 2 1 1 2 3 6 4 7 5 8
REMARK H PARENT 1 3 1 4 1 5
REMARK Flexibility Score: inf
ROOT
ATOM      1  C   UNL     1      46.583  58.600  87.702  1.00  0.00     0.312 C 
ENDROOT
BRANCH   1   2
ATOM      2  N   UNL     1      47.576  58.706  86.635  1.00  0.00    -0.353 N 
ATOM      3  H   UNL     1      47.102  58.706  85.703  1.00  0.00     0.344 HD
ATOM      4  H   UNL     1      48.103  59.602  86.747  1.00  0.00     0.344 HD
ATOM      5  H   UNL     1      48.250  57.908  86.690  1.00  0.00     0.344 HD
ENDBRANCH   1   2
BRANCH   1   6
ATOM      6  C   UNL     1      47.118  57.786  88.840  1.00  0.00     0.096 C 
ATOM      7  O   UNL     1      47.553  58.354  89.876  1.00  0.00    -0.544 OA
ATOM      8  O   UNL     1      47.182  56.402  88.735  1.00  0.00    -0.544 OA
ENDBRANCH   1   6
TORSDOF 2
ENDMDL
MODEL 2
REMARK VINA RESULT:    -2.966      6.888      7.158
REMARK INTER + INTRA:          -3.226
REMARK INTER:                  -3.226
REMARK INTRA:                   0.000
REMARK UNBOUND:                 0.000
REMARK SMILES [NH3+]CC(=O)[O-]
REMARK SMILES IDX 2 1 1 2 3 6 4 7 5 8
REMARK H PARENT 1 3 1 4 1 5
REMARK Flexibility Score: inf
ROOT
ATOM      1  C   UNL     1      44.860  59.250  95.011  1.00  0.00     0.312 C 
ENDROOT
BRANCH   1   2
ATOM      2  N   UNL     1      43.822  59.588  95.982  1.00  0.00    -0.353 N 
ATOM      3  H   UNL     1      43.357  58.718  96.329  1.00  0.00     0.344 HD
ATOM      4  H   UNL     1      44.260  60.085  96.791  1.00  0.00     0.344 HD
ATOM      5  H   UNL     1      43.111  60.219  95.544  1.00  0.00     0.344 HD
ENDBRANCH   1   2
BRANCH   1   6
ATOM      6  C   UNL     1      44.342  58.268  94.006  1.00  0.00     0.096 C 
ATOM      7  O   UNL     1      44.042  58.649  92.844  1.00  0.00    -0.544 OA
ATOM      8  O   UNL     1      44.144  56.941  94.369  1.00  0.00    -0.544 OA
ENDBRANCH   1   6
TORSDOF 2
ENDMDL
MODEL 3
REMARK VINA RESULT:    -2.761      5.574      5.958
REMARK INTER + INTRA:          -3.003
REMARK INTER:                  -3.003
REMARK INTRA:                   0.000
REMARK UNBOUND:                 0.000
REMARK SMILES [NH3+]CC(=O)[O-]
REMARK SMILES IDX 2 1 1 2 3 6 4 7 5 8
REMARK H PARENT 1 3 1 4 1 5
REMARK Flexibility Score: inf
ROOT
ATOM      1  C   UNL     1      45.918  52.997  91.948  1.00  0.00     0.312 C 
ENDROOT
BRANCH   1   2
ATOM      2  N   UNL     1      47.126  52.703  92.717  1.00  0.00    -0.353 N 
ATOM      3  H   UNL     1      46.892  52.094  93.534  1.00  0.00     0.344 HD
ATOM      4  H   UNL     1      47.807  52.200  92.103  1.00  0.00     0.344 HD
ATOM      5  H   UNL     1      47.564  53.592  93.051  1.00  0.00     0.344 HD
ENDBRANCH   1   2
BRANCH   1   6
ATOM      6  C   UNL     1      45.795  54.468  91.702  1.00  0.00     0.096 C 
ATOM      7  O   UNL     1      46.526  55.031  90.845  1.00  0.00    -0.544 OA
ATOM      8  O   UNL     1      44.908  55.227  92.455  1.00  0.00    -0.544 OA
ENDBRANCH   1   6
TORSDOF 2
ENDMDL
MODEL 4
REMARK VINA RESULT:    -2.719      5.664      6.050
REMARK INTER + INTRA:          -2.957
REMARK INTER:                  -2.957
REMARK INTRA:                   0.000
REMARK UNBOUND:                 0.000
REMARK SMILES [NH3+]CC(=O)[O-]
REMARK SMILES IDX 2 1 1 2 3 6 4 7 5 8
REMARK H PARENT 1 3 1 4 1 5
REMARK Flexibility Score: inf
ROOT
ATOM      1  C   UNL     1      45.292  52.776  91.768  1.00  0.00     0.312 C 
ENDROOT
BRANCH   1   2
ATOM      2  N   UNL     1      44.118  52.429  90.969  1.00  0.00    -0.353 N 
ATOM      3  H   UNL     1      43.288  52.295  91.589  1.00  0.00     0.344 HD
ATOM      4  H   UNL     1      43.919  53.207  90.299  1.00  0.00     0.344 HD
ATOM      5  H   UNL     1      44.300  51.553  90.425  1.00  0.00     0.344 HD
ENDBRANCH   1   2
BRANCH   1   6
ATOM      6  C   UNL     1      45.546  54.251  91.717  1.00  0.00     0.096 C 
ATOM      7  O   UNL     1      46.388  54.720  90.907  1.00  0.00    -0.544 OA
ATOM      8  O   UNL     1      44.892  55.101  92.600  1.00  0.00    -0.544 OA
ENDBRANCH   1   6
TORSDOF 2
ENDMDL
MODEL 5
REMARK VINA RESULT:    -2.714      6.058      6.442
REMARK INTER + INTRA:          -2.952
REMARK INTER:                  -2.952
REMARK INTRA:                   0.000
REMARK UNBOUND:                 0.000
REMARK SMILES [NH3+]CC(=O)[O-]
REMARK SMILES IDX 2 1 1 2 3 6 4 7 5 8
REMARK H PARENT 1 3 1 4 1 5
REMARK Flexibility Score: inf
ROOT
ATOM      1  C   UNL     1      44.121  56.610  94.023  1.00  0.00     0.312 C 
ENDROOT
BRANCH   1   2
ATOM      2  N   UNL     1      43.776  56.111  92.693  1.00  0.00    -0.353 N 
ATOM      3  H   UNL     1      44.057  56.806  91.965  1.00  0.00     0.344 HD
ATOM      4  H   UNL     1      44.286  55.215  92.522  1.00  0.00     0.344 HD
ATOM      5  H   UNL     1      42.747  55.931  92.633  1.00  0.00     0.344 HD
ENDBRANCH   1   2
BRANCH   1   6
ATOM      6  C   UNL     1      44.372  58.086  93.984  1.00  0.00     0.096 C 
ATOM      7  O   UNL     1      44.111  58.799  94.989  1.00  0.00    -0.544 OA
ATOM      8  O   UNL     1      44.845  58.681  92.821  1.00  0.00    -0.544 OA
ENDBRANCH   1   6
TORSDOF 2
ENDMDL
MODEL 6
REMARK VINA RESULT:    -2.700      2.466      2.676
REMARK INTER + INTRA:          -2.937
REMARK INTER:                  -2.937
REMARK INTRA:                   0.000
REMARK UNBOUND:                 0.000
REMARK SMILES [NH3+]CC(=O)[O-]
REMARK SMILES IDX 2 1 1 2 3 6 4 7 5 8
REMARK H PARENT 1 3 1 4 1 5
REMARK Flexibility Score: inf
ROOT
ATOM      1  C   UNL     1      47.261  56.151  89.048  1.00  0.00     0.312 C 
ENDROOT
BRANCH   1   2
ATOM      2  N   UNL     1      47.668  55.724  90.385  1.00  0.00    -0.353 N 
ATOM      3  H   UNL     1      48.360  54.943  90.318  1.00  0.00     0.344 HD
ATOM      4  H   UNL     1      48.113  56.530  90.880  1.00  0.00     0.344 HD
ATOM      5  H   UNL     1      46.832  55.412  90.932  1.00  0.00     0.344 HD
ENDBRANCH   1   2
BRANCH   1   6
ATOM      6  C   UNL     1      47.152  57.643  88.981  1.00  0.00     0.096 C 
ATOM      7  O   UNL     1      47.511  58.348  89.960  1.00  0.00    -0.544 OA
ATOM      8  O   UNL     1      46.607  58.251  87.858  1.00  0.00    -0.544 OA
ENDBRANCH   1   6
TORSDOF 2
ENDMDL
MODEL 7
REMARK VINA RESULT:    -2.674      6.831      7.291
REMARK INTER + INTRA:          -2.908
REMARK INTER:                  -2.908
REMARK INTRA:                   0.000
REMARK UNBOUND:                 0.000
REMARK SMILES [NH3+]CC(=O)[O-]
REMARK SMILES IDX 2 1 1 2 3 6 4 7 5 8
REMARK H PARENT 1 3 1 4 1 5
REMARK Flexibility Score: inf
ROOT
ATOM      1  C   UNL     1      46.298  51.608  92.308  1.00  0.00     0.312 C 
ENDROOT
BRANCH   1   2
ATOM      2  N   UNL     1      47.171  52.696  92.744  1.00  0.00    -0.353 N 
ATOM      3  H   UNL     1      48.089  52.312  93.065  1.00  0.00     0.344 HD
ATOM      4  H   UNL     1      47.337  53.343  91.940  1.00  0.00     0.344 HD
ATOM      5  H   UNL     1      46.718  53.230  93.521  1.00  0.00     0.344 HD
ENDBRANCH   1   2
BRANCH   1   6
ATOM      6  C   UNL     1      45.052  52.151  91.680  1.00  0.00     0.096 C 
ATOM      7  O   UNL     1      45.029  53.329  91.234  1.00  0.00    -0.544 OA
ATOM      8  O   UNL     1      43.901  51.375  91.633  1.00  0.00    -0.544 OA
ENDBRANCH   1   6
TORSDOF 2
ENDMDL
MODEL 8
REMARK VINA RESULT:    -2.658      6.665      7.085
REMARK INTER + INTRA:          -2.891
REMARK INTER:                  -2.891
REMARK INTRA:                   0.000
REMARK UNBOUND:                 0.000
REMARK SMILES [NH3+]CC(=O)[O-]
REMARK SMILES IDX 2 1 1 2 3 6 4 7 5 8
REMARK H PARENT 1 3 1 4 1 5
REMARK Flexibility Score: inf
ROOT
ATOM      1  C   UNL     1      44.993  51.681  91.876  1.00  0.00     0.312 C 
ENDROOT
BRANCH   1   2
ATOM      2  N   UNL     1      44.229  52.514  90.950  1.00  0.00    -0.353 N 
ATOM      3  H   UNL     1      44.462  52.261  89.963  1.00  0.00     0.344 HD
ATOM      4  H   UNL     1      43.208  52.353  91.109  1.00  0.00     0.344 HD
ATOM      5  H   UNL     1      44.442  53.525  91.116  1.00  0.00     0.344 HD
ENDBRANCH   1   2
BRANCH   1   6
ATOM      6  C   UNL     1      46.323  52.302  92.169  1.00  0.00     0.096 C 
ATOM      7  O   UNL     1      47.365  51.595  92.173  1.00  0.00    -0.544 OA
ATOM      8  O   UNL     1      46.406  53.652  92.487  1.00  0.00    -0.544 OA
ENDBRANCH   1   6
TORSDOF 2
ENDMDL
MODEL 9
REMARK VINA RESULT:    -2.563      2.517      2.862
REMARK INTER + INTRA:          -2.787
REMARK INTER:                  -2.787
REMARK INTRA:                   0.000
REMARK UNBOUND:                 0.000
REMARK SMILES [NH3+]CC(=O)[O-]
REMARK SMILES IDX 2 1 1 2 3 6 4 7 5 8
REMARK H PARENT 1 3 1 4 1 5
REMARK Flexibility Score: inf
ROOT
ATOM      1  C   UNL     1      47.317  57.936  90.363  1.00  0.00     0.312 C 
ENDROOT
BRANCH   1   2
ATOM      2  N   UNL     1      46.057  57.993  91.102  1.00  0.00    -0.353 N 
ATOM      3  H   UNL     1      45.337  58.506  90.544  1.00  0.00     0.344 HD
ATOM      4  H   UNL     1      45.720  57.020  91.278  1.00  0.00     0.344 HD
ATOM      5  H   UNL     1      46.201  58.472  92.021  1.00  0.00     0.344 HD
ENDBRANCH   1   2
BRANCH   1   6
ATOM      6  C   UNL     1      47.122  57.264  89.039  1.00  0.00     0.096 C 
ATOM      7  O   UNL     1      47.306  56.023  88.926  1.00  0.00    -0.544 OA
ATOM      8  O   UNL     1      46.785  58.015  87.921  1.00  0.00    -0.544 OA
ENDBRANCH   1   6
TORSDOF 2
ENDMDL
