MODEL 1
REMARK VINA RESULT:    -3.371      0.000      0.000
REMARK INTER + INTRA:          -4.521
REMARK INTER:                  -4.061
REMARK INTRA:                  -0.460
REMARK UNBOUND:                -0.460
REMARK SMILES NC(=O)C[C@@H]([NH3+])C(=O)[O-]
REMARK SMILES IDX 4 1 5 2 6 3 7 7 8 8 9 9 2 10 3 11 1 12
REMARK H PARENT 6 4 6 5 6 6 1 13 1 14
REMARK Flexibility Score: inf
ROOT
ATOM      1  C   UNL     1      18.705 -37.499  -8.641  1.00  0.00     0.171 C 
ENDROOT
BRANCH   1   2
ATOM      2  C   UNL     1      19.324 -38.759  -8.003  1.00  0.00     0.237 C 
BRANCH   2   3
ATOM      3  N   UNL     1      20.732 -38.893  -8.395  1.00  0.00    -0.350 N 
ATOM      4  H   UNL     1      21.165 -39.704  -7.895  1.00  0.00     0.345 HD
ATOM      5  H   UNL     1      21.266 -38.022  -8.166  1.00  0.00     0.345 HD
ATOM      6  H   UNL     1      20.798 -39.072  -9.424  1.00  0.00     0.345 HD
ENDBRANCH   2   3
BRANCH   2   7
ATOM      7  C   UNL     1      19.210 -38.714  -6.501  1.00  0.00     0.100 C 
ATOM      8  O   UNL     1      19.971 -37.967  -5.830  1.00  0.00    -0.544 OA
ATOM      9  O   UNL     1      18.276 -39.507  -5.844  1.00  0.00    -0.544 OA
ENDBRANCH   2   7
ENDBRANCH   1   2
BRANCH   1  10
ATOM     10  C   UNL     1      19.722 -36.406  -8.803  1.00  0.00     0.223 C 
ATOM     11  O   UNL     1      20.452 -36.377  -9.829  1.00  0.00    -0.275 OA
ATOM     12  N   UNL     1      19.841 -35.375  -7.822  1.00  0.00    -0.369 N 
ATOM     13  H   UNL     1      19.230 -35.372  -6.974  1.00  0.00     0.159 HD
ATOM     14  H   UNL     1      20.539 -34.609  -7.946  1.00  0.00     0.159 HD
ENDBRANCH   1  10
TORSDOF 4
ENDMDL
MODEL 2
REMARK VINA RESULT:    -3.276      2.668      3.912
REMARK INTER + INTRA:          -4.406
REMARK INTER:                  -3.904
REMARK INTRA:                  -0.502
REMARK UNBOUND:                -0.460
REMARK SMILES NC(=O)C[C@@H]([NH3+])C(=O)[O-]
REMARK SMILES IDX 4 1 5 2 6 3 7 7 8 8 9 9 2 10 3 11 1 12
REMARK H PARENT 6 4 6 5 6 6 1 13 1 14
REMARK Flexibility Score: inf
ROOT
ATOM      1  C   UNL     1      19.392 -40.452  -8.556  1.00  0.00     0.171 C 
ENDROOT
BRANCH   1   2
ATOM      2  C   UNL     1      18.794 -39.117  -8.070  1.00  0.00     0.237 C 
BRANCH   2   3
ATOM      3  N   UNL     1      17.399 -38.990  -8.509  1.00  0.00    -0.350 N 
ATOM      4  H   UNL     1      17.035 -39.923  -8.811  1.00  0.00     0.345 HD
ATOM      5  H   UNL     1      17.321 -38.315  -9.305  1.00  0.00     0.345 HD
ATOM      6  H   UNL     1      16.807 -38.651  -7.715  1.00  0.00     0.345 HD
ENDBRANCH   2   3
BRANCH   2   7
ATOM      7  C   UNL     1      18.875 -39.003  -6.570  1.00  0.00     0.100 C 
ATOM      8  O   UNL     1      19.724 -38.240  -6.038  1.00  0.00    -0.544 OA
ATOM      9  O   UNL     1      18.025 -39.750  -5.763  1.00  0.00    -0.544 OA
ENDBRANCH   2   7
ENDBRANCH   1   2
BRANCH   1  10
ATOM     10  C   UNL     1      18.347 -41.529  -8.632  1.00  0.00     0.223 C 
ATOM     11  O   UNL     1      17.685 -41.685  -9.692  1.00  0.00    -0.275 OA
ATOM     12  N   UNL     1      18.127 -42.405  -7.525  1.00  0.00    -0.369 N 
ATOM     13  H   UNL     1      18.681 -42.303  -6.645  1.00  0.00     0.159 HD
ATOM     14  H   UNL     1      17.410 -43.161  -7.588  1.00  0.00     0.159 HD
ENDBRANCH   1  10
TORSDOF 4
ENDMDL
MODEL 3
REMARK VINA RESULT:    -3.246      2.476      3.520
REMARK INTER + INTRA:          -4.370
REMARK INTER:                  -3.971
REMARK INTRA:                  -0.399
REMARK UNBOUND:                -0.460
REMARK SMILES NC(=O)C[C@@H]([NH3+])C(=O)[O-]
REMARK SMILES IDX 4 1 5 2 6 3 7 7 8 8 9 9 2 10 3 11 1 12
REMARK H PARENT 6 4 6 5 6 6 1 13 1 14
REMARK Flexibility Score: inf
ROOT
ATOM      1  C   UNL     1      18.366 -38.804  -7.899  1.00  0.00     0.171 C 
ENDROOT
BRANCH   1   2
ATOM      2  C   UNL     1      19.422 -39.409  -8.844  1.00  0.00     0.237 C 
BRANCH   2   3
ATOM      3  N   UNL     1      20.771 -39.003  -8.434  1.00  0.00    -0.350 N 
ATOM      4  H   UNL     1      21.440 -39.138  -9.227  1.00  0.00     0.345 HD
ATOM      5  H   UNL     1      21.093 -39.565  -7.612  1.00  0.00     0.345 HD
ATOM      6  H   UNL     1      20.772 -37.988  -8.175  1.00  0.00     0.345 HD
ENDBRANCH   2   3
BRANCH   2   7
ATOM      7  C   UNL     1      19.322 -40.912  -8.873  1.00  0.00     0.100 C 
ATOM      8  O   UNL     1      20.267 -41.600  -9.342  1.00  0.00    -0.544 OA
ATOM      9  O   UNL     1      18.183 -41.549  -8.396  1.00  0.00    -0.544 OA
ENDBRANCH   2   7
ENDBRANCH   1   2
BRANCH   1  10
ATOM     10  C   UNL     1      18.743 -38.991  -6.457  1.00  0.00     0.223 C 
ATOM     11  O   UNL     1      19.661 -38.291  -5.954  1.00  0.00    -0.275 OA
ATOM     12  N   UNL     1      18.042 -39.930  -5.640  1.00  0.00    -0.369 N 
ATOM     13  H   UNL     1      17.265 -40.506  -6.035  1.00  0.00     0.159 HD
ATOM     14  H   UNL     1      18.299 -40.047  -4.635  1.00  0.00     0.159 HD
ENDBRANCH   1  10
TORSDOF 4
ENDMDL
MODEL 4
REMARK VINA RESULT:    -3.147      3.268      4.656
REMARK INTER + INTRA:          -4.251
REMARK INTER:                  -3.791
REMARK INTRA:                  -0.460
REMARK UNBOUND:                -0.460
REMARK SMILES NC(=O)C[C@@H]([NH3+])C(=O)[O-]
REMARK SMILES IDX 4 1 5 2 6 3 7 7 8 8 9 9 2 10 3 11 1 12
REMARK H PARENT 6 4 6 5 6 6 1 13 1 14
REMARK Flexibility Score: inf
ROOT
ATOM      1  C   UNL     1      19.284 -41.670  -8.840  1.00  0.00     0.171 C 
ENDROOT
BRANCH   1   2
ATOM      2  C   UNL     1      18.853 -40.190  -8.879  1.00  0.00     0.237 C 
BRANCH   2   3
ATOM      3  N   UNL     1      17.444 -40.077  -9.275  1.00  0.00    -0.350 N 
ATOM      4  H   UNL     1      16.885 -40.837  -8.823  1.00  0.00     0.345 HD
ATOM      5  H   UNL     1      17.345 -40.147 -10.315  1.00  0.00     0.345 HD
ATOM      6  H   UNL     1      17.059 -39.157  -8.958  1.00  0.00     0.345 HD
ENDBRANCH   2   3
BRANCH   2   7
ATOM      7  C   UNL     1      19.066 -39.530  -7.542  1.00  0.00     0.100 C 
ATOM      8  O   UNL     1      20.012 -38.714  -7.383  1.00  0.00    -0.544 OA
ATOM      9  O   UNL     1      18.232 -39.828  -6.471  1.00  0.00    -0.544 OA
ENDBRANCH   2   7
ENDBRANCH   1   2
BRANCH   1  10
ATOM     10  C   UNL     1      18.151 -42.564  -8.423  1.00  0.00     0.223 C 
ATOM     11  O   UNL     1      17.306 -42.944  -9.277  1.00  0.00    -0.275 OA
ATOM     12  N   UNL     1      18.046 -43.020  -7.074  1.00  0.00    -0.369 N 
ATOM     13  H   UNL     1      18.748 -42.732  -6.357  1.00  0.00     0.159 HD
ATOM     14  H   UNL     1      17.265 -43.654  -6.792  1.00  0.00     0.159 HD
ENDBRANCH   1  10
TORSDOF 4
ENDMDL
MODEL 5
REMARK VINA RESULT:    -2.996      2.611      3.241
REMARK INTER + INTRA:          -4.070
REMARK INTER:                  -3.798
REMARK INTRA:                  -0.271
REMARK UNBOUND:                -0.460
REMARK SMILES NC(=O)C[C@@H]([NH3+])C(=O)[O-]
REMARK SMILES IDX 4 1 5 2 6 3 7 7 8 8 9 9 2 10 3 11 1 12
REMARK H PARENT 6 4 6 5 6 6 1 13 1 14
REMARK Flexibility Score: inf
ROOT
ATOM      1  C   UNL     1      18.784 -39.517  -7.170  1.00  0.00     0.171 C 
ENDROOT
BRANCH   1   2
ATOM      2  C   UNL     1      18.984 -40.005  -8.619  1.00  0.00     0.237 C 
BRANCH   2   3
ATOM      3  N   UNL     1      20.413 -40.177  -8.909  1.00  0.00    -0.350 N 
ATOM      4  H   UNL     1      20.985 -39.714  -8.166  1.00  0.00     0.345 HD
ATOM      5  H   UNL     1      20.654 -39.763  -9.839  1.00  0.00     0.345 HD
ATOM      6  H   UNL     1      20.652 -41.196  -8.917  1.00  0.00     0.345 HD
ENDBRANCH   2   3
BRANCH   2   7
ATOM      7  C   UNL     1      18.250 -41.298  -8.858  1.00  0.00     0.100 C 
ATOM      8  O   UNL     1      17.290 -41.339  -9.673  1.00  0.00    -0.544 OA
ATOM      9  O   UNL     1      18.615 -42.450  -8.173  1.00  0.00    -0.544 OA
ENDBRANCH   2   7
ENDBRANCH   1   2
BRANCH   1  10
ATOM     10  C   UNL     1      19.493 -38.216  -6.923  1.00  0.00     0.223 C 
ATOM     11  O   UNL     1      19.654 -37.401  -7.870  1.00  0.00    -0.275 OA
ATOM     12  N   UNL     1      19.951 -37.877  -5.613  1.00  0.00    -0.369 N 
ATOM     13  H   UNL     1      19.809 -38.532  -4.812  1.00  0.00     0.159 HD
ATOM     14  H   UNL     1      20.431 -36.965  -5.443  1.00  0.00     0.159 HD
ENDBRANCH   1  10
TORSDOF 4
ENDMDL
MODEL 6
REMARK VINA RESULT:    -2.987      1.592      3.629
REMARK INTER + INTRA:          -4.058
REMARK INTER:                  -3.941
REMARK INTRA:                  -0.118
REMARK UNBOUND:                -0.460
REMARK SMILES NC(=O)C[C@@H]([NH3+])C(=O)[O-]
REMARK SMILES IDX 4 1 5 2 6 3 7 7 8 8 9 9 2 10 3 11 1 12
REMARK H PARENT 6 4 6 5 6 6 1 13 1 14
REMARK Flexibility Score: inf
ROOT
ATOM      1  C   UNL     1      18.950 -38.998  -7.874  1.00  0.00     0.171 C 
ENDROOT
BRANCH   1   2
ATOM      2  C   UNL     1      19.977 -38.058  -8.536  1.00  0.00     0.237 C 
BRANCH   2   3
ATOM      3  N   UNL     1      20.747 -38.777  -9.557  1.00  0.00    -0.350 N 
ATOM      4  H   UNL     1      20.154 -39.521  -9.992  1.00  0.00     0.345 HD
ATOM      5  H   UNL     1      21.599 -39.216  -9.137  1.00  0.00     0.345 HD
ATOM      6  H   UNL     1      21.042 -38.113 -10.311  1.00  0.00     0.345 HD
ENDBRANCH   2   3
BRANCH   2   7
ATOM      7  C   UNL     1      19.296 -36.862  -9.150  1.00  0.00     0.100 C 
ATOM      8  O   UNL     1      18.490 -37.015 -10.106  1.00  0.00    -0.544 OA
ATOM      9  O   UNL     1      19.563 -35.583  -8.678  1.00  0.00    -0.544 OA
ENDBRANCH   2   7
ENDBRANCH   1   2
BRANCH   1  10
ATOM     10  C   UNL     1      18.966 -38.869  -6.378  1.00  0.00     0.223 C 
ATOM     11  O   UNL     1      18.204 -39.589  -5.680  1.00  0.00    -0.275 OA
ATOM     12  N   UNL     1      19.867 -37.964  -5.738  1.00  0.00    -0.369 N 
ATOM     13  H   UNL     1      20.520 -37.374  -6.300  1.00  0.00     0.159 HD
ATOM     14  H   UNL     1      19.885 -37.889  -4.697  1.00  0.00     0.159 HD
ENDBRANCH   1  10
TORSDOF 4
ENDMDL
MODEL 7
REMARK VINA RESULT:    -2.938     14.291     15.047
REMARK INTER + INTRA:          -3.999
REMARK INTER:                  -3.763
REMARK INTRA:                  -0.236
REMARK UNBOUND:                -0.460
REMARK SMILES NC(=O)C[C@@H]([NH3+])C(=O)[O-]
REMARK SMILES IDX 4 1 5 2 6 3 7 7 8 8 9 9 2 10 3 11 1 12
REMARK H PARENT 6 4 6 5 6 6 1 13 1 14
REMARK Flexibility Score: inf
ROOT
ATOM      1  C   UNL     1       6.976 -44.683  -8.725  1.00  0.00     0.171 C 
ENDROOT
BRANCH   1   2
ATOM      2  C   UNL     1       5.591 -44.082  -8.412  1.00  0.00     0.237 C 
BRANCH   2   3
ATOM      3  N   UNL     1       4.899 -43.715  -9.654  1.00  0.00    -0.350 N 
ATOM      4  H   UNL     1       5.588 -43.649 -10.438  1.00  0.00     0.345 HD
ATOM      5  H   UNL     1       4.410 -42.796  -9.547  1.00  0.00     0.345 HD
ATOM      6  H   UNL     1       4.196 -44.450  -9.898  1.00  0.00     0.345 HD
ENDBRANCH   2   3
BRANCH   2   7
ATOM      7  C   UNL     1       4.750 -45.048  -7.620  1.00  0.00     0.100 C 
ATOM      8  O   UNL     1       4.607 -46.236  -8.016  1.00  0.00    -0.544 OA
ATOM      9  O   UNL     1       4.114 -44.634  -6.456  1.00  0.00    -0.544 OA
ENDBRANCH   2   7
ENDBRANCH   1   2
BRANCH   1  10
ATOM     10  C   UNL     1       8.006 -43.613  -8.947  1.00  0.00     0.223 C 
ATOM     11  O   UNL     1       7.963 -42.911  -9.992  1.00  0.00    -0.275 OA
ATOM     12  N   UNL     1       9.009 -43.357  -7.963  1.00  0.00    -0.369 N 
ATOM     13  H   UNL     1       9.048 -43.916  -7.082  1.00  0.00     0.159 HD
ATOM     14  H   UNL     1       9.715 -42.602  -8.116  1.00  0.00     0.159 HD
ENDBRANCH   1  10
TORSDOF 4
ENDMDL
MODEL 8
REMARK VINA RESULT:    -2.935      3.564      4.362
REMARK INTER + INTRA:          -3.995
REMARK INTER:                  -3.524
REMARK INTRA:                  -0.472
REMARK UNBOUND:                -0.460
REMARK SMILES NC(=O)C[C@@H]([NH3+])C(=O)[O-]
REMARK SMILES IDX 4 1 5 2 6 3 7 7 8 8 9 9 2 10 3 11 1 12
REMARK H PARENT 6 4 6 5 6 6 1 13 1 14
REMARK Flexibility Score: inf
ROOT
ATOM      1  C   UNL     1      17.846 -40.391  -8.949  1.00  0.00     0.171 C 
ENDROOT
BRANCH   1   2
ATOM      2  C   UNL     1      18.393 -41.750  -9.428  1.00  0.00     0.237 C 
BRANCH   2   3
ATOM      3  N   UNL     1      19.849 -41.808  -9.251  1.00  0.00    -0.350 N 
ATOM      4  H   UNL     1      20.321 -41.247  -9.997  1.00  0.00     0.345 HD
ATOM      5  H   UNL     1      20.188 -42.797  -9.295  1.00  0.00     0.345 HD
ATOM      6  H   UNL     1      20.110 -41.399  -8.323  1.00  0.00     0.345 HD
ENDBRANCH   2   3
BRANCH   2   7
ATOM      7  C   UNL     1      17.738 -42.887  -8.687  1.00  0.00     0.100 C 
ATOM      8  O   UNL     1      18.092 -43.163  -7.510  1.00  0.00    -0.544 OA
ATOM      9  O   UNL     1      16.751 -43.648  -9.301  1.00  0.00    -0.544 OA
ENDBRANCH   2   7
ENDBRANCH   1   2
BRANCH   1  10
ATOM     10  C   UNL     1      18.670 -39.829  -7.826  1.00  0.00     0.223 C 
ATOM     11  O   UNL     1      19.680 -39.122  -8.084  1.00  0.00    -0.275 OA
ATOM     12  N   UNL     1      18.294 -40.056  -6.466  1.00  0.00    -0.369 N 
ATOM     13  H   UNL     1      17.448 -40.622  -6.234  1.00  0.00     0.159 HD
ATOM     14  H   UNL     1      18.862 -39.651  -5.689  1.00  0.00     0.159 HD
ENDBRANCH   1  10
TORSDOF 4
ENDMDL
MODEL 9
REMARK VINA RESULT:    -2.929      2.525      3.422
REMARK INTER + INTRA:          -3.988
REMARK INTER:                  -3.815
REMARK INTRA:                  -0.173
REMARK UNBOUND:                -0.460
REMARK SMILES NC(=O)C[C@@H]([NH3+])C(=O)[O-]
REMARK SMILES IDX 4 1 5 2 6 3 7 7 8 8 9 9 2 10 3 11 1 12
REMARK H PARENT 6 4 6 5 6 6 1 13 1 14
REMARK Flexibility Score: inf
ROOT
ATOM      1  C   UNL     1      18.484 -39.437  -6.754  1.00  0.00     0.171 C 
ENDROOT
BRANCH   1   2
ATOM      2  C   UNL     1      18.611 -40.183  -8.097  1.00  0.00     0.237 C 
BRANCH   2   3
ATOM      3  N   UNL     1      18.570 -41.635  -7.883  1.00  0.00    -0.350 N 
ATOM      4  H   UNL     1      17.943 -42.081  -8.592  1.00  0.00     0.345 HD
ATOM      5  H   UNL     1      18.219 -41.858  -6.923  1.00  0.00     0.345 HD
ATOM      6  H   UNL     1      19.530 -42.037  -7.998  1.00  0.00     0.345 HD
ENDBRANCH   2   3
BRANCH   2   7
ATOM      7  C   UNL     1      17.517 -39.771  -9.048  1.00  0.00     0.100 C 
ATOM      8  O   UNL     1      17.082 -38.590  -9.039  1.00  0.00    -0.544 OA
ATOM      9  O   UNL     1      16.971 -40.695  -9.932  1.00  0.00    -0.544 OA
ENDBRANCH   2   7
ENDBRANCH   1   2
BRANCH   1  10
ATOM     10  C   UNL     1      19.444 -38.285  -6.669  1.00  0.00     0.223 C 
ATOM     11  O   UNL     1      20.018 -38.028  -5.578  1.00  0.00    -0.275 OA
ATOM     12  N   UNL     1      19.741 -37.502  -7.826  1.00  0.00    -0.369 N 
ATOM     13  H   UNL     1      19.288 -37.713  -8.744  1.00  0.00     0.159 HD
ATOM     14  H   UNL     1      20.419 -36.711  -7.766  1.00  0.00     0.159 HD
ENDBRANCH   1  10
TORSDOF 4
ENDMDL
