MODEL 1
REMARK VINA RESULT:    -4.921      0.000      0.000
REMARK INTER + INTRA:          -8.848
REMARK INTER:                  -7.510
REMARK INTRA:                  -1.338
REMARK UNBOUND:                -1.338
REMARK SMILES OC[C@@H]1O[C@H](O[C@]2(CO)O[C@H](CO)[C@@H](O)[C@H]2O)[C@H](O)[C@@H](O)[C@H]1O
REMARK SMILES IDX 6 1 5 2 3 3 22 4 4 5 20 6 18 7 2 8 1 9 23 11 21 13 19 15
REMARK SMILES IDX 7 17 16 18 10 19 14 20 11 21 8 22 9 23 17 25 15 27 12 29
REMARK SMILES IDX 13 30
REMARK H PARENT 1 10 23 12 21 14 19 16 9 24 17 26 15 28 13 31
REMARK Flexibility Score: inf
ROOT
ATOM      1  O   UNL     1      24.643  48.642  35.236  1.00  0.00    -0.313 OA
ENDROOT
BRANCH   1   2
ATOM      2  C   UNL     1      23.655  48.630  36.257  1.00  0.00     0.285 C 
ATOM      3  C   UNL     1      23.271  48.059  38.485  1.00  0.00     0.178 C 
ATOM      4  C   UNL     1      22.616  49.422  38.832  1.00  0.00     0.177 C 
ATOM      5  O   UNL     1      24.255  48.235  37.479  1.00  0.00    -0.341 OA
ATOM      6  C   UNL     1      22.055  50.100  37.560  1.00  0.00     0.179 C 
ATOM      7  C   UNL     1      23.072  50.050  36.401  1.00  0.00     0.202 C 
BRANCH   3   8
ATOM      8  C   UNL     1      23.959  47.439  39.716  1.00  0.00     0.191 C 
BRANCH   8   9
ATOM      9  O   UNL     1      24.360  48.424  40.631  1.00  0.00    -0.394 OA
ATOM     10  H   UNL     1      23.700  48.409  41.371  1.00  0.00     0.210 HD
ENDBRANCH   8   9
ENDBRANCH   3   8
BRANCH   4  11
ATOM     11  O   UNL     1      21.584  49.230  39.765  1.00  0.00    -0.387 OA
ATOM     12  H   UNL     1      21.010  50.040  39.732  1.00  0.00     0.211 HD
ENDBRANCH   4  11
BRANCH   6  13
ATOM     13  O   UNL     1      20.875  49.451  37.151  1.00  0.00    -0.387 OA
ATOM     14  H   UNL     1      21.080  48.482  37.089  1.00  0.00     0.211 HD
ENDBRANCH   6  13
BRANCH   7  15
ATOM     15  O   UNL     1      24.088  51.012  36.567  1.00  0.00    -0.385 OA
ATOM     16  H   UNL     1      23.769  51.695  37.208  1.00  0.00     0.211 HD
ENDBRANCH   7  15
ENDBRANCH   1   2
BRANCH   1  17
ATOM     17  C   UNL     1      24.405  47.720  34.171  1.00  0.00     0.224 C 
ATOM     18  C   UNL     1      23.851  46.380  34.720  1.00  0.00     0.208 C 
ATOM     19  O   UNL     1      23.374  48.283  33.384  1.00  0.00    -0.337 OA
ATOM     20  C   UNL     1      22.767  45.971  33.744  1.00  0.00     0.180 C 
ATOM     21  C   UNL     1      22.491  47.262  32.961  1.00  0.00     0.179 C 
BRANCH  17  22
ATOM     22  C   UNL     1      25.659  47.590  33.255  1.00  0.00     0.225 C 
BRANCH  22  23
ATOM     23  O   UNL     1      26.845  47.710  33.996  1.00  0.00    -0.391 OA
ATOM     24  H   UNL     1      26.613  48.154  34.852  1.00  0.00     0.210 HD
ENDBRANCH  22  23
ENDBRANCH  17  22
BRANCH  18  25
ATOM     25  O   UNL     1      24.819  45.379  34.950  1.00  0.00    -0.385 OA
ATOM     26  H   UNL     1      24.620  44.927  35.808  1.00  0.00     0.211 HD
ENDBRANCH  18  25
BRANCH  20  27
ATOM     27  O   UNL     1      23.200  44.955  32.875  1.00  0.00    -0.387 OA
ATOM     28  H   UNL     1      23.632  45.409  32.104  1.00  0.00     0.211 HD
ENDBRANCH  20  27
BRANCH  21  29
ATOM     29  C   UNL     1      21.045  47.744  33.137  1.00  0.00     0.191 C 
BRANCH  29  30
ATOM     30  O   UNL     1      20.926  48.475  34.327  1.00  0.00    -0.394 OA
ATOM     31  H   UNL     1      20.831  49.426  34.059  1.00  0.00     0.210 HD
ENDBRANCH  29  30
ENDBRANCH  21  29
ENDBRANCH   1  17
TORSDOF 13
ENDMDL
MODEL 2
REMARK VINA RESULT:    -4.717      1.597      3.622
REMARK INTER + INTRA:          -8.536
REMARK INTER:                  -7.449
REMARK INTRA:                  -1.087
REMARK UNBOUND:                -1.338
REMARK SMILES OC[C@@H]1O[C@H](O[C@]2(CO)O[C@H](CO)[C@@H](O)[C@H]2O)[C@H](O)[C@@H](O)[C@H]1O
REMARK SMILES IDX 6 1 5 2 3 3 22 4 4 5 20 6 18 7 2 8 1 9 23 11 21 13 19 15
REMARK SMILES IDX 7 17 16 18 10 19 14 20 11 21 8 22 9 23 17 25 15 27 12 29
REMARK SMILES IDX 13 30
REMARK H PARENT 1 10 23 12 21 14 19 16 9 24 17 26 15 28 13 31
REMARK Flexibility Score: inf
ROOT
ATOM      1  O   UNL     1      22.180  48.122  35.330  1.00  0.00    -0.313 OA
ENDROOT
BRANCH   1   2
ATOM      2  C   UNL     1      22.799  48.697  36.472  1.00  0.00     0.285 C 
ATOM      3  C   UNL     1      23.158  50.708  37.596  1.00  0.00     0.178 C 
ATOM      4  C   UNL     1      22.735  50.136  38.975  1.00  0.00     0.177 C 
ATOM      5  O   UNL     1      22.435  50.064  36.560  1.00  0.00    -0.341 OA
ATOM      6  C   UNL     1      22.896  48.598  39.002  1.00  0.00     0.179 C 
ATOM      7  C   UNL     1      22.313  47.949  37.729  1.00  0.00     0.202 C 
BRANCH   3   8
ATOM      8  C   UNL     1      22.870  52.219  37.504  1.00  0.00     0.191 C 
BRANCH   8   9
ATOM      9  O   UNL     1      23.922  52.976  38.040  1.00  0.00    -0.394 OA
ATOM     10  H   UNL     1      24.698  52.850  37.435  1.00  0.00     0.210 HD
ENDBRANCH   8   9
ENDBRANCH   3   8
BRANCH   4  11
ATOM     11  O   UNL     1      23.514  50.716  39.989  1.00  0.00    -0.387 OA
ATOM     12  H   UNL     1      24.287  50.111  40.142  1.00  0.00     0.211 HD
ENDBRANCH   4  11
BRANCH   6  13
ATOM     13  O   UNL     1      24.259  48.260  39.096  1.00  0.00    -0.387 OA
ATOM     14  H   UNL     1      24.778  49.095  38.957  1.00  0.00     0.211 HD
ENDBRANCH   6  13
BRANCH   7  15
ATOM     15  O   UNL     1      20.907  47.887  37.783  1.00  0.00    -0.385 OA
ATOM     16  H   UNL     1      20.557  48.806  37.897  1.00  0.00     0.211 HD
ENDBRANCH   7  15
ENDBRANCH   1   2
BRANCH   1  17
ATOM     17  C   UNL     1      23.093  47.665  34.330  1.00  0.00     0.224 C 
ATOM     18  C   UNL     1      24.423  48.456  34.398  1.00  0.00     0.208 C 
ATOM     19  O   UNL     1      23.408  46.328  34.665  1.00  0.00    -0.337 OA
ATOM     20  C   UNL     1      25.511  47.422  34.188  1.00  0.00     0.180 C 
ATOM     21  C   UNL     1      24.782  46.092  34.425  1.00  0.00     0.179 C 
BRANCH  17  22
ATOM     22  C   UNL     1      22.414  47.635  32.928  1.00  0.00     0.225 C 
BRANCH  22  23
ATOM     23  O   UNL     1      21.357  46.713  32.893  1.00  0.00    -0.391 OA
ATOM     24  H   UNL     1      20.512  47.234  32.863  1.00  0.00     0.210 HD
ENDBRANCH  22  23
ENDBRANCH  17  22
BRANCH  18  25
ATOM     25  O   UNL     1      24.511  49.561  33.524  1.00  0.00    -0.385 OA
ATOM     26  H   UNL     1      24.137  50.360  33.973  1.00  0.00     0.211 HD
ENDBRANCH  18  25
BRANCH  20  27
ATOM     27  O   UNL     1      26.033  47.469  32.884  1.00  0.00    -0.387 OA
ATOM     28  H   UNL     1      25.342  47.904  32.319  1.00  0.00     0.211 HD
ENDBRANCH  20  27
BRANCH  21  29
ATOM     29  C   UNL     1      25.374  45.314  35.607  1.00  0.00     0.191 C 
BRANCH  29  30
ATOM     30  O   UNL     1      24.619  45.556  36.763  1.00  0.00    -0.394 OA
ATOM     31  H   UNL     1      25.216  45.356  37.530  1.00  0.00     0.210 HD
ENDBRANCH  29  30
ENDBRANCH  21  29
ENDBRANCH   1  17
TORSDOF 13
ENDMDL
MODEL 3
REMARK VINA RESULT:    -4.621      1.444      2.793
REMARK INTER + INTRA:          -8.390
REMARK INTER:                  -7.715
REMARK INTRA:                  -0.674
REMARK UNBOUND:                -1.338
REMARK SMILES OC[C@@H]1O[C@H](O[C@]2(CO)O[C@H](CO)[C@@H](O)[C@H]2O)[C@H](O)[C@@H](O)[C@H]1O
REMARK SMILES IDX 6 1 5 2 3 3 22 4 4 5 20 6 18 7 2 8 1 9 23 11 21 13 19 15
REMARK SMILES IDX 7 17 16 18 10 19 14 20 11 21 8 22 9 23 17 25 15 27 12 29
REMARK SMILES IDX 13 30
REMARK H PARENT 1 10 23 12 21 14 19 16 9 24 17 26 15 28 13 31
REMARK Flexibility Score: inf
ROOT
ATOM      1  O   UNL     1      23.387  49.366  35.815  1.00  0.00    -0.313 OA
ENDROOT
BRANCH   1   2
ATOM      2  C   UNL     1      22.877  49.696  37.099  1.00  0.00     0.285 C 
ATOM      3  C   UNL     1      23.245  49.429  39.386  1.00  0.00     0.178 C 
ATOM      4  C   UNL     1      23.076  50.939  39.697  1.00  0.00     0.177 C 
ATOM      5  O   UNL     1      23.793  49.258  38.089  1.00  0.00    -0.341 OA
ATOM      6  C   UNL     1      22.237  51.635  38.600  1.00  0.00     0.179 C 
ATOM      7  C   UNL     1      22.709  51.226  37.189  1.00  0.00     0.202 C 
BRANCH   3   8
ATOM      8  C   UNL     1      24.195  48.753  40.392  1.00  0.00     0.191 C 
BRANCH   8   9
ATOM      9  O   UNL     1      25.131  49.662  40.907  1.00  0.00    -0.394 OA
ATOM     10  H   UNL     1      25.722  49.147  41.515  1.00  0.00     0.210 HD
ENDBRANCH   8   9
ENDBRANCH   3   8
BRANCH   4  11
ATOM     11  O   UNL     1      22.456  51.101  40.947  1.00  0.00    -0.387 OA
ATOM     12  H   UNL     1      21.475  51.085  40.787  1.00  0.00     0.211 HD
ENDBRANCH   4  11
BRANCH   6  13
ATOM     13  O   UNL     1      20.881  51.286  38.740  1.00  0.00    -0.387 OA
ATOM     14  H   UNL     1      20.825  50.297  38.674  1.00  0.00     0.211 HD
ENDBRANCH   6  13
BRANCH   7  15
ATOM     15  O   UNL     1      23.893  51.898  36.828  1.00  0.00    -0.385 OA
ATOM     16  H   UNL     1      23.647  52.732  36.354  1.00  0.00     0.211 HD
ENDBRANCH   7  15
ENDBRANCH   1   2
BRANCH   1  17
ATOM     17  C   UNL     1      23.155  48.014  35.415  1.00  0.00     0.224 C 
ATOM     18  C   UNL     1      22.542  47.960  33.993  1.00  0.00     0.208 C 
ATOM     19  O   UNL     1      24.428  47.406  35.323  1.00  0.00    -0.337 OA
ATOM     20  C   UNL     1      23.240  46.805  33.304  1.00  0.00     0.180 C 
ATOM     21  C   UNL     1      24.462  46.548  34.199  1.00  0.00     0.179 C 
BRANCH  17  22
ATOM     22  C   UNL     1      22.358  47.239  36.507  1.00  0.00     0.225 C 
BRANCH  22  23
ATOM     23  O   UNL     1      23.184  46.339  37.198  1.00  0.00    -0.391 OA
ATOM     24  H   UNL     1      22.624  45.558  37.447  1.00  0.00     0.210 HD
ENDBRANCH  22  23
ENDBRANCH  17  22
BRANCH  18  25
ATOM     25  O   UNL     1      21.134  47.883  33.948  1.00  0.00    -0.385 OA
ATOM     26  H   UNL     1      20.752  48.749  34.238  1.00  0.00     0.211 HD
ENDBRANCH  18  25
BRANCH  20  27
ATOM     27  O   UNL     1      22.427  45.661  33.246  1.00  0.00    -0.387 OA
ATOM     28  H   UNL     1      22.810  45.009  33.890  1.00  0.00     0.211 HD
ENDBRANCH  20  27
BRANCH  21  29
ATOM     29  C   UNL     1      25.781  46.757  33.445  1.00  0.00     0.191 C 
BRANCH  29  30
ATOM     30  O   UNL     1      26.464  47.861  33.974  1.00  0.00    -0.394 OA
ATOM     31  H   UNL     1      26.853  47.559  34.836  1.00  0.00     0.210 HD
ENDBRANCH  29  30
ENDBRANCH  21  29
ENDBRANCH   1  17
TORSDOF 13
ENDMDL
MODEL 4
REMARK VINA RESULT:    -4.548      2.012      5.516
REMARK INTER + INTRA:          -8.280
REMARK INTER:                  -7.111
REMARK INTRA:                  -1.168
REMARK UNBOUND:                -1.338
REMARK SMILES OC[C@@H]1O[C@H](O[C@]2(CO)O[C@H](CO)[C@@H](O)[C@H]2O)[C@H](O)[C@@H](O)[C@H]1O
REMARK SMILES IDX 6 1 5 2 3 3 22 4 4 5 20 6 18 7 2 8 1 9 23 11 21 13 19 15
REMARK SMILES IDX 7 17 16 18 10 19 14 20 11 21 8 22 9 23 17 25 15 27 12 29
REMARK SMILES IDX 13 30
REMARK H PARENT 1 10 23 12 21 14 19 16 9 24 17 26 15 28 13 31
REMARK Flexibility Score: inf
ROOT
ATOM      1  O   UNL     1      21.927  49.367  35.790  1.00  0.00    -0.313 OA
ENDROOT
BRANCH   1   2
ATOM      2  C   UNL     1      23.248  49.099  35.342  1.00  0.00     0.285 C 
ATOM      3  C   UNL     1      24.857  47.423  35.148  1.00  0.00     0.178 C 
ATOM      4  C   UNL     1      25.160  47.738  33.660  1.00  0.00     0.177 C 
ATOM      5  O   UNL     1      23.498  47.707  35.439  1.00  0.00    -0.341 OA
ATOM      6  C   UNL     1      24.770  49.196  33.318  1.00  0.00     0.179 C 
ATOM      7  C   UNL     1      23.373  49.547  33.872  1.00  0.00     0.202 C 
BRANCH   3   8
ATOM      8  C   UNL     1      25.107  45.937  35.468  1.00  0.00     0.191 C 
BRANCH   8   9
ATOM      9  O   UNL     1      24.658  45.605  36.755  1.00  0.00    -0.394 OA
ATOM     10  H   UNL     1      25.109  46.226  37.382  1.00  0.00     0.210 HD
ENDBRANCH   8   9
ENDBRANCH   3   8
BRANCH   4  11
ATOM     11  O   UNL     1      26.526  47.537  33.399  1.00  0.00    -0.387 OA
ATOM     12  H   UNL     1      26.946  47.261  34.256  1.00  0.00     0.211 HD
ENDBRANCH   4  11
BRANCH   6  13
ATOM     13  O   UNL     1      25.710  50.086  33.869  1.00  0.00    -0.387 OA
ATOM     14  H   UNL     1      25.972  50.717  33.149  1.00  0.00     0.211 HD
ENDBRANCH   6  13
BRANCH   7  15
ATOM     15  O   UNL     1      22.351  48.997  33.074  1.00  0.00    -0.385 OA
ATOM     16  H   UNL     1      22.653  48.114  32.743  1.00  0.00     0.211 HD
ENDBRANCH   7  15
ENDBRANCH   1   2
BRANCH   1  17
ATOM     17  C   UNL     1      21.801  49.514  37.206  1.00  0.00     0.224 C 
ATOM     18  C   UNL     1      23.139  49.985  37.830  1.00  0.00     0.208 C 
ATOM     19  O   UNL     1      20.875  50.562  37.414  1.00  0.00    -0.337 OA
ATOM     20  C   UNL     1      22.750  51.014  38.872  1.00  0.00     0.180 C 
ATOM     21  C   UNL     1      21.302  51.361  38.500  1.00  0.00     0.179 C 
BRANCH  17  22
ATOM     22  C   UNL     1      21.190  48.232  37.848  1.00  0.00     0.225 C 
BRANCH  22  23
ATOM     23  O   UNL     1      22.077  47.148  37.763  1.00  0.00    -0.391 OA
ATOM     24  H   UNL     1      22.850  47.442  37.215  1.00  0.00     0.210 HD
ENDBRANCH  22  23
ENDBRANCH  17  22
BRANCH  18  25
ATOM     25  O   UNL     1      23.967  48.955  38.326  1.00  0.00    -0.385 OA
ATOM     26  H   UNL     1      24.645  48.726  37.643  1.00  0.00     0.211 HD
ENDBRANCH  18  25
BRANCH  20  27
ATOM     27  O   UNL     1      22.810  50.489  40.173  1.00  0.00    -0.387 OA
ATOM     28  H   UNL     1      22.260  49.662  40.170  1.00  0.00     0.211 HD
ENDBRANCH  20  27
BRANCH  21  29
ATOM     29  C   UNL     1      21.141  52.841  38.130  1.00  0.00     0.191 C 
BRANCH  29  30
ATOM     30  O   UNL     1      21.361  53.016  36.757  1.00  0.00    -0.394 OA
ATOM     31  H   UNL     1      20.466  53.001  36.328  1.00  0.00     0.210 HD
ENDBRANCH  29  30
ENDBRANCH  21  29
ENDBRANCH   1  17
TORSDOF 13
ENDMDL
MODEL 5
REMARK VINA RESULT:    -4.347      1.593      3.871
REMARK INTER + INTRA:          -7.972
REMARK INTER:                  -7.814
REMARK INTRA:                  -0.159
REMARK UNBOUND:                -1.338
REMARK SMILES OC[C@@H]1O[C@H](O[C@]2(CO)O[C@H](CO)[C@@H](O)[C@H]2O)[C@H](O)[C@@H](O)[C@H]1O
REMARK SMILES IDX 6 1 5 2 3 3 22 4 4 5 20 6 18 7 2 8 1 9 23 11 21 13 19 15
REMARK SMILES IDX 7 17 16 18 10 19 14 20 11 21 8 22 9 23 17 25 15 27 12 29
REMARK SMILES IDX 13 30
REMARK H PARENT 1 10 23 12 21 14 19 16 9 24 17 26 15 28 13 31
REMARK Flexibility Score: inf
ROOT
ATOM      1  O   UNL     1      23.981  47.288  36.739  1.00  0.00    -0.313 OA
ENDROOT
BRANCH   1   2
ATOM      2  C   UNL     1      23.824  48.147  37.860  1.00  0.00     0.285 C 
ATOM      3  C   UNL     1      22.311  49.545  38.952  1.00  0.00     0.178 C 
ATOM      4  C   UNL     1      22.576  48.919  40.347  1.00  0.00     0.177 C 
ATOM      5  O   UNL     1      22.472  48.564  37.940  1.00  0.00    -0.341 OA
ATOM      6  C   UNL     1      23.966  48.242  40.388  1.00  0.00     0.179 C 
ATOM      7  C   UNL     1      24.204  47.371  39.137  1.00  0.00     0.202 C 
BRANCH   3   8
ATOM      8  C   UNL     1      20.877  50.098  38.850  1.00  0.00     0.191 C 
BRANCH   8   9
ATOM      9  O   UNL     1      20.875  51.473  38.569  1.00  0.00    -0.394 OA
ATOM     10  H   UNL     1      20.056  51.652  38.039  1.00  0.00     0.210 HD
ENDBRANCH   8   9
ENDBRANCH   3   8
BRANCH   4  11
ATOM     11  O   UNL     1      22.500  49.912  41.337  1.00  0.00    -0.387 OA
ATOM     12  H   UNL     1      21.703  50.468  41.128  1.00  0.00     0.211 HD
ENDBRANCH   4  11
BRANCH   6  13
ATOM     13  O   UNL     1      24.975  49.220  40.454  1.00  0.00    -0.387 OA
ATOM     14  H   UNL     1      25.568  49.084  39.670  1.00  0.00     0.211 HD
ENDBRANCH   6  13
BRANCH   7  15
ATOM     15  O   UNL     1      23.512  46.147  39.223  1.00  0.00    -0.385 OA
ATOM     16  H   UNL     1      22.555  46.315  39.035  1.00  0.00     0.211 HD
ENDBRANCH   7  15
ENDBRANCH   1   2
BRANCH   1  17
ATOM     17  C   UNL     1      23.538  47.845  35.500  1.00  0.00     0.224 C 
ATOM     18  C   UNL     1      24.215  49.215  35.241  1.00  0.00     0.208 C 
ATOM     19  O   UNL     1      24.002  46.975  34.487  1.00  0.00    -0.337 OA
ATOM     20  C   UNL     1      24.559  49.214  33.765  1.00  0.00     0.180 C 
ATOM     21  C   UNL     1      24.443  47.733  33.378  1.00  0.00     0.179 C 
BRANCH  17  22
ATOM     22  C   UNL     1      21.982  47.852  35.418  1.00  0.00     0.225 C 
BRANCH  22  23
ATOM     23  O   UNL     1      21.529  48.722  34.414  1.00  0.00    -0.391 OA
ATOM     24  H   UNL     1      21.095  49.492  34.865  1.00  0.00     0.210 HD
ENDBRANCH  22  23
ENDBRANCH  17  22
BRANCH  18  25
ATOM     25  O   UNL     1      23.470  50.341  35.652  1.00  0.00    -0.385 OA
ATOM     26  H   UNL     1      22.887  50.634  34.907  1.00  0.00     0.211 HD
ENDBRANCH  18  25
BRANCH  20  27
ATOM     27  O   UNL     1      23.656  49.988  33.017  1.00  0.00    -0.387 OA
ATOM     28  H   UNL     1      23.189  50.580  33.663  1.00  0.00     0.211 HD
ENDBRANCH  20  27
BRANCH  21  29
ATOM     29  C   UNL     1      25.775  47.163  32.876  1.00  0.00     0.191 C 
BRANCH  29  30
ATOM     30  O   UNL     1      26.830  47.659  33.655  1.00  0.00    -0.394 OA
ATOM     31  H   UNL     1      26.420  48.272  34.318  1.00  0.00     0.210 HD
ENDBRANCH  29  30
ENDBRANCH  21  29
ENDBRANCH   1  17
TORSDOF 13
ENDMDL
MODEL 6
REMARK VINA RESULT:    -4.067      1.707      3.459
REMARK INTER + INTRA:          -7.544
REMARK INTER:                  -6.546
REMARK INTRA:                  -0.998
REMARK UNBOUND:                -1.338
REMARK SMILES OC[C@@H]1O[C@H](O[C@]2(CO)O[C@H](CO)[C@@H](O)[C@H]2O)[C@H](O)[C@@H](O)[C@H]1O
REMARK SMILES IDX 6 1 5 2 3 3 22 4 4 5 20 6 18 7 2 8 1 9 23 11 21 13 19 15
REMARK SMILES IDX 7 17 16 18 10 19 14 20 11 21 8 22 9 23 17 25 15 27 12 29
REMARK SMILES IDX 13 30
REMARK H PARENT 1 10 23 12 21 14 19 16 9 24 17 26 15 28 13 31
REMARK Flexibility Score: inf
ROOT
ATOM      1  O   UNL     1      22.349  47.635  36.065  1.00  0.00    -0.313 OA
ENDROOT
BRANCH   1   2
ATOM      2  C   UNL     1      22.826  48.625  36.965  1.00  0.00     0.285 C 
ATOM      3  C   UNL     1      22.789  50.910  37.428  1.00  0.00     0.178 C 
ATOM      4  C   UNL     1      22.443  50.708  38.927  1.00  0.00     0.177 C 
ATOM      5  O   UNL     1      22.219  49.868  36.653  1.00  0.00    -0.341 OA
ATOM      6  C   UNL     1      22.878  49.303  39.405  1.00  0.00     0.179 C 
ATOM      7  C   UNL     1      22.452  48.211  38.402  1.00  0.00     0.202 C 
BRANCH   3   8
ATOM      8  C   UNL     1      22.236  52.247  36.900  1.00  0.00     0.191 C 
BRANCH   8   9
ATOM      9  O   UNL     1      21.129  52.676  37.647  1.00  0.00    -0.394 OA
ATOM     10  H   UNL     1      20.503  51.908  37.694  1.00  0.00     0.210 HD
ENDBRANCH   8   9
ENDBRANCH   3   8
BRANCH   4  11
ATOM     11  O   UNL     1      23.080  51.694  39.699  1.00  0.00    -0.387 OA
ATOM     12  H   UNL     1      23.936  51.303  40.018  1.00  0.00     0.211 HD
ENDBRANCH   4  11
BRANCH   6  13
ATOM     13  O   UNL     1      24.277  49.259  39.553  1.00  0.00    -0.387 OA
ATOM     14  H   UNL     1      24.502  48.372  39.938  1.00  0.00     0.211 HD
ENDBRANCH   6  13
BRANCH   7  15
ATOM     15  O   UNL     1      21.079  47.917  38.515  1.00  0.00    -0.385 OA
ATOM     16  H   UNL     1      20.584  48.769  38.616  1.00  0.00     0.211 HD
ENDBRANCH   7  15
ENDBRANCH   1   2
BRANCH   1  17
ATOM     17  C   UNL     1      23.373  46.853  35.447  1.00  0.00     0.224 C 
ATOM     18  C   UNL     1      23.121  46.724  33.923  1.00  0.00     0.208 C 
ATOM     19  O   UNL     1      24.572  47.589  35.590  1.00  0.00    -0.337 OA
ATOM     20  C   UNL     1      24.485  46.876  33.282  1.00  0.00     0.180 C 
ATOM     21  C   UNL     1      25.338  47.480  34.406  1.00  0.00     0.179 C 
BRANCH  17  22
ATOM     22  C   UNL     1      23.575  45.503  36.199  1.00  0.00     0.225 C 
BRANCH  22  23
ATOM     23  O   UNL     1      24.662  45.570  37.084  1.00  0.00    -0.391 OA
ATOM     24  H   UNL     1      25.405  46.019  36.603  1.00  0.00     0.210 HD
ENDBRANCH  22  23
ENDBRANCH  17  22
BRANCH  18  25
ATOM     25  O   UNL     1      22.430  45.560  33.525  1.00  0.00    -0.385 OA
ATOM     26  H   UNL     1      22.797  45.244  32.662  1.00  0.00     0.211 HD
ENDBRANCH  18  25
BRANCH  20  27
ATOM     27  O   UNL     1      25.014  45.639  32.876  1.00  0.00    -0.387 OA
ATOM     28  H   UNL     1      24.256  45.118  32.501  1.00  0.00     0.211 HD
ENDBRANCH  20  27
BRANCH  21  29
ATOM     29  C   UNL     1      25.887  48.862  34.033  1.00  0.00     0.191 C 
BRANCH  29  30
ATOM     30  O   UNL     1      24.845  49.686  33.588  1.00  0.00    -0.394 OA
ATOM     31  H   UNL     1      24.271  49.119  33.009  1.00  0.00     0.210 HD
ENDBRANCH  29  30
ENDBRANCH  21  29
ENDBRANCH   1  17
TORSDOF 13
ENDMDL
MODEL 7
REMARK VINA RESULT:    -4.039      1.685      5.915
REMARK INTER + INTRA:          -7.502
REMARK INTER:                  -6.429
REMARK INTRA:                  -1.073
REMARK UNBOUND:                -1.338
REMARK SMILES OC[C@@H]1O[C@H](O[C@]2(CO)O[C@H](CO)[C@@H](O)[C@H]2O)[C@H](O)[C@@H](O)[C@H]1O
REMARK SMILES IDX 6 1 5 2 3 3 22 4 4 5 20 6 18 7 2 8 1 9 23 11 21 13 19 15
REMARK SMILES IDX 7 17 16 18 10 19 14 20 11 21 8 22 9 23 17 25 15 27 12 29
REMARK SMILES IDX 13 30
REMARK H PARENT 1 10 23 12 21 14 19 16 9 24 17 26 15 28 13 31
REMARK Flexibility Score: inf
ROOT
ATOM      1  O   UNL     1      22.028  49.209  37.316  1.00  0.00    -0.313 OA
ENDROOT
BRANCH   1   2
ATOM      2  C   UNL     1      22.952  48.901  36.283  1.00  0.00     0.285 C 
ATOM      3  C   UNL     1      24.104  47.151  35.260  1.00  0.00     0.178 C 
ATOM      4  C   UNL     1      23.710  47.589  33.825  1.00  0.00     0.177 C 
ATOM      5  O   UNL     1      23.074  47.493  36.173  1.00  0.00    -0.341 OA
ATOM      6  C   UNL     1      23.357  49.094  33.789  1.00  0.00     0.179 C 
ATOM      7  C   UNL     1      22.424  49.480  34.955  1.00  0.00     0.202 C 
BRANCH   3   8
ATOM      8  C   UNL     1      24.320  45.628  35.341  1.00  0.00     0.191 C 
BRANCH   8   9
ATOM      9  O   UNL     1      25.347  45.301  36.239  1.00  0.00    -0.394 OA
ATOM     10  H   UNL     1      25.942  46.093  36.289  1.00  0.00     0.210 HD
ENDBRANCH   8   9
ENDBRANCH   3   8
BRANCH   4  11
ATOM     11  O   UNL     1      24.767  47.325  32.939  1.00  0.00    -0.387 OA
ATOM     12  H   UNL     1      24.517  46.515  32.421  1.00  0.00     0.211 HD
ENDBRANCH   4  11
BRANCH   6  13
ATOM     13  O   UNL     1      24.532  49.864  33.878  1.00  0.00    -0.387 OA
ATOM     14  H   UNL     1      25.157  49.377  34.475  1.00  0.00     0.211 HD
ENDBRANCH   6  13
BRANCH   7  15
ATOM     15  O   UNL     1      21.097  49.078  34.707  1.00  0.00    -0.385 OA
ATOM     16  H   UNL     1      20.569  49.215  35.534  1.00  0.00     0.211 HD
ENDBRANCH   7  15
ENDBRANCH   1   2
BRANCH   1  17
ATOM     17  C   UNL     1      22.631  49.550  38.567  1.00  0.00     0.224 C 
ATOM     18  C   UNL     1      21.692  49.184  39.745  1.00  0.00     0.208 C 
ATOM     19  O   UNL     1      23.769  48.721  38.695  1.00  0.00    -0.337 OA
ATOM     20  C   UNL     1      22.599  48.598  40.807  1.00  0.00     0.180 C 
ATOM     21  C   UNL     1      23.890  48.287  40.036  1.00  0.00     0.179 C 
BRANCH  17  22
ATOM     22  C   UNL     1      23.137  51.023  38.559  1.00  0.00     0.225 C 
BRANCH  22  23
ATOM     23  O   UNL     1      22.108  51.914  38.219  1.00  0.00    -0.391 OA
ATOM     24  H   UNL     1      21.572  52.072  39.039  1.00  0.00     0.210 HD
ENDBRANCH  22  23
ENDBRANCH  17  22
BRANCH  18  25
ATOM     25  O   UNL     1      20.875  50.237  40.210  1.00  0.00    -0.385 OA
ATOM     26  H   UNL     1      19.925  49.986  40.094  1.00  0.00     0.211 HD
ENDBRANCH  18  25
BRANCH  20  27
ATOM     27  O   UNL     1      22.855  49.514  41.841  1.00  0.00    -0.387 OA
ATOM     28  H   UNL     1      23.224  48.988  42.599  1.00  0.00     0.211 HD
ENDBRANCH  20  27
BRANCH  21  29
ATOM     29  C   UNL     1      24.224  46.791  40.052  1.00  0.00     0.191 C 
BRANCH  29  30
ATOM     30  O   UNL     1      24.941  46.449  38.897  1.00  0.00    -0.394 OA
ATOM     31  H   UNL     1      24.515  45.626  38.541  1.00  0.00     0.210 HD
ENDBRANCH  29  30
ENDBRANCH  21  29
ENDBRANCH   1  17
TORSDOF 13
ENDMDL
MODEL 8
REMARK VINA RESULT:    -3.999      1.834      5.427
REMARK INTER + INTRA:          -7.442
REMARK INTER:                  -6.308
REMARK INTRA:                  -1.134
REMARK UNBOUND:                -1.338
REMARK SMILES OC[C@@H]1O[C@H](O[C@]2(CO)O[C@H](CO)[C@@H](O)[C@H]2O)[C@H](O)[C@@H](O)[C@H]1O
REMARK SMILES IDX 6 1 5 2 3 3 22 4 4 5 20 6 18 7 2 8 1 9 23 11 21 13 19 15
REMARK SMILES IDX 7 17 16 18 10 19 14 20 11 21 8 22 9 23 17 25 15 27 12 29
REMARK SMILES IDX 13 30
REMARK H PARENT 1 10 23 12 21 14 19 16 9 24 17 26 15 28 13 31
REMARK Flexibility Score: inf
ROOT
ATOM      1  O   UNL     1      22.683  49.435  34.999  1.00  0.00    -0.313 OA
ENDROOT
BRANCH   1   2
ATOM      2  C   UNL     1      23.802  48.567  35.101  1.00  0.00     0.285 C 
ATOM      3  C   UNL     1      24.617  46.683  36.206  1.00  0.00     0.178 C 
ATOM      4  C   UNL     1      25.072  45.981  34.899  1.00  0.00     0.177 C 
ATOM      5  O   UNL     1      23.475  47.485  35.956  1.00  0.00    -0.341 OA
ATOM      6  C   UNL     1      25.305  47.017  33.774  1.00  0.00     0.179 C 
ATOM      7  C   UNL     1      24.145  48.032  33.696  1.00  0.00     0.202 C 
BRANCH   3   8
ATOM      8  C   UNL     1      24.245  45.656  37.292  1.00  0.00     0.191 C 
BRANCH   8   9
ATOM      9  O   UNL     1      23.942  46.283  38.510  1.00  0.00    -0.394 OA
ATOM     10  H   UNL     1      23.465  47.123  38.285  1.00  0.00     0.210 HD
ENDBRANCH   8   9
ENDBRANCH   3   8
BRANCH   4  11
ATOM     11  O   UNL     1      26.252  45.257  35.133  1.00  0.00    -0.387 OA
ATOM     12  H   UNL     1      25.985  44.317  35.311  1.00  0.00     0.211 HD
ENDBRANCH   4  11
BRANCH   6  13
ATOM     13  O   UNL     1      26.502  47.718  34.008  1.00  0.00    -0.387 OA
ATOM     14  H   UNL     1      26.944  47.292  34.788  1.00  0.00     0.211 HD
ENDBRANCH   6  13
BRANCH   7  15
ATOM     15  O   UNL     1      23.016  47.476  33.065  1.00  0.00    -0.385 OA
ATOM     16  H   UNL     1      22.611  46.811  33.677  1.00  0.00     0.211 HD
ENDBRANCH   7  15
ENDBRANCH   1   2
BRANCH   1  17
ATOM     17  C   UNL     1      22.778  50.620  35.793  1.00  0.00     0.224 C 
ATOM     18  C   UNL     1      21.368  51.160  36.143  1.00  0.00     0.208 C 
ATOM     19  O   UNL     1      23.369  50.229  37.016  1.00  0.00    -0.337 OA
ATOM     20  C   UNL     1      21.460  51.596  37.591  1.00  0.00     0.180 C 
ATOM     21  C   UNL     1      22.745  50.916  38.083  1.00  0.00     0.179 C 
BRANCH  17  22
ATOM     22  C   UNL     1      23.737  51.656  35.134  1.00  0.00     0.225 C 
BRANCH  22  23
ATOM     23  O   UNL     1      23.728  52.874  35.832  1.00  0.00    -0.391 OA
ATOM     24  H   UNL     1      24.248  52.739  36.666  1.00  0.00     0.210 HD
ENDBRANCH  22  23
ENDBRANCH  17  22
BRANCH  18  25
ATOM     25  O   UNL     1      20.875  52.158  35.277  1.00  0.00    -0.385 OA
ATOM     26  H   UNL     1      20.301  51.737  34.589  1.00  0.00     0.211 HD
ENDBRANCH  18  25
BRANCH  20  27
ATOM     27  O   UNL     1      21.568  52.992  37.711  1.00  0.00    -0.387 OA
ATOM     28  H   UNL     1      21.051  53.246  38.520  1.00  0.00     0.211 HD
ENDBRANCH  20  27
BRANCH  21  29
ATOM     29  C   UNL     1      22.473  49.930  39.226  1.00  0.00     0.191 C 
BRANCH  29  30
ATOM     30  O   UNL     1      22.480  48.617  38.736  1.00  0.00    -0.394 OA
ATOM     31  H   UNL     1      23.027  48.633  37.908  1.00  0.00     0.210 HD
ENDBRANCH  29  30
ENDBRANCH  21  29
ENDBRANCH   1  17
TORSDOF 13
ENDMDL
