MODEL 1
REMARK VINA RESULT:    14.657      0.000      0.000
REMARK INTER + INTRA:          20.429
REMARK INTER:                  21.083
REMARK INTRA:                  -0.654
REMARK UNBOUND:                -0.654
REMARK SMILES CC(C)=CCCC(C)=CCCC(C)=CCO
REMARK SMILES IDX 10 1 9 2 7 3 8 4 6 5 5 6 4 7 1 8 2 9 3 10 11 11 12 12 14 13
REMARK SMILES IDX 13 14 15 15 16 16
REMARK H PARENT 16 17
REMARK Flexibility Score: inf
ROOT
ATOM      1  C   UNL     1      28.026  23.873  43.066  1.00  0.00     0.032 C 
ENDROOT
BRANCH   1   2
ATOM      2  C   UNL     1      29.240  23.120  42.586  1.00  0.00    -0.028 C 
ATOM      3  C   UNL     1      30.521  23.488  42.825  1.00  0.00    -0.077 C 
ATOM      4  C   UNL     1      31.627  22.629  42.271  1.00  0.00     0.039 C 
BRANCH   3   5
ATOM      5  C   UNL     1      30.890  24.682  43.682  1.00  0.00     0.034 C 
BRANCH   5   6
ATOM      6  C   UNL     1      32.207  24.429  44.423  1.00  0.00     0.032 C 
BRANCH   6   7
ATOM      7  C   UNL     1      31.968  24.289  45.906  1.00  0.00    -0.028 C 
ATOM      8  C   UNL     1      34.025  22.908  46.272  1.00  0.00     0.039 C 
ATOM      9  C   UNL     1      32.789  23.631  46.753  1.00  0.00    -0.080 C 
ATOM     10  C   UNL     1      32.440  23.611  48.219  1.00  0.00     0.039 C 
ENDBRANCH   6   7
ENDBRANCH   5   6
ENDBRANCH   3   5
ENDBRANCH   1   2
BRANCH   1  11
ATOM     11  C   UNL     1      26.784  23.475  42.260  1.00  0.00     0.034 C 
BRANCH  11  12
ATOM     12  C   UNL     1      26.183  24.681  41.573  1.00  0.00    -0.075 C 
ATOM     13  C   UNL     1      24.907  25.032  41.851  1.00  0.00    -0.000 C 
ATOM     14  C   UNL     1      27.029  25.473  40.605  1.00  0.00     0.039 C 
BRANCH  13  15
ATOM     15  C   UNL     1      24.208  26.217  41.237  1.00  0.00     0.183 C 
BRANCH  15  16
ATOM     16  O   UNL     1      22.944  26.401  41.815  1.00  0.00    -0.392 OA
ATOM     17  H   UNL     1      22.614  25.500  42.067  1.00  0.00     0.210 HD
ENDBRANCH  15  16
ENDBRANCH  13  15
ENDBRANCH  11  12
ENDBRANCH   1  11
TORSDOF 8
ENDMDL
MODEL 2
REMARK VINA RESULT:    14.788      1.203      2.402
REMARK INTER + INTRA:          20.617
REMARK INTER:                  21.527
REMARK INTRA:                  -0.910
REMARK UNBOUND:                -0.654
REMARK SMILES CC(C)=CCCC(C)=CCCC(C)=CCO
REMARK SMILES IDX 10 1 9 2 7 3 8 4 6 5 5 6 4 7 1 8 2 9 3 10 11 11 12 12 14 13
REMARK SMILES IDX 13 14 15 15 16 16
REMARK H PARENT 16 17
REMARK Flexibility Score: inf
ROOT
ATOM      1  C   UNL     1      29.817  23.495  43.321  1.00  0.00     0.032 C 
ENDROOT
BRANCH   1   2
ATOM      2  C   UNL     1      31.165  24.169  43.290  1.00  0.00    -0.028 C 
ATOM      3  C   UNL     1      31.791  24.691  44.371  1.00  0.00    -0.077 C 
ATOM      4  C   UNL     1      33.138  25.338  44.174  1.00  0.00     0.039 C 
BRANCH   3   5
ATOM      5  C   UNL     1      31.234  24.592  45.777  1.00  0.00     0.034 C 
BRANCH   5   6
ATOM      6  C   UNL     1      32.354  24.313  46.784  1.00  0.00     0.032 C 
BRANCH   6   7
ATOM      7  C   UNL     1      32.719  22.850  46.785  1.00  0.00    -0.028 C 
ATOM      8  C   UNL     1      35.150  23.290  46.373  1.00  0.00     0.039 C 
ATOM      9  C   UNL     1      33.974  22.375  46.627  1.00  0.00    -0.080 C 
ATOM     10  C   UNL     1      34.192  20.886  46.693  1.00  0.00     0.039 C 
ENDBRANCH   6   7
ENDBRANCH   5   6
ENDBRANCH   3   5
ENDBRANCH   1   2
BRANCH   1  11
ATOM     11  C   UNL     1      28.963  23.931  42.125  1.00  0.00     0.034 C 
BRANCH  11  12
ATOM     12  C   UNL     1      27.495  23.943  42.492  1.00  0.00    -0.075 C 
ATOM     13  C   UNL     1      26.582  24.284  41.554  1.00  0.00    -0.000 C 
ATOM     14  C   UNL     1      27.084  23.557  43.893  1.00  0.00     0.039 C 
BRANCH  13  15
ATOM     15  C   UNL     1      25.097  24.321  41.800  1.00  0.00     0.183 C 
BRANCH  15  16
ATOM     16  O   UNL     1      24.617  25.637  41.742  1.00  0.00    -0.392 OA
ATOM     17  H   UNL     1      23.961  25.667  40.999  1.00  0.00     0.210 HD
ENDBRANCH  15  16
ENDBRANCH  13  15
ENDBRANCH  11  12
ENDBRANCH   1  11
TORSDOF 8
ENDMDL
MODEL 3
REMARK VINA RESULT:    14.873      1.188      2.508
REMARK INTER + INTRA:          20.739
REMARK INTER:                  21.381
REMARK INTRA:                  -0.641
REMARK UNBOUND:                -0.654
REMARK SMILES CC(C)=CCCC(C)=CCCC(C)=CCO
REMARK SMILES IDX 10 1 9 2 7 3 8 4 6 5 5 6 4 7 1 8 2 9 3 10 11 11 12 12 14 13
REMARK SMILES IDX 13 14 15 15 16 16
REMARK H PARENT 16 17
REMARK Flexibility Score: inf
ROOT
ATOM      1  C   UNL     1      29.835  23.510  43.266  1.00  0.00     0.032 C 
ENDROOT
BRANCH   1   2
ATOM      2  C   UNL     1      31.159  24.230  43.243  1.00  0.00    -0.028 C 
ATOM      3  C   UNL     1      31.850  24.608  44.343  1.00  0.00    -0.077 C 
ATOM      4  C   UNL     1      33.162  25.325  44.153  1.00  0.00     0.039 C 
BRANCH   3   5
ATOM      5  C   UNL     1      31.401  24.281  45.754  1.00  0.00     0.034 C 
BRANCH   5   6
ATOM      6  C   UNL     1      32.537  23.623  46.544  1.00  0.00     0.032 C 
BRANCH   6   7
ATOM      7  C   UNL     1      32.719  24.300  47.880  1.00  0.00    -0.028 C 
ATOM      8  C   UNL     1      31.626  22.440  49.152  1.00  0.00     0.039 C 
ATOM      9  C   UNL     1      32.338  23.769  49.063  1.00  0.00    -0.080 C 
ATOM     10  C   UNL     1      32.624  24.545  50.323  1.00  0.00     0.039 C 
ENDBRANCH   6   7
ENDBRANCH   5   6
ENDBRANCH   3   5
ENDBRANCH   1   2
BRANCH   1  11
ATOM     11  C   UNL     1      28.960  23.940  42.081  1.00  0.00     0.034 C 
BRANCH  11  12
ATOM     12  C   UNL     1      27.499  23.956  42.473  1.00  0.00    -0.075 C 
ATOM     13  C   UNL     1      26.572  24.300  41.550  1.00  0.00    -0.000 C 
ATOM     14  C   UNL     1      27.111  23.572  43.881  1.00  0.00     0.039 C 
BRANCH  13  15
ATOM     15  C   UNL     1      25.090  24.341  41.822  1.00  0.00     0.183 C 
BRANCH  15  16
ATOM     16  O   UNL     1      24.602  25.650  41.709  1.00  0.00    -0.392 OA
ATOM     17  H   UNL     1      24.879  26.128  42.534  1.00  0.00     0.210 HD
ENDBRANCH  15  16
ENDBRANCH  13  15
ENDBRANCH  11  12
ENDBRANCH   1  11
TORSDOF 8
ENDMDL
