MODEL 1
REMARK VINA RESULT:    62.537      0.000      0.000
REMARK INTER + INTRA:          92.697
REMARK INTER:                  91.785
REMARK INTRA:                   0.913
REMARK UNBOUND:                 0.913
REMARK SMILES Cc1cc2c(C(C)C)c(O)c(O)c(C=O)c2c(O)c1-c1c(C)cc2c(C(C)C)c(O)c(O)c(C=O)c2c1O
REMARK SMILES IDX 1 1 2 2 3 3 4 4 16 5 13 6 11 7 9 8 5 9 17 10 19 11 20 12
REMARK SMILES IDX 37 13 21 14 36 15 23 16 22 17 24 18 33 19 25 20 31 21 29 22
REMARK SMILES IDX 38 23 34 25 35 26 26 27 27 28 28 29 32 30 30 32 18 34 6 36
REMARK SMILES IDX 7 37 8 38 14 39 15 40 10 41 12 43
REMARK H PARENT 38 24 32 31 30 33 18 35 10 42 12 44
REMARK Flexibility Score: inf
ROOT
ATOM      1  C   UNL     1      18.603  13.858 -10.757  1.00  0.00     0.045 C 
ATOM      2  C   UNL     1      18.705  12.660 -11.669  1.00  0.00    -0.039 A 
ATOM      3  C   UNL     1      19.737  12.581 -12.595  1.00  0.00     0.013 A 
ATOM      4  C   UNL     1      19.871  11.484 -13.486  1.00  0.00    -0.006 A 
ATOM      5  C   UNL     1      18.846  10.479 -13.477  1.00  0.00     0.039 A 
ATOM      6  C   UNL     1      18.905   9.415 -14.437  1.00  0.00     0.072 A 
ATOM      7  C   UNL     1      20.028   9.279 -15.251  1.00  0.00     0.169 A 
ATOM      8  C   UNL     1      21.043  10.246 -15.251  1.00  0.00     0.162 A 
ATOM      9  C   UNL     1      20.979  11.381 -14.398  1.00  0.00     0.008 A 
ATOM     10  C   UNL     1      17.808  10.555 -12.511  1.00  0.00     0.132 A 
ATOM     11  C   UNL     1      17.726  11.661 -11.639  1.00  0.00     0.031 A 
ENDROOT
BRANCH  11  12
ATOM     12  C   UNL     1      16.584  11.719 -10.696  1.00  0.00     0.031 A 
ATOM     13  C   UNL     1      16.671  11.063  -9.457  1.00  0.00     0.132 A 
ATOM     14  C   UNL     1      15.564  12.659 -10.917  1.00  0.00    -0.039 A 
ATOM     15  C   UNL     1      15.774  11.393  -8.414  1.00  0.00     0.039 A 
ATOM     16  C   UNL     1      14.829  13.128  -9.837  1.00  0.00     0.013 A 
ATOM     17  C   UNL     1      15.399  13.327 -12.259  1.00  0.00     0.045 C 
ATOM     18  C   UNL     1      14.941  12.545  -8.554  1.00  0.00    -0.006 A 
ATOM     19  C   UNL     1      15.713  10.642  -7.206  1.00  0.00     0.072 A 
ATOM     20  C   UNL     1      14.297  13.097  -7.402  1.00  0.00     0.008 A 
ATOM     21  C   UNL     1      15.154  11.244  -6.067  1.00  0.00     0.169 A 
ATOM     22  C   UNL     1      14.614  12.533  -6.143  1.00  0.00     0.162 A 
BRANCH  13  23
ATOM     23  O   UNL     1      17.715  10.155  -9.228  1.00  0.00    -0.507 OA
ATOM     24  H   UNL     1      17.966   9.832  -8.295  1.00  0.00     0.293 HD
ENDBRANCH  13  23
BRANCH  19  25
ATOM     25  C   UNL     1      16.115   9.204  -7.168  1.00  0.00     0.264 C 
ATOM     26  O   UNL     1      15.308   8.276  -7.418  1.00  0.00    -0.298 OA
ENDBRANCH  19  25
BRANCH  20  27
ATOM     27  C   UNL     1      13.460  14.384  -7.483  1.00  0.00     0.017 C 
ATOM     28  C   UNL     1      14.379  15.590  -7.692  1.00  0.00     0.012 C 
ATOM     29  C   UNL     1      12.500  14.604  -6.289  1.00  0.00     0.012 C 
ENDBRANCH  20  27
BRANCH  21  30
ATOM     30  O   UNL     1      15.091  10.533  -4.863  1.00  0.00    -0.504 OA
ATOM     31  H   UNL     1      15.597  10.828  -4.036  1.00  0.00     0.293 HD
ENDBRANCH  21  30
BRANCH  22  32
ATOM     32  O   UNL     1      14.415  13.277  -4.980  1.00  0.00    -0.504 OA
ATOM     33  H   UNL     1      14.269  12.870  -4.065  1.00  0.00     0.293 HD
ENDBRANCH  22  32
ENDBRANCH  11  12
BRANCH  10  34
ATOM     34  O   UNL     1      16.859   9.525 -12.407  1.00  0.00    -0.507 OA
ATOM     35  H   UNL     1      16.340   9.119 -13.176  1.00  0.00     0.293 HD
ENDBRANCH  10  34
BRANCH   9  36
ATOM     36  C   UNL     1      21.973  12.559 -14.560  1.00  0.00     0.017 C 
ATOM     37  C   UNL     1      21.720  13.583 -13.448  1.00  0.00     0.012 C 
ATOM     38  C   UNL     1      22.004  13.259 -15.932  1.00  0.00     0.012 C 
ENDBRANCH   9  36
BRANCH   6  39
ATOM     39  C   UNL     1      17.754   8.523 -14.695  1.00  0.00     0.264 C 
ATOM     40  O   UNL     1      17.513   8.130 -15.868  1.00  0.00    -0.298 OA
ENDBRANCH   6  39
BRANCH   8  41
ATOM     41  O   UNL     1      22.125  10.066 -16.118  1.00  0.00    -0.504 OA
ATOM     42  H   UNL     1      22.026   9.851 -17.107  1.00  0.00     0.293 HD
ENDBRANCH   8  41
BRANCH   7  43
ATOM     43  O   UNL     1      20.165   8.179 -16.109  1.00  0.00    -0.504 OA
ATOM     44  H   UNL     1      20.044   7.223 -15.814  1.00  0.00     0.293 HD
ENDBRANCH   7  43
TORSDOF 11
ENDMDL
MODEL 2
REMARK VINA RESULT:    63.312      1.644      8.740
REMARK INTER + INTRA:          93.834
REMARK INTER:                  92.612
REMARK INTRA:                   1.222
REMARK UNBOUND:                 0.913
REMARK SMILES Cc1cc2c(C(C)C)c(O)c(O)c(C=O)c2c(O)c1-c1c(C)cc2c(C(C)C)c(O)c(O)c(C=O)c2c1O
REMARK SMILES IDX 1 1 2 2 3 3 4 4 16 5 13 6 11 7 9 8 5 9 17 10 19 11 20 12
REMARK SMILES IDX 37 13 21 14 36 15 23 16 22 17 24 18 33 19 25 20 31 21 29 22
REMARK SMILES IDX 38 23 34 25 35 26 26 27 27 28 28 29 32 30 30 32 18 34 6 36
REMARK SMILES IDX 7 37 8 38 14 39 15 40 10 41 12 43
REMARK H PARENT 38 24 32 31 30 33 18 35 10 42 12 44
REMARK Flexibility Score: inf
ROOT
ATOM      1  C   UNL     1      16.291  15.482 -11.383  1.00  0.00     0.045 C 
ATOM      2  C   UNL     1      16.027  14.411 -10.353  1.00  0.00    -0.039 A 
ATOM      3  C   UNL     1      15.564  14.763  -9.092  1.00  0.00     0.013 A 
ATOM      4  C   UNL     1      15.314  13.797  -8.082  1.00  0.00    -0.006 A 
ATOM      5  C   UNL     1      15.642  12.428  -8.362  1.00  0.00     0.039 A 
ATOM      6  C   UNL     1      15.495  11.449  -7.324  1.00  0.00     0.072 A 
ATOM      7  C   UNL     1      14.888  11.804  -6.120  1.00  0.00     0.169 A 
ATOM      8  C   UNL     1      14.546  13.135  -5.847  1.00  0.00     0.162 A 
ATOM      9  C   UNL     1      14.775  14.165  -6.801  1.00  0.00     0.008 A 
ATOM     10  C   UNL     1      16.092  12.074  -9.661  1.00  0.00     0.132 A 
ATOM     11  C   UNL     1      16.313  13.071 -10.635  1.00  0.00     0.031 A 
ENDROOT
BRANCH  11  12
ATOM     12  C   UNL     1      16.846  12.649 -11.953  1.00  0.00     0.031 A 
ATOM     13  C   UNL     1      18.218  12.776 -12.221  1.00  0.00     0.132 A 
ATOM     14  C   UNL     1      16.040  11.863 -12.794  1.00  0.00    -0.039 A 
ATOM     15  C   UNL     1      18.801  12.065 -13.297  1.00  0.00     0.039 A 
ATOM     16  C   UNL     1      16.644  11.011 -13.707  1.00  0.00     0.013 A 
ATOM     17  C   UNL     1      14.552  11.765 -12.576  1.00  0.00     0.045 C 
ATOM     18  C   UNL     1      18.036  11.054 -13.954  1.00  0.00    -0.006 A 
ATOM     19  C   UNL     1      20.144  12.291 -13.710  1.00  0.00     0.072 A 
ATOM     20  C   UNL     1      18.697  10.098 -14.788  1.00  0.00     0.008 A 
ATOM     21  C   UNL     1      20.796  11.294 -14.455  1.00  0.00     0.169 A 
ATOM     22  C   UNL     1      20.111  10.132 -14.829  1.00  0.00     0.162 A 
BRANCH  13  23
ATOM     23  O   UNL     1      19.025  13.529 -11.355  1.00  0.00    -0.507 OA
ATOM     24  H   UNL     1      19.541  13.111 -10.583  1.00  0.00     0.293 HD
ENDBRANCH  13  23
BRANCH  19  25
ATOM     25  C   UNL     1      20.815  13.605 -13.475  1.00  0.00     0.264 C 
ATOM     26  O   UNL     1      21.190  14.344 -14.418  1.00  0.00    -0.298 OA
ENDBRANCH  19  25
BRANCH  20  27
ATOM     27  C   UNL     1      17.934   8.938 -15.449  1.00  0.00     0.017 C 
ATOM     28  C   UNL     1      16.978   8.300 -14.439  1.00  0.00     0.012 C 
ATOM     29  C   UNL     1      18.835   7.876 -16.125  1.00  0.00     0.012 C 
ENDBRANCH  20  27
BRANCH  21  30
ATOM     30  O   UNL     1      22.120  11.485 -14.865  1.00  0.00    -0.504 OA
ATOM     31  H   UNL     1      22.368  12.136 -15.602  1.00  0.00     0.293 HD
ENDBRANCH  21  30
BRANCH  22  32
ATOM     32  O   UNL     1      20.822   8.996 -15.216  1.00  0.00    -0.504 OA
ATOM     33  H   UNL     1      20.694   8.521 -16.100  1.00  0.00     0.293 HD
ENDBRANCH  22  32
ENDBRANCH  11  12
BRANCH  10  34
ATOM     34  O   UNL     1      16.310  10.727  -9.994  1.00  0.00    -0.507 OA
ATOM     35  H   UNL     1      17.200  10.245  -9.956  1.00  0.00     0.293 HD
ENDBRANCH  10  34
BRANCH   9  36
ATOM     36  C   UNL     1      14.614  15.658  -6.417  1.00  0.00     0.017 C 
ATOM     37  C   UNL     1      14.220  16.455  -7.665  1.00  0.00     0.012 C 
ATOM     38  C   UNL     1      15.810  16.328  -5.712  1.00  0.00     0.012 C 
ENDBRANCH   9  36
BRANCH   6  39
ATOM     39  C   UNL     1      16.085  10.097  -7.426  1.00  0.00     0.264 C 
ATOM     40  O   UNL     1      15.346   9.080  -7.341  1.00  0.00    -0.298 OA
ENDBRANCH   6  39
BRANCH   8  41
ATOM     41  O   UNL     1      13.973  13.427  -4.606  1.00  0.00    -0.504 OA
ATOM     42  H   UNL     1      13.043  13.124  -4.328  1.00  0.00     0.293 HD
ENDBRANCH   8  41
BRANCH   7  43
ATOM     43  O   UNL     1      14.621  10.840  -5.139  1.00  0.00    -0.504 OA
ATOM     44  H   UNL     1      14.936  10.913  -4.184  1.00  0.00     0.293 HD
ENDBRANCH   7  43
TORSDOF 11
ENDMDL
