MODEL 1
REMARK VINA RESULT:    -1.895      0.000      0.000
REMARK INTER + INTRA:          -5.272
REMARK INTER:                  -4.111
REMARK INTRA:                  -1.161
REMARK UNBOUND:                -1.161
REMARK SMILES CCCCCCCCCCCCCCCCCCCCCC(=O)[O-]
REMARK SMILES IDX 12 1 11 2 10 3 9 4 8 5 7 6 6 7 5 8 4 9 3 10 2 11 1 12 13 13
REMARK SMILES IDX 14 14 15 15 16 16 17 17 18 18 19 19 20 20 21 21 22 22 23 23
REMARK SMILES IDX 24 24
REMARK H PARENT
REMARK Flexibility Score: inf
ROOT
ATOM      1  C   UNL     1      18.616   7.124 -11.926  1.00  0.00     0.000 C 
ENDROOT
BRANCH   1   2
ATOM      2  C   UNL     1      18.979   6.805 -10.462  1.00  0.00     0.000 C 
BRANCH   2   3
ATOM      3  C   UNL     1      18.750   5.340 -10.039  1.00  0.00     0.000 C 
BRANCH   3   4
ATOM      4  C   UNL     1      17.395   4.739 -10.466  1.00  0.00    -0.000 C 
BRANCH   4   5
ATOM      5  C   UNL     1      17.477   3.388 -11.198  1.00  0.00    -0.000 C 
BRANCH   5   6
ATOM      6  C   UNL     1      18.352   3.443 -12.461  1.00  0.00    -0.000 C 
BRANCH   6   7
ATOM      7  C   UNL     1      18.518   2.069 -13.137  1.00  0.00    -0.000 C 
BRANCH   7   8
ATOM      8  C   UNL     1      19.035   2.106 -14.588  1.00  0.00    -0.000 C 
BRANCH   8   9
ATOM      9  C   UNL     1      18.770   0.797 -15.351  1.00  0.00    -0.000 C 
BRANCH   9  10
ATOM     10  C   UNL     1      17.272   0.466 -15.447  1.00  0.00    -0.000 C 
BRANCH  10  11
ATOM     11  C   UNL     1      17.004  -0.848 -16.196  1.00  0.00    -0.003 C 
ATOM     12  C   UNL     1      17.080  -0.642 -17.707  1.00  0.00     0.004 C 
ENDBRANCH  10  11
ENDBRANCH   9  10
ENDBRANCH   8   9
ENDBRANCH   7   8
ENDBRANCH   6   7
ENDBRANCH   5   6
ENDBRANCH   4   5
ENDBRANCH   3   4
ENDBRANCH   2   3
ENDBRANCH   1   2
BRANCH   1  13
ATOM     13  C   UNL     1      19.790   7.043 -12.916  1.00  0.00     0.000 C 
BRANCH  13  14
ATOM     14  C   UNL     1      20.124   5.598 -13.326  1.00  0.00     0.000 C 
BRANCH  14  15
ATOM     15  C   UNL     1      21.349   5.043 -12.584  1.00  0.00     0.000 C 
BRANCH  15  16
ATOM     16  C   UNL     1      22.317   6.152 -12.134  1.00  0.00     0.000 C 
BRANCH  16  17
ATOM     17  C   UNL     1      23.433   6.414 -13.158  1.00  0.00     0.000 C 
BRANCH  17  18
ATOM     18  C   UNL     1      24.095   5.116 -13.652  1.00  0.00     0.000 C 
BRANCH  18  19
ATOM     19  C   UNL     1      25.351   5.373 -14.506  1.00  0.00     0.000 C 
BRANCH  19  20
ATOM     20  C   UNL     1      26.461   4.309 -14.377  1.00  0.00     0.006 C 
BRANCH  20  21
ATOM     21  C   UNL     1      27.838   4.760 -14.887  1.00  0.00     0.053 C 
BRANCH  21  22
ATOM     22  C   UNL     1      28.764   3.602 -15.100  1.00  0.00     0.041 C 
ATOM     23  O   UNL     1      29.512   3.568 -16.111  1.00  0.00    -0.550 OA
ATOM     24  O   UNL     1      28.820   2.575 -14.166  1.00  0.00    -0.550 OA
ENDBRANCH  21  22
ENDBRANCH  20  21
ENDBRANCH  19  20
ENDBRANCH  18  19
ENDBRANCH  17  18
ENDBRANCH  16  17
ENDBRANCH  15  16
ENDBRANCH  14  15
ENDBRANCH  13  14
ENDBRANCH   1  13
TORSDOF 20
ENDMDL
MODEL 2
REMARK VINA RESULT:    -1.721      3.997      8.197
REMARK INTER + INTRA:          -4.894
REMARK INTER:                  -3.673
REMARK INTRA:                  -1.222
REMARK UNBOUND:                -1.161
REMARK SMILES CCCCCCCCCCCCCCCCCCCCCC(=O)[O-]
REMARK SMILES IDX 12 1 11 2 10 3 9 4 8 5 7 6 6 7 5 8 4 9 3 10 2 11 1 12 13 13
REMARK SMILES IDX 14 14 15 15 16 16 17 17 18 18 19 19 20 20 21 21 22 22 23 23
REMARK SMILES IDX 24 24
REMARK H PARENT
REMARK Flexibility Score: inf
ROOT
ATOM      1  C   UNL     1      18.920   6.557 -10.308  1.00  0.00     0.000 C 
ENDROOT
BRANCH   1   2
ATOM      2  C   UNL     1      20.214   5.732 -10.164  1.00  0.00     0.000 C 
BRANCH   2   3
ATOM      3  C   UNL     1      21.456   6.539  -9.736  1.00  0.00     0.000 C 
BRANCH   3   4
ATOM      4  C   UNL     1      22.346   7.033 -10.895  1.00  0.00    -0.000 C 
BRANCH   4   5
ATOM      5  C   UNL     1      21.651   7.124 -12.265  1.00  0.00    -0.000 C 
BRANCH   5   6
ATOM      6  C   UNL     1      21.701   5.804 -13.051  1.00  0.00    -0.000 C 
BRANCH   6   7
ATOM      7  C   UNL     1      23.006   5.018 -12.821  1.00  0.00    -0.000 C 
BRANCH   7   8
ATOM      8  C   UNL     1      24.220   5.503 -13.635  1.00  0.00    -0.000 C 
BRANCH   8   9
ATOM      9  C   UNL     1      25.209   4.372 -13.967  1.00  0.00    -0.000 C 
BRANCH   9  10
ATOM     10  C   UNL     1      26.412   4.865 -14.788  1.00  0.00    -0.000 C 
BRANCH  10  11
ATOM     11  C   UNL     1      27.689   4.059 -14.507  1.00  0.00    -0.003 C 
ATOM     12  C   UNL     1      28.666   4.155 -15.675  1.00  0.00     0.004 C 
ENDBRANCH  10  11
ENDBRANCH   9  10
ENDBRANCH   8   9
ENDBRANCH   7   8
ENDBRANCH   6   7
ENDBRANCH   5   6
ENDBRANCH   4   5
ENDBRANCH   3   4
ENDBRANCH   2   3
ENDBRANCH   1   2
BRANCH   1  13
ATOM     13  C   UNL     1      17.855   5.935 -11.228  1.00  0.00     0.000 C 
BRANCH  13  14
ATOM     14  C   UNL     1      17.374   4.559 -10.735  1.00  0.00     0.000 C 
BRANCH  14  15
ATOM     15  C   UNL     1      17.946   3.402 -11.568  1.00  0.00     0.000 C 
BRANCH  15  16
ATOM     16  C   UNL     1      18.656   3.889 -12.843  1.00  0.00     0.000 C 
BRANCH  16  17
ATOM     17  C   UNL     1      19.483   2.784 -13.520  1.00  0.00     0.000 C 
BRANCH  17  18
ATOM     18  C   UNL     1      18.687   1.479 -13.696  1.00  0.00     0.000 C 
BRANCH  18  19
ATOM     19  C   UNL     1      18.457   1.113 -15.174  1.00  0.00     0.000 C 
BRANCH  19  20
ATOM     20  C   UNL     1      17.066   0.531 -15.499  1.00  0.00     0.006 C 
BRANCH  20  21
ATOM     21  C   UNL     1      17.088  -0.899 -16.062  1.00  0.00     0.053 C 
BRANCH  21  22
ATOM     22  C   UNL     1      16.754  -0.932 -17.521  1.00  0.00     0.041 C 
ATOM     23  O   UNL     1      16.851   0.113 -18.217  1.00  0.00    -0.550 OA
ATOM     24  O   UNL     1      16.362  -2.123 -18.119  1.00  0.00    -0.550 OA
ENDBRANCH  21  22
ENDBRANCH  20  21
ENDBRANCH  19  20
ENDBRANCH  18  19
ENDBRANCH  17  18
ENDBRANCH  16  17
ENDBRANCH  15  16
ENDBRANCH  14  15
ENDBRANCH  13  14
ENDBRANCH   1  13
TORSDOF 20
ENDMDL
MODEL 3
REMARK VINA RESULT:    -1.226      3.807      8.272
REMARK INTER + INTRA:          -3.821
REMARK INTER:                  -3.069
REMARK INTRA:                  -0.752
REMARK UNBOUND:                -1.161
REMARK SMILES CCCCCCCCCCCCCCCCCCCCCC(=O)[O-]
REMARK SMILES IDX 12 1 11 2 10 3 9 4 8 5 7 6 6 7 5 8 4 9 3 10 2 11 1 12 13 13
REMARK SMILES IDX 14 14 15 15 16 16 17 17 18 18 19 19 20 20 21 21 22 22 23 23
REMARK SMILES IDX 24 24
REMARK H PARENT
REMARK Flexibility Score: inf
ROOT
ATOM      1  C   UNL     1      19.612   6.111 -12.022  1.00  0.00     0.000 C 
ENDROOT
BRANCH   1   2
ATOM      2  C   UNL     1      20.754   6.308 -11.005  1.00  0.00     0.000 C 
BRANCH   2   3
ATOM      3  C   UNL     1      21.953   7.125 -11.524  1.00  0.00     0.000 C 
BRANCH   3   4
ATOM      4  C   UNL     1      22.623   6.569 -12.797  1.00  0.00    -0.000 C 
BRANCH   4   5
ATOM      5  C   UNL     1      22.417   5.063 -13.044  1.00  0.00    -0.000 C 
BRANCH   5   6
ATOM      6  C   UNL     1      23.701   4.349 -13.499  1.00  0.00    -0.000 C 
BRANCH   6   7
ATOM      7  C   UNL     1      24.902   5.304 -13.634  1.00  0.00    -0.000 C 
BRANCH   7   8
ATOM      8  C   UNL     1      25.793   5.072 -14.868  1.00  0.00    -0.000 C 
BRANCH   8   9
ATOM      9  C   UNL     1      26.937   4.080 -14.603  1.00  0.00    -0.000 C 
BRANCH   9  10
ATOM     10  C   UNL     1      28.268   4.534 -15.225  1.00  0.00    -0.000 C 
BRANCH  10  11
ATOM     11  C   UNL     1      29.379   3.485 -15.076  1.00  0.00    -0.003 C 
ATOM     12  C   UNL     1      29.054   2.497 -13.959  1.00  0.00     0.004 C 
ENDBRANCH  10  11
ENDBRANCH   9  10
ENDBRANCH   8   9
ENDBRANCH   7   8
ENDBRANCH   6   7
ENDBRANCH   5   6
ENDBRANCH   4   5
ENDBRANCH   3   4
ENDBRANCH   2   3
ENDBRANCH   1   2
BRANCH   1  13
ATOM     13  C   UNL     1      18.246   6.660 -11.575  1.00  0.00     0.000 C 
BRANCH  13  14
ATOM     14  C   UNL     1      17.765   6.049 -10.247  1.00  0.00     0.000 C 
BRANCH  14  15
ATOM     15  C   UNL     1      18.044   4.541 -10.157  1.00  0.00     0.000 C 
BRANCH  15  16
ATOM     16  C   UNL     1      16.944   3.697 -10.826  1.00  0.00     0.000 C 
BRANCH  16  17
ATOM     17  C   UNL     1      17.505   2.707 -11.860  1.00  0.00     0.000 C 
BRANCH  17  18
ATOM     18  C   UNL     1      18.840   3.179 -12.462  1.00  0.00     0.000 C 
BRANCH  18  19
ATOM     19  C   UNL     1      19.086   2.626 -13.878  1.00  0.00     0.000 C 
BRANCH  19  20
ATOM     20  C   UNL     1      18.400   1.279 -14.186  1.00  0.00     0.006 C 
BRANCH  20  21
ATOM     21  C   UNL     1      18.493   0.836 -15.654  1.00  0.00     0.053 C 
BRANCH  21  22
ATOM     22  C   UNL     1      17.436  -0.165 -16.006  1.00  0.00     0.041 C 
ATOM     23  O   UNL     1      16.894  -0.856 -15.105  1.00  0.00    -0.550 OA
ATOM     24  O   UNL     1      17.032  -0.314 -17.327  1.00  0.00    -0.550 OA
ENDBRANCH  21  22
ENDBRANCH  20  21
ENDBRANCH  19  20
ENDBRANCH  18  19
ENDBRANCH  17  18
ENDBRANCH  16  17
ENDBRANCH  15  16
ENDBRANCH  14  15
ENDBRANCH  13  14
ENDBRANCH   1  13
TORSDOF 20
ENDMDL
MODEL 4
REMARK VINA RESULT:     0.195      1.088      2.666
REMARK INTER + INTRA:          -0.738
REMARK INTER:                  -0.114
REMARK INTRA:                  -0.624
REMARK UNBOUND:                -1.161
REMARK SMILES CCCCCCCCCCCCCCCCCCCCCC(=O)[O-]
REMARK SMILES IDX 12 1 11 2 10 3 9 4 8 5 7 6 6 7 5 8 4 9 3 10 2 11 1 12 13 13
REMARK SMILES IDX 14 14 15 15 16 16 17 17 18 18 19 19 20 20 21 21 22 22 23 23
REMARK SMILES IDX 24 24
REMARK H PARENT
REMARK Flexibility Score: inf
ROOT
ATOM      1  C   UNL     1      21.073   5.161 -12.950  1.00  0.00     0.000 C 
ENDROOT
BRANCH   1   2
ATOM      2  C   UNL     1      19.931   6.005 -13.550  1.00  0.00     0.000 C 
BRANCH   2   3
ATOM      3  C   UNL     1      19.354   7.082 -12.609  1.00  0.00     0.000 C 
BRANCH   3   4
ATOM      4  C   UNL     1      18.180   6.617 -11.723  1.00  0.00    -0.000 C 
BRANCH   4   5
ATOM      5  C   UNL     1      18.582   5.989 -10.376  1.00  0.00    -0.000 C 
BRANCH   5   6
ATOM      6  C   UNL     1      18.579   4.452 -10.407  1.00  0.00    -0.000 C 
BRANCH   6   7
ATOM      7  C   UNL     1      17.466   3.872 -11.300  1.00  0.00    -0.000 C 
BRANCH   7   8
ATOM      8  C   UNL     1      17.854   2.620 -12.110  1.00  0.00    -0.000 C 
BRANCH   8   9
ATOM      9  C   UNL     1      19.004   2.880 -13.097  1.00  0.00    -0.000 C 
BRANCH   9  10
ATOM     10  C   UNL     1      18.922   1.985 -14.345  1.00  0.00    -0.000 C 
BRANCH  10  11
ATOM     11  C   UNL     1      17.884   0.862 -14.199  1.00  0.00    -0.003 C 
ATOM     12  C   UNL     1      17.687   0.124 -15.520  1.00  0.00     0.004 C 
ENDBRANCH  10  11
ENDBRANCH   9  10
ENDBRANCH   8   9
ENDBRANCH   7   8
ENDBRANCH   6   7
ENDBRANCH   5   6
ENDBRANCH   4   5
ENDBRANCH   3   4
ENDBRANCH   2   3
ENDBRANCH   1   2
BRANCH   1  13
ATOM     13  C   UNL     1      21.854   5.844 -11.814  1.00  0.00     0.000 C 
BRANCH  13  14
ATOM     14  C   UNL     1      22.573   7.125 -12.273  1.00  0.00     0.000 C 
BRANCH  14  15
ATOM     15  C   UNL     1      23.876   6.829 -13.032  1.00  0.00     0.000 C 
BRANCH  15  16
ATOM     16  C   UNL     1      23.863   5.446 -13.706  1.00  0.00     0.000 C 
BRANCH  16  17
ATOM     17  C   UNL     1      25.277   4.901 -13.965  1.00  0.00     0.000 C 
BRANCH  17  18
ATOM     18  C   UNL     1      25.979   5.617 -15.132  1.00  0.00     0.000 C 
BRANCH  18  19
ATOM     19  C   UNL     1      27.485   5.304 -15.208  1.00  0.00     0.000 C 
BRANCH  19  20
ATOM     20  C   UNL     1      27.871   3.850 -14.870  1.00  0.00     0.006 C 
BRANCH  20  21
ATOM     21  C   UNL     1      29.238   3.410 -15.416  1.00  0.00     0.053 C 
BRANCH  21  22
ATOM     22  C   UNL     1      29.952   2.495 -14.469  1.00  0.00     0.041 C 
ATOM     23  O   UNL     1      29.407   2.153 -13.387  1.00  0.00    -0.550 OA
ATOM     24  O   UNL     1      31.207   1.997 -14.795  1.00  0.00    -0.550 OA
ENDBRANCH  21  22
ENDBRANCH  20  21
ENDBRANCH  19  20
ENDBRANCH  18  19
ENDBRANCH  17  18
ENDBRANCH  16  17
ENDBRANCH  15  16
ENDBRANCH  14  15
ENDBRANCH  13  14
ENDBRANCH   1  13
TORSDOF 20
ENDMDL
