MODEL 1
REMARK VINA RESULT:    -3.142      0.000      0.000
REMARK INTER + INTRA:          -3.519
REMARK INTER:                  -3.509
REMARK INTRA:                  -0.011
REMARK UNBOUND:                -0.011
REMARK SMILES CCCC(=O)[O-]
REMARK SMILES IDX 3 1 4 2 5 3 6 4 2 5 1 6
REMARK H PARENT
REMARK Flexibility Score: inf
ROOT
ATOM      1  C   UNL     1      40.232  50.446  12.995  1.00  0.00     0.052 C 
ENDROOT
BRANCH   1   2
ATOM      2  C   UNL     1      41.547  50.036  13.582  1.00  0.00     0.041 C 
ATOM      3  O   UNL     1      42.228  49.127  13.038  1.00  0.00    -0.550 OA
ATOM      4  O   UNL     1      42.006  50.634  14.749  1.00  0.00    -0.550 OA
ENDBRANCH   1   2
BRANCH   1   5
ATOM      5  C   UNL     1      39.445  51.359  13.945  1.00  0.00     0.003 C 
ATOM      6  C   UNL     1      38.334  52.125  13.230  1.00  0.00     0.004 C 
ENDBRANCH   1   5
TORSDOF 2
ENDMDL
MODEL 2
REMARK VINA RESULT:    -3.136      2.003      3.417
REMARK INTER + INTRA:          -3.513
REMARK INTER:                  -3.497
REMARK INTRA:                  -0.016
REMARK UNBOUND:                -0.011
REMARK SMILES CCCC(=O)[O-]
REMARK SMILES IDX 3 1 4 2 5 3 6 4 2 5 1 6
REMARK H PARENT
REMARK Flexibility Score: inf
ROOT
ATOM      1  C   UNL     1      40.650  50.394  13.373  1.00  0.00     0.052 C 
ENDROOT
BRANCH   1   2
ATOM      2  C   UNL     1      39.956  51.235  14.400  1.00  0.00     0.041 C 
ATOM      3  O   UNL     1      40.424  51.326  15.566  1.00  0.00    -0.550 OA
ATOM      4  O   UNL     1      38.776  51.893  14.080  1.00  0.00    -0.550 OA
ENDBRANCH   1   2
BRANCH   1   5
ATOM      5  C   UNL     1      42.097  50.080  13.778  1.00  0.00     0.003 C 
ATOM      6  C   UNL     1      42.591  48.759  13.194  1.00  0.00     0.004 C 
ENDBRANCH   1   5
TORSDOF 2
ENDMDL
MODEL 3
REMARK VINA RESULT:    -3.086     11.497     11.764
REMARK INTER + INTRA:          -3.457
REMARK INTER:                  -3.418
REMARK INTRA:                  -0.039
REMARK UNBOUND:                -0.011
REMARK SMILES CCCC(=O)[O-]
REMARK SMILES IDX 3 1 4 2 5 3 6 4 2 5 1 6
REMARK H PARENT
REMARK Flexibility Score: inf
ROOT
ATOM      1  C   UNL     1      37.310  41.562  19.310  1.00  0.00     0.052 C 
ENDROOT
BRANCH   1   2
ATOM      2  C   UNL     1      36.373  41.420  18.150  1.00  0.00     0.041 C 
ATOM      3  O   UNL     1      35.563  40.457  18.103  1.00  0.00    -0.550 OA
ATOM      4  O   UNL     1      36.416  42.333  17.104  1.00  0.00    -0.550 OA
ENDBRANCH   1   2
BRANCH   1   5
ATOM      5  C   UNL     1      36.679  41.057  20.615  1.00  0.00     0.003 C 
ATOM      6  C   UNL     1      35.712  42.071  21.224  1.00  0.00     0.004 C 
ENDBRANCH   1   5
TORSDOF 2
ENDMDL
MODEL 4
REMARK VINA RESULT:    -3.058     13.211     13.855
REMARK INTER + INTRA:          -3.426
REMARK INTER:                  -3.380
REMARK INTRA:                  -0.046
REMARK UNBOUND:                -0.011
REMARK SMILES CCCC(=O)[O-]
REMARK SMILES IDX 3 1 4 2 5 3 6 4 2 5 1 6
REMARK H PARENT
REMARK Flexibility Score: inf
ROOT
ATOM      1  C   UNL     1      46.339  40.099  18.232  1.00  0.00     0.052 C 
ENDROOT
BRANCH   1   2
ATOM      2  C   UNL     1      47.837  40.125  18.208  1.00  0.00     0.041 C 
ATOM      3  O   UNL     1      48.467  39.501  17.315  1.00  0.00    -0.550 OA
ATOM      4  O   UNL     1      48.536  40.811  19.193  1.00  0.00    -0.550 OA
ENDBRANCH   1   2
BRANCH   1   5
ATOM      5  C   UNL     1      45.804  39.177  19.336  1.00  0.00     0.003 C 
ATOM      6  C   UNL     1      45.725  37.719  18.889  1.00  0.00     0.004 C 
ENDBRANCH   1   5
TORSDOF 2
ENDMDL
MODEL 5
REMARK VINA RESULT:    -3.022     12.749     13.017
REMARK INTER + INTRA:          -3.386
REMARK INTER:                  -3.384
REMARK INTRA:                  -0.002
REMARK UNBOUND:                -0.011
REMARK SMILES CCCC(=O)[O-]
REMARK SMILES IDX 3 1 4 2 5 3 6 4 2 5 1 6
REMARK H PARENT
REMARK Flexibility Score: inf
ROOT
ATOM      1  C   UNL     1      35.448  41.583  20.110  1.00  0.00     0.052 C 
ENDROOT
BRANCH   1   2
ATOM      2  C   UNL     1      34.454  40.466  20.013  1.00  0.00     0.041 C 
ATOM      3  O   UNL     1      33.323  40.576  20.555  1.00  0.00    -0.550 OA
ATOM      4  O   UNL     1      34.790  39.291  19.354  1.00  0.00    -0.550 OA
ENDBRANCH   1   2
BRANCH   1   5
ATOM      5  C   UNL     1      36.729  41.274  19.323  1.00  0.00     0.003 C 
ATOM      6  C   UNL     1      36.643  41.728  17.867  1.00  0.00     0.004 C 
ENDBRANCH   1   5
TORSDOF 2
ENDMDL
MODEL 6
REMARK VINA RESULT:    -2.984     13.267     13.999
REMARK INTER + INTRA:          -3.344
REMARK INTER:                  -3.323
REMARK INTRA:                  -0.021
REMARK UNBOUND:                -0.011
REMARK SMILES CCCC(=O)[O-]
REMARK SMILES IDX 3 1 4 2 5 3 6 4 2 5 1 6
REMARK H PARENT
REMARK Flexibility Score: inf
ROOT
ATOM      1  C   UNL     1      47.543  40.802  19.792  1.00  0.00     0.052 C 
ENDROOT
BRANCH   1   2
ATOM      2  C   UNL     1      47.411  40.205  18.424  1.00  0.00     0.041 C 
ATOM      3  O   UNL     1      46.294  40.195  17.843  1.00  0.00    -0.550 OA
ATOM      4  O   UNL     1      48.513  39.630  17.807  1.00  0.00    -0.550 OA
ENDBRANCH   1   2
BRANCH   1   5
ATOM      5  C   UNL     1      48.926  41.432  20.005  1.00  0.00     0.003 C 
ATOM      6  C   UNL     1      49.481  41.158  21.401  1.00  0.00     0.004 C 
ENDBRANCH   1   5
TORSDOF 2
ENDMDL
MODEL 7
REMARK VINA RESULT:    -2.982     13.697     14.614
REMARK INTER + INTRA:          -3.341
REMARK INTER:                  -3.313
REMARK INTRA:                  -0.028
REMARK UNBOUND:                -0.011
REMARK SMILES CCCC(=O)[O-]
REMARK SMILES IDX 3 1 4 2 5 3 6 4 2 5 1 6
REMARK H PARENT
REMARK Flexibility Score: inf
ROOT
ATOM      1  C   UNL     1      49.509  41.255  21.308  1.00  0.00     0.052 C 
ENDROOT
BRANCH   1   2
ATOM      2  C   UNL     1      50.302  42.515  21.468  1.00  0.00     0.041 C 
ATOM      3  O   UNL     1      49.833  43.613  21.068  1.00  0.00    -0.550 OA
ATOM      4  O   UNL     1      51.573  42.472  22.027  1.00  0.00    -0.550 OA
ENDBRANCH   1   2
BRANCH   1   5
ATOM      5  C   UNL     1      48.777  41.211  19.960  1.00  0.00     0.003 C 
ATOM      6  C   UNL     1      47.313  40.799  20.105  1.00  0.00     0.004 C 
ENDBRANCH   1   5
TORSDOF 2
ENDMDL
MODEL 8
REMARK VINA RESULT:    -2.951     12.568     13.388
REMARK INTER + INTRA:          -3.306
REMARK INTER:                  -3.271
REMARK INTRA:                  -0.035
REMARK UNBOUND:                -0.011
REMARK SMILES CCCC(=O)[O-]
REMARK SMILES IDX 3 1 4 2 5 3 6 4 2 5 1 6
REMARK H PARENT
REMARK Flexibility Score: inf
ROOT
ATOM      1  C   UNL     1      46.817  39.910  18.275  1.00  0.00     0.052 C 
ENDROOT
BRANCH   1   2
ATOM      2  C   UNL     1      48.282  40.215  18.330  1.00  0.00     0.041 C 
ATOM      3  O   UNL     1      48.738  40.976  19.223  1.00  0.00    -0.550 OA
ATOM      4  O   UNL     1      49.139  39.685  17.374  1.00  0.00    -0.550 OA
ENDBRANCH   1   2
BRANCH   1   5
ATOM      5  C   UNL     1      46.126  40.196  19.615  1.00  0.00     0.003 C 
ATOM      6  C   UNL     1      44.981  41.198  19.479  1.00  0.00     0.004 C 
ENDBRANCH   1   5
TORSDOF 2
ENDMDL
MODEL 9
REMARK VINA RESULT:    -2.938     13.578     14.133
REMARK INTER + INTRA:          -3.292
REMARK INTER:                  -3.258
REMARK INTRA:                  -0.034
REMARK UNBOUND:                -0.011
REMARK SMILES CCCC(=O)[O-]
REMARK SMILES IDX 3 1 4 2 5 3 6 4 2 5 1 6
REMARK H PARENT
REMARK Flexibility Score: inf
ROOT
ATOM      1  C   UNL     1      46.595  40.126  19.320  1.00  0.00     0.052 C 
ENDROOT
BRANCH   1   2
ATOM      2  C   UNL     1      45.692  38.950  19.532  1.00  0.00     0.041 C 
ATOM      3  O   UNL     1      44.875  38.944  20.490  1.00  0.00    -0.550 OA
ATOM      4  O   UNL     1      45.778  37.847  18.693  1.00  0.00    -0.550 OA
ENDBRANCH   1   2
BRANCH   1   5
ATOM      5  C   UNL     1      47.109  40.195  17.876  1.00  0.00     0.003 C 
ATOM      6  C   UNL     1      48.577  39.790  17.760  1.00  0.00     0.004 C 
ENDBRANCH   1   5
TORSDOF 2
ENDMDL
