MODEL 1
REMARK VINA RESULT:    -1.440      0.000      0.000
REMARK INTER + INTRA:          -1.900
REMARK INTER:                  -1.608
REMARK INTRA:                  -0.291
REMARK UNBOUND:                -0.291
REMARK SMILES CC(=O)c1ccc(O)cc1O
REMARK SMILES IDX 4 1 10 2 9 3 7 4 6 5 5 6 2 7 1 8 3 9 11 10 8 12
REMARK H PARENT 11 11 8 13
REMARK Flexibility Score: inf
ROOT
ATOM      1  C   UNL     1      93.784  16.332 119.931  1.00  0.00     0.059 A 
ATOM      2  C   UNL     1      93.099  16.561 118.713  1.00  0.00     0.130 A 
ATOM      3  C   UNL     1      91.887  17.269 118.710  1.00  0.00     0.093 A 
ATOM      4  C   UNL     1      91.343  17.750 119.904  1.00  0.00     0.119 A 
ATOM      5  C   UNL     1      92.011  17.526 121.108  1.00  0.00     0.047 A 
ATOM      6  C   UNL     1      93.218  16.825 121.125  1.00  0.00     0.019 A 
ENDROOT
BRANCH   1   7
ATOM      7  C   UNL     1      95.078  15.591 119.963  1.00  0.00     0.163 C 
ATOM      8  C   UNL     1      96.356  16.256 120.377  1.00  0.00     0.093 C 
ATOM      9  O   UNL     1      95.125  14.382 119.610  1.00  0.00    -0.294 OA
ENDBRANCH   1   7
BRANCH   2  10
ATOM     10  O   UNL     1      93.610  16.078 117.507  1.00  0.00    -0.507 OA
ATOM     11  H   UNL     1      93.991  15.143 117.426  1.00  0.00     0.293 HD
ENDBRANCH   2  10
BRANCH   4  12
ATOM     12  O   UNL     1      90.140  18.453 119.905  1.00  0.00    -0.508 OA
ATOM     13  H   UNL     1      90.119  19.466 119.870  1.00  0.00     0.293 HD
ENDBRANCH   4  12
TORSDOF 3
ENDMDL
MODEL 2
REMARK VINA RESULT:     0.985      1.286      4.009
REMARK INTER + INTRA:           0.809
REMARK INTER:                   1.097
REMARK INTRA:                  -0.288
REMARK UNBOUND:                -0.291
REMARK SMILES CC(=O)c1ccc(O)cc1O
REMARK SMILES IDX 4 1 10 2 9 3 7 4 6 5 5 6 2 7 1 8 3 9 11 10 8 12
REMARK H PARENT 11 11 8 13
REMARK Flexibility Score: inf
ROOT
ATOM      1  C   UNL     1      92.722  16.870 119.939  1.00  0.00     0.059 A 
ATOM      2  C   UNL     1      93.071  16.258 118.711  1.00  0.00     0.130 A 
ATOM      3  C   UNL     1      93.984  15.191 118.692  1.00  0.00     0.093 A 
ATOM      4  C   UNL     1      94.557  14.726 119.879  1.00  0.00     0.119 A 
ATOM      5  C   UNL     1      94.219  15.327 121.092  1.00  0.00     0.047 A 
ATOM      6  C   UNL     1      93.312  16.387 121.125  1.00  0.00     0.019 A 
ENDROOT
BRANCH   1   7
ATOM      7  C   UNL     1      91.748  17.998 119.990  1.00  0.00     0.163 C 
ATOM      8  C   UNL     1      90.737  18.118 121.092  1.00  0.00     0.093 C 
ATOM      9  O   UNL     1      91.738  18.870 119.079  1.00  0.00    -0.294 OA
ENDBRANCH   1   7
BRANCH   2  10
ATOM     10  O   UNL     1      92.526  16.711 117.509  1.00  0.00    -0.507 OA
ATOM     11  H   UNL     1      91.634  17.191 117.475  1.00  0.00     0.293 HD
ENDBRANCH   2  10
BRANCH   4  12
ATOM     12  O   UNL     1      95.464  13.668 119.864  1.00  0.00    -0.508 OA
ATOM     13  H   UNL     1      95.701  13.162 120.709  1.00  0.00     0.293 HD
ENDBRANCH   4  12
TORSDOF 3
ENDMDL
