MODEL 1
REMARK VINA RESULT:    -4.494      0.000      0.000
REMARK INTER + INTRA:         -10.071
REMARK INTER:                  -7.909
REMARK INTRA:                  -2.161
REMARK UNBOUND:                -2.161
REMARK SMILES COc1cc(-c2[o+]c3cc(O)cc(O[C@H]4O[C@H](CO)[C@H](O)[C@@H](O)[C@H]4O)c3cc2O[C@H]2O[C@@H](CO)[C@@H](O)[C@@H](O)[C@H]2O)ccc1O
REMARK SMILES IDX 6 1 28 2 27 3 26 4 13 5 12 6 10 7 9 8 8 9 7 10 5 11 3 12
REMARK SMILES IDX 43 13 4 14 42 15 41 16 2 17 1 18 44 19 29 21 30 22 39 23
REMARK SMILES IDX 31 24 37 25 32 26 35 27 40 28 38 30 33 32 34 33 36 35 14 37
REMARK SMILES IDX 15 38 24 39 16 40 22 41 17 42 20 43 25 44 23 46 18 48 19 49
REMARK SMILES IDX 21 51 11 53
REMARK H PARENT 44 20 40 29 38 31 34 34 36 36 25 45 23 47 19 50 21 52 11 54
REMARK Flexibility Score: inf
ROOT
ATOM      1  C   UNL     1      -4.387  -6.615  24.535  1.00  0.00     0.402 A 
ATOM      2  C   UNL     1      -5.790  -6.535  24.425  1.00  0.00     0.229 A 
ATOM      3  C   UNL     1      -6.326  -5.968  23.256  1.00  0.00     0.079 A 
ATOM      4  C   UNL     1      -5.475  -5.524  22.236  1.00  0.00     0.126 A 
ATOM      5  C   UNL     1      -5.978  -4.949  21.052  1.00  0.00     0.143 A 
ATOM      6  C   UNL     1      -5.072  -4.530  20.057  1.00  0.00     0.094 A 
ATOM      7  C   UNL     1      -3.693  -4.676  20.244  1.00  0.00     0.128 A 
ATOM      8  C   UNL     1      -3.201  -5.240  21.426  1.00  0.00     0.162 A 
ATOM      9  C   UNL     1      -4.085  -5.663  22.422  1.00  0.00     0.368 A 
ATOM     10  O   UNL     1      -3.608  -6.194  23.542  1.00  0.00    -0.202 OA
ENDROOT
BRANCH   1  11
ATOM     11  C   UNL     1      -3.745  -7.196  25.725  1.00  0.00     0.087 A 
ATOM     12  C   UNL     1      -2.552  -6.889  27.833  1.00  0.00     0.161 A 
ATOM     13  C   UNL     1      -2.518  -8.286  28.004  1.00  0.00     0.157 A 
ATOM     14  C   UNL     1      -3.178  -6.351  26.690  1.00  0.00     0.068 A 
ATOM     15  C   UNL     1      -3.110  -9.123  27.054  1.00  0.00     0.051 A 
ATOM     16  C   UNL     1      -3.728  -8.584  25.923  1.00  0.00     0.022 A 
BRANCH  12  17
ATOM     17  O   UNL     1      -1.958  -6.072  28.808  1.00  0.00    -0.493 OA
ATOM     18  C   UNL     1      -0.606  -5.621  28.769  1.00  0.00     0.278 C 
ENDBRANCH  12  17
BRANCH  13  19
ATOM     19  O   UNL     1      -1.904  -8.860  29.116  1.00  0.00    -0.504 OA
ATOM     20  H   UNL     1      -2.415  -9.420  29.787  1.00  0.00     0.293 HD
ENDBRANCH  13  19
ENDBRANCH   1  11
BRANCH   2  21
ATOM     21  O   UNL     1      -6.597  -7.048  25.460  1.00  0.00    -0.452 OA
BRANCH  21  22
ATOM     22  C   UNL     1      -7.827  -7.767  25.291  1.00  0.00     0.339 C 
ATOM     23  C   UNL     1      -9.066  -6.955  25.737  1.00  0.00     0.214 C 
ATOM     24  O   UNL     1      -7.753  -9.040  25.922  1.00  0.00    -0.332 OA
ATOM     25  C   UNL     1      -9.157  -6.832  27.276  1.00  0.00     0.180 C 
ATOM     26  C   UNL     1      -7.769  -8.998  27.345  1.00  0.00     0.179 C 
ATOM     27  C   UNL     1      -8.998  -8.230  27.899  1.00  0.00     0.177 C 
BRANCH  23  28
ATOM     28  O   UNL     1      -9.075  -5.687  25.136  1.00  0.00    -0.384 OA
ATOM     29  H   UNL     1     -10.018  -5.488  24.899  1.00  0.00     0.211 HD
ENDBRANCH  23  28
BRANCH  25  30
ATOM     30  O   UNL     1      -8.246  -5.913  27.842  1.00  0.00    -0.387 OA
ATOM     31  H   UNL     1      -8.214  -6.018  28.826  1.00  0.00     0.211 HD
ENDBRANCH  25  30
BRANCH  26  32
ATOM     32  C   UNL     1      -6.410  -8.579  27.944  1.00  0.00     0.191 C 
BRANCH  32  33
ATOM     33  O   UNL     1      -6.319  -8.964  29.290  1.00  0.00    -0.394 OA
ATOM     34  H   UNL     1      -5.353  -9.044  29.498  1.00  0.00     0.210 HD
ENDBRANCH  32  33
ENDBRANCH  26  32
BRANCH  27  35
ATOM     35  O   UNL     1      -9.012  -8.194  29.307  1.00  0.00    -0.387 OA
ATOM     36  H   UNL     1      -9.953  -8.236  29.613  1.00  0.00     0.211 HD
ENDBRANCH  27  35
ENDBRANCH  21  22
ENDBRANCH   2  21
BRANCH   5  37
ATOM     37  O   UNL     1      -7.370  -4.831  20.903  1.00  0.00    -0.461 OA
BRANCH  37  38
ATOM     38  C   UNL     1      -8.212  -3.788  21.409  1.00  0.00     0.339 C 
ATOM     39  C   UNL     1      -9.705  -4.038  21.090  1.00  0.00     0.214 C 
ATOM     40  O   UNL     1      -7.794  -2.536  20.884  1.00  0.00    -0.332 OA
ATOM     41  C   UNL     1      -9.973  -3.932  19.576  1.00  0.00     0.180 C 
ATOM     42  C   UNL     1      -7.896  -2.505  19.468  1.00  0.00     0.179 C 
ATOM     43  C   UNL     1      -9.376  -2.624  19.025  1.00  0.00     0.177 C 
BRANCH  39  44
ATOM     44  O   UNL     1     -10.107  -5.295  21.570  1.00  0.00    -0.384 OA
ATOM     45  H   UNL     1      -9.880  -5.317  22.536  1.00  0.00     0.211 HD
ENDBRANCH  39  44
BRANCH  41  46
ATOM     46  O   UNL     1      -9.417  -5.041  18.914  1.00  0.00    -0.387 OA
ATOM     47  H   UNL     1      -9.619  -4.930  17.948  1.00  0.00     0.211 HD
ENDBRANCH  41  46
BRANCH  42  48
ATOM     48  C   UNL     1      -7.245  -1.210  18.958  1.00  0.00     0.191 C 
BRANCH  48  49
ATOM     49  O   UNL     1      -7.529  -0.133  19.809  1.00  0.00    -0.394 OA
ATOM     50  H   UNL     1      -8.227  -0.445  20.442  1.00  0.00     0.210 HD
ENDBRANCH  48  49
ENDBRANCH  42  48
BRANCH  43  51
ATOM     51  O   UNL     1     -10.125  -1.539  19.514  1.00  0.00    -0.387 OA
ATOM     52  H   UNL     1      -9.518  -0.753  19.541  1.00  0.00     0.211 HD
ENDBRANCH  43  51
ENDBRANCH  37  38
ENDBRANCH   5  37
BRANCH   7  53
ATOM     53  O   UNL     1      -2.819  -4.259  19.242  1.00  0.00    -0.507 OA
ATOM     54  H   UNL     1      -1.814  -4.347  19.345  1.00  0.00     0.293 HD
ENDBRANCH   7  53
TORSDOF 18
ENDMDL
MODEL 2
REMARK VINA RESULT:    -3.993      1.535      2.670
REMARK INTER + INTRA:          -9.190
REMARK INTER:                  -7.376
REMARK INTRA:                  -1.813
REMARK UNBOUND:                -2.161
REMARK SMILES COc1cc(-c2[o+]c3cc(O)cc(O[C@H]4O[C@H](CO)[C@H](O)[C@@H](O)[C@H]4O)c3cc2O[C@H]2O[C@@H](CO)[C@@H](O)[C@@H](O)[C@H]2O)ccc1O
REMARK SMILES IDX 6 1 28 2 27 3 26 4 13 5 12 6 10 7 9 8 8 9 7 10 5 11 3 12
REMARK SMILES IDX 43 13 4 14 42 15 41 16 2 17 1 18 44 19 29 21 30 22 39 23
REMARK SMILES IDX 31 24 37 25 32 26 35 27 40 28 38 30 33 32 34 33 36 35 14 37
REMARK SMILES IDX 15 38 24 39 16 40 22 41 17 42 20 43 25 44 23 46 18 48 19 49
REMARK SMILES IDX 21 51 11 53
REMARK H PARENT 44 20 40 29 38 31 34 34 36 36 25 45 23 47 19 50 21 52 11 54
REMARK Flexibility Score: inf
ROOT
ATOM      1  C   UNL     1      -4.588  -6.651  24.501  1.00  0.00     0.402 A 
ATOM      2  C   UNL     1      -5.971  -6.673  24.231  1.00  0.00     0.229 A 
ATOM      3  C   UNL     1      -6.414  -6.102  23.025  1.00  0.00     0.079 A 
ATOM      4  C   UNL     1      -5.490  -5.554  22.126  1.00  0.00     0.126 A 
ATOM      5  C   UNL     1      -5.898  -4.973  20.909  1.00  0.00     0.143 A 
ATOM      6  C   UNL     1      -4.920  -4.448  20.041  1.00  0.00     0.094 A 
ATOM      7  C   UNL     1      -3.565  -4.497  20.382  1.00  0.00     0.128 A 
ATOM      8  C   UNL     1      -3.168  -5.069  21.596  1.00  0.00     0.162 A 
ATOM      9  C   UNL     1      -4.123  -5.597  22.468  1.00  0.00     0.368 A 
ATOM     10  O   UNL     1      -3.737  -6.134  23.620  1.00  0.00    -0.202 OA
ENDROOT
BRANCH   1  11
ATOM     11  C   UNL     1      -4.042  -7.229  25.740  1.00  0.00     0.087 A 
ATOM     12  C   UNL     1      -2.820  -6.945  27.834  1.00  0.00     0.161 A 
ATOM     13  C   UNL     1      -2.997  -8.315  28.110  1.00  0.00     0.157 A 
ATOM     14  C   UNL     1      -3.357  -6.408  26.646  1.00  0.00     0.068 A 
ATOM     15  C   UNL     1      -3.706  -9.123  27.217  1.00  0.00     0.051 A 
ATOM     16  C   UNL     1      -4.235  -8.585  26.042  1.00  0.00     0.022 A 
BRANCH  12  17
ATOM     17  O   UNL     1      -2.112  -6.154  28.752  1.00  0.00    -0.493 OA
ATOM     18  C   UNL     1      -0.703  -5.936  28.712  1.00  0.00     0.278 C 
ENDBRANCH  12  17
BRANCH  13  19
ATOM     19  O   UNL     1      -2.477  -8.888  29.270  1.00  0.00    -0.504 OA
ATOM     20  H   UNL     1      -2.175  -8.330  30.058  1.00  0.00     0.293 HD
ENDBRANCH  13  19
ENDBRANCH   1  11
BRANCH   2  21
ATOM     21  O   UNL     1      -6.848  -7.286  25.148  1.00  0.00    -0.452 OA
BRANCH  21  22
ATOM     22  C   UNL     1      -8.209  -7.660  24.890  1.00  0.00     0.339 C 
ATOM     23  C   UNL     1      -9.231  -6.639  25.445  1.00  0.00     0.214 C 
ATOM     24  O   UNL     1      -8.458  -8.984  25.347  1.00  0.00    -0.332 OA
ATOM     25  C   UNL     1      -9.331  -6.698  26.988  1.00  0.00     0.180 C 
ATOM     26  C   UNL     1      -8.502  -9.124  26.763  1.00  0.00     0.179 C 
ATOM     27  C   UNL     1      -9.528  -8.163  27.419  1.00  0.00     0.177 C 
BRANCH  23  28
ATOM     28  O   UNL     1      -8.920  -5.339  25.018  1.00  0.00    -0.384 OA
ATOM     29  H   UNL     1      -8.213  -4.998  25.624  1.00  0.00     0.211 HD
ENDBRANCH  23  28
BRANCH  25  30
ATOM     30  O   UNL     1      -8.244  -6.106  27.667  1.00  0.00    -0.387 OA
ATOM     31  H   UNL     1      -8.133  -6.511  28.563  1.00  0.00     0.211 HD
ENDBRANCH  25  30
BRANCH  26  32
ATOM     32  C   UNL     1      -7.100  -9.125  27.407  1.00  0.00     0.191 C 
BRANCH  32  33
ATOM     33  O   UNL     1      -7.101  -8.395  28.605  1.00  0.00    -0.394 OA
ATOM     34  H   UNL     1      -6.702  -7.511  28.399  1.00  0.00     0.210 HD
ENDBRANCH  32  33
ENDBRANCH  26  32
BRANCH  27  35
ATOM     35  O   UNL     1      -9.572  -8.307  28.820  1.00  0.00    -0.387 OA
ATOM     36  H   UNL     1     -10.168  -7.608  29.189  1.00  0.00     0.211 HD
ENDBRANCH  27  35
ENDBRANCH  21  22
ENDBRANCH   2  21
BRANCH   5  37
ATOM     37  O   UNL     1      -7.269  -4.954  20.602  1.00  0.00    -0.461 OA
BRANCH  37  38
ATOM     38  C   UNL     1      -7.925  -5.624  19.519  1.00  0.00     0.339 C 
ATOM     39  C   UNL     1      -9.461  -5.444  19.568  1.00  0.00     0.214 C 
ATOM     40  O   UNL     1      -7.586  -7.004  19.531  1.00  0.00    -0.332 OA
ATOM     41  C   UNL     1     -10.066  -6.174  20.783  1.00  0.00     0.180 C 
ATOM     42  C   UNL     1      -8.011  -7.633  20.732  1.00  0.00     0.179 C 
ATOM     43  C   UNL     1      -9.557  -7.625  20.834  1.00  0.00     0.177 C 
BRANCH  39  44
ATOM     44  O   UNL     1      -9.795  -4.080  19.601  1.00  0.00    -0.384 OA
ATOM     45  H   UNL     1     -10.777  -4.024  19.462  1.00  0.00     0.211 HD
ENDBRANCH  39  44
BRANCH  41  46
ATOM     46  O   UNL     1      -9.727  -5.493  21.966  1.00  0.00    -0.387 OA
ATOM     47  H   UNL     1      -8.822  -5.808  22.229  1.00  0.00     0.211 HD
ENDBRANCH  41  46
BRANCH  42  48
ATOM     48  C   UNL     1      -7.439  -9.059  20.765  1.00  0.00     0.191 C 
BRANCH  48  49
ATOM     49  O   UNL     1      -6.038  -9.041  20.824  1.00  0.00    -0.394 OA
ATOM     50  H   UNL     1      -5.711  -9.216  19.903  1.00  0.00     0.210 HD
ENDBRANCH  48  49
ENDBRANCH  42  48
BRANCH  43  51
ATOM     51  O   UNL     1     -10.125  -8.347  19.769  1.00  0.00    -0.387 OA
ATOM     52  H   UNL     1     -11.071  -8.056  19.690  1.00  0.00     0.211 HD
ENDBRANCH  43  51
ENDBRANCH  37  38
ENDBRANCH   5  37
BRANCH   7  53
ATOM     53  O   UNL     1      -2.617  -3.976  19.503  1.00  0.00    -0.507 OA
ATOM     54  H   UNL     1      -1.824  -4.526  19.192  1.00  0.00     0.293 HD
ENDBRANCH   7  53
TORSDOF 18
ENDMDL
MODEL 3
REMARK VINA RESULT:    -3.895     12.883     18.287
REMARK INTER + INTRA:          -9.016
REMARK INTER:                  -6.386
REMARK INTRA:                  -2.631
REMARK UNBOUND:                -2.161
REMARK SMILES COc1cc(-c2[o+]c3cc(O)cc(O[C@H]4O[C@H](CO)[C@H](O)[C@@H](O)[C@H]4O)c3cc2O[C@H]2O[C@@H](CO)[C@@H](O)[C@@H](O)[C@H]2O)ccc1O
REMARK SMILES IDX 6 1 28 2 27 3 26 4 13 5 12 6 10 7 9 8 8 9 7 10 5 11 3 12
REMARK SMILES IDX 43 13 4 14 42 15 41 16 2 17 1 18 44 19 29 21 30 22 39 23
REMARK SMILES IDX 31 24 37 25 32 26 35 27 40 28 38 30 33 32 34 33 36 35 14 37
REMARK SMILES IDX 15 38 24 39 16 40 22 41 17 42 20 43 25 44 23 46 18 48 19 49
REMARK SMILES IDX 21 51 11 53
REMARK H PARENT 44 20 40 29 38 31 34 34 36 36 25 45 23 47 19 50 21 52 11 54
REMARK Flexibility Score: inf
ROOT
ATOM      1  C   UNL     1      -4.533   5.658  14.346  1.00  0.00     0.402 A 
ATOM      2  C   UNL     1      -3.848   6.822  14.751  1.00  0.00     0.229 A 
ATOM      3  C   UNL     1      -2.726   6.668  15.582  1.00  0.00     0.079 A 
ATOM      4  C   UNL     1      -2.306   5.387  15.966  1.00  0.00     0.126 A 
ATOM      5  C   UNL     1      -1.186   5.196  16.799  1.00  0.00     0.143 A 
ATOM      6  C   UNL     1      -0.806   3.883  17.143  1.00  0.00     0.094 A 
ATOM      7  C   UNL     1      -1.532   2.785  16.668  1.00  0.00     0.128 A 
ATOM      8  C   UNL     1      -2.648   2.984  15.848  1.00  0.00     0.162 A 
ATOM      9  C   UNL     1      -3.038   4.279  15.496  1.00  0.00     0.368 A 
ATOM     10  O   UNL     1      -4.100   4.457  14.719  1.00  0.00    -0.202 OA
ENDROOT
BRANCH   1  11
ATOM     11  C   UNL     1      -5.717   5.732  13.474  1.00  0.00     0.087 A 
ATOM     12  C   UNL     1      -8.129   6.009  13.221  1.00  0.00     0.161 A 
ATOM     13  C   UNL     1      -7.986   5.878  11.826  1.00  0.00     0.157 A 
ATOM     14  C   UNL     1      -6.983   5.942  14.039  1.00  0.00     0.068 A 
ATOM     15  C   UNL     1      -6.719   5.697  11.266  1.00  0.00     0.051 A 
ATOM     16  C   UNL     1      -5.587   5.632  12.081  1.00  0.00     0.022 A 
BRANCH  12  17
ATOM     17  O   UNL     1      -9.413   6.199  13.757  1.00  0.00    -0.493 OA
ATOM     18  C   UNL     1      -9.691   6.369  15.145  1.00  0.00     0.278 C 
ENDBRANCH  12  17
BRANCH  13  19
ATOM     19  O   UNL     1      -9.094   5.931  10.982  1.00  0.00    -0.504 OA
ATOM     20  H   UNL     1      -9.746   6.705  10.993  1.00  0.00     0.293 HD
ENDBRANCH  13  19
ENDBRANCH   1  11
BRANCH   2  21
ATOM     21  O   UNL     1      -4.284   8.079  14.288  1.00  0.00    -0.452 OA
BRANCH  21  22
ATOM     22  C   UNL     1      -3.601   9.328  14.472  1.00  0.00     0.339 C 
ATOM     23  C   UNL     1      -4.555  10.546  14.454  1.00  0.00     0.214 C 
ATOM     24  O   UNL     1      -2.535   9.456  13.540  1.00  0.00    -0.332 OA
ATOM     25  C   UNL     1      -5.079  10.852  13.030  1.00  0.00     0.180 C 
ATOM     26  C   UNL     1      -2.947   9.678  12.195  1.00  0.00     0.179 C 
ATOM     27  C   UNL     1      -3.885  10.906  12.060  1.00  0.00     0.177 C 
BRANCH  23  28
ATOM     28  O   UNL     1      -5.622  10.358  15.346  1.00  0.00    -0.384 OA
ATOM     29  H   UNL     1      -5.758  11.221  15.817  1.00  0.00     0.211 HD
ENDBRANCH  23  28
BRANCH  25  30
ATOM     30  O   UNL     1      -6.073   9.960  12.570  1.00  0.00    -0.387 OA
ATOM     31  H   UNL     1      -6.845   9.953  13.190  1.00  0.00     0.211 HD
ENDBRANCH  25  30
BRANCH  26  32
ATOM     32  C   UNL     1      -3.447   8.392  11.504  1.00  0.00     0.191 C 
BRANCH  32  33
ATOM     33  O   UNL     1      -3.341   8.502  10.110  1.00  0.00    -0.394 OA
ATOM     34  H   UNL     1      -2.683   9.221   9.931  1.00  0.00     0.210 HD
ENDBRANCH  32  33
ENDBRANCH  26  32
BRANCH  27  35
ATOM     35  O   UNL     1      -4.287  11.125  10.729  1.00  0.00    -0.387 OA
ATOM     36  H   UNL     1      -4.350  10.249  10.271  1.00  0.00     0.211 HD
ENDBRANCH  27  35
ENDBRANCH  21  22
ENDBRANCH   2  21
BRANCH   5  37
ATOM     37  O   UNL     1      -0.480   6.327  17.244  1.00  0.00    -0.461 OA
BRANCH  37  38
ATOM     38  C   UNL     1       0.913   6.409  17.566  1.00  0.00     0.339 C 
ATOM     39  C   UNL     1       1.148   6.659  19.075  1.00  0.00     0.214 C 
ATOM     40  O   UNL     1       1.527   7.429  16.792  1.00  0.00    -0.332 OA
ATOM     41  C   UNL     1       0.662   8.062  19.486  1.00  0.00     0.180 C 
ATOM     42  C   UNL     1       0.959   8.702  17.065  1.00  0.00     0.179 C 
ATOM     43  C   UNL     1       1.240   9.121  18.530  1.00  0.00     0.177 C 
BRANCH  39  44
ATOM     44  O   UNL     1       0.505   5.674  19.842  1.00  0.00    -0.384 OA
ATOM     45  H   UNL     1       1.139   5.411  20.559  1.00  0.00     0.211 HD
ENDBRANCH  39  44
BRANCH  41  46
ATOM     46  O   UNL     1      -0.743   8.104  19.471  1.00  0.00    -0.387 OA
ATOM     47  H   UNL     1      -1.007   9.008  19.786  1.00  0.00     0.211 HD
ENDBRANCH  41  46
BRANCH  42  48
ATOM     48  C   UNL     1       1.524   9.716  16.058  1.00  0.00     0.191 C 
BRANCH  48  49
ATOM     49  O   UNL     1       1.963  10.880  16.705  1.00  0.00    -0.394 OA
ATOM     50  H   UNL     1       1.835  10.731  17.678  1.00  0.00     0.210 HD
ENDBRANCH  48  49
ENDBRANCH  42  48
BRANCH  43  51
ATOM     51  O   UNL     1       2.624   9.232  18.754  1.00  0.00    -0.387 OA
ATOM     52  H   UNL     1       2.972   9.901  18.107  1.00  0.00     0.211 HD
ENDBRANCH  43  51
ENDBRANCH  37  38
ENDBRANCH   5  37
BRANCH   7  53
ATOM     53  O   UNL     1      -1.132   1.497  17.018  1.00  0.00    -0.507 OA
ATOM     54  H   UNL     1      -1.253   0.714  16.385  1.00  0.00     0.293 HD
ENDBRANCH   7  53
TORSDOF 18
ENDMDL
MODEL 4
REMARK VINA RESULT:    -3.271      1.962      9.101
REMARK INTER + INTRA:          -7.919
REMARK INTER:                  -7.376
REMARK INTRA:                  -0.543
REMARK UNBOUND:                -2.161
REMARK SMILES COc1cc(-c2[o+]c3cc(O)cc(O[C@H]4O[C@H](CO)[C@H](O)[C@@H](O)[C@H]4O)c3cc2O[C@H]2O[C@@H](CO)[C@@H](O)[C@@H](O)[C@H]2O)ccc1O
REMARK SMILES IDX 6 1 28 2 27 3 26 4 13 5 12 6 10 7 9 8 8 9 7 10 5 11 3 12
REMARK SMILES IDX 43 13 4 14 42 15 41 16 2 17 1 18 44 19 29 21 30 22 39 23
REMARK SMILES IDX 31 24 37 25 32 26 35 27 40 28 38 30 33 32 34 33 36 35 14 37
REMARK SMILES IDX 15 38 24 39 16 40 22 41 17 42 20 43 25 44 23 46 18 48 19 49
REMARK SMILES IDX 21 51 11 53
REMARK H PARENT 44 20 40 29 38 31 34 34 36 36 25 45 23 47 19 50 21 52 11 54
REMARK Flexibility Score: inf
ROOT
ATOM      1  C   UNL     1      -7.838  -5.763  23.448  1.00  0.00     0.402 A 
ATOM      2  C   UNL     1      -6.441  -5.839  23.620  1.00  0.00     0.229 A 
ATOM      3  C   UNL     1      -5.955  -6.444  24.791  1.00  0.00     0.079 A 
ATOM      4  C   UNL     1      -6.849  -6.969  25.735  1.00  0.00     0.126 A 
ATOM      5  C   UNL     1      -6.397  -7.581  26.921  1.00  0.00     0.143 A 
ATOM      6  C   UNL     1      -7.344  -8.098  27.826  1.00  0.00     0.094 A 
ATOM      7  C   UNL     1      -8.713  -8.002  27.556  1.00  0.00     0.128 A 
ATOM      8  C   UNL     1      -9.154  -7.385  26.380  1.00  0.00     0.162 A 
ATOM      9  C   UNL     1      -8.229  -6.868  25.470  1.00  0.00     0.368 A 
ATOM     10  O   UNL     1      -8.658  -6.282  24.358  1.00  0.00    -0.202 OA
ENDROOT
BRANCH   1  11
ATOM     11  C   UNL     1      -8.429  -5.146  22.249  1.00  0.00     0.087 A 
ATOM     12  C   UNL     1      -9.461  -3.217  21.168  1.00  0.00     0.161 A 
ATOM     13  C   UNL     1      -9.556  -3.953  19.971  1.00  0.00     0.157 A 
ATOM     14  C   UNL     1      -8.886  -3.822  22.304  1.00  0.00     0.068 A 
ATOM     15  C   UNL     1      -9.073  -5.263  19.914  1.00  0.00     0.051 A 
ATOM     16  C   UNL     1      -8.504  -5.857  21.043  1.00  0.00     0.022 A 
BRANCH  12  17
ATOM     17  O   UNL     1      -9.946  -1.900  21.194  1.00  0.00    -0.493 OA
ATOM     18  C   UNL     1      -9.123  -0.738  21.268  1.00  0.00     0.278 C 
ENDBRANCH  12  17
BRANCH  13  19
ATOM     19  O   UNL     1     -10.124  -3.395  18.827  1.00  0.00    -0.504 OA
ATOM     20  H   UNL     1      -9.752  -2.560  18.391  1.00  0.00     0.293 HD
ENDBRANCH  13  19
ENDBRANCH   1  11
BRANCH   2  21
ATOM     21  O   UNL     1      -5.591  -5.343  22.612  1.00  0.00    -0.452 OA
BRANCH  21  22
ATOM     22  C   UNL     1      -4.173  -5.549  22.530  1.00  0.00     0.339 C 
ATOM     23  C   UNL     1      -3.614  -5.333  21.103  1.00  0.00     0.214 C 
ATOM     24  O   UNL     1      -3.819  -6.816  23.069  1.00  0.00    -0.332 OA
ATOM     25  C   UNL     1      -4.003  -6.486  20.147  1.00  0.00     0.180 C 
ATOM     26  C   UNL     1      -4.204  -7.929  22.268  1.00  0.00     0.179 C 
ATOM     27  C   UNL     1      -3.662  -7.828  20.818  1.00  0.00     0.177 C 
BRANCH  23  28
ATOM     28  O   UNL     1      -4.028  -4.097  20.585  1.00  0.00    -0.384 OA
ATOM     29  H   UNL     1      -5.001  -4.020  20.767  1.00  0.00     0.211 HD
ENDBRANCH  23  28
BRANCH  25  30
ATOM     30  O   UNL     1      -5.348  -6.456  19.715  1.00  0.00    -0.387 OA
ATOM     31  H   UNL     1      -5.535  -5.618  19.222  1.00  0.00     0.211 HD
ENDBRANCH  25  30
BRANCH  26  32
ATOM     32  C   UNL     1      -5.707  -8.256  22.384  1.00  0.00     0.191 C 
BRANCH  32  33
ATOM     33  O   UNL     1      -6.217  -8.701  21.155  1.00  0.00    -0.394 OA
ATOM     34  H   UNL     1      -6.759  -7.957  20.786  1.00  0.00     0.210 HD
ENDBRANCH  32  33
ENDBRANCH  26  32
BRANCH  27  35
ATOM     35  O   UNL     1      -4.041  -8.932  20.030  1.00  0.00    -0.387 OA
ATOM     36  H   UNL     1      -4.372  -9.647  20.629  1.00  0.00     0.211 HD
ENDBRANCH  27  35
ENDBRANCH  21  22
ENDBRANCH   2  21
BRANCH   5  37
ATOM     37  O   UNL     1      -5.012  -7.664  27.146  1.00  0.00    -0.461 OA
BRANCH  37  38
ATOM     38  C   UNL     1      -4.257  -8.834  27.484  1.00  0.00     0.339 C 
ATOM     39  C   UNL     1      -3.545  -8.692  28.850  1.00  0.00     0.214 C 
ATOM     40  O   UNL     1      -3.315  -9.112  26.458  1.00  0.00    -0.332 OA
ATOM     41  C   UNL     1      -2.434  -7.626  28.787  1.00  0.00     0.180 C 
ATOM     42  C   UNL     1      -2.388  -8.047  26.301  1.00  0.00     0.179 C 
ATOM     43  C   UNL     1      -1.521  -7.887  27.576  1.00  0.00     0.177 C 
BRANCH  39  44
ATOM     44  O   UNL     1      -4.471  -8.375  29.857  1.00  0.00    -0.384 OA
ATOM     45  H   UNL     1      -4.140  -7.550  30.299  1.00  0.00     0.211 HD
ENDBRANCH  39  44
BRANCH  41  46
ATOM     46  O   UNL     1      -3.006  -6.345  28.703  1.00  0.00    -0.387 OA
ATOM     47  H   UNL     1      -3.580  -6.339  27.892  1.00  0.00     0.211 HD
ENDBRANCH  41  46
BRANCH  42  48
ATOM     48  C   UNL     1      -1.533  -8.322  25.054  1.00  0.00     0.191 C 
BRANCH  48  49
ATOM     49  O   UNL     1      -0.184  -8.022  25.291  1.00  0.00    -0.394 OA
ATOM     50  H   UNL     1       0.298  -8.185  24.438  1.00  0.00     0.210 HD
ENDBRANCH  48  49
ENDBRANCH  42  48
BRANCH  43  51
ATOM     51  O   UNL     1      -0.771  -9.053  27.811  1.00  0.00    -0.387 OA
ATOM     52  H   UNL     1      -0.580  -9.461  26.926  1.00  0.00     0.211 HD
ENDBRANCH  43  51
ENDBRANCH  37  38
ENDBRANCH   5  37
BRANCH   7  53
ATOM     53  O   UNL     1      -9.629  -8.528  28.466  1.00  0.00    -0.507 OA
ATOM     54  H   UNL     1      -9.703  -9.526  28.627  1.00  0.00     0.293 HD
ENDBRANCH   7  53
TORSDOF 18
ENDMDL
MODEL 5
REMARK VINA RESULT:    -3.194     12.816     18.157
REMARK INTER + INTRA:          -7.784
REMARK INTER:                  -6.142
REMARK INTRA:                  -1.641
REMARK UNBOUND:                -2.161
REMARK SMILES COc1cc(-c2[o+]c3cc(O)cc(O[C@H]4O[C@H](CO)[C@H](O)[C@@H](O)[C@H]4O)c3cc2O[C@H]2O[C@@H](CO)[C@@H](O)[C@@H](O)[C@H]2O)ccc1O
REMARK SMILES IDX 6 1 28 2 27 3 26 4 13 5 12 6 10 7 9 8 8 9 7 10 5 11 3 12
REMARK SMILES IDX 43 13 4 14 42 15 41 16 2 17 1 18 44 19 29 21 30 22 39 23
REMARK SMILES IDX 31 24 37 25 32 26 35 27 40 28 38 30 33 32 34 33 36 35 14 37
REMARK SMILES IDX 15 38 24 39 16 40 22 41 17 42 20 43 25 44 23 46 18 48 19 49
REMARK SMILES IDX 21 51 11 53
REMARK H PARENT 44 20 40 29 38 31 34 34 36 36 25 45 23 47 19 50 21 52 11 54
REMARK Flexibility Score: inf
ROOT
ATOM      1  C   UNL     1      -5.465   8.821  12.615  1.00  0.00     0.402 A 
ATOM      2  C   UNL     1      -5.416   7.536  13.193  1.00  0.00     0.229 A 
ATOM      3  C   UNL     1      -4.225   7.145  13.827  1.00  0.00     0.079 A 
ATOM      4  C   UNL     1      -3.140   8.029  13.890  1.00  0.00     0.126 A 
ATOM      5  C   UNL     1      -1.929   7.671  14.516  1.00  0.00     0.143 A 
ATOM      6  C   UNL     1      -0.877   8.608  14.557  1.00  0.00     0.094 A 
ATOM      7  C   UNL     1      -1.029   9.873  13.980  1.00  0.00     0.128 A 
ATOM      8  C   UNL     1      -2.231  10.219  13.353  1.00  0.00     0.162 A 
ATOM      9  C   UNL     1      -3.285   9.303  13.305  1.00  0.00     0.368 A 
ATOM     10  O   UNL     1      -4.421   9.640  12.704  1.00  0.00    -0.202 OA
ENDROOT
BRANCH   1  11
ATOM     11  C   UNL     1      -6.676   9.308  11.934  1.00  0.00     0.087 A 
ATOM     12  C   UNL     1      -8.658   8.850  10.585  1.00  0.00     0.161 A 
ATOM     13  C   UNL     1      -8.991  10.218  10.632  1.00  0.00     0.157 A 
ATOM     14  C   UNL     1      -7.498   8.402  11.250  1.00  0.00     0.068 A 
ATOM     15  C   UNL     1      -8.183  11.111  11.339  1.00  0.00     0.051 A 
ATOM     16  C   UNL     1      -7.036  10.662  11.996  1.00  0.00     0.022 A 
BRANCH  12  17
ATOM     17  O   UNL     1      -9.493   7.973   9.875  1.00  0.00    -0.493 OA
ATOM     18  C   UNL     1      -9.527   6.560  10.065  1.00  0.00     0.278 C 
ENDBRANCH  12  17
BRANCH  13  19
ATOM     19  O   UNL     1     -10.125  10.704   9.982  1.00  0.00    -0.504 OA
ATOM     20  H   UNL     1     -11.061  10.524  10.323  1.00  0.00     0.293 HD
ENDBRANCH  13  19
ENDBRANCH   1  11
BRANCH   2  21
ATOM     21  O   UNL     1      -6.557   6.711  13.146  1.00  0.00    -0.452 OA
BRANCH  21  22
ATOM     22  C   UNL     1      -6.773   5.526  13.927  1.00  0.00     0.339 C 
ATOM     23  C   UNL     1      -8.112   4.823  13.598  1.00  0.00     0.214 C 
ATOM     24  O   UNL     1      -6.632   5.810  15.313  1.00  0.00    -0.332 OA
ATOM     25  C   UNL     1      -9.329   5.606  14.144  1.00  0.00     0.180 C 
ATOM     26  C   UNL     1      -7.690   6.583  15.871  1.00  0.00     0.179 C 
ATOM     27  C   UNL     1      -9.082   5.943  15.626  1.00  0.00     0.177 C 
BRANCH  23  28
ATOM     28  O   UNL     1      -8.238   4.609  12.217  1.00  0.00    -0.384 OA
ATOM     29  H   UNL     1      -8.724   3.752  12.102  1.00  0.00     0.211 HD
ENDBRANCH  23  28
BRANCH  25  30
ATOM     30  O   UNL     1      -9.659   6.763  13.404  1.00  0.00    -0.387 OA
ATOM     31  H   UNL     1      -9.872   6.525  12.467  1.00  0.00     0.211 HD
ENDBRANCH  25  30
BRANCH  26  32
ATOM     32  C   UNL     1      -7.586   8.081  15.515  1.00  0.00     0.191 C 
BRANCH  32  33
ATOM     33  O   UNL     1      -8.708   8.499  14.785  1.00  0.00    -0.394 OA
ATOM     34  H   UNL     1      -9.505   8.233  15.311  1.00  0.00     0.210 HD
ENDBRANCH  32  33
ENDBRANCH  26  32
BRANCH  27  35
ATOM     35  O   UNL     1     -10.125   6.708  16.182  1.00  0.00    -0.387 OA
ATOM     36  H   UNL     1     -10.474   7.319  15.485  1.00  0.00     0.211 HD
ENDBRANCH  27  35
ENDBRANCH  21  22
ENDBRANCH   2  21
BRANCH   5  37
ATOM     37  O   UNL     1      -1.826   6.393  15.091  1.00  0.00    -0.461 OA
BRANCH  37  38
ATOM     38  C   UNL     1      -2.013   6.043  16.468  1.00  0.00     0.339 C 
ATOM     39  C   UNL     1      -0.834   5.208  17.021  1.00  0.00     0.214 C 
ATOM     40  O   UNL     1      -3.237   5.340  16.624  1.00  0.00    -0.332 OA
ATOM     41  C   UNL     1      -0.785   3.815  16.363  1.00  0.00     0.180 C 
ATOM     42  C   UNL     1      -3.240   4.130  15.880  1.00  0.00     0.179 C 
ATOM     43  C   UNL     1      -2.171   3.151  16.429  1.00  0.00     0.177 C 
BRANCH  39  44
ATOM     44  O   UNL     1       0.382   5.883  16.828  1.00  0.00    -0.384 OA
ATOM     45  H   UNL     1       0.363   6.679  17.422  1.00  0.00     0.211 HD
ENDBRANCH  39  44
BRANCH  41  46
ATOM     46  O   UNL     1      -0.362   3.934  15.027  1.00  0.00    -0.387 OA
ATOM     47  H   UNL     1       0.068   3.073  14.783  1.00  0.00     0.211 HD
ENDBRANCH  41  46
BRANCH  42  48
ATOM     48  C   UNL     1      -4.653   3.527  15.931  1.00  0.00     0.191 C 
BRANCH  48  49
ATOM     49  O   UNL     1      -5.301   3.860  17.129  1.00  0.00    -0.394 OA
ATOM     50  H   UNL     1      -5.199   3.081  17.735  1.00  0.00     0.210 HD
ENDBRANCH  48  49
ENDBRANCH  42  48
BRANCH  43  51
ATOM     51  O   UNL     1      -2.453   2.813  17.765  1.00  0.00    -0.387 OA
ATOM     52  H   UNL     1      -2.304   3.629  18.311  1.00  0.00     0.211 HD
ENDBRANCH  43  51
ENDBRANCH  37  38
ENDBRANCH   5  37
BRANCH   7  53
ATOM     53  O   UNL     1       0.025  10.783  14.040  1.00  0.00    -0.507 OA
ATOM     54  H   UNL     1      -0.138  11.776  14.164  1.00  0.00     0.293 HD
ENDBRANCH   7  53
TORSDOF 18
ENDMDL
MODEL 6
REMARK VINA RESULT:    -2.981     12.836     18.457
REMARK INTER + INTRA:          -7.409
REMARK INTER:                  -5.394
REMARK INTRA:                  -2.015
REMARK UNBOUND:                -2.161
REMARK SMILES COc1cc(-c2[o+]c3cc(O)cc(O[C@H]4O[C@H](CO)[C@H](O)[C@@H](O)[C@H]4O)c3cc2O[C@H]2O[C@@H](CO)[C@@H](O)[C@@H](O)[C@H]2O)ccc1O
REMARK SMILES IDX 6 1 28 2 27 3 26 4 13 5 12 6 10 7 9 8 8 9 7 10 5 11 3 12
REMARK SMILES IDX 43 13 4 14 42 15 41 16 2 17 1 18 44 19 29 21 30 22 39 23
REMARK SMILES IDX 31 24 37 25 32 26 35 27 40 28 38 30 33 32 34 33 36 35 14 37
REMARK SMILES IDX 15 38 24 39 16 40 22 41 17 42 20 43 25 44 23 46 18 48 19 49
REMARK SMILES IDX 21 51 11 53
REMARK H PARENT 44 20 40 29 38 31 34 34 36 36 25 45 23 47 19 50 21 52 11 54
REMARK Flexibility Score: inf
ROOT
ATOM      1  C   UNL     1      -4.198   5.722  14.333  1.00  0.00     0.402 A 
ATOM      2  C   UNL     1      -3.349   6.842  14.437  1.00  0.00     0.229 A 
ATOM      3  C   UNL     1      -2.183   6.713  15.211  1.00  0.00     0.079 A 
ATOM      4  C   UNL     1      -1.883   5.494  15.833  1.00  0.00     0.126 A 
ATOM      5  C   UNL     1      -0.724   5.329  16.617  1.00  0.00     0.143 A 
ATOM      6  C   UNL     1      -0.472   4.075  17.209  1.00  0.00     0.094 A 
ATOM      7  C   UNL     1      -1.361   3.010  17.026  1.00  0.00     0.128 A 
ATOM      8  C   UNL     1      -2.514   3.184  16.252  1.00  0.00     0.162 A 
ATOM      9  C   UNL     1      -2.779   4.420  15.657  1.00  0.00     0.368 A 
ATOM     10  O   UNL     1      -3.877   4.576  14.927  1.00  0.00    -0.202 OA
ENDROOT
BRANCH   1  11
ATOM     11  C   UNL     1      -5.438   5.773  13.541  1.00  0.00     0.087 A 
ATOM     12  C   UNL     1      -7.796   6.378  13.361  1.00  0.00     0.161 A 
ATOM     13  C   UNL     1      -7.810   5.882  12.043  1.00  0.00     0.157 A 
ATOM     14  C   UNL     1      -6.597   6.327  14.101  1.00  0.00     0.068 A 
ATOM     15  C   UNL     1      -6.645   5.357  11.480  1.00  0.00     0.051 A 
ATOM     16  C   UNL     1      -5.460   5.309  12.218  1.00  0.00     0.022 A 
BRANCH  12  17
ATOM     17  O   UNL     1      -8.978   6.908  13.899  1.00  0.00    -0.493 OA
ATOM     18  C   UNL     1      -9.567   6.486  15.128  1.00  0.00     0.278 C 
ENDBRANCH  12  17
BRANCH  13  19
ATOM     19  O   UNL     1      -8.976   5.906  11.278  1.00  0.00    -0.504 OA
ATOM     20  H   UNL     1      -9.897   5.903  11.698  1.00  0.00     0.293 HD
ENDBRANCH  13  19
ENDBRANCH   1  11
BRANCH   2  21
ATOM     21  O   UNL     1      -3.673   8.025  13.745  1.00  0.00    -0.452 OA
BRANCH  21  22
ATOM     22  C   UNL     1      -2.842   9.190  13.630  1.00  0.00     0.339 C 
ATOM     23  C   UNL     1      -3.645  10.511  13.687  1.00  0.00     0.214 C 
ATOM     24  O   UNL     1      -2.016   9.102  12.476  1.00  0.00    -0.332 OA
ATOM     25  C   UNL     1      -4.453  10.756  12.390  1.00  0.00     0.180 C 
ATOM     26  C   UNL     1      -2.706   9.257  11.240  1.00  0.00     0.179 C 
ATOM     27  C   UNL     1      -3.520  10.576  11.180  1.00  0.00     0.177 C 
BRANCH  23  28
ATOM     28  O   UNL     1      -4.488  10.537  14.809  1.00  0.00    -0.384 OA
ATOM     29  H   UNL     1      -4.607   9.596  15.101  1.00  0.00     0.211 HD
ENDBRANCH  23  28
BRANCH  25  30
ATOM     30  O   UNL     1      -5.613   9.959  12.266  1.00  0.00    -0.387 OA
ATOM     31  H   UNL     1      -6.094  10.177  11.429  1.00  0.00     0.211 HD
ENDBRANCH  25  30
BRANCH  26  32
ATOM     32  C   UNL     1      -3.482   7.989  10.827  1.00  0.00     0.191 C 
BRANCH  32  33
ATOM     33  O   UNL     1      -4.565   8.316   9.997  1.00  0.00    -0.394 OA
ATOM     34  H   UNL     1      -5.028   9.082  10.422  1.00  0.00     0.210 HD
ENDBRANCH  32  33
ENDBRANCH  26  32
BRANCH  27  35
ATOM     35  O   UNL     1      -4.197  10.728   9.954  1.00  0.00    -0.387 OA
ATOM     36  H   UNL     1      -4.296   9.836   9.537  1.00  0.00     0.211 HD
ENDBRANCH  27  35
ENDBRANCH  21  22
ENDBRANCH   2  21
BRANCH   5  37
ATOM     37  O   UNL     1       0.145   6.422  16.765  1.00  0.00    -0.461 OA
BRANCH  37  38
ATOM     38  C   UNL     1      -0.162   7.706  17.322  1.00  0.00     0.339 C 
ATOM     39  C   UNL     1       0.756   8.819  16.761  1.00  0.00     0.214 C 
ATOM     40  O   UNL     1      -0.068   7.652  18.738  1.00  0.00    -0.332 OA
ATOM     41  C   UNL     1       2.210   8.627  17.233  1.00  0.00     0.180 C 
ATOM     42  C   UNL     1       1.246   7.317  19.160  1.00  0.00     0.179 C 
ATOM     43  C   UNL     1       2.247   8.429  18.759  1.00  0.00     0.177 C 
BRANCH  39  44
ATOM     44  O   UNL     1       0.697   8.844  15.358  1.00  0.00    -0.384 OA
ATOM     45  H   UNL     1       1.570   8.505  15.030  1.00  0.00     0.211 HD
ENDBRANCH  39  44
BRANCH  41  46
ATOM     46  O   UNL     1       2.782   7.520  16.582  1.00  0.00    -0.387 OA
ATOM     47  H   UNL     1       3.690   7.399  16.965  1.00  0.00     0.211 HD
ENDBRANCH  41  46
BRANCH  42  48
ATOM     48  C   UNL     1       1.227   7.078  20.678  1.00  0.00     0.191 C 
BRANCH  48  49
ATOM     49  O   UNL     1       0.014   6.506  21.084  1.00  0.00    -0.394 OA
ATOM     50  H   UNL     1      -0.662   7.233  21.079  1.00  0.00     0.210 HD
ENDBRANCH  48  49
ENDBRANCH  42  48
BRANCH  43  51
ATOM     51  O   UNL     1       1.912   9.643  19.386  1.00  0.00    -0.387 OA
ATOM     52  H   UNL     1       0.964   9.836  19.161  1.00  0.00     0.211 HD
ENDBRANCH  43  51
ENDBRANCH  37  38
ENDBRANCH   5  37
BRANCH   7  53
ATOM     53  O   UNL     1      -1.085   1.779  17.617  1.00  0.00    -0.507 OA
ATOM     54  H   UNL     1      -1.159   0.912  17.096  1.00  0.00     0.293 HD
ENDBRANCH   7  53
TORSDOF 18
ENDMDL
MODEL 7
REMARK VINA RESULT:    -2.643     12.638     18.196
REMARK INTER + INTRA:          -6.813
REMARK INTER:                  -4.771
REMARK INTRA:                  -2.042
REMARK UNBOUND:                -2.161
REMARK SMILES COc1cc(-c2[o+]c3cc(O)cc(O[C@H]4O[C@H](CO)[C@H](O)[C@@H](O)[C@H]4O)c3cc2O[C@H]2O[C@@H](CO)[C@@H](O)[C@@H](O)[C@H]2O)ccc1O
REMARK SMILES IDX 6 1 28 2 27 3 26 4 13 5 12 6 10 7 9 8 8 9 7 10 5 11 3 12
REMARK SMILES IDX 43 13 4 14 42 15 41 16 2 17 1 18 44 19 29 21 30 22 39 23
REMARK SMILES IDX 31 24 37 25 32 26 35 27 40 28 38 30 33 32 34 33 36 35 14 37
REMARK SMILES IDX 15 38 24 39 16 40 22 41 17 42 20 43 25 44 23 46 18 48 19 49
REMARK SMILES IDX 21 51 11 53
REMARK H PARENT 44 20 40 29 38 31 34 34 36 36 25 45 23 47 19 50 21 52 11 54
REMARK Flexibility Score: inf
ROOT
ATOM      1  C   UNL     1      -4.051   7.760  12.969  1.00  0.00     0.402 A 
ATOM      2  C   UNL     1      -3.493   7.471  14.232  1.00  0.00     0.229 A 
ATOM      3  C   UNL     1      -2.214   7.977  14.516  1.00  0.00     0.079 A 
ATOM      4  C   UNL     1      -1.540   8.759  13.568  1.00  0.00     0.126 A 
ATOM      5  C   UNL     1      -0.256   9.281  13.818  1.00  0.00     0.143 A 
ATOM      6  C   UNL     1       0.366  10.069  12.829  1.00  0.00     0.094 A 
ATOM      7  C   UNL     1      -0.278  10.326  11.615  1.00  0.00     0.128 A 
ATOM      8  C   UNL     1      -1.551   9.797  11.370  1.00  0.00     0.162 A 
ATOM      9  C   UNL     1      -2.183   9.015  12.340  1.00  0.00     0.368 A 
ATOM     10  O   UNL     1      -3.389   8.515  12.098  1.00  0.00    -0.202 OA
ENDROOT
BRANCH   1  11
ATOM     11  C   UNL     1      -5.387   7.269  12.594  1.00  0.00     0.087 A 
ATOM     12  C   UNL     1      -7.785   7.663  12.366  1.00  0.00     0.161 A 
ATOM     13  C   UNL     1      -7.943   6.351  11.880  1.00  0.00     0.157 A 
ATOM     14  C   UNL     1      -6.496   8.117  12.714  1.00  0.00     0.068 A 
ATOM     15  C   UNL     1      -6.829   5.519  11.735  1.00  0.00     0.051 A 
ATOM     16  C   UNL     1      -5.555   5.975  12.081  1.00  0.00     0.022 A 
BRANCH  12  17
ATOM     17  O   UNL     1      -8.919   8.480  12.493  1.00  0.00    -0.493 OA
ATOM     18  C   UNL     1      -9.435   8.959  13.733  1.00  0.00     0.278 C 
ENDBRANCH  12  17
BRANCH  13  19
ATOM     19  O   UNL     1      -9.200   5.859  11.531  1.00  0.00    -0.504 OA
ATOM     20  H   UNL     1      -9.822   6.360  10.909  1.00  0.00     0.293 HD
ENDBRANCH  13  19
ENDBRANCH   1  11
BRANCH   2  21
ATOM     21  O   UNL     1      -4.240   6.726  15.166  1.00  0.00    -0.452 OA
BRANCH  21  22
ATOM     22  C   UNL     1      -3.755   6.214  16.416  1.00  0.00     0.339 C 
ATOM     23  C   UNL     1      -2.948   4.904  16.258  1.00  0.00     0.214 C 
ATOM     24  O   UNL     1      -4.819   6.091  17.351  1.00  0.00    -0.332 OA
ATOM     25  C   UNL     1      -3.858   3.697  15.927  1.00  0.00     0.180 C 
ATOM     26  C   UNL     1      -5.734   5.036  17.073  1.00  0.00     0.179 C 
ATOM     27  C   UNL     1      -5.026   3.663  16.930  1.00  0.00     0.177 C 
BRANCH  23  28
ATOM     28  O   UNL     1      -1.944   5.048  15.289  1.00  0.00    -0.384 OA
ATOM     29  H   UNL     1      -1.267   4.345  15.469  1.00  0.00     0.211 HD
ENDBRANCH  23  28
BRANCH  25  30
ATOM     30  O   UNL     1      -4.326   3.668  14.595  1.00  0.00    -0.387 OA
ATOM     31  H   UNL     1      -3.713   4.171  14.002  1.00  0.00     0.211 HD
ENDBRANCH  25  30
BRANCH  26  32
ATOM     32  C   UNL     1      -6.721   5.385  15.939  1.00  0.00     0.191 C 
BRANCH  32  33
ATOM     33  O   UNL     1      -7.031   6.753  15.952  1.00  0.00    -0.394 OA
ATOM     34  H   UNL     1      -6.286   7.218  15.492  1.00  0.00     0.210 HD
ENDBRANCH  32  33
ENDBRANCH  26  32
BRANCH  27  35
ATOM     35  O   UNL     1      -5.934   2.621  16.658  1.00  0.00    -0.387 OA
ATOM     36  H   UNL     1      -6.820   2.874  17.020  1.00  0.00     0.211 HD
ENDBRANCH  27  35
ENDBRANCH  21  22
ENDBRANCH   2  21
BRANCH   5  37
ATOM     37  O   UNL     1       0.350   9.006  15.056  1.00  0.00    -0.461 OA
BRANCH  37  38
ATOM     38  C   UNL     1       0.335   9.827  16.230  1.00  0.00     0.339 C 
ATOM     39  C   UNL     1       1.730  10.420  16.543  1.00  0.00     0.214 C 
ATOM     40  O   UNL     1      -0.145   9.077  17.336  1.00  0.00    -0.332 OA
ATOM     41  C   UNL     1       2.720   9.315  16.962  1.00  0.00     0.180 C 
ATOM     42  C   UNL     1       0.693   7.965  17.614  1.00  0.00     0.179 C 
ATOM     43  C   UNL     1       2.098   8.440  18.064  1.00  0.00     0.177 C 
BRANCH  39  44
ATOM     44  O   UNL     1       2.225  11.125  15.434  1.00  0.00    -0.384 OA
ATOM     45  H   UNL     1       1.454  11.603  15.032  1.00  0.00     0.211 HD
ENDBRANCH  39  44
BRANCH  41  46
ATOM     46  O   UNL     1       3.059   8.530  15.845  1.00  0.00    -0.387 OA
ATOM     47  H   UNL     1       4.051   8.472  15.825  1.00  0.00     0.211 HD
ENDBRANCH  41  46
BRANCH  42  48
ATOM     48  C   UNL     1       0.011   7.093  18.680  1.00  0.00     0.191 C 
BRANCH  48  49
ATOM     49  O   UNL     1       0.272   7.575  19.970  1.00  0.00    -0.394 OA
ATOM     50  H   UNL     1      -0.588   7.546  20.466  1.00  0.00     0.210 HD
ENDBRANCH  48  49
ENDBRANCH  42  48
BRANCH  43  51
ATOM     51  O   UNL     1       2.007   9.192  19.249  1.00  0.00    -0.387 OA
ATOM     52  H   UNL     1       2.164  10.141  19.005  1.00  0.00     0.211 HD
ENDBRANCH  43  51
ENDBRANCH  37  38
ENDBRANCH   5  37
BRANCH   7  53
ATOM     53  O   UNL     1       0.356  11.113  10.656  1.00  0.00    -0.507 OA
ATOM     54  H   UNL     1       1.364  11.102  10.543  1.00  0.00     0.293 HD
ENDBRANCH   7  53
TORSDOF 18
ENDMDL
MODEL 8
REMARK VINA RESULT:    -2.271     12.624     18.188
REMARK INTER + INTRA:          -6.158
REMARK INTER:                  -4.954
REMARK INTRA:                  -1.204
REMARK UNBOUND:                -2.161
REMARK SMILES COc1cc(-c2[o+]c3cc(O)cc(O[C@H]4O[C@H](CO)[C@H](O)[C@@H](O)[C@H]4O)c3cc2O[C@H]2O[C@@H](CO)[C@@H](O)[C@@H](O)[C@H]2O)ccc1O
REMARK SMILES IDX 6 1 28 2 27 3 26 4 13 5 12 6 10 7 9 8 8 9 7 10 5 11 3 12
REMARK SMILES IDX 43 13 4 14 42 15 41 16 2 17 1 18 44 19 29 21 30 22 39 23
REMARK SMILES IDX 31 24 37 25 32 26 35 27 40 28 38 30 33 32 34 33 36 35 14 37
REMARK SMILES IDX 15 38 24 39 16 40 22 41 17 42 20 43 25 44 23 46 18 48 19 49
REMARK SMILES IDX 21 51 11 53
REMARK H PARENT 44 20 40 29 38 31 34 34 36 36 25 45 23 47 19 50 21 52 11 54
REMARK Flexibility Score: inf
ROOT
ATOM      1  C   UNL     1      -4.195   7.756  12.790  1.00  0.00     0.402 A 
ATOM      2  C   UNL     1      -3.727   7.427  14.078  1.00  0.00     0.229 A 
ATOM      3  C   UNL     1      -2.465   7.911  14.462  1.00  0.00     0.079 A 
ATOM      4  C   UNL     1      -1.722   8.711  13.585  1.00  0.00     0.126 A 
ATOM      5  C   UNL     1      -0.453   9.212  13.935  1.00  0.00     0.143 A 
ATOM      6  C   UNL     1       0.241  10.021  13.014  1.00  0.00     0.094 A 
ATOM      7  C   UNL     1      -0.317  10.318  11.766  1.00  0.00     0.128 A 
ATOM      8  C   UNL     1      -1.574   9.810  11.422  1.00  0.00     0.162 A 
ATOM      9  C   UNL     1      -2.278   9.008  12.324  1.00  0.00     0.368 A 
ATOM     10  O   UNL     1      -3.469   8.528  11.986  1.00  0.00    -0.202 OA
ENDROOT
BRANCH   1  11
ATOM     11  C   UNL     1      -5.507   7.290  12.311  1.00  0.00     0.087 A 
ATOM     12  C   UNL     1      -7.942   7.450  12.359  1.00  0.00     0.161 A 
ATOM     13  C   UNL     1      -8.017   6.416  11.407  1.00  0.00     0.157 A 
ATOM     14  C   UNL     1      -6.676   7.888  12.800  1.00  0.00     0.068 A 
ATOM     15  C   UNL     1      -6.848   5.843  10.901  1.00  0.00     0.051 A 
ATOM     16  C   UNL     1      -5.597   6.280  11.342  1.00  0.00     0.022 A 
BRANCH  12  17
ATOM     17  O   UNL     1      -9.133   8.014  12.843  1.00  0.00    -0.493 OA
ATOM     18  C   UNL     1      -9.391   9.415  12.916  1.00  0.00     0.278 C 
ENDBRANCH  12  17
BRANCH  13  19
ATOM     19  O   UNL     1      -9.249   5.948  10.949  1.00  0.00    -0.504 OA
ATOM     20  H   UNL     1      -9.760   6.410  10.207  1.00  0.00     0.293 HD
ENDBRANCH  13  19
ENDBRANCH   1  11
BRANCH   2  21
ATOM     21  O   UNL     1      -4.542   6.664  14.938  1.00  0.00    -0.452 OA
BRANCH  21  22
ATOM     22  C   UNL     1      -5.279   5.487  14.576  1.00  0.00     0.339 C 
ATOM     23  C   UNL     1      -6.385   5.130  15.598  1.00  0.00     0.214 C 
ATOM     24  O   UNL     1      -4.396   4.401  14.327  1.00  0.00    -0.332 OA
ATOM     25  C   UNL     1      -5.800   4.561  16.912  1.00  0.00     0.180 C 
ATOM     26  C   UNL     1      -3.772   3.866  15.490  1.00  0.00     0.179 C 
ATOM     27  C   UNL     1      -4.801   3.442  16.570  1.00  0.00     0.177 C 
BRANCH  23  28
ATOM     28  O   UNL     1      -7.202   6.241  15.858  1.00  0.00    -0.384 OA
ATOM     29  H   UNL     1      -7.970   6.187  15.231  1.00  0.00     0.211 HD
ENDBRANCH  23  28
BRANCH  25  30
ATOM     30  O   UNL     1      -5.215   5.530  17.757  1.00  0.00    -0.387 OA
ATOM     31  H   UNL     1      -4.228   5.449  17.745  1.00  0.00     0.211 HD
ENDBRANCH  25  30
BRANCH  26  32
ATOM     32  C   UNL     1      -2.610   4.743  16.001  1.00  0.00     0.191 C 
BRANCH  32  33
ATOM     33  O   UNL     1      -1.512   4.674  15.131  1.00  0.00    -0.394 OA
ATOM     34  H   UNL     1      -1.018   5.527  15.228  1.00  0.00     0.210 HD
ENDBRANCH  32  33
ENDBRANCH  26  32
BRANCH  27  35
ATOM     35  O   UNL     1      -4.181   2.910  17.717  1.00  0.00    -0.387 OA
ATOM     36  H   UNL     1      -3.201   3.017  17.623  1.00  0.00     0.211 HD
ENDBRANCH  27  35
ENDBRANCH  21  22
ENDBRANCH   2  21
BRANCH   5  37
ATOM     37  O   UNL     1       0.064   8.897  15.203  1.00  0.00    -0.461 OA
BRANCH  37  38
ATOM     38  C   UNL     1       0.113   9.746  16.356  1.00  0.00     0.339 C 
ATOM     39  C   UNL     1       1.494  10.422  16.524  1.00  0.00     0.214 C 
ATOM     40  O   UNL     1      -0.219   8.999  17.518  1.00  0.00    -0.332 OA
ATOM     41  C   UNL     1       2.580   9.384  16.870  1.00  0.00     0.180 C 
ATOM     42  C   UNL     1       0.703   7.942  17.738  1.00  0.00     0.179 C 
ATOM     43  C   UNL     1       2.114   8.505  18.043  1.00  0.00     0.177 C 
BRANCH  39  44
ATOM     44  O   UNL     1       1.843  11.124  15.359  1.00  0.00    -0.384 OA
ATOM     45  H   UNL     1       1.590  12.072  15.512  1.00  0.00     0.211 HD
ENDBRANCH  39  44
BRANCH  41  46
ATOM     46  O   UNL     1       2.858   8.591  15.743  1.00  0.00    -0.387 OA
ATOM     47  H   UNL     1       2.997   9.213  14.981  1.00  0.00     0.211 HD
ENDBRANCH  41  46
BRANCH  42  48
ATOM     48  C   UNL     1       0.175   7.061  18.881  1.00  0.00     0.191 C 
BRANCH  48  49
ATOM     49  O   UNL     1      -0.022   7.812  20.048  1.00  0.00    -0.394 OA
ATOM     50  H   UNL     1      -0.755   7.371  20.552  1.00  0.00     0.210 HD
ENDBRANCH  48  49
ENDBRANCH  42  48
BRANCH  43  51
ATOM     51  O   UNL     1       2.092   9.280  19.216  1.00  0.00    -0.387 OA
ATOM     52  H   UNL     1       3.029   9.352  19.537  1.00  0.00     0.211 HD
ENDBRANCH  43  51
ENDBRANCH  37  38
ENDBRANCH   5  37
BRANCH   7  53
ATOM     53  O   UNL     1       0.388  11.125  10.875  1.00  0.00    -0.507 OA
ATOM     54  H   UNL     1       1.401  11.106  10.830  1.00  0.00     0.293 HD
ENDBRANCH   7  53
TORSDOF 18
ENDMDL
