MODEL 1
REMARK VINA RESULT:    -5.708      0.000      0.000
REMARK INTER + INTRA:         -11.687
REMARK INTER:                 -10.379
REMARK INTRA:                  -1.307
REMARK UNBOUND:                -1.307
REMARK SMILES CCCCCCCCCCCCCCCC(=O)[O-]
REMARK SMILES IDX 9 1 10 2 11 3 12 4 13 5 14 6 15 7 16 8 17 9 18 10 8 11 7 12
REMARK SMILES IDX 6 13 5 14 4 15 3 16 2 17 1 18
REMARK H PARENT
REMARK Flexibility Score: inf
ROOT
ATOM      1  C   UNL     1      49.795 -47.778 165.122  1.00  0.00     0.000 C 
ENDROOT
BRANCH   1   2
ATOM      2  C   UNL     1      49.783 -46.287 164.764  1.00  0.00     0.000 C 
BRANCH   2   3
ATOM      3  C   UNL     1      51.194 -45.691 164.837  1.00  0.00     0.000 C 
BRANCH   3   4
ATOM      4  C   UNL     1      51.976 -46.274 166.025  1.00  0.00     0.000 C 
BRANCH   4   5
ATOM      5  C   UNL     1      53.368 -45.641 166.188  1.00  0.00     0.000 C 
BRANCH   5   6
ATOM      6  C   UNL     1      53.698 -44.636 165.074  1.00  0.00     0.006 C 
BRANCH   6   7
ATOM      7  C   UNL     1      53.946 -43.239 165.651  1.00  0.00     0.053 C 
BRANCH   7   8
ATOM      8  C   UNL     1      53.562 -42.188 164.657  1.00  0.00     0.041 C 
ATOM      9  O   UNL     1      52.347 -41.944 164.432  1.00  0.00    -0.550 OA
ATOM     10  O   UNL     1      54.544 -41.446 164.014  1.00  0.00    -0.550 OA
ENDBRANCH   7   8
ENDBRANCH   6   7
ENDBRANCH   5   6
ENDBRANCH   4   5
ENDBRANCH   3   4
ENDBRANCH   2   3
ENDBRANCH   1   2
BRANCH   1  11
ATOM     11  C   UNL     1      48.449 -48.435 164.782  1.00  0.00     0.000 C 
BRANCH  11  12
ATOM     12  C   UNL     1      48.546 -49.416 163.603  1.00  0.00    -0.000 C 
BRANCH  12  13
ATOM     13  C   UNL     1      47.260 -49.457 162.759  1.00  0.00    -0.000 C 
BRANCH  13  14
ATOM     14  C   UNL     1      46.021 -49.036 163.566  1.00  0.00    -0.000 C 
BRANCH  14  15
ATOM     15  C   UNL     1      45.263 -47.868 162.911  1.00  0.00    -0.000 C 
BRANCH  15  16
ATOM     16  C   UNL     1      45.603 -46.514 163.567  1.00  0.00    -0.000 C 
BRANCH  16  17
ATOM     17  C   UNL     1      45.283 -46.462 165.069  1.00  0.00    -0.003 C 
ATOM     18  C   UNL     1      46.210 -45.529 165.847  1.00  0.00     0.004 C 
ENDBRANCH  16  17
ENDBRANCH  15  16
ENDBRANCH  14  15
ENDBRANCH  13  14
ENDBRANCH  12  13
ENDBRANCH  11  12
ENDBRANCH   1  11
TORSDOF 14
ENDMDL
MODEL 2
REMARK VINA RESULT:    -5.700      3.590      4.771
REMARK INTER + INTRA:         -11.673
REMARK INTER:                 -10.439
REMARK INTRA:                  -1.234
REMARK UNBOUND:                -1.307
REMARK SMILES CCCCCCCCCCCCCCCC(=O)[O-]
REMARK SMILES IDX 9 1 10 2 11 3 12 4 13 5 14 6 15 7 16 8 17 9 18 10 8 11 7 12
REMARK SMILES IDX 6 13 5 14 4 15 3 16 2 17 1 18
REMARK H PARENT
REMARK Flexibility Score: inf
ROOT
ATOM      1  C   UNL     1      48.285 -47.699 164.798  1.00  0.00     0.000 C 
ENDROOT
BRANCH   1   2
ATOM      2  C   UNL     1      49.773 -47.791 165.156  1.00  0.00     0.000 C 
BRANCH   2   3
ATOM      3  C   UNL     1      50.447 -46.417 165.066  1.00  0.00     0.000 C 
BRANCH   3   4
ATOM      4  C   UNL     1      51.772 -46.403 165.844  1.00  0.00     0.000 C 
BRANCH   4   5
ATOM      5  C   UNL     1      52.521 -47.744 165.765  1.00  0.00     0.000 C 
BRANCH   5   6
ATOM      6  C   UNL     1      53.836 -47.737 166.559  1.00  0.00     0.006 C 
BRANCH   6   7
ATOM      7  C   UNL     1      54.622 -49.032 166.328  1.00  0.00     0.053 C 
BRANCH   7   8
ATOM      8  C   UNL     1      54.291 -50.039 167.385  1.00  0.00     0.041 C 
ATOM      9  O   UNL     1      53.939 -49.659 168.532  1.00  0.00    -0.550 OA
ATOM     10  O   UNL     1      54.327 -51.395 167.090  1.00  0.00    -0.550 OA
ENDBRANCH   7   8
ENDBRANCH   6   7
ENDBRANCH   5   6
ENDBRANCH   4   5
ENDBRANCH   3   4
ENDBRANCH   2   3
ENDBRANCH   1   2
BRANCH   1  11
ATOM     11  C   UNL     1      47.834 -46.234 164.694  1.00  0.00     0.000 C 
BRANCH  11  12
ATOM     12  C   UNL     1      46.671 -45.901 165.642  1.00  0.00    -0.000 C 
BRANCH  12  13
ATOM     13  C   UNL     1      45.313 -45.851 164.918  1.00  0.00    -0.000 C 
BRANCH  13  14
ATOM     14  C   UNL     1      45.445 -46.138 163.414  1.00  0.00    -0.000 C 
BRANCH  14  15
ATOM     15  C   UNL     1      44.439 -47.195 162.927  1.00  0.00    -0.000 C 
BRANCH  15  16
ATOM     16  C   UNL     1      45.132 -48.370 162.207  1.00  0.00    -0.000 C 
BRANCH  16  17
ATOM     17  C   UNL     1      45.591 -49.488 163.158  1.00  0.00    -0.003 C 
ATOM     18  C   UNL     1      44.783 -49.541 164.453  1.00  0.00     0.004 C 
ENDBRANCH  16  17
ENDBRANCH  15  16
ENDBRANCH  14  15
ENDBRANCH  13  14
ENDBRANCH  12  13
ENDBRANCH  11  12
ENDBRANCH   1  11
TORSDOF 14
ENDMDL
MODEL 3
REMARK VINA RESULT:    -5.621      8.897     13.324
REMARK INTER + INTRA:         -11.529
REMARK INTER:                 -10.155
REMARK INTRA:                  -1.374
REMARK UNBOUND:                -1.307
REMARK SMILES CCCCCCCCCCCCCCCC(=O)[O-]
REMARK SMILES IDX 9 1 10 2 11 3 12 4 13 5 14 6 15 7 16 8 17 9 18 10 8 11 7 12
REMARK SMILES IDX 6 13 5 14 4 15 3 16 2 17 1 18
REMARK H PARENT
REMARK Flexibility Score: inf
ROOT
ATOM      1  C   UNL     1      40.726 -47.528 162.148  1.00  0.00     0.000 C 
ENDROOT
BRANCH   1   2
ATOM      2  C   UNL     1      39.475 -47.075 161.387  1.00  0.00     0.000 C 
BRANCH   2   3
ATOM      3  C   UNL     1      38.494 -48.238 161.197  1.00  0.00     0.000 C 
BRANCH   3   4
ATOM      4  C   UNL     1      37.151 -47.740 160.639  1.00  0.00     0.000 C 
BRANCH   4   5
ATOM      5  C   UNL     1      35.942 -48.348 161.369  1.00  0.00     0.000 C 
BRANCH   5   6
ATOM      6  C   UNL     1      36.348 -49.366 162.445  1.00  0.00     0.006 C 
BRANCH   6   7
ATOM      7  C   UNL     1      35.208 -50.350 162.726  1.00  0.00     0.053 C 
BRANCH   7   8
ATOM      8  C   UNL     1      35.694 -51.760 162.598  1.00  0.00     0.041 C 
ATOM      9  O   UNL     1      36.137 -52.371 163.606  1.00  0.00    -0.550 OA
ATOM     10  O   UNL     1      35.614 -52.416 161.376  1.00  0.00    -0.550 OA
ENDBRANCH   7   8
ENDBRANCH   6   7
ENDBRANCH   5   6
ENDBRANCH   4   5
ENDBRANCH   3   4
ENDBRANCH   2   3
ENDBRANCH   1   2
BRANCH   1  11
ATOM     11  C   UNL     1      40.484 -48.871 162.853  1.00  0.00     0.000 C 
BRANCH  11  12
ATOM     12  C   UNL     1      41.631 -49.261 163.798  1.00  0.00    -0.000 C 
BRANCH  12  13
ATOM     13  C   UNL     1      41.464 -48.668 165.209  1.00  0.00    -0.000 C 
BRANCH  13  14
ATOM     14  C   UNL     1      42.763 -48.030 165.728  1.00  0.00    -0.000 C 
BRANCH  14  15
ATOM     15  C   UNL     1      43.942 -48.228 164.760  1.00  0.00    -0.000 C 
BRANCH  15  16
ATOM     16  C   UNL     1      44.627 -46.894 164.397  1.00  0.00    -0.000 C 
BRANCH  16  17
ATOM     17  C   UNL     1      44.586 -46.573 162.894  1.00  0.00    -0.003 C 
ATOM     18  C   UNL     1      44.582 -47.822 162.015  1.00  0.00     0.004 C 
ENDBRANCH  16  17
ENDBRANCH  15  16
ENDBRANCH  14  15
ENDBRANCH  13  14
ENDBRANCH  12  13
ENDBRANCH  11  12
ENDBRANCH   1  11
TORSDOF 14
ENDMDL
MODEL 4
REMARK VINA RESULT:    -5.599      1.556      2.167
REMARK INTER + INTRA:         -11.488
REMARK INTER:                 -10.162
REMARK INTRA:                  -1.326
REMARK UNBOUND:                -1.307
REMARK SMILES CCCCCCCCCCCCCCCC(=O)[O-]
REMARK SMILES IDX 9 1 10 2 11 3 12 4 13 5 14 6 15 7 16 8 17 9 18 10 8 11 7 12
REMARK SMILES IDX 6 13 5 14 4 15 3 16 2 17 1 18
REMARK H PARENT
REMARK Flexibility Score: inf
ROOT
ATOM      1  C   UNL     1      48.192 -48.476 164.676  1.00  0.00     0.000 C 
ENDROOT
BRANCH   1   2
ATOM      2  C   UNL     1      49.547 -48.000 165.214  1.00  0.00     0.000 C 
BRANCH   2   3
ATOM      3  C   UNL     1      49.812 -46.541 164.826  1.00  0.00     0.000 C 
BRANCH   3   4
ATOM      4  C   UNL     1      51.225 -46.108 165.247  1.00  0.00     0.000 C 
BRANCH   4   5
ATOM      5  C   UNL     1      52.140 -47.301 165.571  1.00  0.00     0.000 C 
BRANCH   5   6
ATOM      6  C   UNL     1      53.537 -46.868 166.040  1.00  0.00     0.006 C 
BRANCH   6   7
ATOM      7  C   UNL     1      53.443 -45.763 167.096  1.00  0.00     0.053 C 
BRANCH   7   8
ATOM      8  C   UNL     1      54.349 -44.625 166.742  1.00  0.00     0.041 C 
ATOM      9  O   UNL     1      54.488 -44.278 165.540  1.00  0.00    -0.550 OA
ATOM     10  O   UNL     1      55.003 -43.918 167.742  1.00  0.00    -0.550 OA
ENDBRANCH   7   8
ENDBRANCH   6   7
ENDBRANCH   5   6
ENDBRANCH   4   5
ENDBRANCH   3   4
ENDBRANCH   2   3
ENDBRANCH   1   2
BRANCH   1  11
ATOM     11  C   UNL     1      48.375 -49.587 163.631  1.00  0.00     0.000 C 
BRANCH  11  12
ATOM     12  C   UNL     1      47.315 -49.538 162.520  1.00  0.00    -0.000 C 
BRANCH  12  13
ATOM     13  C   UNL     1      45.905 -49.240 163.059  1.00  0.00    -0.000 C 
BRANCH  13  14
ATOM     14  C   UNL     1      45.080 -48.380 162.087  1.00  0.00    -0.000 C 
BRANCH  14  15
ATOM     15  C   UNL     1      44.414 -47.182 162.784  1.00  0.00    -0.000 C 
BRANCH  15  16
ATOM     16  C   UNL     1      45.445 -46.249 163.452  1.00  0.00    -0.000 C 
BRANCH  16  17
ATOM     17  C   UNL     1      45.083 -45.869 164.897  1.00  0.00    -0.003 C 
ATOM     18  C   UNL     1      46.308 -45.628 165.778  1.00  0.00     0.004 C 
ENDBRANCH  16  17
ENDBRANCH  15  16
ENDBRANCH  14  15
ENDBRANCH  13  14
ENDBRANCH  12  13
ENDBRANCH  11  12
ENDBRANCH   1  11
TORSDOF 14
ENDMDL
MODEL 5
REMARK VINA RESULT:    -5.593      6.985     10.053
REMARK INTER + INTRA:         -11.477
REMARK INTER:                 -10.290
REMARK INTRA:                  -1.187
REMARK UNBOUND:                -1.307
REMARK SMILES CCCCCCCCCCCCCCCC(=O)[O-]
REMARK SMILES IDX 9 1 10 2 11 3 12 4 13 5 14 6 15 7 16 8 17 9 18 10 8 11 7 12
REMARK SMILES IDX 6 13 5 14 4 15 3 16 2 17 1 18
REMARK H PARENT
REMARK Flexibility Score: inf
ROOT
ATOM      1  C   UNL     1      40.303 -48.897 163.147  1.00  0.00     0.000 C 
ENDROOT
BRANCH   1   2
ATOM      2  C   UNL     1      41.753 -49.046 163.623  1.00  0.00     0.000 C 
BRANCH   2   3
ATOM      3  C   UNL     1      41.947 -48.408 165.004  1.00  0.00     0.000 C 
BRANCH   3   4
ATOM      4  C   UNL     1      43.428 -48.424 165.413  1.00  0.00     0.000 C 
BRANCH   4   5
ATOM      5  C   UNL     1      44.266 -49.401 164.571  1.00  0.00     0.000 C 
BRANCH   5   6
ATOM      6  C   UNL     1      45.630 -48.819 164.168  1.00  0.00     0.006 C 
BRANCH   6   7
ATOM      7  C   UNL     1      45.792 -48.806 162.644  1.00  0.00     0.053 C 
BRANCH   7   8
ATOM      8  C   UNL     1      44.899 -47.771 162.034  1.00  0.00     0.041 C 
ATOM      9  O   UNL     1      44.232 -48.041 161.001  1.00  0.00    -0.550 OA
ATOM     10  O   UNL     1      44.768 -46.524 162.631  1.00  0.00    -0.550 OA
ENDBRANCH   7   8
ENDBRANCH   6   7
ENDBRANCH   5   6
ENDBRANCH   4   5
ENDBRANCH   3   4
ENDBRANCH   2   3
ENDBRANCH   1   2
BRANCH   1  11
ATOM     11  C   UNL     1      40.197 -47.849 162.030  1.00  0.00     0.000 C 
BRANCH  11  12
ATOM     12  C   UNL     1      38.815 -47.833 161.358  1.00  0.00    -0.000 C 
BRANCH  12  13
ATOM     13  C   UNL     1      37.855 -48.878 161.954  1.00  0.00    -0.000 C 
BRANCH  13  14
ATOM     14  C   UNL     1      36.441 -48.775 161.359  1.00  0.00    -0.000 C 
BRANCH  14  15
ATOM     15  C   UNL     1      36.435 -48.936 159.829  1.00  0.00    -0.000 C 
BRANCH  15  16
ATOM     16  C   UNL     1      35.663 -47.800 159.127  1.00  0.00    -0.000 C 
BRANCH  16  17
ATOM     17  C   UNL     1      35.445 -46.565 160.017  1.00  0.00    -0.003 C 
ATOM     18  C   UNL     1      36.083 -45.298 159.449  1.00  0.00     0.004 C 
ENDBRANCH  16  17
ENDBRANCH  15  16
ENDBRANCH  14  15
ENDBRANCH  13  14
ENDBRANCH  12  13
ENDBRANCH  11  12
ENDBRANCH   1  11
TORSDOF 14
ENDMDL
MODEL 6
REMARK VINA RESULT:    -5.557      4.017      8.188
REMARK INTER + INTRA:         -11.412
REMARK INTER:                 -10.301
REMARK INTRA:                  -1.112
REMARK UNBOUND:                -1.307
REMARK SMILES CCCCCCCCCCCCCCCC(=O)[O-]
REMARK SMILES IDX 9 1 10 2 11 3 12 4 13 5 14 6 15 7 16 8 17 9 18 10 8 11 7 12
REMARK SMILES IDX 6 13 5 14 4 15 3 16 2 17 1 18
REMARK H PARENT
REMARK Flexibility Score: inf
ROOT
ATOM      1  C   UNL     1      49.852 -47.920 165.122  1.00  0.00     0.000 C 
ENDROOT
BRANCH   1   2
ATOM      2  C   UNL     1      48.350 -47.825 164.832  1.00  0.00     0.000 C 
BRANCH   2   3
ATOM      3  C   UNL     1      47.923 -46.370 164.603  1.00  0.00     0.000 C 
BRANCH   3   4
ATOM      4  C   UNL     1      46.772 -45.981 165.543  1.00  0.00     0.000 C 
BRANCH   4   5
ATOM      5  C   UNL     1      45.405 -45.980 164.840  1.00  0.00     0.000 C 
BRANCH   5   6
ATOM      6  C   UNL     1      44.614 -47.276 165.076  1.00  0.00     0.006 C 
BRANCH   6   7
ATOM      7  C   UNL     1      43.915 -47.734 163.792  1.00  0.00     0.053 C 
BRANCH   7   8
ATOM      8  C   UNL     1      44.925 -48.046 162.732  1.00  0.00     0.041 C 
ATOM      9  O   UNL     1      45.655 -49.066 162.834  1.00  0.00    -0.550 OA
ATOM     10  O   UNL     1      45.027 -47.236 161.608  1.00  0.00    -0.550 OA
ENDBRANCH   7   8
ENDBRANCH   6   7
ENDBRANCH   5   6
ENDBRANCH   4   5
ENDBRANCH   3   4
ENDBRANCH   2   3
ENDBRANCH   1   2
BRANCH   1  11
ATOM     11  C   UNL     1      50.495 -46.525 165.152  1.00  0.00     0.000 C 
BRANCH  11  12
ATOM     12  C   UNL     1      51.895 -46.529 165.785  1.00  0.00    -0.000 C 
BRANCH  12  13
ATOM     13  C   UNL     1      52.521 -47.934 165.831  1.00  0.00    -0.000 C 
BRANCH  13  14
ATOM     14  C   UNL     1      54.035 -47.905 165.566  1.00  0.00    -0.000 C 
BRANCH  14  15
ATOM     15  C   UNL     1      54.802 -48.918 166.433  1.00  0.00    -0.000 C 
BRANCH  15  16
ATOM     16  C   UNL     1      54.381 -48.852 167.915  1.00  0.00    -0.000 C 
BRANCH  16  17
ATOM     17  C   UNL     1      54.110 -50.231 168.538  1.00  0.00    -0.003 C 
ATOM     18  C   UNL     1      53.738 -51.292 167.504  1.00  0.00     0.004 C 
ENDBRANCH  16  17
ENDBRANCH  15  16
ENDBRANCH  14  15
ENDBRANCH  13  14
ENDBRANCH  12  13
ENDBRANCH  11  12
ENDBRANCH   1  11
TORSDOF 14
ENDMDL
MODEL 7
REMARK VINA RESULT:    -5.542      3.819      8.179
REMARK INTER + INTRA:         -11.385
REMARK INTER:                 -10.071
REMARK INTRA:                  -1.314
REMARK UNBOUND:                -1.307
REMARK SMILES CCCCCCCCCCCCCCCC(=O)[O-]
REMARK SMILES IDX 9 1 10 2 11 3 12 4 13 5 14 6 15 7 16 8 17 9 18 10 8 11 7 12
REMARK SMILES IDX 6 13 5 14 4 15 3 16 2 17 1 18
REMARK H PARENT
REMARK Flexibility Score: inf
ROOT
ATOM      1  C   UNL     1      49.540 -47.804 165.147  1.00  0.00     0.000 C 
ENDROOT
BRANCH   1   2
ATOM      2  C   UNL     1      48.073 -47.922 164.716  1.00  0.00     0.000 C 
BRANCH   2   3
ATOM      3  C   UNL     1      47.481 -46.545 164.395  1.00  0.00     0.000 C 
BRANCH   3   4
ATOM      4  C   UNL     1      46.379 -46.172 165.400  1.00  0.00     0.000 C 
BRANCH   4   5
ATOM      5  C   UNL     1      45.023 -45.908 164.724  1.00  0.00     0.000 C 
BRANCH   5   6
ATOM      6  C   UNL     1      44.997 -46.347 163.253  1.00  0.00     0.006 C 
BRANCH   6   7
ATOM      7  C   UNL     1      44.047 -47.532 163.051  1.00  0.00     0.053 C 
BRANCH   7   8
ATOM      8  C   UNL     1      44.751 -48.820 163.342  1.00  0.00     0.041 C 
ATOM      9  O   UNL     1      45.676 -49.221 162.587  1.00  0.00    -0.550 OA
ATOM     10  O   UNL     1      44.419 -49.555 164.473  1.00  0.00    -0.550 OA
ENDBRANCH   7   8
ENDBRANCH   6   7
ENDBRANCH   5   6
ENDBRANCH   4   5
ENDBRANCH   3   4
ENDBRANCH   2   3
ENDBRANCH   1   2
BRANCH   1  11
ATOM     11  C   UNL     1      50.095 -46.408 164.829  1.00  0.00     0.000 C 
BRANCH  11  12
ATOM     12  C   UNL     1      51.466 -46.152 165.474  1.00  0.00    -0.000 C 
BRANCH  12  13
ATOM     13  C   UNL     1      52.248 -47.452 165.738  1.00  0.00    -0.000 C 
BRANCH  13  14
ATOM     14  C   UNL     1      53.591 -47.190 166.438  1.00  0.00    -0.000 C 
BRANCH  14  15
ATOM     15  C   UNL     1      53.689 -45.763 167.006  1.00  0.00    -0.000 C 
BRANCH  15  16
ATOM     16  C   UNL     1      54.919 -45.005 166.468  1.00  0.00    -0.000 C 
BRANCH  16  17
ATOM     17  C   UNL     1      54.700 -44.391 165.076  1.00  0.00    -0.003 C 
ATOM     18  C   UNL     1      53.778 -43.173 165.097  1.00  0.00     0.004 C 
ENDBRANCH  16  17
ENDBRANCH  15  16
ENDBRANCH  14  15
ENDBRANCH  13  14
ENDBRANCH  12  13
ENDBRANCH  11  12
ENDBRANCH   1  11
TORSDOF 14
ENDMDL
MODEL 8
REMARK VINA RESULT:    -5.528      3.417      7.975
REMARK INTER + INTRA:         -11.360
REMARK INTER:                 -10.274
REMARK INTRA:                  -1.086
REMARK UNBOUND:                -1.307
REMARK SMILES CCCCCCCCCCCCCCCC(=O)[O-]
REMARK SMILES IDX 9 1 10 2 11 3 12 4 13 5 14 6 15 7 16 8 17 9 18 10 8 11 7 12
REMARK SMILES IDX 6 13 5 14 4 15 3 16 2 17 1 18
REMARK H PARENT
REMARK Flexibility Score: inf
ROOT
ATOM      1  C   UNL     1      48.787 -47.428 164.478  1.00  0.00     0.000 C 
ENDROOT
BRANCH   1   2
ATOM      2  C   UNL     1      47.939 -48.702 164.578  1.00  0.00     0.000 C 
BRANCH   2   3
ATOM      3  C   UNL     1      47.722 -49.329 163.195  1.00  0.00     0.000 C 
BRANCH   3   4
ATOM      4  C   UNL     1      46.224 -49.440 162.871  1.00  0.00     0.000 C 
BRANCH   4   5
ATOM      5  C   UNL     1      45.342 -49.437 164.131  1.00  0.00     0.000 C 
BRANCH   5   6
ATOM      6  C   UNL     1      44.154 -48.470 164.022  1.00  0.00     0.006 C 
BRANCH   6   7
ATOM      7  C   UNL     1      44.197 -47.419 165.136  1.00  0.00     0.053 C 
BRANCH   7   8
ATOM      8  C   UNL     1      45.185 -46.345 164.802  1.00  0.00     0.041 C 
ATOM      9  O   UNL     1      45.390 -46.026 163.602  1.00  0.00    -0.550 OA
ATOM     10  O   UNL     1      45.845 -45.666 165.817  1.00  0.00    -0.550 OA
ENDBRANCH   7   8
ENDBRANCH   6   7
ENDBRANCH   5   6
ENDBRANCH   4   5
ENDBRANCH   3   4
ENDBRANCH   2   3
ENDBRANCH   1   2
BRANCH   1  11
ATOM     11  C   UNL     1      50.121 -47.597 165.221  1.00  0.00     0.000 C 
BRANCH  11  12
ATOM     12  C   UNL     1      50.985 -46.326 165.189  1.00  0.00    -0.000 C 
BRANCH  12  13
ATOM     13  C   UNL     1      52.339 -46.512 165.896  1.00  0.00    -0.000 C 
BRANCH  13  14
ATOM     14  C   UNL     1      52.791 -47.982 165.910  1.00  0.00    -0.000 C 
BRANCH  14  15
ATOM     15  C   UNL     1      54.316 -48.128 165.774  1.00  0.00    -0.000 C 
BRANCH  15  16
ATOM     16  C   UNL     1      54.943 -48.836 166.993  1.00  0.00    -0.000 C 
BRANCH  16  17
ATOM     17  C   UNL     1      53.942 -49.688 167.790  1.00  0.00    -0.003 C 
ATOM     18  C   UNL     1      53.980 -51.167 167.411  1.00  0.00     0.004 C 
ENDBRANCH  16  17
ENDBRANCH  15  16
ENDBRANCH  14  15
ENDBRANCH  13  14
ENDBRANCH  12  13
ENDBRANCH  11  12
ENDBRANCH   1  11
TORSDOF 14
ENDMDL
MODEL 9
REMARK VINA RESULT:    -5.523      1.097      2.547
REMARK INTER + INTRA:         -11.351
REMARK INTER:                 -10.303
REMARK INTRA:                  -1.048
REMARK UNBOUND:                -1.307
REMARK SMILES CCCCCCCCCCCCCCCC(=O)[O-]
REMARK SMILES IDX 9 1 10 2 11 3 12 4 13 5 14 6 15 7 16 8 17 9 18 10 8 11 7 12
REMARK SMILES IDX 6 13 5 14 4 15 3 16 2 17 1 18
REMARK H PARENT
REMARK Flexibility Score: inf
ROOT
ATOM      1  C   UNL     1      50.300 -46.634 165.074  1.00  0.00     0.000 C 
ENDROOT
BRANCH   1   2
ATOM      2  C   UNL     1      51.084 -47.877 165.510  1.00  0.00     0.000 C 
BRANCH   2   3
ATOM      3  C   UNL     1      52.578 -47.564 165.655  1.00  0.00     0.000 C 
BRANCH   3   4
ATOM      4  C   UNL     1      52.793 -46.118 166.129  1.00  0.00     0.000 C 
BRANCH   4   5
ATOM      5  C   UNL     1      54.241 -45.639 165.937  1.00  0.00     0.000 C 
BRANCH   5   6
ATOM      6  C   UNL     1      54.355 -44.109 165.859  1.00  0.00     0.006 C 
BRANCH   6   7
ATOM      7  C   UNL     1      54.356 -43.633 164.402  1.00  0.00     0.053 C 
BRANCH   7   8
ATOM      8  C   UNL     1      53.855 -42.225 164.314  1.00  0.00     0.041 C 
ATOM      9  O   UNL     1      54.660 -41.279 164.111  1.00  0.00    -0.550 OA
ATOM     10  O   UNL     1      52.494 -41.963 164.409  1.00  0.00    -0.550 OA
ENDBRANCH   7   8
ENDBRANCH   6   7
ENDBRANCH   5   6
ENDBRANCH   4   5
ENDBRANCH   3   4
ENDBRANCH   2   3
ENDBRANCH   1   2
BRANCH   1  11
ATOM     11  C   UNL     1      48.843 -46.991 164.745  1.00  0.00     0.000 C 
BRANCH  11  12
ATOM     12  C   UNL     1      47.924 -45.759 164.703  1.00  0.00    -0.000 C 
BRANCH  12  13
ATOM     13  C   UNL     1      46.865 -45.772 165.819  1.00  0.00    -0.000 C 
BRANCH  13  14
ATOM     14  C   UNL     1      45.440 -45.588 165.271  1.00  0.00    -0.000 C 
BRANCH  14  15
ATOM     15  C   UNL     1      44.845 -46.899 164.731  1.00  0.00    -0.000 C 
BRANCH  15  16
ATOM     16  C   UNL     1      44.628 -46.855 163.204  1.00  0.00    -0.000 C 
BRANCH  16  17
ATOM     17  C   UNL     1      45.401 -47.944 162.443  1.00  0.00    -0.003 C 
ATOM     18  C   UNL     1      45.935 -49.047 163.355  1.00  0.00     0.004 C 
ENDBRANCH  16  17
ENDBRANCH  15  16
ENDBRANCH  14  15
ENDBRANCH  13  14
ENDBRANCH  12  13
ENDBRANCH  11  12
ENDBRANCH   1  11
TORSDOF 14
ENDMDL
