MODEL 1
REMARK VINA RESULT:    -3.289      0.000      0.000
REMARK INTER + INTRA:          -3.919
REMARK INTER:                  -3.866
REMARK INTRA:                  -0.053
REMARK UNBOUND:                -0.053
REMARK SMILES CCCCC(=O)[O-]
REMARK SMILES IDX 4 1 5 2 6 3 7 4 3 5 2 6 1 7
REMARK H PARENT
REMARK Flexibility Score: inf
ROOT
ATOM      1  C   UNL     1     254.804 261.977 253.960  1.00  0.00     0.053 C 
ENDROOT
BRANCH   1   2
ATOM      2  C   UNL     1     254.060 260.785 254.477  1.00  0.00     0.041 C 
ATOM      3  O   UNL     1     253.070 260.331 253.845  1.00  0.00    -0.550 OA
ATOM      4  O   UNL     1     254.480 260.154 255.642  1.00  0.00    -0.550 OA
ENDBRANCH   1   2
BRANCH   1   5
ATOM      5  C   UNL     1     254.431 262.292 252.505  1.00  0.00     0.006 C 
BRANCH   5   6
ATOM      6  C   UNL     1     255.383 261.620 251.504  1.00  0.00    -0.003 C 
ATOM      7  C   UNL     1     256.710 262.368 251.421  1.00  0.00     0.004 C 
ENDBRANCH   5   6
ENDBRANCH   1   5
TORSDOF 3
ENDMDL
MODEL 2
REMARK VINA RESULT:    -3.279     10.812     11.647
REMARK INTER + INTRA:          -3.907
REMARK INTER:                  -3.849
REMARK INTRA:                  -0.059
REMARK UNBOUND:                -0.053
REMARK SMILES CCCCC(=O)[O-]
REMARK SMILES IDX 4 1 5 2 6 3 7 4 3 5 2 6 1 7
REMARK H PARENT
REMARK Flexibility Score: inf
ROOT
ATOM      1  C   UNL     1     243.348 256.757 255.433  1.00  0.00     0.053 C 
ENDROOT
BRANCH   1   2
ATOM      2  C   UNL     1     244.074 257.925 256.027  1.00  0.00     0.041 C 
ATOM      3  O   UNL     1     245.333 257.936 256.065  1.00  0.00    -0.550 OA
ATOM      4  O   UNL     1     243.362 259.016 256.508  1.00  0.00    -0.550 OA
ENDBRANCH   1   2
BRANCH   1   5
ATOM      5  C   UNL     1     244.255 255.932 254.512  1.00  0.00     0.006 C 
BRANCH   5   6
ATOM      6  C   UNL     1     243.921 256.143 253.028  1.00  0.00    -0.003 C 
ATOM      7  C   UNL     1     245.191 256.245 252.189  1.00  0.00     0.004 C 
ENDBRANCH   5   6
ENDBRANCH   1   5
TORSDOF 3
ENDMDL
MODEL 3
REMARK VINA RESULT:    -3.250      6.538      7.853
REMARK INTER + INTRA:          -3.873
REMARK INTER:                  -3.821
REMARK INTRA:                  -0.052
REMARK UNBOUND:                -0.053
REMARK SMILES CCCCC(=O)[O-]
REMARK SMILES IDX 4 1 5 2 6 3 7 4 3 5 2 6 1 7
REMARK H PARENT
REMARK Flexibility Score: inf
ROOT
ATOM      1  C   UNL     1     255.600 260.912 246.146  1.00  0.00     0.053 C 
ENDROOT
BRANCH   1   2
ATOM      2  C   UNL     1     256.952 261.438 245.771  1.00  0.00     0.041 C 
ATOM      3  O   UNL     1     257.681 261.986 246.638  1.00  0.00    -0.550 OA
ATOM      4  O   UNL     1     257.419 261.292 244.471  1.00  0.00    -0.550 OA
ENDBRANCH   1   2
BRANCH   1   5
ATOM      5  C   UNL     1     255.509 260.595 247.644  1.00  0.00     0.006 C 
BRANCH   5   6
ATOM      6  C   UNL     1     254.128 260.932 248.225  1.00  0.00    -0.003 C 
ATOM      7  C   UNL     1     253.100 261.134 247.117  1.00  0.00     0.004 C 
ENDBRANCH   5   6
ENDBRANCH   1   5
TORSDOF 3
ENDMDL
MODEL 4
REMARK VINA RESULT:    -3.218      7.051      7.494
REMARK INTER + INTRA:          -3.835
REMARK INTER:                  -3.791
REMARK INTRA:                  -0.044
REMARK UNBOUND:                -0.053
REMARK SMILES CCCCC(=O)[O-]
REMARK SMILES IDX 4 1 5 2 6 3 7 4 3 5 2 6 1 7
REMARK H PARENT
REMARK Flexibility Score: inf
ROOT
ATOM      1  C   UNL     1     251.834 259.587 246.937  1.00  0.00     0.053 C 
ENDROOT
BRANCH   1   2
ATOM      2  C   UNL     1     250.359 259.796 247.094  1.00  0.00     0.041 C 
ATOM      3  O   UNL     1     249.843 260.910 246.813  1.00  0.00    -0.550 OA
ATOM      4  O   UNL     1     249.550 258.751 247.520  1.00  0.00    -0.550 OA
ENDBRANCH   1   2
BRANCH   1   5
ATOM      5  C   UNL     1     252.620 260.883 247.173  1.00  0.00     0.006 C 
BRANCH   5   6
ATOM      6  C   UNL     1     254.034 260.821 246.577  1.00  0.00    -0.003 C 
ATOM      7  C   UNL     1     254.189 259.614 245.657  1.00  0.00     0.004 C 
ENDBRANCH   5   6
ENDBRANCH   1   5
TORSDOF 3
ENDMDL
MODEL 5
REMARK VINA RESULT:    -3.204      8.016      8.687
REMARK INTER + INTRA:          -3.818
REMARK INTER:                  -3.800
REMARK INTRA:                  -0.018
REMARK UNBOUND:                -0.053
REMARK SMILES CCCCC(=O)[O-]
REMARK SMILES IDX 4 1 5 2 6 3 7 4 3 5 2 6 1 7
REMARK H PARENT
REMARK Flexibility Score: inf
ROOT
ATOM      1  C   UNL     1     250.296 259.808 247.072  1.00  0.00     0.053 C 
ENDROOT
BRANCH   1   2
ATOM      2  C   UNL     1     249.515 258.531 247.059  1.00  0.00     0.041 C 
ATOM      3  O   UNL     1     249.856 257.571 247.799  1.00  0.00    -0.550 OA
ATOM      4  O   UNL     1     248.390 258.412 246.253  1.00  0.00    -0.550 OA
ENDBRANCH   1   2
BRANCH   1   5
ATOM      5  C   UNL     1     249.400 261.026 246.811  1.00  0.00     0.006 C 
BRANCH   5   6
ATOM      6  C   UNL     1     250.198 262.338 246.784  1.00  0.00    -0.003 C 
ATOM      7  C   UNL     1     249.493 263.392 245.936  1.00  0.00     0.004 C 
ENDBRANCH   5   6
ENDBRANCH   1   5
TORSDOF 3
ENDMDL
MODEL 6
REMARK VINA RESULT:    -3.192      6.608      7.255
REMARK INTER + INTRA:          -3.805
REMARK INTER:                  -3.787
REMARK INTRA:                  -0.018
REMARK UNBOUND:                -0.053
REMARK SMILES CCCCC(=O)[O-]
REMARK SMILES IDX 4 1 5 2 6 3 7 4 3 5 2 6 1 7
REMARK H PARENT
REMARK Flexibility Score: inf
ROOT
ATOM      1  C   UNL     1     251.867 259.788 246.940  1.00  0.00     0.053 C 
ENDROOT
BRANCH   1   2
ATOM      2  C   UNL     1     250.381 259.893 247.091  1.00  0.00     0.041 C 
ATOM      3  O   UNL     1     249.703 258.881 247.411  1.00  0.00    -0.550 OA
ATOM      4  O   UNL     1     249.748 261.115 246.909  1.00  0.00    -0.550 OA
ENDBRANCH   1   2
BRANCH   1   5
ATOM      5  C   UNL     1     252.563 261.126 247.220  1.00  0.00     0.006 C 
BRANCH   5   6
ATOM      6  C   UNL     1     254.050 260.947 247.560  1.00  0.00    -0.003 C 
ATOM      7  C   UNL     1     254.894 260.836 246.295  1.00  0.00     0.004 C 
ENDBRANCH   5   6
ENDBRANCH   1   5
TORSDOF 3
ENDMDL
MODEL 7
REMARK VINA RESULT:    -3.136      8.896      9.741
REMARK INTER + INTRA:          -3.738
REMARK INTER:                  -3.636
REMARK INTRA:                  -0.103
REMARK UNBOUND:                -0.053
REMARK SMILES CCCCC(=O)[O-]
REMARK SMILES IDX 4 1 5 2 6 3 7 4 3 5 2 6 1 7
REMARK H PARENT
REMARK Flexibility Score: inf
ROOT
ATOM      1  C   UNL     1     249.250 258.157 247.426  1.00  0.00     0.053 C 
ENDROOT
BRANCH   1   2
ATOM      2  C   UNL     1     250.001 259.418 247.124  1.00  0.00     0.041 C 
ATOM      3  O   UNL     1     249.417 260.532 247.174  1.00  0.00    -0.550 OA
ATOM      4  O   UNL     1     251.355 259.365 246.819  1.00  0.00    -0.550 OA
ENDBRANCH   1   2
BRANCH   1   5
ATOM      5  C   UNL     1     248.762 257.466 246.147  1.00  0.00     0.006 C 
BRANCH   5   6
ATOM      6  C   UNL     1     247.247 257.617 245.947  1.00  0.00    -0.003 C 
ATOM      7  C   UNL     1     246.926 258.824 245.072  1.00  0.00     0.004 C 
ENDBRANCH   5   6
ENDBRANCH   1   5
TORSDOF 3
ENDMDL
MODEL 8
REMARK VINA RESULT:    -3.118      5.878      6.943
REMARK INTER + INTRA:          -3.718
REMARK INTER:                  -3.656
REMARK INTRA:                  -0.062
REMARK UNBOUND:                -0.053
REMARK SMILES CCCCC(=O)[O-]
REMARK SMILES IDX 4 1 5 2 6 3 7 4 3 5 2 6 1 7
REMARK H PARENT
REMARK Flexibility Score: inf
ROOT
ATOM      1  C   UNL     1     254.444 259.938 246.494  1.00  0.00     0.053 C 
ENDROOT
BRANCH   1   2
ATOM      2  C   UNL     1     253.816 260.851 247.503  1.00  0.00     0.041 C 
ATOM      3  O   UNL     1     252.732 261.435 247.241  1.00  0.00    -0.550 OA
ATOM      4  O   UNL     1     254.412 261.031 248.744  1.00  0.00    -0.550 OA
ENDBRANCH   1   2
BRANCH   1   5
ATOM      5  C   UNL     1     255.148 260.721 245.379  1.00  0.00     0.006 C 
BRANCH   5   6
ATOM      6  C   UNL     1     256.527 261.239 245.815  1.00  0.00    -0.003 C 
ATOM      7  C   UNL     1     257.512 261.225 244.651  1.00  0.00     0.004 C 
ENDBRANCH   5   6
ENDBRANCH   1   5
TORSDOF 3
ENDMDL
MODEL 9
REMARK VINA RESULT:    -3.075      9.903     10.805
REMARK INTER + INTRA:          -3.667
REMARK INTER:                  -3.559
REMARK INTRA:                  -0.108
REMARK UNBOUND:                -0.053
REMARK SMILES CCCCC(=O)[O-]
REMARK SMILES IDX 4 1 5 2 6 3 7 4 3 5 2 6 1 7
REMARK H PARENT
REMARK Flexibility Score: inf
ROOT
ATOM      1  C   UNL     1     248.255 257.181 245.616  1.00  0.00     0.053 C 
ENDROOT
BRANCH   1   2
ATOM      2  C   UNL     1     247.009 257.864 245.141  1.00  0.00     0.041 C 
ATOM      3  O   UNL     1     247.014 259.101 244.906  1.00  0.00    -0.550 OA
ATOM      4  O   UNL     1     245.851 257.128 244.928  1.00  0.00    -0.550 OA
ENDBRANCH   1   2
BRANCH   1   5
ATOM      5  C   UNL     1     248.581 257.539 247.071  1.00  0.00     0.006 C 
BRANCH   5   6
ATOM      6  C   UNL     1     249.916 258.289 247.199  1.00  0.00    -0.003 C 
ATOM      7  C   UNL     1     249.705 259.799 247.150  1.00  0.00     0.004 C 
ENDBRANCH   5   6
ENDBRANCH   1   5
TORSDOF 3
ENDMDL
