MODEL 1
REMARK VINA RESULT:    -3.108      0.000      0.000
REMARK INTER + INTRA:          -4.302
REMARK INTER:                  -4.107
REMARK INTRA:                  -0.195
REMARK UNBOUND:                -0.195
REMARK SMILES CCCCCCCO
REMARK SMILES IDX 5 1 4 2 3 3 2 4 1 5 6 6 7 7 8 8
REMARK H PARENT 8 9
REMARK Flexibility Score: inf
ROOT
ATOM      1  C   UNL     1     149.516 150.548 145.551  1.00  0.00     0.002 C 
ENDROOT
BRANCH   1   2
ATOM      2  C   UNL     1     150.744 151.111 144.812  1.00  0.00     0.000 C 
BRANCH   2   3
ATOM      3  C   UNL     1     151.385 152.305 145.540  1.00  0.00    -0.000 C 
BRANCH   3   4
ATOM      4  C   UNL     1     152.912 152.346 145.371  1.00  0.00    -0.003 C 
ATOM      5  C   UNL     1     153.577 151.000 145.663  1.00  0.00     0.004 C 
ENDBRANCH   3   4
ENDBRANCH   2   3
ENDBRANCH   1   2
BRANCH   1   6
ATOM      6  C   UNL     1     149.395 149.013 145.538  1.00  0.00     0.028 C 
BRANCH   6   7
ATOM      7  C   UNL     1     150.717 148.303 145.853  1.00  0.00     0.156 C 
BRANCH   7   8
ATOM      8  O   UNL     1     150.713 147.013 145.306  1.00  0.00    -0.396 OA
ATOM      9  H   UNL     1     151.592 146.608 145.528  1.00  0.00     0.210 HD
ENDBRANCH   7   8
ENDBRANCH   6   7
ENDBRANCH   1   6
TORSDOF 6
ENDMDL
MODEL 2
REMARK VINA RESULT:    -2.935      1.915      2.350
REMARK INTER + INTRA:          -4.074
REMARK INTER:                  -3.858
REMARK INTRA:                  -0.216
REMARK UNBOUND:                -0.195
REMARK SMILES CCCCCCCO
REMARK SMILES IDX 5 1 4 2 3 3 2 4 1 5 6 6 7 7 8 8
REMARK H PARENT 8 9
REMARK Flexibility Score: inf
ROOT
ATOM      1  C   UNL     1     149.973 150.614 144.399  1.00  0.00     0.002 C 
ENDROOT
BRANCH   1   2
ATOM      2  C   UNL     1     151.293 149.823 144.338  1.00  0.00     0.000 C 
BRANCH   2   3
ATOM      3  C   UNL     1     152.060 149.835 145.671  1.00  0.00    -0.000 C 
BRANCH   3   4
ATOM      4  C   UNL     1     153.337 150.689 145.608  1.00  0.00    -0.003 C 
ATOM      5  C   UNL     1     153.051 152.189 145.688  1.00  0.00     0.004 C 
ENDBRANCH   3   4
ENDBRANCH   2   3
ENDBRANCH   1   2
BRANCH   1   6
ATOM      6  C   UNL     1     149.061 150.269 145.591  1.00  0.00     0.028 C 
BRANCH   6   7
ATOM      7  C   UNL     1     148.013 149.201 145.255  1.00  0.00     0.156 C 
BRANCH   7   8
ATOM      8  O   UNL     1     147.368 149.520 144.052  1.00  0.00    -0.396 OA
ATOM      9  H   UNL     1     147.199 150.498 144.071  1.00  0.00     0.210 HD
ENDBRANCH   7   8
ENDBRANCH   6   7
ENDBRANCH   1   6
TORSDOF 6
ENDMDL
MODEL 3
REMARK VINA RESULT:    -2.840      3.003      4.407
REMARK INTER + INTRA:          -3.948
REMARK INTER:                  -3.814
REMARK INTRA:                  -0.135
REMARK UNBOUND:                -0.195
REMARK SMILES CCCCCCCO
REMARK SMILES IDX 5 1 4 2 3 3 2 4 1 5 6 6 7 7 8 8
REMARK H PARENT 8 9
REMARK Flexibility Score: inf
ROOT
ATOM      1  C   UNL     1     152.350 152.440 145.638  1.00  0.00     0.002 C 
ENDROOT
BRANCH   1   2
ATOM      2  C   UNL     1     153.069 151.111 145.932  1.00  0.00     0.000 C 
BRANCH   2   3
ATOM      3  C   UNL     1     152.456 149.918 145.179  1.00  0.00    -0.000 C 
BRANCH   3   4
ATOM      4  C   UNL     1     152.016 148.789 146.125  1.00  0.00    -0.003 C 
ATOM      5  C   UNL     1     151.383 147.610 145.386  1.00  0.00     0.004 C 
ENDBRANCH   3   4
ENDBRANCH   2   3
ENDBRANCH   1   2
BRANCH   1   6
ATOM      6  C   UNL     1     150.812 152.379 145.708  1.00  0.00     0.028 C 
BRANCH   6   7
ATOM      7  C   UNL     1     150.170 153.736 146.017  1.00  0.00     0.156 C 
BRANCH   7   8
ATOM      8  O   UNL     1     150.034 154.484 144.838  1.00  0.00    -0.396 OA
ATOM      9  H   UNL     1     150.692 154.117 144.192  1.00  0.00     0.210 HD
ENDBRANCH   7   8
ENDBRANCH   6   7
ENDBRANCH   1   6
TORSDOF 6
ENDMDL
MODEL 4
REMARK VINA RESULT:    -2.803      3.117      4.201
REMARK INTER + INTRA:          -3.900
REMARK INTER:                  -3.819
REMARK INTRA:                  -0.080
REMARK UNBOUND:                -0.195
REMARK SMILES CCCCCCCO
REMARK SMILES IDX 5 1 4 2 3 3 2 4 1 5 6 6 7 7 8 8
REMARK H PARENT 8 9
REMARK Flexibility Score: inf
ROOT
ATOM      1  C   UNL     1     149.456 151.324 144.900  1.00  0.00     0.002 C 
ENDROOT
BRANCH   1   2
ATOM      2  C   UNL     1     149.319 149.933 145.545  1.00  0.00     0.000 C 
BRANCH   2   3
ATOM      3  C   UNL     1     150.652 149.388 146.084  1.00  0.00    -0.000 C 
BRANCH   3   4
ATOM      4  C   UNL     1     150.826 147.885 145.814  1.00  0.00    -0.003 C 
ATOM      5  C   UNL     1     152.237 147.386 146.125  1.00  0.00     0.004 C 
ENDBRANCH   3   4
ENDBRANCH   2   3
ENDBRANCH   1   2
BRANCH   1   6
ATOM      6  C   UNL     1     148.750 152.465 145.655  1.00  0.00     0.028 C 
BRANCH   6   7
ATOM      7  C   UNL     1     149.714 153.562 146.125  1.00  0.00     0.156 C 
BRANCH   7   8
ATOM      8  O   UNL     1     150.678 153.810 145.137  1.00  0.00    -0.396 OA
ATOM      9  H   UNL     1     151.554 153.857 145.602  1.00  0.00     0.210 HD
ENDBRANCH   7   8
ENDBRANCH   6   7
ENDBRANCH   1   6
TORSDOF 6
ENDMDL
MODEL 5
REMARK VINA RESULT:    -2.787      2.953      3.980
REMARK INTER + INTRA:          -3.878
REMARK INTER:                  -3.641
REMARK INTRA:                  -0.237
REMARK UNBOUND:                -0.195
REMARK SMILES CCCCCCCO
REMARK SMILES IDX 5 1 4 2 3 3 2 4 1 5 6 6 7 7 8 8
REMARK H PARENT 8 9
REMARK Flexibility Score: inf
ROOT
ATOM      1  C   UNL     1     150.223 150.882 143.867  1.00  0.00     0.002 C 
ENDROOT
BRANCH   1   2
ATOM      2  C   UNL     1     150.654 150.332 145.239  1.00  0.00     0.000 C 
BRANCH   2   3
ATOM      3  C   UNL     1     152.112 149.841 145.257  1.00  0.00    -0.000 C 
BRANCH   3   4
ATOM      4  C   UNL     1     152.254 148.443 145.880  1.00  0.00    -0.003 C 
ATOM      5  C   UNL     1     151.068 147.530 145.564  1.00  0.00     0.004 C 
ENDBRANCH   3   4
ENDBRANCH   2   3
ENDBRANCH   1   2
BRANCH   1   6
ATOM      6  C   UNL     1     151.001 150.317 142.665  1.00  0.00     0.028 C 
BRANCH   6   7
ATOM      7  C   UNL     1     150.327 150.613 141.320  1.00  0.00     0.156 C 
BRANCH   7   8
ATOM      8  O   UNL     1     150.375 151.988 141.050  1.00  0.00    -0.396 OA
ATOM      9  H   UNL     1     149.438 152.281 140.903  1.00  0.00     0.210 HD
ENDBRANCH   7   8
ENDBRANCH   6   7
ENDBRANCH   1   6
TORSDOF 6
ENDMDL
MODEL 6
REMARK VINA RESULT:    -2.711      9.122      9.633
REMARK INTER + INTRA:          -3.778
REMARK INTER:                  -3.626
REMARK INTRA:                  -0.152
REMARK UNBOUND:                -0.195
REMARK SMILES CCCCCCCO
REMARK SMILES IDX 5 1 4 2 3 3 2 4 1 5 6 6 7 7 8 8
REMARK H PARENT 8 9
REMARK Flexibility Score: inf
ROOT
ATOM      1  C   UNL     1     154.252 143.235 137.858  1.00  0.00     0.002 C 
ENDROOT
BRANCH   1   2
ATOM      2  C   UNL     1     154.825 144.597 137.424  1.00  0.00     0.000 C 
BRANCH   2   3
ATOM      3  C   UNL     1     155.112 145.533 138.610  1.00  0.00    -0.000 C 
BRANCH   3   4
ATOM      4  C   UNL     1     155.777 146.848 138.175  1.00  0.00    -0.003 C 
ATOM      5  C   UNL     1     156.984 147.216 139.038  1.00  0.00     0.004 C 
ENDBRANCH   3   4
ENDBRANCH   2   3
ENDBRANCH   1   2
BRANCH   1   6
ATOM      6  C   UNL     1     153.612 143.215 139.259  1.00  0.00     0.028 C 
BRANCH   6   7
ATOM      7  C   UNL     1     154.215 142.147 140.179  1.00  0.00     0.156 C 
BRANCH   7   8
ATOM      8  O   UNL     1     154.934 142.756 141.217  1.00  0.00    -0.396 OA
ATOM      9  H   UNL     1     155.871 142.842 140.900  1.00  0.00     0.210 HD
ENDBRANCH   7   8
ENDBRANCH   6   7
ENDBRANCH   1   6
TORSDOF 6
ENDMDL
MODEL 7
REMARK VINA RESULT:    -2.651      9.772     10.443
REMARK INTER + INTRA:          -3.698
REMARK INTER:                  -3.464
REMARK INTRA:                  -0.235
REMARK UNBOUND:                -0.195
REMARK SMILES CCCCCCCO
REMARK SMILES IDX 5 1 4 2 3 3 2 4 1 5 6 6 7 7 8 8
REMARK H PARENT 8 9
REMARK Flexibility Score: inf
ROOT
ATOM      1  C   UNL     1     157.299 154.729 137.731  1.00  0.00     0.002 C 
ENDROOT
BRANCH   1   2
ATOM      2  C   UNL     1     155.971 154.747 136.952  1.00  0.00     0.000 C 
BRANCH   2   3
ATOM      3  C   UNL     1     154.739 154.803 137.871  1.00  0.00    -0.000 C 
BRANCH   3   4
ATOM      4  C   UNL     1     154.007 156.152 137.791  1.00  0.00    -0.003 C 
ATOM      5  C   UNL     1     154.096 156.952 139.091  1.00  0.00     0.004 C 
ENDBRANCH   3   4
ENDBRANCH   2   3
ENDBRANCH   1   2
BRANCH   1   6
ATOM      6  C   UNL     1     157.156 154.676 139.263  1.00  0.00     0.028 C 
BRANCH   6   7
ATOM      7  C   UNL     1     158.436 154.216 139.971  1.00  0.00     0.156 C 
BRANCH   7   8
ATOM      8  O   UNL     1     158.600 154.918 141.173  1.00  0.00    -0.396 OA
ATOM      9  H   UNL     1     159.255 154.404 141.715  1.00  0.00     0.210 HD
ENDBRANCH   7   8
ENDBRANCH   6   7
ENDBRANCH   1   6
TORSDOF 6
ENDMDL
MODEL 8
REMARK VINA RESULT:    -2.639      7.961      8.935
REMARK INTER + INTRA:          -3.682
REMARK INTER:                  -3.374
REMARK INTRA:                  -0.308
REMARK UNBOUND:                -0.195
REMARK SMILES CCCCCCCO
REMARK SMILES IDX 5 1 4 2 3 3 2 4 1 5 6 6 7 7 8 8
REMARK H PARENT 8 9
REMARK Flexibility Score: inf
ROOT
ATOM      1  C   UNL     1     152.060 143.645 138.736  1.00  0.00     0.002 C 
ENDROOT
BRANCH   1   2
ATOM      2  C   UNL     1     153.130 142.829 139.484  1.00  0.00     0.000 C 
BRANCH   2   3
ATOM      3  C   UNL     1     154.492 143.541 139.547  1.00  0.00    -0.000 C 
BRANCH   3   4
ATOM      4  C   UNL     1     154.784 144.363 138.281  1.00  0.00    -0.003 C 
ATOM      5  C   UNL     1     155.255 145.784 138.594  1.00  0.00     0.004 C 
ENDBRANCH   3   4
ENDBRANCH   2   3
ENDBRANCH   1   2
BRANCH   1   6
ATOM      6  C   UNL     1     151.070 144.404 139.639  1.00  0.00     0.028 C 
BRANCH   6   7
ATOM      7  C   UNL     1     151.622 145.742 140.144  1.00  0.00     0.156 C 
BRANCH   7   8
ATOM      8  O   UNL     1     151.719 145.726 141.543  1.00  0.00    -0.396 OA
ATOM      9  H   UNL     1     152.386 145.027 141.773  1.00  0.00     0.210 HD
ENDBRANCH   7   8
ENDBRANCH   6   7
ENDBRANCH   1   6
TORSDOF 6
ENDMDL
MODEL 9
REMARK VINA RESULT:    -2.622      8.729      9.861
REMARK INTER + INTRA:          -3.661
REMARK INTER:                  -3.354
REMARK INTRA:                  -0.307
REMARK UNBOUND:                -0.195
REMARK SMILES CCCCCCCO
REMARK SMILES IDX 5 1 4 2 3 3 2 4 1 5 6 6 7 7 8 8
REMARK H PARENT 8 9
REMARK Flexibility Score: inf
ROOT
ATOM      1  C   UNL     1     149.387 157.558 138.717  1.00  0.00     0.002 C 
ENDROOT
BRANCH   1   2
ATOM      2  C   UNL     1     148.413 158.517 139.427  1.00  0.00     0.000 C 
BRANCH   2   3
ATOM      3  C   UNL     1     146.990 157.946 139.544  1.00  0.00    -0.000 C 
BRANCH   3   4
ATOM      4  C   UNL     1     146.595 157.095 138.326  1.00  0.00    -0.003 C 
ATOM      5  C   UNL     1     146.077 155.710 138.714  1.00  0.00     0.004 C 
ENDBRANCH   3   4
ENDBRANCH   2   3
ENDBRANCH   1   2
BRANCH   1   6
ATOM      6  C   UNL     1     150.286 156.730 139.654  1.00  0.00     0.028 C 
BRANCH   6   7
ATOM      7  C   UNL     1     149.587 155.482 140.208  1.00  0.00     0.156 C 
BRANCH   7   8
ATOM      8  O   UNL     1     149.581 155.516 141.610  1.00  0.00    -0.396 OA
ATOM      9  H   UNL     1     148.708 155.141 141.898  1.00  0.00     0.210 HD
ENDBRANCH   7   8
ENDBRANCH   6   7
ENDBRANCH   1   6
TORSDOF 6
ENDMDL
