MODEL 1
REMARK VINA RESULT:    -5.788      0.000      0.000
REMARK INTER + INTRA:          -6.454
REMARK INTER:                  -6.126
REMARK INTRA:                  -0.328
REMARK UNBOUND:                -0.328
REMARK SMILES CC1=C[C@H]2C(=C(C)CC[C@H]2C(C)C)CC1
REMARK SMILES IDX 1 1 2 2 3 3 4 4 10 5 9 6 8 7 6 8 5 9 14 10 15 11 7 12 11 13
REMARK SMILES IDX 12 14 13 15
REMARK H PARENT
REMARK Flexibility Score: inf
ROOT
ATOM      1  C   UNL     1       0.117  -4.404  20.451  1.00  0.00     0.039 C 
ATOM      2  C   UNL     1       0.903  -3.675  19.396  1.00  0.00    -0.076 C 
ATOM      3  C   UNL     1       2.026  -4.239  18.909  1.00  0.00    -0.020 C 
ATOM      4  C   UNL     1       2.883  -3.607  17.836  1.00  0.00     0.041 C 
ATOM      5  C   UNL     1       4.397  -3.431  18.228  1.00  0.00     0.003 C 
ATOM      6  C   UNL     1       5.161  -2.507  17.223  1.00  0.00     0.009 C 
ATOM      7  C   UNL     1       4.385  -2.232  15.932  1.00  0.00     0.031 C 
ATOM      8  C   UNL     1       3.005  -1.706  16.266  1.00  0.00    -0.073 C 
ATOM      9  C   UNL     1       2.286  -2.346  17.225  1.00  0.00    -0.064 C 
ATOM     10  C   UNL     1       0.834  -2.009  17.503  1.00  0.00     0.036 C 
ATOM     11  C   UNL     1       0.464  -2.298  18.956  1.00  0.00     0.035 C 
ATOM     12  C   UNL     1       2.474  -0.505  15.523  1.00  0.00     0.039 C 
ENDROOT
BRANCH   5  13
ATOM     13  C   UNL     1       4.726  -2.990  19.698  1.00  0.00    -0.013 C 
ATOM     14  C   UNL     1       5.197  -4.136  20.606  1.00  0.00     0.007 C 
ATOM     15  C   UNL     1       5.688  -1.792  19.789  1.00  0.00     0.007 C 
ENDBRANCH   5  13
TORSDOF 1
ENDMDL
MODEL 2
REMARK VINA RESULT:    -5.601      2.357      5.032
REMARK INTER + INTRA:          -6.256
REMARK INTER:                  -5.766
REMARK INTRA:                  -0.491
REMARK UNBOUND:                -0.328
REMARK SMILES CC1=C[C@H]2C(=C(C)CC[C@H]2C(C)C)CC1
REMARK SMILES IDX 1 1 2 2 3 3 4 4 10 5 9 6 8 7 6 8 5 9 14 10 15 11 7 12 11 13
REMARK SMILES IDX 12 14 13 15
REMARK H PARENT
REMARK Flexibility Score: inf
ROOT
ATOM      1  C   UNL     1      -0.277  -2.069  18.920  1.00  0.00     0.039 C 
ATOM      2  C   UNL     1       0.693  -1.919  17.780  1.00  0.00    -0.076 C 
ATOM      3  C   UNL     1       0.377  -1.105  16.754  1.00  0.00    -0.020 C 
ATOM      4  C   UNL     1       1.282  -0.864  15.567  1.00  0.00     0.041 C 
ATOM      5  C   UNL     1       0.618  -1.150  14.169  1.00  0.00     0.003 C 
ATOM      6  C   UNL     1       1.672  -1.184  13.013  1.00  0.00     0.009 C 
ATOM      7  C   UNL     1       3.042  -0.633  13.417  1.00  0.00     0.031 C 
ATOM      8  C   UNL     1       3.530  -1.338  14.664  1.00  0.00    -0.073 C 
ATOM      9  C   UNL     1       2.663  -1.493  15.699  1.00  0.00    -0.064 C 
ATOM     10  C   UNL     1       3.106  -2.021  17.050  1.00  0.00     0.036 C 
ATOM     11  C   UNL     1       1.964  -2.735  17.769  1.00  0.00     0.035 C 
ATOM     12  C   UNL     1       4.955  -1.834  14.721  1.00  0.00     0.039 C 
ENDROOT
BRANCH   5  13
ATOM     13  C   UNL     1      -0.329  -2.397  14.051  1.00  0.00    -0.013 C 
ATOM     14  C   UNL     1      -1.533  -2.183  13.121  1.00  0.00     0.007 C 
ATOM     15  C   UNL     1       0.403  -3.705  13.704  1.00  0.00     0.007 C 
ENDBRANCH   5  13
TORSDOF 1
ENDMDL
MODEL 3
REMARK VINA RESULT:    -5.519      1.402      5.063
REMARK INTER + INTRA:          -6.170
REMARK INTER:                  -5.866
REMARK INTRA:                  -0.304
REMARK UNBOUND:                -0.328
REMARK SMILES CC1=C[C@H]2C(=C(C)CC[C@H]2C(C)C)CC1
REMARK SMILES IDX 1 1 2 2 3 3 4 4 10 5 9 6 8 7 6 8 5 9 14 10 15 11 7 12 11 13
REMARK SMILES IDX 12 14 13 15
REMARK H PARENT
REMARK Flexibility Score: inf
ROOT
ATOM      1  C   UNL     1       2.226  -1.190  15.939  1.00  0.00     0.039 C 
ATOM      2  C   UNL     1       2.343  -2.106  17.126  1.00  0.00    -0.076 C 
ATOM      3  C   UNL     1       1.269  -2.824  17.508  1.00  0.00    -0.020 C 
ATOM      4  C   UNL     1       1.277  -3.789  18.672  1.00  0.00     0.041 C 
ATOM      5  C   UNL     1       0.166  -3.517  19.754  1.00  0.00     0.003 C 
ATOM      6  C   UNL     1       0.410  -4.335  21.065  1.00  0.00     0.009 C 
ATOM      7  C   UNL     1       1.463  -5.436  20.914  1.00  0.00     0.031 C 
ATOM      8  C   UNL     1       2.741  -4.848  20.354  1.00  0.00    -0.073 C 
ATOM      9  C   UNL     1       2.652  -4.009  19.289  1.00  0.00    -0.064 C 
ATOM     10  C   UNL     1       3.879  -3.515  18.547  1.00  0.00     0.036 C 
ATOM     11  C   UNL     1       3.633  -2.149  17.912  1.00  0.00     0.035 C 
ATOM     12  C   UNL     1       4.061  -5.217  20.985  1.00  0.00     0.039 C 
ENDROOT
BRANCH   5  13
ATOM     13  C   UNL     1      -0.150  -2.024  20.119  1.00  0.00    -0.013 C 
ATOM     14  C   UNL     1      -1.390  -1.455  19.413  1.00  0.00     0.007 C 
ATOM     15  C   UNL     1      -0.211  -1.752  21.632  1.00  0.00     0.007 C 
ENDBRANCH   5  13
TORSDOF 1
ENDMDL
MODEL 4
REMARK VINA RESULT:    -5.516      1.425      3.171
REMARK INTER + INTRA:          -6.166
REMARK INTER:                  -5.661
REMARK INTRA:                  -0.505
REMARK UNBOUND:                -0.328
REMARK SMILES CC1=C[C@H]2C(=C(C)CC[C@H]2C(C)C)CC1
REMARK SMILES IDX 1 1 2 2 3 3 4 4 10 5 9 6 8 7 6 8 5 9 14 10 15 11 7 12 11 13
REMARK SMILES IDX 12 14 13 15
REMARK H PARENT
REMARK Flexibility Score: inf
ROOT
ATOM      1  C   UNL     1       5.166  -6.002  22.026  1.00  0.00     0.039 C 
ATOM      2  C   UNL     1       4.354  -5.124  21.114  1.00  0.00    -0.076 C 
ATOM      3  C   UNL     1       4.634  -5.113  19.796  1.00  0.00    -0.020 C 
ATOM      4  C   UNL     1       3.872  -4.285  18.785  1.00  0.00     0.041 C 
ATOM      5  C   UNL     1       4.769  -3.329  17.914  1.00  0.00     0.003 C 
ATOM      6  C   UNL     1       3.916  -2.289  17.115  1.00  0.00     0.009 C 
ATOM      7  C   UNL     1       2.419  -2.610  17.096  1.00  0.00     0.031 C 
ATOM      8  C   UNL     1       1.919  -2.801  18.512  1.00  0.00    -0.073 C 
ATOM      9  C   UNL     1       2.647  -3.582  19.353  1.00  0.00    -0.064 C 
ATOM     10  C   UNL     1       2.140  -3.979  20.726  1.00  0.00     0.036 C 
ATOM     11  C   UNL     1       3.293  -4.220  21.697  1.00  0.00     0.035 C 
ATOM     12  C   UNL     1       0.634  -2.134  18.937  1.00  0.00     0.039 C 
ENDROOT
BRANCH   5  13
ATOM     13  C   UNL     1       5.960  -2.594  18.624  1.00  0.00    -0.013 C 
ATOM     14  C   UNL     1       7.128  -2.245  17.690  1.00  0.00     0.007 C 
ATOM     15  C   UNL     1       5.533  -1.365  19.445  1.00  0.00     0.007 C 
ENDBRANCH   5  13
TORSDOF 1
ENDMDL
MODEL 5
REMARK VINA RESULT:    -5.483      1.671      4.497
REMARK INTER + INTRA:          -6.131
REMARK INTER:                  -5.704
REMARK INTRA:                  -0.427
REMARK UNBOUND:                -0.328
REMARK SMILES CC1=C[C@H]2C(=C(C)CC[C@H]2C(C)C)CC1
REMARK SMILES IDX 1 1 2 2 3 3 4 4 10 5 9 6 8 7 6 8 5 9 14 10 15 11 7 12 11 13
REMARK SMILES IDX 12 14 13 15
REMARK H PARENT
REMARK Flexibility Score: inf
ROOT
ATOM      1  C   UNL     1       8.914  -1.827  17.170  1.00  0.00     0.039 C 
ATOM      2  C   UNL     1       7.431  -2.050  17.046  1.00  0.00    -0.076 C 
ATOM      3  C   UNL     1       6.630  -1.712  18.075  1.00  0.00    -0.020 C 
ATOM      4  C   UNL     1       5.127  -1.873  18.053  1.00  0.00     0.041 C 
ATOM      5  C   UNL     1       4.542  -2.717  19.247  1.00  0.00     0.003 C 
ATOM      6  C   UNL     1       3.046  -3.109  19.013  1.00  0.00     0.009 C 
ATOM      7  C   UNL     1       2.386  -2.346  17.861  1.00  0.00     0.031 C 
ATOM      8  C   UNL     1       3.223  -2.488  16.607  1.00  0.00    -0.073 C 
ATOM      9  C   UNL     1       4.565  -2.301  16.704  1.00  0.00    -0.064 C 
ATOM     10  C   UNL     1       5.462  -2.243  15.482  1.00  0.00     0.036 C 
ATOM     11  C   UNL     1       6.877  -2.714  15.807  1.00  0.00     0.035 C 
ATOM     12  C   UNL     1       2.544  -2.818  15.301  1.00  0.00     0.039 C 
ENDROOT
BRANCH   5  13
ATOM     13  C   UNL     1       5.348  -3.981  19.712  1.00  0.00    -0.013 C 
ATOM     14  C   UNL     1       5.733  -3.966  21.199  1.00  0.00     0.007 C 
ATOM     15  C   UNL     1       4.685  -5.316  19.334  1.00  0.00     0.007 C 
ENDBRANCH   5  13
TORSDOF 1
ENDMDL
MODEL 6
REMARK VINA RESULT:    -5.266      2.113      5.584
REMARK INTER + INTRA:          -5.902
REMARK INTER:                  -5.850
REMARK INTRA:                  -0.052
REMARK UNBOUND:                -0.328
REMARK SMILES CC1=C[C@H]2C(=C(C)CC[C@H]2C(C)C)CC1
REMARK SMILES IDX 1 1 2 2 3 3 4 4 10 5 9 6 8 7 6 8 5 9 14 10 15 11 7 12 11 13
REMARK SMILES IDX 12 14 13 15
REMARK H PARENT
REMARK Flexibility Score: inf
ROOT
ATOM      1  C   UNL     1       3.463  -2.204  11.961  1.00  0.00     0.039 C 
ATOM      2  C   UNL     1       3.399  -2.207  13.464  1.00  0.00    -0.076 C 
ATOM      3  C   UNL     1       2.363  -2.816  14.074  1.00  0.00    -0.020 C 
ATOM      4  C   UNL     1       2.205  -2.897  15.575  1.00  0.00     0.041 C 
ATOM      5  C   UNL     1       0.837  -2.341  16.120  1.00  0.00     0.003 C 
ATOM      6  C   UNL     1       0.851  -2.165  17.675  1.00  0.00     0.009 C 
ATOM      7  C   UNL     1       2.040  -2.849  18.357  1.00  0.00     0.031 C 
ATOM      8  C   UNL     1       3.331  -2.394  17.713  1.00  0.00    -0.073 C 
ATOM      9  C   UNL     1       3.403  -2.373  16.356  1.00  0.00    -0.064 C 
ATOM     10  C   UNL     1       4.702  -2.108  15.621  1.00  0.00     0.036 C 
ATOM     11  C   UNL     1       4.450  -1.468  14.258  1.00  0.00     0.035 C 
ATOM     12  C   UNL     1       4.491  -1.990  18.590  1.00  0.00     0.039 C 
ENDROOT
BRANCH   5  13
ATOM     13  C   UNL     1       0.256  -1.045  15.452  1.00  0.00    -0.013 C 
ATOM     14  C   UNL     1      -0.445  -1.294  14.108  1.00  0.00     0.007 C 
ATOM     15  C   UNL     1      -0.636  -0.209  16.385  1.00  0.00     0.007 C 
ENDBRANCH   5  13
TORSDOF 1
ENDMDL
MODEL 7
REMARK VINA RESULT:    -5.263      1.529      4.434
REMARK INTER + INTRA:          -5.898
REMARK INTER:                  -5.500
REMARK INTRA:                  -0.398
REMARK UNBOUND:                -0.328
REMARK SMILES CC1=C[C@H]2C(=C(C)CC[C@H]2C(C)C)CC1
REMARK SMILES IDX 1 1 2 2 3 3 4 4 10 5 9 6 8 7 6 8 5 9 14 10 15 11 7 12 11 13
REMARK SMILES IDX 12 14 13 15
REMARK H PARENT
REMARK Flexibility Score: inf
ROOT
ATOM      1  C   UNL     1       1.904  -2.884  15.952  1.00  0.00     0.039 C 
ATOM      2  C   UNL     1       2.742  -3.005  17.195  1.00  0.00    -0.076 C 
ATOM      3  C   UNL     1       2.729  -4.163  17.884  1.00  0.00    -0.020 C 
ATOM      4  C   UNL     1       3.544  -4.404  19.134  1.00  0.00     0.041 C 
ATOM      5  C   UNL     1       2.706  -4.870  20.382  1.00  0.00     0.003 C 
ATOM      6  C   UNL     1       3.536  -4.806  21.706  1.00  0.00     0.009 C 
ATOM      7  C   UNL     1       5.038  -4.615  21.478  1.00  0.00     0.031 C 
ATOM      8  C   UNL     1       5.273  -3.412  20.591  1.00  0.00    -0.073 C 
ATOM      9  C   UNL     1       4.516  -3.280  19.469  1.00  0.00    -0.064 C 
ATOM     10  C   UNL     1       4.796  -2.214  18.428  1.00  0.00     0.036 C 
ATOM     11  C   UNL     1       3.522  -1.809  17.690  1.00  0.00     0.035 C 
ATOM     12  C   UNL     1       6.336  -2.410  20.971  1.00  0.00     0.039 C 
ENDROOT
BRANCH   5  13
ATOM     13  C   UNL     1       1.303  -4.204  20.611  1.00  0.00    -0.013 C 
ATOM     14  C   UNL     1       0.120  -5.176  20.488  1.00  0.00     0.007 C 
ATOM     15  C   UNL     1       1.205  -3.389  21.912  1.00  0.00     0.007 C 
ENDBRANCH   5  13
TORSDOF 1
ENDMDL
MODEL 8
REMARK VINA RESULT:    -5.221      1.481      5.253
REMARK INTER + INTRA:          -5.854
REMARK INTER:                  -5.542
REMARK INTRA:                  -0.312
REMARK UNBOUND:                -0.328
REMARK SMILES CC1=C[C@H]2C(=C(C)CC[C@H]2C(C)C)CC1
REMARK SMILES IDX 1 1 2 2 3 3 4 4 10 5 9 6 8 7 6 8 5 9 14 10 15 11 7 12 11 13
REMARK SMILES IDX 12 14 13 15
REMARK H PARENT
REMARK Flexibility Score: inf
ROOT
ATOM      1  C   UNL     1       7.385  -1.919  17.674  1.00  0.00     0.039 C 
ATOM      2  C   UNL     1       6.324  -2.420  18.615  1.00  0.00    -0.076 C 
ATOM      3  C   UNL     1       5.513  -3.420  18.217  1.00  0.00    -0.020 C 
ATOM      4  C   UNL     1       4.427  -4.013  19.085  1.00  0.00     0.041 C 
ATOM      5  C   UNL     1       2.993  -4.002  18.437  1.00  0.00     0.003 C 
ATOM      6  C   UNL     1       1.874  -4.337  19.478  1.00  0.00     0.009 C 
ATOM      7  C   UNL     1       2.413  -4.901  20.796  1.00  0.00     0.031 C 
ATOM      8  C   UNL     1       3.466  -3.971  21.358  1.00  0.00    -0.073 C 
ATOM      9  C   UNL     1       4.425  -3.500  20.519  1.00  0.00    -0.064 C 
ATOM     10  C   UNL     1       5.620  -2.713  21.020  1.00  0.00     0.036 C 
ATOM     11  C   UNL     1       6.138  -1.748  19.956  1.00  0.00     0.035 C 
ATOM     12  C   UNL     1       3.424  -3.608  22.822  1.00  0.00     0.039 C 
ENDROOT
BRANCH   5  13
ATOM     13  C   UNL     1       2.574  -2.737  17.607  1.00  0.00    -0.013 C 
ATOM     14  C   UNL     1       2.699  -2.916  16.086  1.00  0.00     0.007 C 
ATOM     15  C   UNL     1       1.190  -2.178  17.978  1.00  0.00     0.007 C 
ENDBRANCH   5  13
TORSDOF 1
ENDMDL
MODEL 9
REMARK VINA RESULT:    -5.135      1.400      5.361
REMARK INTER + INTRA:          -5.763
REMARK INTER:                  -5.470
REMARK INTRA:                  -0.293
REMARK UNBOUND:                -0.328
REMARK SMILES CC1=C[C@H]2C(=C(C)CC[C@H]2C(C)C)CC1
REMARK SMILES IDX 1 1 2 2 3 3 4 4 10 5 9 6 8 7 6 8 5 9 14 10 15 11 7 12 11 13
REMARK SMILES IDX 12 14 13 15
REMARK H PARENT
REMARK Flexibility Score: inf
ROOT
ATOM      1  C   UNL     1       5.810  -2.513  17.993  1.00  0.00     0.039 C 
ATOM      2  C   UNL     1       4.782  -3.175  18.870  1.00  0.00    -0.076 C 
ATOM      3  C   UNL     1       3.726  -3.784  18.296  1.00  0.00    -0.020 C 
ATOM      4  C   UNL     1       2.644  -4.496  19.077  1.00  0.00     0.041 C 
ATOM      5  C   UNL     1       1.183  -3.995  18.776  1.00  0.00     0.003 C 
ATOM      6  C   UNL     1       0.149  -4.538  19.817  1.00  0.00     0.009 C 
ATOM      7  C   UNL     1       0.699  -5.665  20.696  1.00  0.00     0.031 C 
ATOM      8  C   UNL     1       1.993  -5.223  21.344  1.00  0.00    -0.073 C 
ATOM      9  C   UNL     1       2.927  -4.613  20.569  1.00  0.00    -0.064 C 
ATOM     10  C   UNL     1       4.320  -4.298  21.081  1.00  0.00     0.036 C 
ATOM     11  C   UNL     1       4.912  -3.082  20.372  1.00  0.00     0.035 C 
ATOM     12  C   UNL     1       2.206  -5.481  22.816  1.00  0.00     0.039 C 
ENDROOT
BRANCH   5  13
ATOM     13  C   UNL     1       0.965  -2.453  18.577  1.00  0.00    -0.013 C 
ATOM     14  C   UNL     1       0.923  -2.011  17.106  1.00  0.00     0.007 C 
ATOM     15  C   UNL     1      -0.239  -1.889  19.350  1.00  0.00     0.007 C 
ENDBRANCH   5  13
TORSDOF 1
ENDMDL
