MODEL 1
REMARK VINA RESULT:    16.952      0.000      0.000
REMARK INTER + INTRA:          16.952
REMARK INTER:                  16.952
REMARK INTRA:                   0.000
REMARK UNBOUND:                 0.000
REMARK SMILES C=C1CCC[C@]2(C)CC(=O)C(=C(C)C)C[C@H]12
REMARK SMILES IDX 13 1 12 2 11 3 15 4 16 5 2 6 1 7 3 8 4 9 5 10 6 11 8 12 9 13
REMARK SMILES IDX 10 14 7 15 14 16
REMARK H PARENT
REMARK Flexibility Score: inf
ROOT
ATOM      1  C   UNL     1      31.184  24.087  33.345  1.00  0.00     0.039 C 
ATOM      2  C   UNL     1      30.441  23.334  32.265  1.00  0.00    -0.070 C 
ATOM      3  C   UNL     1      30.969  23.178  31.017  1.00  0.00    -0.006 C 
ATOM      4  C   UNL     1      30.224  22.457  29.912  1.00  0.00     0.047 C 
ATOM      5  C   UNL     1      30.490  23.046  28.502  1.00  0.00     0.025 C 
ATOM      6  C   UNL     1      29.897  22.110  27.462  1.00  0.00    -0.073 C 
ATOM      7  C   UNL     1      28.691  22.360  26.928  1.00  0.00     0.008 C 
ATOM      8  C   UNL     1      30.615  20.812  27.158  1.00  0.00     0.031 C 
ATOM      9  C   UNL     1      32.119  21.034  26.950  1.00  0.00     0.005 C 
ATOM     10  C   UNL     1      32.744  21.931  28.033  1.00  0.00     0.008 C 
ATOM     11  C   UNL     1      32.002  23.292  28.194  1.00  0.00    -0.018 C 
ATOM     12  C   UNL     1      32.655  24.124  29.329  1.00  0.00     0.088 C 
ATOM     13  C   UNL     1      32.356  23.579  30.688  1.00  0.00     0.159 C 
ATOM     14  O   UNL     1      33.287  23.468  31.530  1.00  0.00    -0.295 OA
ATOM     15  C   UNL     1      32.141  24.124  26.892  1.00  0.00     0.012 C 
ATOM     16  C   UNL     1      29.074  22.795  32.613  1.00  0.00     0.039 C 
ENDROOT
TORSDOF 0
ENDMDL
