MODEL 1
REMARK VINA RESULT:    -3.977      0.000      0.000
REMARK INTER + INTRA:          -5.614
REMARK INTER:                  -5.372
REMARK INTRA:                  -0.242
REMARK UNBOUND:                -0.242
REMARK SMILES CCCCCCCC(=O)[O-]
REMARK SMILES IDX 5 1 6 2 7 3 8 4 9 5 10 6 4 7 3 8 2 9 1 10
REMARK H PARENT
REMARK Flexibility Score: inf
ROOT
ATOM      1  C   UNL     1      12.998   3.964  -4.734  1.00  0.00     0.000 C 
ENDROOT
BRANCH   1   2
ATOM      2  C   UNL     1      11.551   4.038  -5.247  1.00  0.00     0.006 C 
BRANCH   2   3
ATOM      3  C   UNL     1      11.355   3.299  -6.578  1.00  0.00     0.053 C 
BRANCH   3   4
ATOM      4  C   UNL     1      12.195   3.920  -7.648  1.00  0.00     0.041 C 
ATOM      5  O   UNL     1      13.047   3.228  -8.265  1.00  0.00    -0.550 OA
ATOM      6  O   UNL     1      12.004   5.250  -7.998  1.00  0.00    -0.550 OA
ENDBRANCH   3   4
ENDBRANCH   2   3
ENDBRANCH   1   2
BRANCH   1   7
ATOM      7  C   UNL     1      13.125   4.390  -3.261  1.00  0.00     0.000 C 
BRANCH   7   8
ATOM      8  C   UNL     1      12.128   5.495  -2.878  1.00  0.00    -0.000 C 
BRANCH   8   9
ATOM      9  C   UNL     1      12.273   5.944  -1.416  1.00  0.00    -0.003 C 
ATOM     10  C   UNL     1      13.011   7.276  -1.322  1.00  0.00     0.004 C 
ENDBRANCH   8   9
ENDBRANCH   7   8
ENDBRANCH   1   7
TORSDOF 6
ENDMDL
MODEL 2
REMARK VINA RESULT:    -3.737     15.786     17.374
REMARK INTER + INTRA:          -5.290
REMARK INTER:                  -5.008
REMARK INTRA:                  -0.282
REMARK UNBOUND:                -0.242
REMARK SMILES CCCCCCCC(=O)[O-]
REMARK SMILES IDX 5 1 6 2 7 3 8 4 9 5 10 6 4 7 3 8 2 9 1 10
REMARK H PARENT
REMARK Flexibility Score: inf
ROOT
ATOM      1  C   UNL     1       2.068   3.743   9.332  1.00  0.00     0.000 C 
ENDROOT
BRANCH   1   2
ATOM      2  C   UNL     1       3.420   3.394   8.689  1.00  0.00     0.006 C 
BRANCH   2   3
ATOM      3  C   UNL     1       3.687   1.883   8.654  1.00  0.00     0.053 C 
BRANCH   3   4
ATOM      4  C   UNL     1       4.402   1.509   7.394  1.00  0.00     0.041 C 
ATOM      5  O   UNL     1       3.766   1.408   6.312  1.00  0.00    -0.550 OA
ATOM      6  O   UNL     1       5.777   1.320   7.405  1.00  0.00    -0.550 OA
ENDBRANCH   3   4
ENDBRANCH   2   3
ENDBRANCH   1   2
BRANCH   1   7
ATOM      7  C   UNL     1       1.348   2.507   9.899  1.00  0.00     0.000 C 
BRANCH   7   8
ATOM      8  C   UNL     1      -0.181   2.603   9.767  1.00  0.00    -0.000 C 
BRANCH   8   9
ATOM      9  C   UNL     1      -0.679   4.053   9.687  1.00  0.00    -0.003 C 
ATOM     10  C   UNL     1      -1.856   4.177   8.724  1.00  0.00     0.004 C 
ENDBRANCH   8   9
ENDBRANCH   7   8
ENDBRANCH   1   7
TORSDOF 6
ENDMDL
MODEL 3
REMARK VINA RESULT:    -3.685     13.984     14.775
REMARK INTER + INTRA:          -5.220
REMARK INTER:                  -5.052
REMARK INTRA:                  -0.168
REMARK UNBOUND:                -0.242
REMARK SMILES CCCCCCCC(=O)[O-]
REMARK SMILES IDX 5 1 6 2 7 3 8 4 9 5 10 6 4 7 3 8 2 9 1 10
REMARK H PARENT
REMARK Flexibility Score: inf
ROOT
ATOM      1  C   UNL     1       7.375   3.314   9.538  1.00  0.00     0.000 C 
ENDROOT
BRANCH   1   2
ATOM      2  C   UNL     1       6.024   3.173   8.817  1.00  0.00     0.006 C 
BRANCH   2   3
ATOM      3  C   UNL     1       5.595   1.709   8.645  1.00  0.00     0.053 C 
BRANCH   3   4
ATOM      4  C   UNL     1       4.887   1.523   7.340  1.00  0.00     0.041 C 
ATOM      5  O   UNL     1       5.332   0.708   6.489  1.00  0.00    -0.550 OA
ATOM      6  O   UNL     1       3.711   2.214   7.083  1.00  0.00    -0.550 OA
ENDBRANCH   3   4
ENDBRANCH   2   3
ENDBRANCH   1   2
BRANCH   1   7
ATOM      7  C   UNL     1       7.925   4.751   9.484  1.00  0.00     0.000 C 
BRANCH   7   8
ATOM      8  C   UNL     1       9.452   4.804   9.647  1.00  0.00    -0.000 C 
BRANCH   8   9
ATOM      9  C   UNL     1      10.055   6.129   9.156  1.00  0.00    -0.003 C 
ATOM     10  C   UNL     1       9.083   6.866   8.239  1.00  0.00     0.004 C 
ENDBRANCH   8   9
ENDBRANCH   7   8
ENDBRANCH   1   7
TORSDOF 6
ENDMDL
MODEL 4
REMARK VINA RESULT:    -3.257     15.204     16.766
REMARK INTER + INTRA:          -4.641
REMARK INTER:                  -4.443
REMARK INTRA:                  -0.198
REMARK UNBOUND:                -0.242
REMARK SMILES CCCCCCCC(=O)[O-]
REMARK SMILES IDX 5 1 6 2 7 3 8 4 9 5 10 6 4 7 3 8 2 9 1 10
REMARK H PARENT
REMARK Flexibility Score: inf
ROOT
ATOM      1  C   UNL     1       2.962   3.931   9.166  1.00  0.00     0.000 C 
ENDROOT
BRANCH   1   2
ATOM      2  C   UNL     1       3.484   2.498   8.974  1.00  0.00     0.006 C 
BRANCH   2   3
ATOM      3  C   UNL     1       3.931   2.219   7.533  1.00  0.00     0.053 C 
BRANCH   3   4
ATOM      4  C   UNL     1       4.948   1.121   7.505  1.00  0.00     0.041 C 
ATOM      5  O   UNL     1       5.358   0.666   6.405  1.00  0.00    -0.550 OA
ATOM      6  O   UNL     1       5.478   0.635   8.693  1.00  0.00    -0.550 OA
ENDBRANCH   3   4
ENDBRANCH   2   3
ENDBRANCH   1   2
BRANCH   1   7
ATOM      7  C   UNL     1       1.469   3.970   9.538  1.00  0.00     0.000 C 
BRANCH   7   8
ATOM      8  C   UNL     1       1.002   5.371   9.963  1.00  0.00    -0.000 C 
BRANCH   8   9
ATOM      9  C   UNL     1       2.167   6.360  10.125  1.00  0.00    -0.003 C 
ATOM     10  C   UNL     1       1.699   7.797   9.917  1.00  0.00     0.004 C 
ENDBRANCH   8   9
ENDBRANCH   7   8
ENDBRANCH   1   7
TORSDOF 6
ENDMDL
MODEL 5
REMARK VINA RESULT:    -2.983     14.787     15.556
REMARK INTER + INTRA:          -4.272
REMARK INTER:                  -4.004
REMARK INTRA:                  -0.268
REMARK UNBOUND:                -0.242
REMARK SMILES CCCCCCCC(=O)[O-]
REMARK SMILES IDX 5 1 6 2 7 3 8 4 9 5 10 6 4 7 3 8 2 9 1 10
REMARK H PARENT
REMARK Flexibility Score: inf
ROOT
ATOM      1  C   UNL     1       7.025  -5.132   4.024  1.00  0.00     0.000 C 
ENDROOT
BRANCH   1   2
ATOM      2  C   UNL     1       8.178  -6.125   4.247  1.00  0.00     0.006 C 
BRANCH   2   3
ATOM      3  C   UNL     1       8.690  -6.124   5.694  1.00  0.00     0.053 C 
BRANCH   3   4
ATOM      4  C   UNL     1      10.044  -5.492   5.767  1.00  0.00     0.041 C 
ATOM      5  O   UNL     1      10.317  -4.496   5.046  1.00  0.00    -0.550 OA
ATOM      6  O   UNL     1      10.986  -5.971   6.666  1.00  0.00    -0.550 OA
ENDBRANCH   3   4
ENDBRANCH   2   3
ENDBRANCH   1   2
BRANCH   1   7
ATOM      7  C   UNL     1       6.283  -5.376   2.699  1.00  0.00     0.000 C 
BRANCH   7   8
ATOM      8  C   UNL     1       4.951  -6.118   2.896  1.00  0.00    -0.000 C 
BRANCH   8   9
ATOM      9  C   UNL     1       4.286  -5.794   4.241  1.00  0.00    -0.003 C 
ATOM     10  C   UNL     1       2.943  -5.098   4.036  1.00  0.00     0.004 C 
ENDBRANCH   8   9
ENDBRANCH   7   8
ENDBRANCH   1   7
TORSDOF 6
ENDMDL
MODEL 6
REMARK VINA RESULT:    -2.979     14.203     15.878
REMARK INTER + INTRA:          -4.266
REMARK INTER:                  -4.078
REMARK INTRA:                  -0.187
REMARK UNBOUND:                -0.242
REMARK SMILES CCCCCCCC(=O)[O-]
REMARK SMILES IDX 5 1 6 2 7 3 8 4 9 5 10 6 4 7 3 8 2 9 1 10
REMARK H PARENT
REMARK Flexibility Score: inf
ROOT
ATOM      1  C   UNL     1       6.739  10.809   8.013  1.00  0.00     0.000 C 
ENDROOT
BRANCH   1   2
ATOM      2  C   UNL     1       5.985  12.142   8.150  1.00  0.00     0.006 C 
BRANCH   2   3
ATOM      3  C   UNL     1       4.460  11.967   8.105  1.00  0.00     0.053 C 
BRANCH   3   4
ATOM      4  C   UNL     1       3.953  12.174   6.713  1.00  0.00     0.041 C 
ATOM      5  O   UNL     1       3.514  13.301   6.361  1.00  0.00    -0.550 OA
ATOM      6  O   UNL     1       4.009  11.137   5.792  1.00  0.00    -0.550 OA
ENDBRANCH   3   4
ENDBRANCH   2   3
ENDBRANCH   1   2
BRANCH   1   7
ATOM      7  C   UNL     1       7.472  10.410   9.306  1.00  0.00     0.000 C 
BRANCH   7   8
ATOM      8  C   UNL     1       7.871   8.926   9.324  1.00  0.00    -0.000 C 
BRANCH   8   9
ATOM      9  C   UNL     1       8.814   8.552   8.171  1.00  0.00    -0.003 C 
ATOM     10  C   UNL     1       9.098   7.053   8.158  1.00  0.00     0.004 C 
ENDBRANCH   8   9
ENDBRANCH   7   8
ENDBRANCH   1   7
TORSDOF 6
ENDMDL
MODEL 7
REMARK VINA RESULT:    -2.907     13.799     15.078
REMARK INTER + INTRA:          -4.169
REMARK INTER:                  -3.902
REMARK INTRA:                  -0.267
REMARK UNBOUND:                -0.242
REMARK SMILES CCCCCCCC(=O)[O-]
REMARK SMILES IDX 5 1 6 2 7 3 8 4 9 5 10 6 4 7 3 8 2 9 1 10
REMARK H PARENT
REMARK Flexibility Score: inf
ROOT
ATOM      1  C   UNL     1       8.880   8.750   8.151  1.00  0.00     0.000 C 
ENDROOT
BRANCH   1   2
ATOM      2  C   UNL     1       9.360   7.326   7.825  1.00  0.00     0.006 C 
BRANCH   2   3
ATOM      3  C   UNL     1       8.976   6.309   8.908  1.00  0.00     0.053 C 
BRANCH   3   4
ATOM      4  C   UNL     1      10.143   5.431   9.235  1.00  0.00     0.041 C 
ATOM      5  O   UNL     1       9.965   4.346   9.849  1.00  0.00    -0.550 OA
ATOM      6  O   UNL     1      11.419   5.788   8.821  1.00  0.00    -0.550 OA
ENDBRANCH   3   4
ENDBRANCH   2   3
ENDBRANCH   1   2
BRANCH   1   7
ATOM      7  C   UNL     1       7.969   8.796   9.389  1.00  0.00     0.000 C 
BRANCH   7   8
ATOM      8  C   UNL     1       7.223  10.134   9.523  1.00  0.00    -0.000 C 
BRANCH   8   9
ATOM      9  C   UNL     1       6.920  10.782   8.164  1.00  0.00    -0.003 C 
ATOM     10  C   UNL     1       6.169  12.099   8.340  1.00  0.00     0.004 C 
ENDBRANCH   8   9
ENDBRANCH   7   8
ENDBRANCH   1   7
TORSDOF 6
ENDMDL
MODEL 8
REMARK VINA RESULT:    -2.907     16.703     18.376
REMARK INTER + INTRA:          -4.168
REMARK INTER:                  -3.938
REMARK INTRA:                  -0.230
REMARK UNBOUND:                -0.242
REMARK SMILES CCCCCCCC(=O)[O-]
REMARK SMILES IDX 5 1 6 2 7 3 8 4 9 5 10 6 4 7 3 8 2 9 1 10
REMARK H PARENT
REMARK Flexibility Score: inf
ROOT
ATOM      1  C   UNL     1       2.213   3.448   9.255  1.00  0.00     0.000 C 
ENDROOT
BRANCH   1   2
ATOM      2  C   UNL     1       0.943   4.132   9.788  1.00  0.00     0.006 C 
BRANCH   2   3
ATOM      3  C   UNL     1      -0.335   3.349   9.455  1.00  0.00     0.053 C 
BRANCH   3   4
ATOM      4  C   UNL     1      -1.432   4.286   9.058  1.00  0.00     0.041 C 
ATOM      5  O   UNL     1      -2.539   3.834   8.666  1.00  0.00    -0.550 OA
ATOM      6  O   UNL     1      -1.247   5.658   9.166  1.00  0.00    -0.550 OA
ENDBRANCH   3   4
ENDBRANCH   2   3
ENDBRANCH   1   2
BRANCH   1   7
ATOM      7  C   UNL     1       2.375   2.012   9.782  1.00  0.00     0.000 C 
BRANCH   7   8
ATOM      8  C   UNL     1       3.696   1.365   9.334  1.00  0.00    -0.000 C 
BRANCH   8   9
ATOM      9  C   UNL     1       4.082   1.739   7.896  1.00  0.00    -0.003 C 
ATOM     10  C   UNL     1       5.597   1.815   7.736  1.00  0.00     0.004 C 
ENDBRANCH   8   9
ENDBRANCH   7   8
ENDBRANCH   1   7
TORSDOF 6
ENDMDL
MODEL 9
REMARK VINA RESULT:    -2.813     14.320     15.768
REMARK INTER + INTRA:          -4.042
REMARK INTER:                  -3.812
REMARK INTRA:                  -0.230
REMARK UNBOUND:                -0.242
REMARK SMILES CCCCCCCC(=O)[O-]
REMARK SMILES IDX 5 1 6 2 7 3 8 4 9 5 10 6 4 7 3 8 2 9 1 10
REMARK H PARENT
REMARK Flexibility Score: inf
ROOT
ATOM      1  C   UNL     1       6.779  11.145   9.422  1.00  0.00     0.000 C 
ENDROOT
BRANCH   1   2
ATOM      2  C   UNL     1       7.525   9.806   9.547  1.00  0.00     0.006 C 
BRANCH   2   3
ATOM      3  C   UNL     1       8.091   9.317   8.207  1.00  0.00     0.053 C 
BRANCH   3   4
ATOM      4  C   UNL     1       9.195   8.334   8.435  1.00  0.00     0.041 C 
ATOM      5  O   UNL     1       9.174   7.214   7.860  1.00  0.00    -0.550 OA
ATOM      6  O   UNL     1      10.271   8.673   9.244  1.00  0.00    -0.550 OA
ENDBRANCH   3   4
ENDBRANCH   2   3
ENDBRANCH   1   2
BRANCH   1   7
ATOM      7  C   UNL     1       6.290  11.417   7.989  1.00  0.00     0.000 C 
BRANCH   7   8
ATOM      8  C   UNL     1       5.244  12.542   7.926  1.00  0.00    -0.000 C 
BRANCH   8   9
ATOM      9  C   UNL     1       3.895  12.066   7.366  1.00  0.00    -0.003 C 
ATOM     10  C   UNL     1       4.089  11.234   6.102  1.00  0.00     0.004 C 
ENDBRANCH   8   9
ENDBRANCH   7   8
ENDBRANCH   1   7
TORSDOF 6
ENDMDL
