MODEL 1
REMARK VINA RESULT:    -4.854      0.000      0.000
REMARK INTER + INTRA:         -10.440
REMARK INTER:                  -8.543
REMARK INTRA:                  -1.898
REMARK UNBOUND:                -1.898
REMARK SMILES CCCCCCC=CCCCCCCCC(=O)[O-]
REMARK SMILES IDX 10 1 11 2 12 3 13 4 14 5 15 6 16 7 17 8 18 9 9 10 8 11 7 12
REMARK SMILES IDX 6 13 5 14 4 15 3 16 2 17 1 18
REMARK H PARENT
REMARK Flexibility Score: inf
ROOT
ATOM      1  C   UNL     1      11.987  46.475  29.252  1.00  0.00     0.004 C 
ENDROOT
BRANCH   1   2
ATOM      2  C   UNL     1      11.434  46.085  30.635  1.00  0.00     0.000 C 
BRANCH   2   3
ATOM      3  C   UNL     1      10.180  46.882  31.025  1.00  0.00     0.000 C 
BRANCH   3   4
ATOM      4  C   UNL     1       9.063  46.684  29.993  1.00  0.00     0.000 C 
BRANCH   4   5
ATOM      5  C   UNL     1       8.614  48.029  29.403  1.00  0.00     0.006 C 
BRANCH   5   6
ATOM      6  C   UNL     1       9.191  49.224  30.174  1.00  0.00     0.053 C 
BRANCH   6   7
ATOM      7  C   UNL     1       8.513  50.506  29.802  1.00  0.00     0.041 C 
ATOM      8  O   UNL     1       8.231  50.747  28.599  1.00  0.00    -0.550 OA
ATOM      9  O   UNL     1       8.158  51.418  30.788  1.00  0.00    -0.550 OA
ENDBRANCH   6   7
ENDBRANCH   5   6
ENDBRANCH   4   5
ENDBRANCH   3   4
ENDBRANCH   2   3
ENDBRANCH   1   2
BRANCH   1  10
ATOM     10  C   UNL     1      12.672  47.852  29.210  1.00  0.00     0.027 C 
BRANCH  10  11
ATOM     11  C   UNL     1      13.447  48.068  27.932  1.00  0.00    -0.031 C 
ATOM     12  C   UNL     1      14.738  47.736  27.752  1.00  0.00    -0.031 C 
BRANCH  12  13
ATOM     13  C   UNL     1      15.640  47.187  28.827  1.00  0.00     0.027 C 
BRANCH  13  14
ATOM     14  C   UNL     1      15.688  45.657  28.765  1.00  0.00     0.004 C 
BRANCH  14  15
ATOM     15  C   UNL     1      15.141  45.037  30.060  1.00  0.00     0.000 C 
BRANCH  15  16
ATOM     16  C   UNL     1      14.394  43.716  29.816  1.00  0.00    -0.000 C 
BRANCH  16  17
ATOM     17  C   UNL     1      14.111  43.462  28.328  1.00  0.00    -0.003 C 
ATOM     18  C   UNL     1      12.670  43.008  28.113  1.00  0.00     0.004 C 
ENDBRANCH  16  17
ENDBRANCH  15  16
ENDBRANCH  14  15
ENDBRANCH  13  14
ENDBRANCH  12  13
ENDBRANCH  10  11
ENDBRANCH   1  10
TORSDOF 13
ENDMDL
MODEL 2
REMARK VINA RESULT:    -4.831      1.488      3.485
REMARK INTER + INTRA:         -10.400
REMARK INTER:                  -8.403
REMARK INTRA:                  -1.997
REMARK UNBOUND:                -1.898
REMARK SMILES CCCCCCC=CCCCCCCCC(=O)[O-]
REMARK SMILES IDX 10 1 11 2 12 3 13 4 14 5 15 6 16 7 17 8 18 9 9 10 8 11 7 12
REMARK SMILES IDX 6 13 5 14 4 15 3 16 2 17 1 18
REMARK H PARENT
REMARK Flexibility Score: inf
ROOT
ATOM      1  C   UNL     1      10.375  44.841  31.767  1.00  0.00     0.004 C 
ENDROOT
BRANCH   1   2
ATOM      2  C   UNL     1       9.057  45.574  31.456  1.00  0.00     0.000 C 
BRANCH   2   3
ATOM      3  C   UNL     1       9.263  47.059  31.118  1.00  0.00     0.000 C 
BRANCH   3   4
ATOM      4  C   UNL     1       8.934  47.337  29.646  1.00  0.00     0.000 C 
BRANCH   4   5
ATOM      5  C   UNL     1       9.260  48.790  29.274  1.00  0.00     0.006 C 
BRANCH   5   6
ATOM      6  C   UNL     1       8.971  49.764  30.424  1.00  0.00     0.053 C 
BRANCH   6   7
ATOM      7  C   UNL     1       8.882  51.180  29.946  1.00  0.00     0.041 C 
ATOM      8  O   UNL     1       8.823  52.126  30.775  1.00  0.00    -0.550 OA
ATOM      9  O   UNL     1       8.903  51.458  28.585  1.00  0.00    -0.550 OA
ENDBRANCH   6   7
ENDBRANCH   5   6
ENDBRANCH   4   5
ENDBRANCH   3   4
ENDBRANCH   2   3
ENDBRANCH   1   2
BRANCH   1  10
ATOM     10  C   UNL     1      10.693  43.679  30.811  1.00  0.00     0.027 C 
BRANCH  10  11
ATOM     11  C   UNL     1      10.111  43.894  29.434  1.00  0.00    -0.031 C 
ATOM     12  C   UNL     1      10.808  44.316  28.364  1.00  0.00    -0.031 C 
BRANCH  12  13
ATOM     13  C   UNL     1      12.255  44.735  28.394  1.00  0.00     0.027 C 
BRANCH  13  14
ATOM     14  C   UNL     1      12.381  46.258  28.276  1.00  0.00     0.004 C 
BRANCH  14  15
ATOM     15  C   UNL     1      12.681  46.892  29.643  1.00  0.00     0.000 C 
BRANCH  15  16
ATOM     16  C   UNL     1      13.753  47.992  29.564  1.00  0.00    -0.000 C 
BRANCH  16  17
ATOM     17  C   UNL     1      14.906  47.628  28.617  1.00  0.00    -0.003 C 
ATOM     18  C   UNL     1      15.964  46.796  29.335  1.00  0.00     0.004 C 
ENDBRANCH  16  17
ENDBRANCH  15  16
ENDBRANCH  14  15
ENDBRANCH  13  14
ENDBRANCH  12  13
ENDBRANCH  10  11
ENDBRANCH   1  10
TORSDOF 13
ENDMDL
MODEL 3
REMARK VINA RESULT:    -4.792      3.570      5.414
REMARK INTER + INTRA:         -10.331
REMARK INTER:                  -8.362
REMARK INTRA:                  -1.969
REMARK UNBOUND:                -1.898
REMARK SMILES CCCCCCC=CCCCCCCCC(=O)[O-]
REMARK SMILES IDX 10 1 11 2 12 3 13 4 14 5 15 6 16 7 17 8 18 9 9 10 8 11 7 12
REMARK SMILES IDX 6 13 5 14 4 15 3 16 2 17 1 18
REMARK H PARENT
REMARK Flexibility Score: inf
ROOT
ATOM      1  C   UNL     1       9.312  45.825  31.632  1.00  0.00     0.004 C 
ENDROOT
BRANCH   1   2
ATOM      2  C   UNL     1      10.583  45.009  31.932  1.00  0.00     0.000 C 
BRANCH   2   3
ATOM      3  C   UNL     1      10.883  43.953  30.857  1.00  0.00     0.000 C 
BRANCH   3   4
ATOM      4  C   UNL     1       9.885  44.052  29.697  1.00  0.00     0.000 C 
BRANCH   4   5
ATOM      5  C   UNL     1      10.596  44.431  28.390  1.00  0.00     0.006 C 
BRANCH   5   6
ATOM      6  C   UNL     1      12.058  43.967  28.368  1.00  0.00     0.053 C 
BRANCH   6   7
ATOM      7  C   UNL     1      12.226  42.693  27.597  1.00  0.00     0.041 C 
ATOM      8  O   UNL     1      11.296  42.273  26.859  1.00  0.00    -0.550 OA
ATOM      9  O   UNL     1      13.422  41.992  27.664  1.00  0.00    -0.550 OA
ENDBRANCH   6   7
ENDBRANCH   5   6
ENDBRANCH   4   5
ENDBRANCH   3   4
ENDBRANCH   2   3
ENDBRANCH   1   2
BRANCH   1  10
ATOM     10  C   UNL     1       9.551  47.338  31.487  1.00  0.00     0.027 C 
BRANCH  10  11
ATOM     11  C   UNL     1       9.445  47.800  30.054  1.00  0.00    -0.031 C 
ATOM     12  C   UNL     1      10.481  47.897  29.200  1.00  0.00    -0.031 C 
BRANCH  12  13
ATOM     13  C   UNL     1      11.922  47.655  29.569  1.00  0.00     0.027 C 
BRANCH  13  14
ATOM     14  C   UNL     1      12.832  47.841  28.350  1.00  0.00     0.004 C 
BRANCH  14  15
ATOM     15  C   UNL     1      14.306  47.929  28.774  1.00  0.00     0.000 C 
BRANCH  15  16
ATOM     16  C   UNL     1      15.206  46.954  27.998  1.00  0.00    -0.000 C 
BRANCH  16  17
ATOM     17  C   UNL     1      15.720  45.800  28.872  1.00  0.00    -0.003 C 
ATOM     18  C   UNL     1      16.507  46.327  30.068  1.00  0.00     0.004 C 
ENDBRANCH  16  17
ENDBRANCH  15  16
ENDBRANCH  14  15
ENDBRANCH  13  14
ENDBRANCH  12  13
ENDBRANCH  10  11
ENDBRANCH   1  10
TORSDOF 13
ENDMDL
MODEL 4
REMARK VINA RESULT:    -4.781      3.566      6.139
REMARK INTER + INTRA:         -10.313
REMARK INTER:                  -8.106
REMARK INTRA:                  -2.207
REMARK UNBOUND:                -1.898
REMARK SMILES CCCCCCC=CCCCCCCCC(=O)[O-]
REMARK SMILES IDX 10 1 11 2 12 3 13 4 14 5 15 6 16 7 17 8 18 9 9 10 8 11 7 12
REMARK SMILES IDX 6 13 5 14 4 15 3 16 2 17 1 18
REMARK H PARENT
REMARK Flexibility Score: inf
ROOT
ATOM      1  C   UNL     1      15.370  47.070  28.020  1.00  0.00     0.004 C 
ENDROOT
BRANCH   1   2
ATOM      2  C   UNL     1      15.663  45.887  28.962  1.00  0.00     0.000 C 
BRANCH   2   3
ATOM      3  C   UNL     1      14.878  44.619  28.594  1.00  0.00     0.000 C 
BRANCH   3   4
ATOM      4  C   UNL     1      14.251  43.982  29.839  1.00  0.00     0.000 C 
BRANCH   4   5
ATOM      5  C   UNL     1      13.373  42.780  29.460  1.00  0.00     0.006 C 
BRANCH   5   6
ATOM      6  C   UNL     1      13.307  42.565  27.942  1.00  0.00     0.053 C 
BRANCH   6   7
ATOM      7  C   UNL     1      11.969  42.046  27.511  1.00  0.00     0.041 C 
ATOM      8  O   UNL     1      11.077  42.844  27.120  1.00  0.00    -0.550 OA
ATOM      9  O   UNL     1      11.721  40.680  27.506  1.00  0.00    -0.550 OA
ENDBRANCH   6   7
ENDBRANCH   5   6
ENDBRANCH   4   5
ENDBRANCH   3   4
ENDBRANCH   2   3
ENDBRANCH   1   2
BRANCH   1  10
ATOM     10  C   UNL     1      14.677  48.263  28.699  1.00  0.00     0.027 C 
BRANCH  10  11
ATOM     11  C   UNL     1      14.068  47.891  30.029  1.00  0.00    -0.031 C 
ATOM     12  C   UNL     1      12.799  47.477  30.204  1.00  0.00    -0.031 C 
BRANCH  12  13
ATOM     13  C   UNL     1      11.760  47.416  29.114  1.00  0.00     0.027 C 
BRANCH  13  14
ATOM     14  C   UNL     1      11.449  45.962  28.744  1.00  0.00     0.004 C 
BRANCH  14  15
ATOM     15  C   UNL     1      10.004  45.597  29.114  1.00  0.00     0.000 C 
BRANCH  15  16
ATOM     16  C   UNL     1       9.921  44.406  30.082  1.00  0.00    -0.000 C 
BRANCH  16  17
ATOM     17  C   UNL     1      10.434  44.749  31.488  1.00  0.00    -0.003 C 
ATOM     18  C   UNL     1       9.314  45.311  32.358  1.00  0.00     0.004 C 
ENDBRANCH  16  17
ENDBRANCH  15  16
ENDBRANCH  14  15
ENDBRANCH  13  14
ENDBRANCH  12  13
ENDBRANCH  10  11
ENDBRANCH   1  10
TORSDOF 13
ENDMDL
MODEL 5
REMARK VINA RESULT:    -4.722      2.970      6.614
REMARK INTER + INTRA:         -10.209
REMARK INTER:                  -8.672
REMARK INTRA:                  -1.537
REMARK UNBOUND:                -1.898
REMARK SMILES CCCCCCC=CCCCCCCCC(=O)[O-]
REMARK SMILES IDX 10 1 11 2 12 3 13 4 14 5 15 6 16 7 17 8 18 9 9 10 8 11 7 12
REMARK SMILES IDX 6 13 5 14 4 15 3 16 2 17 1 18
REMARK H PARENT
REMARK Flexibility Score: inf
ROOT
ATOM      1  C   UNL     1      14.778  47.791  28.219  1.00  0.00     0.004 C 
ENDROOT
BRANCH   1   2
ATOM      2  C   UNL     1      15.771  46.867  28.949  1.00  0.00     0.000 C 
BRANCH   2   3
ATOM      3  C   UNL     1      15.730  45.420  28.434  1.00  0.00     0.000 C 
BRANCH   3   4
ATOM      4  C   UNL     1      14.802  44.557  29.298  1.00  0.00     0.000 C 
BRANCH   4   5
ATOM      5  C   UNL     1      14.054  43.525  28.442  1.00  0.00     0.006 C 
BRANCH   5   6
ATOM      6  C   UNL     1      12.618  43.295  28.932  1.00  0.00     0.053 C 
BRANCH   6   7
ATOM      7  C   UNL     1      11.688  42.982  27.800  1.00  0.00     0.041 C 
ATOM      8  O   UNL     1      11.966  42.060  26.989  1.00  0.00    -0.550 OA
ATOM      9  O   UNL     1      10.496  43.682  27.665  1.00  0.00    -0.550 OA
ENDBRANCH   6   7
ENDBRANCH   5   6
ENDBRANCH   4   5
ENDBRANCH   3   4
ENDBRANCH   2   3
ENDBRANCH   1   2
BRANCH   1  10
ATOM     10  C   UNL     1      13.790  48.517  29.148  1.00  0.00     0.027 C 
BRANCH  10  11
ATOM     11  C   UNL     1      13.259  47.616  30.237  1.00  0.00    -0.031 C 
ATOM     12  C   UNL     1      12.114  46.913  30.162  1.00  0.00    -0.031 C 
BRANCH  12  13
ATOM     13  C   UNL     1      11.133  46.993  29.020  1.00  0.00     0.027 C 
BRANCH  13  14
ATOM     14  C   UNL     1       9.706  46.726  29.511  1.00  0.00     0.004 C 
BRANCH  14  15
ATOM     15  C   UNL     1       8.850  47.998  29.430  1.00  0.00     0.000 C 
BRANCH  15  16
ATOM     16  C   UNL     1       9.251  49.051  30.477  1.00  0.00    -0.000 C 
BRANCH  16  17
ATOM     17  C   UNL     1       8.695  50.446  30.155  1.00  0.00    -0.003 C 
ATOM     18  C   UNL     1       8.461  50.611  28.657  1.00  0.00     0.004 C 
ENDBRANCH  16  17
ENDBRANCH  15  16
ENDBRANCH  14  15
ENDBRANCH  13  14
ENDBRANCH  12  13
ENDBRANCH  10  11
ENDBRANCH   1  10
TORSDOF 13
ENDMDL
MODEL 6
REMARK VINA RESULT:    -4.705      4.039      7.207
REMARK INTER + INTRA:         -10.178
REMARK INTER:                  -8.267
REMARK INTRA:                  -1.910
REMARK UNBOUND:                -1.898
REMARK SMILES CCCCCCC=CCCCCCCCC(=O)[O-]
REMARK SMILES IDX 10 1 11 2 12 3 13 4 14 5 15 6 16 7 17 8 18 9 9 10 8 11 7 12
REMARK SMILES IDX 6 13 5 14 4 15 3 16 2 17 1 18
REMARK H PARENT
REMARK Flexibility Score: inf
ROOT
ATOM      1  C   UNL     1      10.531  47.579  31.516  1.00  0.00     0.004 C 
ENDROOT
BRANCH   1   2
ATOM      2  C   UNL     1       9.218  46.855  31.865  1.00  0.00     0.000 C 
BRANCH   2   3
ATOM      3  C   UNL     1       9.351  45.325  31.835  1.00  0.00     0.000 C 
BRANCH   3   4
ATOM      4  C   UNL     1       9.483  44.814  30.395  1.00  0.00     0.000 C 
BRANCH   4   5
ATOM      5  C   UNL     1      10.900  44.289  30.125  1.00  0.00     0.006 C 
BRANCH   5   6
ATOM      6  C   UNL     1      11.416  44.697  28.738  1.00  0.00     0.053 C 
BRANCH   6   7
ATOM      7  C   UNL     1      11.765  43.504  27.901  1.00  0.00     0.041 C 
ATOM      8  O   UNL     1      10.894  42.971  27.165  1.00  0.00    -0.550 OA
ATOM      9  O   UNL     1      13.061  43.006  27.907  1.00  0.00    -0.550 OA
ENDBRANCH   6   7
ENDBRANCH   5   6
ENDBRANCH   4   5
ENDBRANCH   3   4
ENDBRANCH   2   3
ENDBRANCH   1   2
BRANCH   1  10
ATOM     10  C   UNL     1      10.443  48.486  30.276  1.00  0.00     0.027 C 
BRANCH  10  11
ATOM     11  C   UNL     1       9.073  48.461  29.643  1.00  0.00    -0.031 C 
ATOM     12  C   UNL     1       8.348  49.552  29.337  1.00  0.00    -0.031 C 
BRANCH  12  13
ATOM     13  C   UNL     1       8.748  50.967  29.668  1.00  0.00     0.027 C 
BRANCH  13  14
ATOM     14  C   UNL     1       8.210  51.374  31.045  1.00  0.00     0.004 C 
BRANCH  14  15
ATOM     15  C   UNL     1       9.302  52.058  31.881  1.00  0.00     0.000 C 
BRANCH  15  16
ATOM     16  C   UNL     1       9.907  51.127  32.944  1.00  0.00    -0.000 C 
BRANCH  16  17
ATOM     17  C   UNL     1       8.868  50.176  33.558  1.00  0.00    -0.003 C 
ATOM     18  C   UNL     1       8.161  50.828  34.742  1.00  0.00     0.004 C 
ENDBRANCH  16  17
ENDBRANCH  15  16
ENDBRANCH  14  15
ENDBRANCH  13  14
ENDBRANCH  12  13
ENDBRANCH  10  11
ENDBRANCH   1  10
TORSDOF 13
ENDMDL
MODEL 7
REMARK VINA RESULT:    -4.679      2.000      3.346
REMARK INTER + INTRA:         -10.133
REMARK INTER:                  -7.829
REMARK INTRA:                  -2.303
REMARK UNBOUND:                -1.898
REMARK SMILES CCCCCCC=CCCCCCCCC(=O)[O-]
REMARK SMILES IDX 10 1 11 2 12 3 13 4 14 5 15 6 16 7 17 8 18 9 9 10 8 11 7 12
REMARK SMILES IDX 6 13 5 14 4 15 3 16 2 17 1 18
REMARK H PARENT
REMARK Flexibility Score: inf
ROOT
ATOM      1  C   UNL     1      12.083  45.191  31.856  1.00  0.00     0.004 C 
ENDROOT
BRANCH   1   2
ATOM      2  C   UNL     1      11.660  46.669  31.760  1.00  0.00     0.000 C 
BRANCH   2   3
ATOM      3  C   UNL     1      12.348  47.414  30.606  1.00  0.00     0.000 C 
BRANCH   3   4
ATOM      4  C   UNL     1      11.314  47.984  29.627  1.00  0.00     0.000 C 
BRANCH   4   5
ATOM      5  C   UNL     1      10.119  48.589  30.379  1.00  0.00     0.006 C 
BRANCH   5   6
ATOM      6  C   UNL     1       8.880  48.730  29.485  1.00  0.00     0.053 C 
BRANCH   6   7
ATOM      7  C   UNL     1       8.454  50.159  29.345  1.00  0.00     0.041 C 
ATOM      8  O   UNL     1       8.022  50.791  30.344  1.00  0.00    -0.550 OA
ATOM      9  O   UNL     1       8.571  50.804  28.121  1.00  0.00    -0.550 OA
ENDBRANCH   6   7
ENDBRANCH   5   6
ENDBRANCH   4   5
ENDBRANCH   3   4
ENDBRANCH   2   3
ENDBRANCH   1   2
BRANCH   1  10
ATOM     10  C   UNL     1      10.932  44.190  31.659  1.00  0.00     0.027 C 
BRANCH  10  11
ATOM     11  C   UNL     1       9.832  44.745  30.787  1.00  0.00    -0.031 C 
ATOM     12  C   UNL     1       9.707  44.514  29.467  1.00  0.00    -0.031 C 
BRANCH  12  13
ATOM     13  C   UNL     1      10.701  43.745  28.634  1.00  0.00     0.027 C 
BRANCH  13  14
ATOM     14  C   UNL     1      11.744  44.690  28.028  1.00  0.00     0.004 C 
BRANCH  14  15
ATOM     15  C   UNL     1      13.154  44.347  28.531  1.00  0.00     0.000 C 
BRANCH  15  16
ATOM     16  C   UNL     1      13.319  42.856  28.865  1.00  0.00    -0.000 C 
BRANCH  16  17
ATOM     17  C   UNL     1      13.979  42.064  27.727  1.00  0.00    -0.003 C 
ATOM     18  C   UNL     1      13.110  40.884  27.304  1.00  0.00     0.004 C 
ENDBRANCH  16  17
ENDBRANCH  15  16
ENDBRANCH  14  15
ENDBRANCH  13  14
ENDBRANCH  12  13
ENDBRANCH  10  11
ENDBRANCH   1  10
TORSDOF 13
ENDMDL
MODEL 8
REMARK VINA RESULT:    -4.654      4.213      7.304
REMARK INTER + INTRA:         -10.089
REMARK INTER:                  -8.273
REMARK INTRA:                  -1.816
REMARK UNBOUND:                -1.898
REMARK SMILES CCCCCCC=CCCCCCCCC(=O)[O-]
REMARK SMILES IDX 10 1 11 2 12 3 13 4 14 5 15 6 16 7 17 8 18 9 9 10 8 11 7 12
REMARK SMILES IDX 6 13 5 14 4 15 3 16 2 17 1 18
REMARK H PARENT
REMARK Flexibility Score: inf
ROOT
ATOM      1  C   UNL     1       9.016  45.551  32.121  1.00  0.00     0.004 C 
ENDROOT
BRANCH   1   2
ATOM      2  C   UNL     1      10.037  44.722  31.318  1.00  0.00     0.000 C 
BRANCH   2   3
ATOM      3  C   UNL     1       9.533  44.347  29.916  1.00  0.00     0.000 C 
BRANCH   3   4
ATOM      4  C   UNL     1      10.595  44.651  28.853  1.00  0.00     0.000 C 
BRANCH   4   5
ATOM      5  C   UNL     1      11.975  44.137  29.289  1.00  0.00     0.006 C 
BRANCH   5   6
ATOM      6  C   UNL     1      12.863  43.768  28.093  1.00  0.00     0.053 C 
BRANCH   6   7
ATOM      7  C   UNL     1      12.824  42.299  27.803  1.00  0.00     0.041 C 
ATOM      8  O   UNL     1      11.926  41.825  27.058  1.00  0.00    -0.550 OA
ATOM      9  O   UNL     1      13.800  41.461  28.323  1.00  0.00    -0.550 OA
ENDBRANCH   6   7
ENDBRANCH   5   6
ENDBRANCH   4   5
ENDBRANCH   3   4
ENDBRANCH   2   3
ENDBRANCH   1   2
BRANCH   1  10
ATOM     10  C   UNL     1       9.357  47.047  32.222  1.00  0.00     0.027 C 
BRANCH  10  11
ATOM     11  C   UNL     1      10.517  47.433  31.336  1.00  0.00    -0.031 C 
ATOM     12  C   UNL     1      10.402  48.050  30.145  1.00  0.00    -0.031 C 
BRANCH  12  13
ATOM     13  C   UNL     1       9.094  48.364  29.466  1.00  0.00     0.027 C 
BRANCH  13  14
ATOM     14  C   UNL     1       9.062  49.825  29.002  1.00  0.00     0.004 C 
BRANCH  14  15
ATOM     15  C   UNL     1       8.186  50.678  29.931  1.00  0.00     0.000 C 
BRANCH  15  16
ATOM     16  C   UNL     1       9.006  51.653  30.791  1.00  0.00    -0.000 C 
BRANCH  16  17
ATOM     17  C   UNL     1       9.380  51.065  32.159  1.00  0.00    -0.003 C 
ATOM     18  C   UNL     1      10.893  51.038  32.350  1.00  0.00     0.004 C 
ENDBRANCH  16  17
ENDBRANCH  15  16
ENDBRANCH  14  15
ENDBRANCH  13  14
ENDBRANCH  12  13
ENDBRANCH  10  11
ENDBRANCH   1  10
TORSDOF 13
ENDMDL
MODEL 9
REMARK VINA RESULT:    -4.611      1.150      3.144
REMARK INTER + INTRA:         -10.013
REMARK INTER:                  -8.319
REMARK INTRA:                  -1.694
REMARK UNBOUND:                -1.898
REMARK SMILES CCCCCCC=CCCCCCCCC(=O)[O-]
REMARK SMILES IDX 10 1 11 2 12 3 13 4 14 5 15 6 16 7 17 8 18 9 9 10 8 11 7 12
REMARK SMILES IDX 6 13 5 14 4 15 3 16 2 17 1 18
REMARK H PARENT
REMARK Flexibility Score: inf
ROOT
ATOM      1  C   UNL     1      10.520  44.114  28.888  1.00  0.00     0.004 C 
ENDROOT
BRANCH   1   2
ATOM      2  C   UNL     1       9.986  45.383  29.579  1.00  0.00     0.000 C 
BRANCH   2   3
ATOM      3  C   UNL     1      11.060  46.468  29.749  1.00  0.00     0.000 C 
BRANCH   3   4
ATOM      4  C   UNL     1      10.604  47.794  29.127  1.00  0.00     0.000 C 
BRANCH   4   5
ATOM      5  C   UNL     1       9.159  48.122  29.528  1.00  0.00     0.006 C 
BRANCH   5   6
ATOM      6  C   UNL     1       9.084  49.279  30.533  1.00  0.00     0.053 C 
BRANCH   6   7
ATOM      7  C   UNL     1       8.601  50.544  29.891  1.00  0.00     0.041 C 
ATOM      8  O   UNL     1       8.540  51.609  30.559  1.00  0.00    -0.550 OA
ATOM      9  O   UNL     1       8.256  50.553  28.546  1.00  0.00    -0.550 OA
ENDBRANCH   6   7
ENDBRANCH   5   6
ENDBRANCH   4   5
ENDBRANCH   3   4
ENDBRANCH   2   3
ENDBRANCH   1   2
BRANCH   1  10
ATOM     10  C   UNL     1      11.803  44.332  28.070  1.00  0.00     0.027 C 
BRANCH  10  11
ATOM     11  C   UNL     1      12.722  43.135  28.113  1.00  0.00    -0.031 C 
ATOM     12  C   UNL     1      13.450  42.765  29.182  1.00  0.00    -0.031 C 
BRANCH  12  13
ATOM     13  C   UNL     1      13.540  43.543  30.470  1.00  0.00     0.027 C 
BRANCH  13  14
ATOM     14  C   UNL     1      14.865  44.309  30.549  1.00  0.00     0.004 C 
BRANCH  14  15
ATOM     15  C   UNL     1      14.717  45.723  29.968  1.00  0.00     0.000 C 
BRANCH  15  16
ATOM     16  C   UNL     1      15.513  45.917  28.667  1.00  0.00    -0.000 C 
BRANCH  16  17
ATOM     17  C   UNL     1      15.197  47.249  27.972  1.00  0.00    -0.003 C 
ATOM     18  C   UNL     1      14.482  48.206  28.921  1.00  0.00     0.004 C 
ENDBRANCH  16  17
ENDBRANCH  15  16
ENDBRANCH  14  15
ENDBRANCH  13  14
ENDBRANCH  12  13
ENDBRANCH  10  11
ENDBRANCH   1  10
TORSDOF 13
ENDMDL
