MODEL 1
REMARK VINA RESULT:    -5.154      0.000      0.000
REMARK INTER + INTRA:          -7.192
REMARK INTER:                  -6.961
REMARK INTRA:                  -0.231
REMARK UNBOUND:                -0.231
REMARK SMILES C=C1CCC=C(C)CC[C@@H]2[C@@H]1CC2(C)C
REMARK SMILES IDX 11 1 12 2 13 3 10 4 14 5 15 6 9 7 8 8 6 9 7 10 5 11 2 13
REMARK SMILES IDX 1 14 3 15 4 16
REMARK H PARENT
REMARK Flexibility Score: 70.00
ROOT
ATOM      1  C   UNL     1     111.678 110.767 114.890  1.00  0.00     0.018 C 
ATOM      2  C   UNL     1     111.565 110.787 116.421  1.00  0.00     0.015 C 
ATOM      3  C   UNL     1     110.112 111.290 116.309  1.00  0.00    -0.031 C 
ATOM      4  C   UNL     1     110.279 111.390 114.767  1.00  0.00     0.002 C 
ATOM      5  C   UNL     1     109.875 112.654 116.985  1.00  0.00     0.011 C 
ATOM      6  C   UNL     1     109.103 110.245 116.834  1.00  0.00     0.011 C 
ENDROOT
BRANCH   4   7
ATOM      7  C   UNL     1     109.276 110.603 113.886  1.00  0.00     0.009 C 
BRANCH   7   8
ATOM      8  C   UNL     1     109.069 111.171 112.468  1.00  0.00     0.030 C 
BRANCH   8   9
ATOM      9  C   UNL     1     109.949 110.539 111.401  1.00  0.00    -0.077 C 
ATOM     10  C   UNL     1     109.335 109.486 110.514  1.00  0.00     0.039 C 
ATOM     11  C   UNL     1     111.245 110.877 111.186  1.00  0.00    -0.028 CG0
ATOM     12  G   UNL     1     112.013 111.976 111.894  1.00  0.00     0.000 G0
ENDBRANCH   8   9
ENDBRANCH   7   8
ENDBRANCH   4   7
BRANCH   1  13
ATOM     13  C   UNL     1     112.800 111.608 114.284  1.00  0.00    -0.074 C 
ATOM     14  C   UNL     1     113.478 112.523 115.001  1.00  0.00     0.008 C 
BRANCH  13  15
ATOM     15  C   UNL     1     113.124 111.445 112.812  1.00  0.00     0.035 C 
BRANCH  15  16
ATOM     16  C   UNL     1     112.025 111.995 111.888  1.00  0.00     0.032 CG0
ATOM     17  G   UNL     1     111.255 110.894 111.185  1.00  0.00     0.000 G0
ENDBRANCH  15  16
ENDBRANCH  13  15
ENDBRANCH   1  13
TORSDOF 0
ENDMDL
MODEL 2
REMARK VINA RESULT:    -5.097      1.038      3.238
REMARK INTER + INTRA:          -7.116
REMARK INTER:                  -6.868
REMARK INTRA:                  -0.248
REMARK UNBOUND:                -0.231
REMARK SMILES C=C1CCC=C(C)CC[C@@H]2[C@@H]1CC2(C)C
REMARK SMILES IDX 11 1 12 2 13 3 10 4 14 5 15 6 9 7 8 8 6 9 7 10 5 11 2 13
REMARK SMILES IDX 1 14 3 15 4 16
REMARK H PARENT
REMARK Flexibility Score: 70.00
ROOT
ATOM      1  C   UNL     1     110.646 111.562 114.711  1.00  0.00     0.018 C 
ATOM      2  C   UNL     1     110.762 111.650 116.239  1.00  0.00     0.015 C 
ATOM      3  C   UNL     1     112.194 111.083 116.165  1.00  0.00    -0.031 C 
ATOM      4  C   UNL     1     112.020 110.876 114.635  1.00  0.00     0.002 C 
ATOM      5  C   UNL     1     112.378 109.765 116.940  1.00  0.00     0.011 C 
ATOM      6  C   UNL     1     113.245 112.123 116.612  1.00  0.00     0.011 C 
ENDROOT
BRANCH   4   7
ATOM      7  C   UNL     1     113.051 111.555 113.699  1.00  0.00     0.009 C 
BRANCH   7   8
ATOM      8  C   UNL     1     113.157 110.939 112.289  1.00  0.00     0.030 C 
BRANCH   8   9
ATOM      9  C   UNL     1     112.288 111.613 111.239  1.00  0.00    -0.077 C 
ATOM     10  C   UNL     1     112.931 112.642 110.346  1.00  0.00     0.039 C 
ATOM     11  C   UNL     1     110.974 111.333 111.045  1.00  0.00    -0.028 CG0
ATOM     12  G   UNL     1     110.172 110.264 111.762  1.00  0.00     0.000 G0
ENDBRANCH   8   9
ENDBRANCH   7   8
ENDBRANCH   4   7
BRANCH   1  13
ATOM     13  C   UNL     1     109.491 110.722 114.168  1.00  0.00    -0.074 C 
ATOM     14  C   UNL     1     108.829 109.833 114.931  1.00  0.00     0.008 C 
BRANCH  13  15
ATOM     15  C   UNL     1     109.112 110.857 112.706  1.00  0.00     0.035 C 
BRANCH  15  16
ATOM     16  C   UNL     1     110.161 110.262 111.753  1.00  0.00     0.032 CG0
ATOM     17  G   UNL     1     110.961 111.330 111.032  1.00  0.00     0.000 G0
ENDBRANCH  15  16
ENDBRANCH  13  15
ENDBRANCH   1  13
TORSDOF 0
ENDMDL
MODEL 3
REMARK VINA RESULT:    -5.065      3.585      5.966
REMARK INTER + INTRA:          -7.073
REMARK INTER:                  -6.887
REMARK INTRA:                  -0.186
REMARK UNBOUND:                -0.231
REMARK SMILES C=C1CCC=C(C)CC[C@@H]2[C@@H]1CC2(C)C
REMARK SMILES IDX 11 1 12 2 13 3 10 4 14 5 15 6 9 7 8 8 6 9 7 10 5 11 2 13
REMARK SMILES IDX 1 14 3 15 4 16
REMARK H PARENT
REMARK Flexibility Score: 70.00
ROOT
ATOM      1  C   UNL     1     110.726 111.466 109.716  1.00  0.00     0.018 C 
ATOM      2  C   UNL     1     110.738 111.748 111.225  1.00  0.00     0.015 C 
ATOM      3  C   UNL     1     112.127 111.089 111.340  1.00  0.00    -0.031 C 
ATOM      4  C   UNL     1     112.049 110.693 109.839  1.00  0.00     0.002 C 
ATOM      5  C   UNL     1     112.160 109.876 112.288  1.00  0.00     0.011 C 
ATOM      6  C   UNL     1     113.214 112.112 111.734  1.00  0.00     0.011 C 
ENDROOT
BRANCH   4   7
ATOM      7  C   UNL     1     113.190 111.177 108.910  1.00  0.00     0.009 C 
BRANCH   7   8
ATOM      8  C   UNL     1     113.183 110.567 107.495  1.00  0.00     0.030 C 
BRANCH   8   9
ATOM      9  C   UNL     1     112.428 111.385 106.458  1.00  0.00    -0.077 C 
ATOM     10  C   UNL     1     113.198 112.420 105.680  1.00  0.00     0.039 C 
ATOM     11  C   UNL     1     111.109 111.228 106.179  1.00  0.00    -0.028 CG0
ATOM     12  G   UNL     1     110.188 110.180 106.772  1.00  0.00     0.000 G0
ENDBRANCH   8   9
ENDBRANCH   7   8
ENDBRANCH   4   7
BRANCH   1  13
ATOM     13  C   UNL     1     109.556 110.636 109.193  1.00  0.00    -0.074 C 
ATOM     14  C   UNL     1     108.901 109.750 109.967  1.00  0.00     0.008 C 
BRANCH  13  15
ATOM     15  C   UNL     1     109.151 110.775 107.738  1.00  0.00     0.035 C 
BRANCH  15  16
ATOM     16  C   UNL     1     110.181 110.178 106.765  1.00  0.00     0.032 CG0
ATOM     17  G   UNL     1     111.098 111.232 106.175  1.00  0.00     0.000 G0
ENDBRANCH  15  16
ENDBRANCH  13  15
ENDBRANCH   1  13
TORSDOF 0
ENDMDL
MODEL 4
REMARK VINA RESULT:    -4.999      3.446      5.001
REMARK INTER + INTRA:          -6.983
REMARK INTER:                  -6.737
REMARK INTRA:                  -0.246
REMARK UNBOUND:                -0.231
REMARK SMILES C=C1CCC=C(C)CC[C@@H]2[C@@H]1CC2(C)C
REMARK SMILES IDX 11 1 12 2 13 3 10 4 14 5 15 6 9 7 8 8 6 9 7 10 5 11 2 13
REMARK SMILES IDX 1 14 3 15 4 16
REMARK H PARENT
REMARK Flexibility Score: 70.00
ROOT
ATOM      1  C   UNL     1     111.669 110.576 109.784  1.00  0.00     0.018 C 
ATOM      2  C   UNL     1     111.615 110.360 111.303  1.00  0.00     0.015 C 
ATOM      3  C   UNL     1     110.207 110.987 111.345  1.00  0.00    -0.031 C 
ATOM      4  C   UNL     1     110.324 111.319 109.831  1.00  0.00     0.002 C 
ATOM      5  C   UNL     1     110.113 112.239 112.236  1.00  0.00     0.011 C 
ATOM      6  C   UNL     1     109.134 109.953 111.750  1.00  0.00     0.011 C 
ENDROOT
BRANCH   4   7
ATOM      7  C   UNL     1     109.226 110.764 108.889  1.00  0.00     0.009 C 
BRANCH   7   8
ATOM      8  C   UNL     1     109.160 111.430 107.500  1.00  0.00     0.030 C 
BRANCH   8   9
ATOM      9  C   UNL     1     109.957 110.715 106.420  1.00  0.00    -0.077 C 
ATOM     10  C   UNL     1     109.232 109.719 105.552  1.00  0.00     0.039 C 
ATOM     11  C   UNL     1     111.275 110.931 106.178  1.00  0.00    -0.028 CG0
ATOM     12  G   UNL     1     112.153 111.959 106.865  1.00  0.00     0.000 G0
ENDBRANCH   8   9
ENDBRANCH   7   8
ENDBRANCH   4   7
BRANCH   1  13
ATOM     13  C   UNL     1     112.835 111.414 109.261  1.00  0.00    -0.074 C 
ATOM     14  C   UNL     1     113.515 112.268 110.048  1.00  0.00     0.008 C 
BRANCH  13  15
ATOM     15  C   UNL     1     113.204 111.319 107.793  1.00  0.00     0.035 C 
BRANCH  15  16
ATOM     16  C   UNL     1     112.162 111.965 106.866  1.00  0.00     0.032 CG0
ATOM     17  G   UNL     1     111.273 110.938 106.192  1.00  0.00     0.000 G0
ENDBRANCH  15  16
ENDBRANCH  13  15
ENDBRANCH   1  13
TORSDOF 0
ENDMDL
MODEL 5
REMARK VINA RESULT:    -4.993      1.995      5.013
REMARK INTER + INTRA:          -6.976
REMARK INTER:                  -6.736
REMARK INTRA:                  -0.239
REMARK UNBOUND:                -0.231
REMARK SMILES C=C1CCC=C(C)CC[C@@H]2[C@@H]1CC2(C)C
REMARK SMILES IDX 11 1 12 2 13 3 10 4 14 5 15 6 9 7 8 8 6 9 7 10 5 11 2 13
REMARK SMILES IDX 1 14 3 15 4 16
REMARK H PARENT
REMARK Flexibility Score: 70.00
ROOT
ATOM      1  C   UNL     1     110.301 110.769 112.982  1.00  0.00     0.018 C 
ATOM      2  C   UNL     1     110.045 110.413 111.511  1.00  0.00     0.015 C 
ATOM      3  C   UNL     1     111.556 110.500 111.223  1.00  0.00    -0.031 C 
ATOM      4  C   UNL     1     111.793 110.986 112.680  1.00  0.00     0.002 C 
ATOM      5  C   UNL     1     111.924 111.555 110.163  1.00  0.00     0.011 C 
ATOM      6  C   UNL     1     112.147 109.125 110.842  1.00  0.00     0.011 C 
ENDROOT
BRANCH   4   7
ATOM      7  C   UNL     1     112.774 110.168 113.557  1.00  0.00     0.009 C 
BRANCH   7   8
ATOM      8  C   UNL     1     113.250 110.879 114.840  1.00  0.00     0.030 C 
BRANCH   8   9
ATOM      9  C   UNL     1     112.420 110.570 116.076  1.00  0.00    -0.077 C 
ATOM     10  C   UNL     1     112.875 109.443 116.968  1.00  0.00     0.039 C 
ATOM     11  C   UNL     1     111.307 111.257 116.436  1.00  0.00    -0.028 CG0
ATOM     12  G   UNL     1     110.746 112.481 115.739  1.00  0.00     0.000 G0
ENDBRANCH   8   9
ENDBRANCH   7   8
ENDBRANCH   4   7
BRANCH   1  13
ATOM     13  C   UNL     1     109.579 112.004 113.515  1.00  0.00    -0.074 C 
ATOM     14  C   UNL     1     109.127 112.977 112.702  1.00  0.00     0.008 C 
BRANCH  13  15
ATOM     15  C   UNL     1     109.411 112.165 115.013  1.00  0.00     0.035 C 
BRANCH  15  16
ATOM     16  C   UNL     1     110.730 112.479 115.737  1.00  0.00     0.032 CG0
ATOM     17  G   UNL     1     111.308 111.266 116.440  1.00  0.00     0.000 G0
ENDBRANCH  15  16
ENDBRANCH  13  15
ENDBRANCH   1  13
TORSDOF 0
ENDMDL
MODEL 6
REMARK VINA RESULT:    -4.921      2.861      6.066
REMARK INTER + INTRA:          -6.879
REMARK INTER:                  -6.986
REMARK INTRA:                   0.108
REMARK UNBOUND:                -0.231
REMARK SMILES C=C1CCC=C(C)CC[C@@H]2[C@@H]1CC2(C)C
REMARK SMILES IDX 11 1 12 2 13 3 10 4 14 5 15 6 9 7 8 8 6 9 7 10 5 11 2 13
REMARK SMILES IDX 1 14 3 15 4 16
REMARK H PARENT
REMARK Flexibility Score: 70.00
ROOT
ATOM      1  C   UNL     1     111.803 111.393 108.447  1.00  0.00     0.018 C 
ATOM      2  C   UNL     1     111.557 111.447 106.933  1.00  0.00     0.015 C 
ATOM      3  C   UNL     1     110.041 111.569 107.181  1.00  0.00    -0.031 C 
ATOM      4  C   UNL     1     110.288 111.384 108.704  1.00  0.00     0.002 C 
ATOM      5  C   UNL     1     109.217 110.428 106.556  1.00  0.00     0.011 C 
ATOM      6  C   UNL     1     109.495 112.941 106.726  1.00  0.00     0.011 C 
ENDROOT
BRANCH   4   7
ATOM      7  C   UNL     1     109.768 112.493 109.654  1.00  0.00     0.009 C 
BRANCH   7   8
ATOM      8  C   UNL     1     110.695 112.821 110.841  1.00  0.00     0.030 C 
BRANCH   8   9
ATOM      9  C   UNL     1     110.527 111.907 112.045  1.00  0.00    -0.077 C 
ATOM     10  C   UNL     1     109.351 112.150 112.956  1.00  0.00     0.039 C 
ATOM     11  C   UNL     1     111.358 110.876 112.339  1.00  0.00    -0.028 CG0
ATOM     12  G   UNL     1     112.529 110.403 111.499  1.00  0.00     0.000 G0
ENDBRANCH   8   9
ENDBRANCH   7   8
ENDBRANCH   4   7
BRANCH   1  13
ATOM     13  C   UNL     1     112.540 110.161 108.969  1.00  0.00    -0.074 C 
ATOM     14  C   UNL     1     113.524 109.565 108.272  1.00  0.00     0.008 C 
BRANCH  13  15
ATOM     15  C   UNL     1     112.112 109.559 110.293  1.00  0.00     0.035 C 
BRANCH  15  16
ATOM     16  C   UNL     1     112.541 110.400 111.506  1.00  0.00     0.032 CG0
ATOM     17  G   UNL     1     111.360 110.868 112.333  1.00  0.00     0.000 G0
ENDBRANCH  15  16
ENDBRANCH  13  15
ENDBRANCH   1  13
TORSDOF 0
ENDMDL
MODEL 7
REMARK VINA RESULT:    -4.904      3.210      6.746
REMARK INTER + INTRA:          -6.855
REMARK INTER:                  -6.614
REMARK INTRA:                  -0.241
REMARK UNBOUND:                -0.231
REMARK SMILES C=C1CCC=C(C)CC[C@@H]2[C@@H]1CC2(C)C
REMARK SMILES IDX 11 1 12 2 13 3 10 4 14 5 15 6 9 7 8 8 6 9 7 10 5 11 2 13
REMARK SMILES IDX 1 14 3 15 4 16
REMARK H PARENT
REMARK Flexibility Score: 70.00
ROOT
ATOM      1  C   UNL     1     110.417 110.790 108.226  1.00  0.00     0.018 C 
ATOM      2  C   UNL     1     110.317 110.373 106.752  1.00  0.00     0.015 C 
ATOM      3  C   UNL     1     111.848 110.492 106.612  1.00  0.00    -0.031 C 
ATOM      4  C   UNL     1     111.925 111.038 108.065  1.00  0.00     0.002 C 
ATOM      5  C   UNL     1     112.294 111.518 105.553  1.00  0.00     0.011 C 
ATOM      6  C   UNL     1     112.506 109.121 106.346  1.00  0.00     0.011 C 
ENDROOT
BRANCH   4   7
ATOM      7  C   UNL     1     112.833 110.280 109.066  1.00  0.00     0.009 C 
BRANCH   7   8
ATOM      8  C   UNL     1     113.292 111.106 110.285  1.00  0.00     0.030 C 
BRANCH   8   9
ATOM      9  C   UNL     1     112.412 110.955 111.516  1.00  0.00    -0.077 C 
ATOM     10  C   UNL     1     112.853 109.988 112.584  1.00  0.00     0.039 C 
ATOM     11  C   UNL     1     111.264 111.650 111.720  1.00  0.00    -0.028 CG0
ATOM     12  G   UNL     1     110.705 112.738 110.824  1.00  0.00     0.000 G0
ENDBRANCH   8   9
ENDBRANCH   7   8
ENDBRANCH   4   7
BRANCH   1  13
ATOM     13  C   UNL     1     109.615 112.023 108.636  1.00  0.00    -0.074 C 
ATOM     14  C   UNL     1     109.125 112.893 107.733  1.00  0.00     0.008 C 
BRANCH  13  15
ATOM     15  C   UNL     1     109.407 112.305 110.111  1.00  0.00     0.035 C 
BRANCH  15  16
ATOM     16  C   UNL     1     110.695 112.742 110.828  1.00  0.00     0.032 CG0
ATOM     17  G   UNL     1     111.260 111.651 111.718  1.00  0.00     0.000 G0
ENDBRANCH  15  16
ENDBRANCH  13  15
ENDBRANCH   1  13
TORSDOF 0
ENDMDL
MODEL 8
REMARK VINA RESULT:    -4.893      2.160      4.690
REMARK INTER + INTRA:          -6.840
REMARK INTER:                  -7.010
REMARK INTRA:                   0.169
REMARK UNBOUND:                -0.231
REMARK SMILES C=C1CCC=C(C)CC[C@@H]2[C@@H]1CC2(C)C
REMARK SMILES IDX 11 1 12 2 13 3 10 4 14 5 15 6 9 7 8 8 6 9 7 10 5 11 2 13
REMARK SMILES IDX 1 14 3 15 4 16
REMARK H PARENT
REMARK Flexibility Score: 70.00
ROOT
ATOM      1  C   UNL     1     111.693 111.427 113.410  1.00  0.00     0.018 C 
ATOM      2  C   UNL     1     111.560 111.586 111.889  1.00  0.00     0.015 C 
ATOM      3  C   UNL     1     110.027 111.669 112.029  1.00  0.00    -0.031 C 
ATOM      4  C   UNL     1     110.163 111.378 113.550  1.00  0.00     0.002 C 
ATOM      5  C   UNL     1     109.275 110.565 111.264  1.00  0.00     0.011 C 
ATOM      6  C   UNL     1     109.492 113.062 111.632  1.00  0.00     0.011 C 
ENDROOT
BRANCH   4   7
ATOM      7  C   UNL     1     109.553 112.408 114.534  1.00  0.00     0.009 C 
BRANCH   7   8
ATOM      8  C   UNL     1     110.494 112.867 115.665  1.00  0.00     0.030 C 
BRANCH   8   9
ATOM      9  C   UNL     1     110.424 112.020 116.926  1.00  0.00    -0.077 C 
ATOM     10  C   UNL     1     109.262 112.241 117.860  1.00  0.00     0.039 C 
ATOM     11  C   UNL     1     111.332 111.066 117.253  1.00  0.00    -0.028 CG0
ATOM     12  G   UNL     1     112.506 110.620 116.405  1.00  0.00     0.000 G0
ENDBRANCH   8   9
ENDBRANCH   7   8
ENDBRANCH   4   7
BRANCH   1  13
ATOM     13  C   UNL     1     112.412 110.171 113.899  1.00  0.00    -0.074 C 
ATOM     14  C   UNL     1     113.273 109.488 113.121  1.00  0.00     0.008 C 
BRANCH  13  15
ATOM     15  C   UNL     1     112.105 109.644 115.287  1.00  0.00     0.035 C 
BRANCH  15  16
ATOM     16  C   UNL     1     112.516 110.616 116.405  1.00  0.00     0.032 CG0
ATOM     17  G   UNL     1     111.337 111.059 117.249  1.00  0.00     0.000 G0
ENDBRANCH  15  16
ENDBRANCH  13  15
ENDBRANCH   1  13
TORSDOF 0
ENDMDL
MODEL 9
REMARK VINA RESULT:    -4.885      1.899      3.330
REMARK INTER + INTRA:          -6.830
REMARK INTER:                  -6.619
REMARK INTRA:                  -0.211
REMARK UNBOUND:                -0.231
REMARK SMILES C=C1CCC=C(C)CC[C@@H]2[C@@H]1CC2(C)C
REMARK SMILES IDX 11 1 12 2 13 3 10 4 14 5 15 6 9 7 8 8 6 9 7 10 5 11 2 13
REMARK SMILES IDX 1 14 3 15 4 16
REMARK H PARENT
REMARK Flexibility Score: 70.00
ROOT
ATOM      1  C   UNL     1     111.023 111.944 113.029  1.00  0.00     0.018 C 
ATOM      2  C   UNL     1     111.069 111.963 114.564  1.00  0.00     0.015 C 
ATOM      3  C   UNL     1     111.427 110.464 114.574  1.00  0.00    -0.031 C 
ATOM      4  C   UNL     1     111.250 110.423 113.031  1.00  0.00     0.002 C 
ATOM      5  C   UNL     1     110.406 109.589 115.326  1.00  0.00     0.011 C 
ATOM      6  C   UNL     1     112.851 110.219 115.119  1.00  0.00     0.011 C 
ENDROOT
BRANCH   4   7
ATOM      7  C   UNL     1     112.451 109.931 112.185  1.00  0.00     0.009 C 
BRANCH   7   8
ATOM      8  C   UNL     1     112.079 109.300 110.828  1.00  0.00     0.030 C 
BRANCH   8   9
ATOM      9  C   UNL     1     112.101 110.269 109.656  1.00  0.00    -0.077 C 
ATOM     10  C   UNL     1     113.296 110.239 108.738  1.00  0.00     0.039 C 
ATOM     11  C   UNL     1     111.103 111.146 109.375  1.00  0.00    -0.028 CG0
ATOM     12  G   UNL     1     109.781 111.261 110.107  1.00  0.00     0.000 G0
ENDBRANCH   8   9
ENDBRANCH   7   8
ENDBRANCH   4   7
BRANCH   1  13
ATOM     13  C   UNL     1     109.709 112.385 112.387  1.00  0.00    -0.074 C 
ATOM     14  C   UNL     1     108.582 112.556 113.103  1.00  0.00     0.008 C 
BRANCH  13  15
ATOM     15  C   UNL     1     109.659 112.586 110.885  1.00  0.00     0.035 C 
BRANCH  15  16
ATOM     16  C   UNL     1     109.766 111.270 110.097  1.00  0.00     0.032 CG0
ATOM     17  G   UNL     1     111.095 111.132 109.380  1.00  0.00     0.000 G0
ENDBRANCH  15  16
ENDBRANCH  13  15
ENDBRANCH   1  13
TORSDOF 0
ENDMDL
