MODEL 1
REMARK VINA RESULT:    -1.292      0.000      0.000
REMARK INTER + INTRA:          -1.292
REMARK INTER:                  -1.292
REMARK INTRA:                   0.000
REMARK UNBOUND:                 0.000
REMARK SMILES CC(=O)[O-]
REMARK SMILES IDX 1 1 2 2 3 3 4 4
REMARK H PARENT
REMARK Flexibility Score: inf
ROOT
ATOM      1  C   UNL     1       7.293  -5.778 137.674  1.00  0.00     0.063 C 
ATOM      2  C   UNL     1       7.453  -7.228 137.364  1.00  0.00     0.038 C 
ATOM      3  O   UNL     1       6.500  -8.026 137.564  1.00  0.00    -0.550 OA
ATOM      4  O   UNL     1       8.634  -7.693 136.802  1.00  0.00    -0.550 OA
ENDROOT
TORSDOF 0
ENDMDL
MODEL 2
REMARK VINA RESULT:    -1.284     22.564     22.807
REMARK INTER + INTRA:          -1.284
REMARK INTER:                  -1.284
REMARK INTRA:                   0.000
REMARK UNBOUND:                 0.000
REMARK SMILES CC(=O)[O-]
REMARK SMILES IDX 1 1 2 2 3 3 4 4
REMARK H PARENT
REMARK Flexibility Score: inf
ROOT
ATOM      1  C   UNL     1      -6.548  -6.184 119.076  1.00  0.00     0.063 C 
ATOM      2  C   UNL     1      -6.391  -7.645 119.330  1.00  0.00     0.038 C 
ATOM      3  O   UNL     1      -5.262  -8.190 119.207  1.00  0.00    -0.550 OA
ATOM      4  O   UNL     1      -7.477  -8.398 119.756  1.00  0.00    -0.550 OA
ENDROOT
TORSDOF 0
ENDMDL
MODEL 3
REMARK VINA RESULT:    -1.254     22.514     22.692
REMARK INTER + INTRA:          -1.254
REMARK INTER:                  -1.254
REMARK INTRA:                   0.000
REMARK UNBOUND:                 0.000
REMARK SMILES CC(=O)[O-]
REMARK SMILES IDX 1 1 2 2 3 3 4 4
REMARK H PARENT
REMARK Flexibility Score: inf
ROOT
ATOM      1  C   UNL     1      -6.575  -6.089 119.112  1.00  0.00     0.063 C 
ATOM      2  C   UNL     1      -6.306  -7.539 119.335  1.00  0.00     0.038 C 
ATOM      3  O   UNL     1      -7.255  -8.328 119.583  1.00  0.00    -0.550 OA
ATOM      4  O   UNL     1      -5.013  -8.033 119.215  1.00  0.00    -0.550 OA
ENDROOT
TORSDOF 0
ENDMDL
MODEL 4
REMARK VINA RESULT:    -1.252     22.561     22.771
REMARK INTER + INTRA:          -1.252
REMARK INTER:                  -1.252
REMARK INTRA:                   0.000
REMARK UNBOUND:                 0.000
REMARK SMILES CC(=O)[O-]
REMARK SMILES IDX 1 1 2 2 3 3 4 4
REMARK H PARENT
REMARK Flexibility Score: inf
ROOT
ATOM      1  C   UNL     1      -7.415  -8.327 120.029  1.00  0.00     0.063 C 
ATOM      2  C   UNL     1      -6.355  -7.567 119.305  1.00  0.00     0.038 C 
ATOM      3  O   UNL     1      -6.619  -6.447 118.793  1.00  0.00    -0.550 OA
ATOM      4  O   UNL     1      -5.061  -8.066 119.242  1.00  0.00    -0.550 OA
ENDROOT
TORSDOF 0
ENDMDL
MODEL 5
REMARK VINA RESULT:    -1.246     22.535     22.800
REMARK INTER + INTRA:          -1.246
REMARK INTER:                  -1.246
REMARK INTRA:                   0.000
REMARK UNBOUND:                 0.000
REMARK SMILES CC(=O)[O-]
REMARK SMILES IDX 1 1 2 2 3 3 4 4
REMARK H PARENT
REMARK Flexibility Score: inf
ROOT
ATOM      1  C   UNL     1      -4.881  -7.818 119.404  1.00  0.00     0.063 C 
ATOM      2  C   UNL     1      -6.316  -7.429 119.280  1.00  0.00     0.038 C 
ATOM      3  O   UNL     1      -6.628  -6.298 118.824  1.00  0.00    -0.550 OA
ATOM      4  O   UNL     1      -7.314  -8.335 119.616  1.00  0.00    -0.550 OA
ENDROOT
TORSDOF 0
ENDMDL
MODEL 6
REMARK VINA RESULT:    -1.244      1.492      2.196
REMARK INTER + INTRA:          -1.244
REMARK INTER:                  -1.244
REMARK INTRA:                   0.000
REMARK UNBOUND:                 0.000
REMARK SMILES CC(=O)[O-]
REMARK SMILES IDX 1 1 2 2 3 3 4 4
REMARK H PARENT
REMARK Flexibility Score: inf
ROOT
ATOM      1  C   UNL     1       8.273  -7.587 136.761  1.00  0.00     0.063 C 
ATOM      2  C   UNL     1       7.173  -6.912 137.509  1.00  0.00     0.038 C 
ATOM      3  O   UNL     1       7.360  -5.777 138.020  1.00  0.00    -0.550 OA
ATOM      4  O   UNL     1       5.922  -7.509 137.596  1.00  0.00    -0.550 OA
ENDROOT
TORSDOF 0
ENDMDL
MODEL 7
REMARK VINA RESULT:    -1.158     22.881     23.001
REMARK INTER + INTRA:          -1.158
REMARK INTER:                  -1.158
REMARK INTRA:                   0.000
REMARK UNBOUND:                 0.000
REMARK SMILES CC(=O)[O-]
REMARK SMILES IDX 1 1 2 2 3 3 4 4
REMARK H PARENT
REMARK Flexibility Score: inf
ROOT
ATOM      1  C   UNL     1      -7.988  -5.826 120.201  1.00  0.00     0.063 C 
ATOM      2  C   UNL     1      -6.780  -6.161 119.392  1.00  0.00     0.038 C 
ATOM      3  O   UNL     1      -5.945  -5.265 119.102  1.00  0.00    -0.550 OA
ATOM      4  O   UNL     1      -6.546  -7.473 119.003  1.00  0.00    -0.550 OA
ENDROOT
TORSDOF 0
ENDMDL
MODEL 8
REMARK VINA RESULT:    -1.142      1.808      2.016
REMARK INTER + INTRA:          -1.142
REMARK INTER:                  -1.142
REMARK INTRA:                   0.000
REMARK UNBOUND:                 0.000
REMARK SMILES CC(=O)[O-]
REMARK SMILES IDX 1 1 2 2 3 3 4 4
REMARK H PARENT
REMARK Flexibility Score: inf
ROOT
ATOM      1  C   UNL     1       6.384  -4.337 137.395  1.00  0.00     0.063 C 
ATOM      2  C   UNL     1       7.466  -5.364 137.382  1.00  0.00     0.038 C 
ATOM      3  O   UNL     1       7.254  -6.510 137.858  1.00  0.00    -0.550 OA
ATOM      4  O   UNL     1       8.691  -5.078 136.794  1.00  0.00    -0.550 OA
ENDROOT
TORSDOF 0
ENDMDL
MODEL 9
REMARK VINA RESULT:    -1.122     21.236     21.550
REMARK INTER + INTRA:          -1.122
REMARK INTER:                  -1.122
REMARK INTRA:                   0.000
REMARK UNBOUND:                 0.000
REMARK SMILES CC(=O)[O-]
REMARK SMILES IDX 1 1 2 2 3 3 4 4
REMARK H PARENT
REMARK Flexibility Score: inf
ROOT
ATOM      1  C   UNL     1      -4.954 -13.224 121.852  1.00  0.00     0.063 C 
ATOM      2  C   UNL     1      -5.714 -12.123 121.192  1.00  0.00     0.038 C 
ATOM      3  O   UNL     1      -5.147 -11.381 120.347  1.00  0.00    -0.550 OA
ATOM      4  O   UNL     1      -7.063 -11.946 121.468  1.00  0.00    -0.550 OA
ENDROOT
TORSDOF 0
ENDMDL
