MODEL 1
REMARK VINA RESULT:    -3.896      0.000      0.000
REMARK INTER + INTRA:          -5.889
REMARK INTER:                  -5.263
REMARK INTRA:                  -0.625
REMARK UNBOUND:                -0.625
REMARK SMILES CCCCCCC=CC(=O)[O-]
REMARK SMILES IDX 5 1 6 2 7 3 8 4 9 5 10 6 11 7 4 8 3 9 2 10 1 11
REMARK H PARENT
REMARK Flexibility Score: inf
ROOT
ATOM      1  C   UNL     1      44.045  28.710   2.253  1.00  0.00     0.004 C 
ENDROOT
BRANCH   1   2
ATOM      2  C   UNL     1      42.838  28.058   1.553  1.00  0.00     0.027 C 
BRANCH   2   3
ATOM      3  C   UNL     1      42.612  28.596   0.165  1.00  0.00    -0.025 C 
ATOM      4  C   UNL     1      43.182  28.144  -0.964  1.00  0.00     0.020 C 
BRANCH   4   5
ATOM      5  C   UNL     1      44.193  27.071  -1.070  1.00  0.00     0.064 C 
ATOM      6  O   UNL     1      43.834  25.935  -1.477  1.00  0.00    -0.545 OA
ATOM      7  O   UNL     1      45.533  27.283  -0.775  1.00  0.00    -0.545 OA
ENDBRANCH   4   5
ENDBRANCH   2   3
ENDBRANCH   1   2
BRANCH   1   8
ATOM      8  C   UNL     1      45.071  27.704   2.807  1.00  0.00     0.000 C 
BRANCH   8   9
ATOM      9  C   UNL     1      44.641  26.242   2.611  1.00  0.00    -0.000 C 
BRANCH   9  10
ATOM     10  C   UNL     1      45.296  25.333   3.657  1.00  0.00    -0.003 C 
ATOM     11  C   UNL     1      45.870  26.147   4.813  1.00  0.00     0.004 C 
ENDBRANCH   9  10
ENDBRANCH   8   9
ENDBRANCH   1   8
TORSDOF 6
ENDMDL
MODEL 2
REMARK VINA RESULT:    -3.788      1.187      2.362
REMARK INTER + INTRA:          -5.742
REMARK INTER:                  -5.405
REMARK INTRA:                  -0.337
REMARK UNBOUND:                -0.625
REMARK SMILES CCCCCCC=CC(=O)[O-]
REMARK SMILES IDX 5 1 6 2 7 3 8 4 9 5 10 6 11 7 4 8 3 9 2 10 1 11
REMARK H PARENT
REMARK Flexibility Score: inf
ROOT
ATOM      1  C   UNL     1      44.865  25.901   3.235  1.00  0.00     0.004 C 
ENDROOT
BRANCH   1   2
ATOM      2  C   UNL     1      44.785  26.764   1.962  1.00  0.00     0.027 C 
BRANCH   2   3
ATOM      3  C   UNL     1      43.370  27.108   1.582  1.00  0.00    -0.025 C 
ATOM      4  C   UNL     1      42.897  27.247   0.332  1.00  0.00     0.020 C 
BRANCH   4   5
ATOM      5  C   UNL     1      43.676  27.154  -0.920  1.00  0.00     0.064 C 
ATOM      6  O   UNL     1      44.152  28.206  -1.421  1.00  0.00    -0.545 OA
ATOM      7  O   UNL     1      43.935  25.939  -1.542  1.00  0.00    -0.545 OA
ENDBRANCH   4   5
ENDBRANCH   2   3
ENDBRANCH   1   2
BRANCH   1   8
ATOM      8  C   UNL     1      46.228  25.218   3.450  1.00  0.00     0.000 C 
BRANCH   8   9
ATOM      9  C   UNL     1      46.956  25.719   4.706  1.00  0.00    -0.000 C 
BRANCH   9  10
ATOM     10  C   UNL     1      46.096  26.732   5.470  1.00  0.00    -0.003 C 
ATOM     11  C   UNL     1      45.916  26.316   6.927  1.00  0.00     0.004 C 
ENDBRANCH   9  10
ENDBRANCH   8   9
ENDBRANCH   1   8
TORSDOF 6
ENDMDL
MODEL 3
REMARK VINA RESULT:    -3.749      0.867      1.606
REMARK INTER + INTRA:          -5.690
REMARK INTER:                  -4.991
REMARK INTRA:                  -0.698
REMARK UNBOUND:                -0.625
REMARK SMILES CCCCCCC=CC(=O)[O-]
REMARK SMILES IDX 5 1 6 2 7 3 8 4 9 5 10 6 11 7 4 8 3 9 2 10 1 11
REMARK H PARENT
REMARK Flexibility Score: inf
ROOT
ATOM      1  C   UNL     1      42.055  28.641   1.087  1.00  0.00     0.004 C 
ENDROOT
BRANCH   1   2
ATOM      2  C   UNL     1      43.063  29.400   0.204  1.00  0.00     0.027 C 
BRANCH   2   3
ATOM      3  C   UNL     1      42.831  29.175  -1.266  1.00  0.00    -0.025 C 
ATOM      4  C   UNL     1      43.316  28.158  -1.998  1.00  0.00     0.020 C 
BRANCH   4   5
ATOM      5  C   UNL     1      44.222  27.090  -1.528  1.00  0.00     0.064 C 
ATOM      6  O   UNL     1      43.735  25.973  -1.212  1.00  0.00    -0.545 OA
ATOM      7  O   UNL     1      45.599  27.262  -1.462  1.00  0.00    -0.545 OA
ENDBRANCH   4   5
ENDBRANCH   2   3
ENDBRANCH   1   2
BRANCH   1   8
ATOM      8  C   UNL     1      42.670  27.478   1.888  1.00  0.00     0.000 C 
BRANCH   8   9
ATOM      9  C   UNL     1      44.137  27.726   2.269  1.00  0.00    -0.000 C 
BRANCH   9  10
ATOM     10  C   UNL     1      44.952  26.431   2.183  1.00  0.00    -0.003 C 
ATOM     11  C   UNL     1      45.074  25.763   3.550  1.00  0.00     0.004 C 
ENDBRANCH   9  10
ENDBRANCH   8   9
ENDBRANCH   1   8
TORSDOF 6
ENDMDL
MODEL 4
REMARK VINA RESULT:    -3.450      4.125      6.421
REMARK INTER + INTRA:          -5.285
REMARK INTER:                  -4.915
REMARK INTRA:                  -0.370
REMARK UNBOUND:                -0.625
REMARK SMILES CCCCCCC=CC(=O)[O-]
REMARK SMILES IDX 5 1 6 2 7 3 8 4 9 5 10 6 11 7 4 8 3 9 2 10 1 11
REMARK H PARENT
REMARK Flexibility Score: inf
ROOT
ATOM      1  C   UNL     1      44.945  25.917   3.321  1.00  0.00     0.004 C 
ENDROOT
BRANCH   1   2
ATOM      2  C   UNL     1      45.838  25.825   4.572  1.00  0.00     0.027 C 
BRANCH   2   3
ATOM      3  C   UNL     1      45.907  27.124   5.332  1.00  0.00    -0.025 C 
ATOM      4  C   UNL     1      46.037  27.257   6.662  1.00  0.00     0.020 C 
BRANCH   4   5
ATOM      5  C   UNL     1      46.075  26.166   7.657  1.00  0.00     0.064 C 
ATOM      6  O   UNL     1      47.108  25.451   7.737  1.00  0.00    -0.545 OA
ATOM      7  O   UNL     1      45.026  25.926   8.535  1.00  0.00    -0.545 OA
ENDBRANCH   4   5
ENDBRANCH   2   3
ENDBRANCH   1   2
BRANCH   1   8
ATOM      8  C   UNL     1      45.437  26.928   2.269  1.00  0.00     0.000 C 
BRANCH   8   9
ATOM      9  C   UNL     1      44.443  28.074   2.031  1.00  0.00    -0.000 C 
BRANCH   9  10
ATOM     10  C   UNL     1      43.012  27.539   1.898  1.00  0.00    -0.003 C 
ATOM     11  C   UNL     1      42.659  27.266   0.438  1.00  0.00     0.004 C 
ENDBRANCH   9  10
ENDBRANCH   8   9
ENDBRANCH   1   8
TORSDOF 6
ENDMDL
MODEL 5
REMARK VINA RESULT:    -3.426      2.417      5.344
REMARK INTER + INTRA:          -5.252
REMARK INTER:                  -4.904
REMARK INTRA:                  -0.348
REMARK UNBOUND:                -0.625
REMARK SMILES CCCCCCC=CC(=O)[O-]
REMARK SMILES IDX 5 1 6 2 7 3 8 4 9 5 10 6 11 7 4 8 3 9 2 10 1 11
REMARK H PARENT
REMARK Flexibility Score: inf
ROOT
ATOM      1  C   UNL     1      43.303  27.906  -1.037  1.00  0.00     0.004 C 
ENDROOT
BRANCH   1   2
ATOM      2  C   UNL     1      42.615  27.121   0.095  1.00  0.00     0.027 C 
BRANCH   2   3
ATOM      3  C   UNL     1      42.817  27.754   1.446  1.00  0.00    -0.025 C 
ATOM      4  C   UNL     1      43.831  27.509   2.292  1.00  0.00     0.020 C 
BRANCH   4   5
ATOM      5  C   UNL     1      44.920  26.529   2.100  1.00  0.00     0.064 C 
ATOM      6  O   UNL     1      44.932  25.486   2.806  1.00  0.00    -0.545 OA
ATOM      7  O   UNL     1      45.909  26.697   1.140  1.00  0.00    -0.545 OA
ENDBRANCH   4   5
ENDBRANCH   2   3
ENDBRANCH   1   2
BRANCH   1   8
ATOM      8  C   UNL     1      44.051  27.022  -2.052  1.00  0.00     0.000 C 
BRANCH   8   9
ATOM      9  C   UNL     1      44.296  27.729  -3.394  1.00  0.00    -0.000 C 
BRANCH   9  10
ATOM     10  C   UNL     1      43.916  26.821  -4.569  1.00  0.00    -0.003 C 
ATOM     11  C   UNL     1      42.774  27.422  -5.384  1.00  0.00     0.004 C 
ENDBRANCH   9  10
ENDBRANCH   8   9
ENDBRANCH   1   8
TORSDOF 6
ENDMDL
MODEL 6
REMARK VINA RESULT:    -3.407      2.493      3.600
REMARK INTER + INTRA:          -5.227
REMARK INTER:                  -4.818
REMARK INTRA:                  -0.409
REMARK UNBOUND:                -0.625
REMARK SMILES CCCCCCC=CC(=O)[O-]
REMARK SMILES IDX 5 1 6 2 7 3 8 4 9 5 10 6 11 7 4 8 3 9 2 10 1 11
REMARK H PARENT
REMARK Flexibility Score: inf
ROOT
ATOM      1  C   UNL     1      43.683  27.325  -1.008  1.00  0.00     0.004 C 
ENDROOT
BRANCH   1   2
ATOM      2  C   UNL     1      42.977  28.514  -1.685  1.00  0.00     0.027 C 
BRANCH   2   3
ATOM      3  C   UNL     1      43.795  29.119  -2.796  1.00  0.00    -0.025 C 
ATOM      4  C   UNL     1      43.742  28.779  -4.094  1.00  0.00     0.020 C 
BRANCH   4   5
ATOM      5  C   UNL     1      42.921  27.704  -4.690  1.00  0.00     0.064 C 
ATOM      6  O   UNL     1      43.328  26.515  -4.615  1.00  0.00    -0.545 OA
ATOM      7  O   UNL     1      41.697  27.956  -5.295  1.00  0.00    -0.545 OA
ENDBRANCH   4   5
ENDBRANCH   2   3
ENDBRANCH   1   2
BRANCH   1   8
ATOM      8  C   UNL     1      42.914  26.734   0.188  1.00  0.00     0.000 C 
BRANCH   8   9
ATOM      9  C   UNL     1      42.729  27.739   1.335  1.00  0.00    -0.000 C 
BRANCH   9  10
ATOM     10  C   UNL     1      44.000  27.837   2.187  1.00  0.00    -0.003 C 
ATOM     11  C   UNL     1      44.521  26.452   2.562  1.00  0.00     0.004 C 
ENDBRANCH   9  10
ENDBRANCH   8   9
ENDBRANCH   1   8
TORSDOF 6
ENDMDL
MODEL 7
REMARK VINA RESULT:    -3.366      2.653      3.677
REMARK INTER + INTRA:          -5.171
REMARK INTER:                  -4.666
REMARK INTRA:                  -0.506
REMARK UNBOUND:                -0.625
REMARK SMILES CCCCCCC=CC(=O)[O-]
REMARK SMILES IDX 5 1 6 2 7 3 8 4 9 5 10 6 11 7 4 8 3 9 2 10 1 11
REMARK H PARENT
REMARK Flexibility Score: inf
ROOT
ATOM      1  C   UNL     1      42.746  28.360  -0.861  1.00  0.00     0.004 C 
ENDROOT
BRANCH   1   2
ATOM      2  C   UNL     1      43.849  28.400  -1.935  1.00  0.00     0.027 C 
BRANCH   2   3
ATOM      3  C   UNL     1      44.049  27.069  -2.610  1.00  0.00    -0.025 C 
ATOM      4  C   UNL     1      43.783  26.784  -3.896  1.00  0.00     0.020 C 
BRANCH   4   5
ATOM      5  C   UNL     1      43.184  27.695  -4.893  1.00  0.00     0.064 C 
ATOM      6  O   UNL     1      41.942  27.898  -4.863  1.00  0.00    -0.545 OA
ATOM      7  O   UNL     1      43.949  28.366  -5.838  1.00  0.00    -0.545 OA
ENDBRANCH   4   5
ENDBRANCH   2   3
ENDBRANCH   1   2
BRANCH   1   8
ATOM      8  C   UNL     1      42.806  27.126   0.058  1.00  0.00     0.000 C 
BRANCH   8   9
ATOM      9  C   UNL     1      42.881  27.492   1.548  1.00  0.00    -0.000 C 
BRANCH   9  10
ATOM     10  C   UNL     1      44.067  26.795   2.224  1.00  0.00    -0.003 C 
ATOM     11  C   UNL     1      45.366  27.055   1.466  1.00  0.00     0.004 C 
ENDBRANCH   9  10
ENDBRANCH   8   9
ENDBRANCH   1   8
TORSDOF 6
ENDMDL
MODEL 8
REMARK VINA RESULT:    -3.227      2.005      2.782
REMARK INTER + INTRA:          -4.985
REMARK INTER:                  -4.423
REMARK INTRA:                  -0.562
REMARK UNBOUND:                -0.625
REMARK SMILES CCCCCCC=CC(=O)[O-]
REMARK SMILES IDX 5 1 6 2 7 3 8 4 9 5 10 6 11 7 4 8 3 9 2 10 1 11
REMARK H PARENT
REMARK Flexibility Score: inf
ROOT
ATOM      1  C   UNL     1      42.561  27.703   0.388  1.00  0.00     0.004 C 
ENDROOT
BRANCH   1   2
ATOM      2  C   UNL     1      43.484  26.864  -0.516  1.00  0.00     0.027 C 
BRANCH   2   3
ATOM      3  C   UNL     1      44.518  27.699  -1.224  1.00  0.00    -0.025 C 
ATOM      4  C   UNL     1      44.409  28.215  -2.459  1.00  0.00     0.020 C 
BRANCH   4   5
ATOM      5  C   UNL     1      43.286  28.019  -3.399  1.00  0.00     0.064 C 
ATOM      6  O   UNL     1      42.275  28.763  -3.303  1.00  0.00    -0.545 OA
ATOM      7  O   UNL     1      43.324  27.069  -4.412  1.00  0.00    -0.545 OA
ENDBRANCH   4   5
ENDBRANCH   2   3
ENDBRANCH   1   2
BRANCH   1   8
ATOM      8  C   UNL     1      42.883  27.597   1.890  1.00  0.00     0.000 C 
BRANCH   8   9
ATOM      9  C   UNL     1      44.062  26.656   2.182  1.00  0.00    -0.000 C 
BRANCH   9  10
ATOM     10  C   UNL     1      45.127  27.361   3.031  1.00  0.00    -0.003 C 
ATOM     11  C   UNL     1      45.285  28.821   2.619  1.00  0.00     0.004 C 
ENDBRANCH   9  10
ENDBRANCH   8   9
ENDBRANCH   1   8
TORSDOF 6
ENDMDL
