MODEL 1
REMARK VINA RESULT:    -2.989      0.000      0.000
REMARK INTER + INTRA:          -2.989
REMARK INTER:                  -2.989
REMARK INTRA:                   0.000
REMARK UNBOUND:                 0.000
REMARK SMILES O=c1ccc2ccccc2o1
REMARK SMILES IDX 7 1 8 2 9 3 10 4 5 5 6 6 4 7 3 8 2 9 1 10 11 11
REMARK H PARENT
REMARK Flexibility Score: inf
ROOT
ATOM      1  C   UNL     1      -5.829  -3.124   0.326  1.00  0.00     0.001 A 
ATOM      2  C   UNL     1      -5.025  -2.575  -0.680  1.00  0.00     0.004 A 
ATOM      3  C   UNL     1      -4.040  -1.634  -0.359  1.00  0.00     0.048 A 
ATOM      4  C   UNL     1      -3.856  -1.239   0.970  1.00  0.00     0.138 A 
ATOM      5  C   UNL     1      -4.667  -1.793   1.986  1.00  0.00     0.018 A 
ATOM      6  C   UNL     1      -5.653  -2.736   1.658  1.00  0.00     0.012 A 
ATOM      7  C   UNL     1      -4.460  -1.378   3.305  1.00  0.00     0.019 A 
ATOM      8  C   UNL     1      -3.467  -0.438   3.579  1.00  0.00     0.094 A 
ATOM      9  C   UNL     1      -2.702   0.067   2.522  1.00  0.00     0.336 A 
ATOM     10  O   UNL     1      -1.801   0.917   2.749  1.00  0.00    -0.246 OA
ATOM     11  O   UNL     1      -2.919  -0.344   1.276  1.00  0.00    -0.423 OA
ENDROOT
TORSDOF 0
ENDMDL
MODEL 2
REMARK VINA RESULT:    -2.379      1.440      3.823
REMARK INTER + INTRA:          -2.379
REMARK INTER:                  -2.379
REMARK INTRA:                   0.000
REMARK UNBOUND:                 0.000
REMARK SMILES O=c1ccc2ccccc2o1
REMARK SMILES IDX 7 1 8 2 9 3 10 4 5 5 6 6 4 7 3 8 2 9 1 10 11 11
REMARK H PARENT
REMARK Flexibility Score: inf
ROOT
ATOM      1  C   UNL     1      -2.564   0.116   4.117  1.00  0.00     0.001 A 
ATOM      2  C   UNL     1      -1.770   0.468   3.019  1.00  0.00     0.004 A 
ATOM      3  C   UNL     1      -2.137   0.072   1.729  1.00  0.00     0.048 A 
ATOM      4  C   UNL     1      -3.300  -0.680   1.531  1.00  0.00     0.138 A 
ATOM      5  C   UNL     1      -4.102  -1.036   2.638  1.00  0.00     0.018 A 
ATOM      6  C   UNL     1      -3.730  -0.635   3.930  1.00  0.00     0.012 A 
ATOM      7  C   UNL     1      -5.259  -1.787   2.410  1.00  0.00     0.019 A 
ATOM      8  C   UNL     1      -5.586  -2.160   1.106  1.00  0.00     0.094 A 
ATOM      9  C   UNL     1      -4.744  -1.772   0.059  1.00  0.00     0.336 A 
ATOM     10  O   UNL     1      -5.022  -2.100  -1.125  1.00  0.00    -0.246 OA
ATOM     11  O   UNL     1      -3.649  -1.057   0.303  1.00  0.00    -0.423 OA
ENDROOT
TORSDOF 0
ENDMDL
