MODEL 1
REMARK VINA RESULT:    -8.231      0.000      0.000
REMARK INTER + INTRA:          -9.701
REMARK INTER:                  -9.916
REMARK INTRA:                   0.215
REMARK UNBOUND:                 0.215
REMARK SMILES O=c1c(O)c(-c2ccc(O)c(O)c2)oc2cc(O)cc(O)c12
REMARK SMILES IDX 5 1 3 2 2 3 1 4 22 5 20 6 19 7 17 8 16 9 15 10 14 11 6 12
REMARK SMILES IDX 7 13 8 14 9 15 13 16 11 17 10 18 12 20 4 22 21 24 18 26
REMARK H PARENT 10 19 12 21 4 23 21 25 18 27
REMARK Flexibility Score: inf
ROOT
ATOM      1  C   UNL     1      17.171  22.485  40.333  1.00  0.00     0.180 A 
ATOM      2  C   UNL     1      16.810  23.493  39.423  1.00  0.00     0.208 A 
ATOM      3  C   UNL     1      15.694  24.298  39.705  1.00  0.00     0.238 A 
ATOM      4  O   UNL     1      15.343  25.162  38.860  1.00  0.00    -0.285 OA
ATOM      5  C   UNL     1      14.964  24.094  40.901  1.00  0.00     0.111 A 
ATOM      6  C   UNL     1      13.842  24.878  41.308  1.00  0.00     0.134 A 
ATOM      7  C   UNL     1      13.116  24.505  42.446  1.00  0.00     0.093 A 
ATOM      8  C   UNL     1      13.511  23.417  43.228  1.00  0.00     0.123 A 
ATOM      9  C   UNL     1      14.640  22.683  42.872  1.00  0.00     0.094 A 
ATOM     10  C   UNL     1      15.364  23.008  41.722  1.00  0.00     0.146 A 
ATOM     11  O   UNL     1      16.428  22.276  41.413  1.00  0.00    -0.452 OA
ENDROOT
BRANCH   1  12
ATOM     12  C   UNL     1      18.348  21.613  40.117  1.00  0.00     0.025 A 
ATOM     13  C   UNL     1      18.314  20.245  40.443  1.00  0.00     0.016 A 
ATOM     14  C   UNL     1      19.429  19.436  40.208  1.00  0.00     0.051 A 
ATOM     15  C   UNL     1      20.587  19.976  39.634  1.00  0.00     0.157 A 
ATOM     16  C   UNL     1      19.504  22.145  39.523  1.00  0.00     0.062 A 
ATOM     17  C   UNL     1      20.622  21.336  39.287  1.00  0.00     0.158 A 
BRANCH  15  18
ATOM     18  O   UNL     1      21.698  19.166  39.403  1.00  0.00    -0.504 OA
ATOM     19  H   UNL     1      21.775  18.242  39.812  1.00  0.00     0.293 HD
ENDBRANCH  15  18
BRANCH  17  20
ATOM     20  O   UNL     1      21.757  21.903  38.707  1.00  0.00    -0.504 OA
ATOM     21  H   UNL     1      22.640  21.962  39.199  1.00  0.00     0.293 HD
ENDBRANCH  17  20
ENDBRANCH   1  12
BRANCH   2  22
ATOM     22  O   UNL     1      17.531  23.661  38.237  1.00  0.00    -0.502 OA
ATOM     23  H   UNL     1      17.079  23.783  37.339  1.00  0.00     0.293 HD
ENDBRANCH   2  22
BRANCH   6  24
ATOM     24  O   UNL     1      13.419  26.037  40.650  1.00  0.00    -0.507 OA
ATOM     25  H   UNL     1      12.941  26.807  41.093  1.00  0.00     0.293 HD
ENDBRANCH   6  24
BRANCH   8  26
ATOM     26  O   UNL     1      12.793  23.063  44.368  1.00  0.00    -0.508 OA
ATOM     27  H   UNL     1      13.255  22.870  45.248  1.00  0.00     0.293 HD
ENDBRANCH   8  26
TORSDOF 6
ENDMDL
MODEL 2
REMARK VINA RESULT:    -8.074      1.518      2.295
REMARK INTER + INTRA:          -9.511
REMARK INTER:                  -9.238
REMARK INTRA:                  -0.273
REMARK UNBOUND:                 0.215
REMARK SMILES O=c1c(O)c(-c2ccc(O)c(O)c2)oc2cc(O)cc(O)c12
REMARK SMILES IDX 5 1 3 2 2 3 1 4 22 5 20 6 19 7 17 8 16 9 15 10 14 11 6 12
REMARK SMILES IDX 7 13 8 14 9 15 13 16 11 17 10 18 12 20 4 22 21 24 18 26
REMARK H PARENT 10 19 12 21 4 23 21 25 18 27
REMARK Flexibility Score: inf
ROOT
ATOM      1  C   UNL     1      15.895  22.844  41.041  1.00  0.00     0.180 A 
ATOM      2  C   UNL     1      15.263  23.942  40.432  1.00  0.00     0.208 A 
ATOM      3  C   UNL     1      14.197  24.569  41.098  1.00  0.00     0.238 A 
ATOM      4  O   UNL     1      13.599  25.516  40.524  1.00  0.00    -0.285 OA
ATOM      5  C   UNL     1      13.789  24.100  42.370  1.00  0.00     0.111 A 
ATOM      6  C   UNL     1      12.747  24.685  43.153  1.00  0.00     0.134 A 
ATOM      7  C   UNL     1      12.340  24.059  44.337  1.00  0.00     0.093 A 
ATOM      8  C   UNL     1      12.980  22.907  44.800  1.00  0.00     0.123 A 
ATOM      9  C   UNL     1      14.036  22.363  44.074  1.00  0.00     0.094 A 
ATOM     10  C   UNL     1      14.442  22.944  42.870  1.00  0.00     0.146 A 
ATOM     11  O   UNL     1      15.446  22.387  42.203  1.00  0.00    -0.452 OA
ENDROOT
BRANCH   1  12
ATOM     12  C   UNL     1      17.041  22.147  40.412  1.00  0.00     0.025 A 
ATOM     13  C   UNL     1      18.321  22.729  40.376  1.00  0.00     0.016 A 
ATOM     14  C   UNL     1      19.392  22.043  39.799  1.00  0.00     0.051 A 
ATOM     15  C   UNL     1      19.206  20.762  39.263  1.00  0.00     0.157 A 
ATOM     16  C   UNL     1      16.864  20.855  39.892  1.00  0.00     0.062 A 
ATOM     17  C   UNL     1      17.936  20.165  39.313  1.00  0.00     0.158 A 
BRANCH  15  18
ATOM     18  O   UNL     1      20.277  20.080  38.687  1.00  0.00    -0.504 OA
ATOM     19  H   UNL     1      21.222  20.186  39.036  1.00  0.00     0.293 HD
ENDBRANCH  15  18
BRANCH  17  20
ATOM     20  O   UNL     1      17.718  18.889  38.794  1.00  0.00    -0.504 OA
ATOM     21  H   UNL     1      18.467  18.215  38.692  1.00  0.00     0.293 HD
ENDBRANCH  17  20
ENDBRANCH   1  12
BRANCH   2  22
ATOM     22  O   UNL     1      15.668  24.374  39.166  1.00  0.00    -0.502 OA
ATOM     23  H   UNL     1      16.332  25.128  39.036  1.00  0.00     0.293 HD
ENDBRANCH   2  22
BRANCH   6  24
ATOM     24  O   UNL     1      12.105  25.884  42.827  1.00  0.00    -0.507 OA
ATOM     25  H   UNL     1      11.432  26.352  43.415  1.00  0.00     0.293 HD
ENDBRANCH   6  24
BRANCH   8  26
ATOM     26  O   UNL     1      12.579  22.300  45.989  1.00  0.00    -0.508 OA
ATOM     27  H   UNL     1      12.884  21.367  46.238  1.00  0.00     0.293 HD
ENDBRANCH   8  26
TORSDOF 6
ENDMDL
MODEL 3
REMARK VINA RESULT:    -7.931     14.479     15.507
REMARK INTER + INTRA:          -9.340
REMARK INTER:                  -9.636
REMARK INTRA:                   0.297
REMARK UNBOUND:                 0.215
REMARK SMILES O=c1c(O)c(-c2ccc(O)c(O)c2)oc2cc(O)cc(O)c12
REMARK SMILES IDX 5 1 3 2 2 3 1 4 22 5 20 6 19 7 17 8 16 9 15 10 14 11 6 12
REMARK SMILES IDX 7 13 8 14 9 15 13 16 11 17 10 18 12 20 4 22 21 24 18 26
REMARK H PARENT 10 19 12 21 4 23 21 25 18 27
REMARK Flexibility Score: inf
ROOT
ATOM      1  C   UNL     1      24.870  12.052  35.114  1.00  0.00     0.180 A 
ATOM      2  C   UNL     1      25.378  13.066  34.285  1.00  0.00     0.208 A 
ATOM      3  C   UNL     1      26.565  13.720  34.657  1.00  0.00     0.238 A 
ATOM      4  O   UNL     1      26.985  14.663  33.939  1.00  0.00    -0.285 OA
ATOM      5  C   UNL     1      27.235  13.338  35.845  1.00  0.00     0.111 A 
ATOM      6  C   UNL     1      28.466  13.904  36.297  1.00  0.00     0.134 A 
ATOM      7  C   UNL     1      28.971  13.544  37.552  1.00  0.00     0.093 A 
ATOM      8  C   UNL     1      28.324  12.589  38.342  1.00  0.00     0.123 A 
ATOM      9  C   UNL     1      27.156  11.987  37.882  1.00  0.00     0.094 A 
ATOM     10  C   UNL     1      26.607  12.353  36.650  1.00  0.00     0.146 A 
ATOM     11  O   UNL     1      25.486  11.763  36.254  1.00  0.00    -0.452 OA
ENDROOT
BRANCH   1  12
ATOM     12  C   UNL     1      23.639  11.301  34.777  1.00  0.00     0.025 A 
ATOM     13  C   UNL     1      22.769  10.834  35.779  1.00  0.00     0.016 A 
ATOM     14  C   UNL     1      21.601  10.148  35.436  1.00  0.00     0.051 A 
ATOM     15  C   UNL     1      21.276   9.931  34.091  1.00  0.00     0.157 A 
ATOM     16  C   UNL     1      23.299  11.099  33.430  1.00  0.00     0.062 A 
ATOM     17  C   UNL     1      22.128  10.412  33.084  1.00  0.00     0.158 A 
BRANCH  15  18
ATOM     18  O   UNL     1      20.110   9.246  33.753  1.00  0.00    -0.504 OA
ATOM     19  H   UNL     1      19.492   8.870  34.462  1.00  0.00     0.293 HD
ENDBRANCH  15  18
BRANCH  17  20
ATOM     20  O   UNL     1      21.830  10.220  31.735  1.00  0.00    -0.504 OA
ATOM     21  H   UNL     1      21.252   9.452  31.416  1.00  0.00     0.293 HD
ENDBRANCH  17  20
ENDBRANCH   1  12
BRANCH   2  22
ATOM     22  O   UNL     1      24.688  13.441  33.129  1.00  0.00    -0.502 OA
ATOM     23  H   UNL     1      24.625  14.404  32.822  1.00  0.00     0.293 HD
ENDBRANCH   2  22
BRANCH   6  24
ATOM     24  O   UNL     1      29.237  14.797  35.547  1.00  0.00    -0.507 OA
ATOM     25  H   UNL     1      28.863  15.486  34.912  1.00  0.00     0.293 HD
ENDBRANCH   6  24
BRANCH   8  26
ATOM     26  O   UNL     1      28.844  12.224  39.582  1.00  0.00    -0.508 OA
ATOM     27  H   UNL     1      29.029  12.911  40.303  1.00  0.00     0.293 HD
ENDBRANCH   8  26
TORSDOF 6
ENDMDL
MODEL 4
REMARK VINA RESULT:    -7.676      1.181      6.707
REMARK INTER + INTRA:          -9.032
REMARK INTER:                  -9.361
REMARK INTRA:                   0.330
REMARK UNBOUND:                 0.215
REMARK SMILES O=c1c(O)c(-c2ccc(O)c(O)c2)oc2cc(O)cc(O)c12
REMARK SMILES IDX 5 1 3 2 2 3 1 4 22 5 20 6 19 7 17 8 16 9 15 10 14 11 6 12
REMARK SMILES IDX 7 13 8 14 9 15 13 16 11 17 10 18 12 20 4 22 21 24 18 26
REMARK H PARENT 10 19 12 21 4 23 21 25 18 27
REMARK Flexibility Score: inf
ROOT
ATOM      1  C   UNL     1      16.405  23.039  40.571  1.00  0.00     0.180 A 
ATOM      2  C   UNL     1      16.880  23.905  39.571  1.00  0.00     0.208 A 
ATOM      3  C   UNL     1      18.017  23.536  38.834  1.00  0.00     0.238 A 
ATOM      4  O   UNL     1      18.469  24.339  37.978  1.00  0.00    -0.285 OA
ATOM      5  C   UNL     1      18.653  22.298  39.095  1.00  0.00     0.111 A 
ATOM      6  C   UNL     1      19.787  21.804  38.380  1.00  0.00     0.134 A 
ATOM      7  C   UNL     1      20.414  20.628  38.810  1.00  0.00     0.093 A 
ATOM      8  C   UNL     1      19.909  19.893  39.886  1.00  0.00     0.123 A 
ATOM      9  C   UNL     1      18.768  20.336  40.550  1.00  0.00     0.094 A 
ATOM     10  C   UNL     1      18.141  21.525  40.169  1.00  0.00     0.146 A 
ATOM     11  O   UNL     1      17.062  21.916  40.836  1.00  0.00    -0.452 OA
ENDROOT
BRANCH   1  12
ATOM     12  C   UNL     1      15.199  23.348  41.373  1.00  0.00     0.025 A 
ATOM     13  C   UNL     1      14.220  24.243  40.907  1.00  0.00     0.016 A 
ATOM     14  C   UNL     1      13.078  24.501  41.670  1.00  0.00     0.051 A 
ATOM     15  C   UNL     1      12.891  23.860  42.902  1.00  0.00     0.157 A 
ATOM     16  C   UNL     1      14.996  22.692  42.598  1.00  0.00     0.062 A 
ATOM     17  C   UNL     1      13.854  22.949  43.365  1.00  0.00     0.158 A 
BRANCH  15  18
ATOM     18  O   UNL     1      11.751  24.121  43.662  1.00  0.00    -0.504 OA
ATOM     19  H   UNL     1      11.298  23.396  44.205  1.00  0.00     0.293 HD
ENDBRANCH  15  18
BRANCH  17  20
ATOM     20  O   UNL     1      13.693  22.289  44.583  1.00  0.00    -0.504 OA
ATOM     21  H   UNL     1      14.360  21.602  44.915  1.00  0.00     0.293 HD
ENDBRANCH  17  20
ENDBRANCH   1  12
BRANCH   2  22
ATOM     22  O   UNL     1      16.250  25.132  39.346  1.00  0.00    -0.502 OA
ATOM     23  H   UNL     1      15.323  25.201  38.943  1.00  0.00     0.293 HD
ENDBRANCH   2  22
BRANCH   6  24
ATOM     24  O   UNL     1      20.315  22.411  37.237  1.00  0.00    -0.507 OA
ATOM     25  H   UNL     1      19.957  22.285  36.303  1.00  0.00     0.293 HD
ENDBRANCH   6  24
BRANCH   8  26
ATOM     26  O   UNL     1      20.529  18.715  40.296  1.00  0.00    -0.508 OA
ATOM     27  H   UNL     1      21.074  18.671  41.148  1.00  0.00     0.293 HD
ENDBRANCH   8  26
TORSDOF 6
ENDMDL
MODEL 5
REMARK VINA RESULT:    -7.608     16.811     18.842
REMARK INTER + INTRA:          -8.951
REMARK INTER:                  -9.264
REMARK INTRA:                   0.314
REMARK UNBOUND:                 0.215
REMARK SMILES O=c1c(O)c(-c2ccc(O)c(O)c2)oc2cc(O)cc(O)c12
REMARK SMILES IDX 5 1 3 2 2 3 1 4 22 5 20 6 19 7 17 8 16 9 15 10 14 11 6 12
REMARK SMILES IDX 7 13 8 14 9 15 13 16 11 17 10 18 12 20 4 22 21 24 18 26
REMARK H PARENT 10 19 12 21 4 23 21 25 18 27
REMARK Flexibility Score: inf
ROOT
ATOM      1  C   UNL     1      30.512  10.652  39.718  1.00  0.00     0.180 A 
ATOM      2  C   UNL     1      30.609   9.463  38.975  1.00  0.00     0.208 A 
ATOM      3  C   UNL     1      30.617   9.536  37.572  1.00  0.00     0.238 A 
ATOM      4  O   UNL     1      30.650   8.465  36.912  1.00  0.00    -0.285 OA
ATOM      5  C   UNL     1      30.543  10.797  36.933  1.00  0.00     0.111 A 
ATOM      6  C   UNL     1      30.583  10.990  35.518  1.00  0.00     0.134 A 
ATOM      7  C   UNL     1      30.371  12.270  34.991  1.00  0.00     0.093 A 
ATOM      8  C   UNL     1      30.184  13.373  35.829  1.00  0.00     0.123 A 
ATOM      9  C   UNL     1      30.203  13.203  37.211  1.00  0.00     0.094 A 
ATOM     10  C   UNL     1      30.377  11.932  37.766  1.00  0.00     0.146 A 
ATOM     11  O   UNL     1      30.377  11.813  39.089  1.00  0.00    -0.452 OA
ENDROOT
BRANCH   1  12
ATOM     12  C   UNL     1      30.522  10.658  41.199  1.00  0.00     0.025 A 
ATOM     13  C   UNL     1      31.105   9.608  41.931  1.00  0.00     0.016 A 
ATOM     14  C   UNL     1      31.125   9.648  43.328  1.00  0.00     0.051 A 
ATOM     15  C   UNL     1      30.576  10.739  44.013  1.00  0.00     0.157 A 
ATOM     16  C   UNL     1      29.992  11.760  41.890  1.00  0.00     0.062 A 
ATOM     17  C   UNL     1      30.010  11.801  43.290  1.00  0.00     0.158 A 
BRANCH  15  18
ATOM     18  O   UNL     1      30.596  10.774  45.407  1.00  0.00    -0.504 OA
ATOM     19  H   UNL     1      31.466  10.808  45.924  1.00  0.00     0.293 HD
ENDBRANCH  15  18
BRANCH  17  20
ATOM     20  O   UNL     1      29.462  12.906  43.941  1.00  0.00    -0.504 OA
ATOM     21  H   UNL     1      28.595  12.848  44.461  1.00  0.00     0.293 HD
ENDBRANCH  17  20
ENDBRANCH   1  12
BRANCH   2  22
ATOM     22  O   UNL     1      30.659   8.228  39.627  1.00  0.00    -0.502 OA
ATOM     23  H   UNL     1      29.878   7.862  40.158  1.00  0.00     0.293 HD
ENDBRANCH   2  22
BRANCH   6  24
ATOM     24  O   UNL     1      30.853   9.973  34.598  1.00  0.00    -0.507 OA
ATOM     25  H   UNL     1      31.653   9.953  33.983  1.00  0.00     0.293 HD
ENDBRANCH   6  24
BRANCH   8  26
ATOM     26  O   UNL     1      29.990  14.645  35.295  1.00  0.00    -0.508 OA
ATOM     27  H   UNL     1      30.401  14.918  34.411  1.00  0.00     0.293 HD
ENDBRANCH   8  26
TORSDOF 6
ENDMDL
MODEL 6
REMARK VINA RESULT:    -7.237     16.462     18.172
REMARK INTER + INTRA:          -8.504
REMARK INTER:                  -8.631
REMARK INTRA:                   0.127
REMARK UNBOUND:                 0.215
REMARK SMILES O=c1c(O)c(-c2ccc(O)c(O)c2)oc2cc(O)cc(O)c12
REMARK SMILES IDX 5 1 3 2 2 3 1 4 22 5 20 6 19 7 17 8 16 9 15 10 14 11 6 12
REMARK SMILES IDX 7 13 8 14 9 15 13 16 11 17 10 18 12 20 4 22 21 24 18 26
REMARK H PARENT 10 19 12 21 4 23 21 25 18 27
REMARK Flexibility Score: inf
ROOT
ATOM      1  C   UNL     1      30.357  11.952  39.993  1.00  0.00     0.180 A 
ATOM      2  C   UNL     1      30.368  13.312  39.641  1.00  0.00     0.208 A 
ATOM      3  C   UNL     1      30.403  13.663  38.281  1.00  0.00     0.238 A 
ATOM      4  O   UNL     1      30.467  14.882  37.973  1.00  0.00    -0.285 OA
ATOM      5  C   UNL     1      30.411  12.649  37.293  1.00  0.00     0.111 A 
ATOM      6  C   UNL     1      30.405  12.891  35.886  1.00  0.00     0.134 A 
ATOM      7  C   UNL     1      30.546  11.815  35.000  1.00  0.00     0.093 A 
ATOM      8  C   UNL     1      30.627  10.501  35.470  1.00  0.00     0.123 A 
ATOM      9  C   UNL     1      30.573  10.251  36.839  1.00  0.00     0.094 A 
ATOM     10  C   UNL     1      30.469  11.307  37.749  1.00  0.00     0.146 A 
ATOM     11  O   UNL     1      30.432  11.025  39.046  1.00  0.00    -0.452 OA
ENDROOT
BRANCH   1  12
ATOM     12  C   UNL     1      30.296  11.504  41.404  1.00  0.00     0.025 A 
ATOM     13  C   UNL     1      31.125  10.472  41.880  1.00  0.00     0.016 A 
ATOM     14  C   UNL     1      31.067  10.082  43.220  1.00  0.00     0.051 A 
ATOM     15  C   UNL     1      30.191  10.723  44.107  1.00  0.00     0.157 A 
ATOM     16  C   UNL     1      29.435  12.157  42.301  1.00  0.00     0.062 A 
ATOM     17  C   UNL     1      29.375  11.768  43.644  1.00  0.00     0.158 A 
BRANCH  15  18
ATOM     18  O   UNL     1      30.135  10.330  45.444  1.00  0.00    -0.504 OA
ATOM     19  H   UNL     1      29.375  10.616  46.049  1.00  0.00     0.293 HD
ENDBRANCH  15  18
BRANCH  17  20
ATOM     20  O   UNL     1      28.498  12.431  44.502  1.00  0.00    -0.504 OA
ATOM     21  H   UNL     1      28.744  12.648  45.460  1.00  0.00     0.293 HD
ENDBRANCH  17  20
ENDBRANCH   1  12
BRANCH   2  22
ATOM     22  O   UNL     1      30.382  14.296  40.634  1.00  0.00    -0.502 OA
ATOM     23  H   UNL     1      31.240  14.719  40.967  1.00  0.00     0.293 HD
ENDBRANCH   2  22
BRANCH   6  24
ATOM     24  O   UNL     1      30.238  14.154  35.311  1.00  0.00    -0.507 OA
ATOM     25  H   UNL     1      30.472  15.025  35.762  1.00  0.00     0.293 HD
ENDBRANCH   6  24
BRANCH   8  26
ATOM     26  O   UNL     1      30.750   9.435  34.581  1.00  0.00    -0.508 OA
ATOM     27  H   UNL     1      31.316   9.506  33.744  1.00  0.00     0.293 HD
ENDBRANCH   8  26
TORSDOF 6
ENDMDL
MODEL 7
REMARK VINA RESULT:    -7.217     15.853     18.616
REMARK INTER + INTRA:          -8.479
REMARK INTER:                  -8.170
REMARK INTRA:                  -0.309
REMARK UNBOUND:                 0.215
REMARK SMILES O=c1c(O)c(-c2ccc(O)c(O)c2)oc2cc(O)cc(O)c12
REMARK SMILES IDX 5 1 3 2 2 3 1 4 22 5 20 6 19 7 17 8 16 9 15 10 14 11 6 12
REMARK SMILES IDX 7 13 8 14 9 15 13 16 11 17 10 18 12 20 4 22 21 24 18 26
REMARK H PARENT 10 19 12 21 4 23 21 25 18 27
REMARK Flexibility Score: inf
ROOT
ATOM      1  C   UNL     1      30.329  11.240  38.516  1.00  0.00     0.180 A 
ATOM      2  C   UNL     1      30.585   9.883  38.257  1.00  0.00     0.208 A 
ATOM      3  C   UNL     1      30.842   9.020  39.334  1.00  0.00     0.238 A 
ATOM      4  O   UNL     1      31.125   7.818  39.091  1.00  0.00    -0.285 OA
ATOM      5  C   UNL     1      30.822   9.522  40.658  1.00  0.00     0.111 A 
ATOM      6  C   UNL     1      31.028   8.729  41.827  1.00  0.00     0.134 A 
ATOM      7  C   UNL     1      31.117   9.354  43.078  1.00  0.00     0.093 A 
ATOM      8  C   UNL     1      30.942  10.734  43.207  1.00  0.00     0.123 A 
ATOM      9  C   UNL     1      30.681  11.507  42.079  1.00  0.00     0.094 A 
ATOM     10  C   UNL     1      30.623  10.918  40.813  1.00  0.00     0.146 A 
ATOM     11  O   UNL     1      30.382  11.693  39.763  1.00  0.00    -0.452 OA
ENDROOT
BRANCH   1  12
ATOM     12  C   UNL     1      30.026  12.206  37.436  1.00  0.00     0.025 A 
ATOM     13  C   UNL     1      31.032  13.009  36.868  1.00  0.00     0.016 A 
ATOM     14  C   UNL     1      30.727  13.896  35.833  1.00  0.00     0.051 A 
ATOM     15  C   UNL     1      29.419  13.986  35.340  1.00  0.00     0.157 A 
ATOM     16  C   UNL     1      28.720  12.286  36.924  1.00  0.00     0.062 A 
ATOM     17  C   UNL     1      28.412  13.174  35.887  1.00  0.00     0.158 A 
BRANCH  15  18
ATOM     18  O   UNL     1      29.118  14.874  34.308  1.00  0.00    -0.504 OA
ATOM     19  H   UNL     1      29.150  14.588  33.337  1.00  0.00     0.293 HD
ENDBRANCH  15  18
BRANCH  17  20
ATOM     20  O   UNL     1      27.102  13.234  35.414  1.00  0.00    -0.504 OA
ATOM     21  H   UNL     1      26.361  12.666  35.807  1.00  0.00     0.293 HD
ENDBRANCH  17  20
ENDBRANCH   1  12
BRANCH   2  22
ATOM     22  O   UNL     1      30.622   9.414  36.940  1.00  0.00    -0.502 OA
ATOM     23  H   UNL     1      31.431   9.532  36.343  1.00  0.00     0.293 HD
ENDBRANCH   2  22
BRANCH   6  24
ATOM     24  O   UNL     1      31.124   7.334  41.819  1.00  0.00    -0.507 OA
ATOM     25  H   UNL     1      31.075   6.761  40.990  1.00  0.00     0.293 HD
ENDBRANCH   6  24
BRANCH   8  26
ATOM     26  O   UNL     1      31.016  11.345  44.458  1.00  0.00    -0.508 OA
ATOM     27  H   UNL     1      30.836  12.334  44.576  1.00  0.00     0.293 HD
ENDBRANCH   8  26
TORSDOF 6
ENDMDL
MODEL 8
REMARK VINA RESULT:    -6.943     14.399     16.240
REMARK INTER + INTRA:          -8.149
REMARK INTER:                  -7.907
REMARK INTRA:                  -0.242
REMARK UNBOUND:                 0.215
REMARK SMILES O=c1c(O)c(-c2ccc(O)c(O)c2)oc2cc(O)cc(O)c12
REMARK SMILES IDX 5 1 3 2 2 3 1 4 22 5 20 6 19 7 17 8 16 9 15 10 14 11 6 12
REMARK SMILES IDX 7 13 8 14 9 15 13 16 11 17 10 18 12 20 4 22 21 24 18 26
REMARK H PARENT 10 19 12 21 4 23 21 25 18 27
REMARK Flexibility Score: inf
ROOT
ATOM      1  C   UNL     1      29.032  12.421  38.712  1.00  0.00     0.180 A 
ATOM      2  C   UNL     1      29.793  13.244  37.865  1.00  0.00     0.208 A 
ATOM      3  C   UNL     1      29.209  13.734  36.686  1.00  0.00     0.238 A 
ATOM      4  O   UNL     1      29.913  14.426  35.905  1.00  0.00    -0.285 OA
ATOM      5  C   UNL     1      27.866  13.409  36.378  1.00  0.00     0.111 A 
ATOM      6  C   UNL     1      27.160  13.884  35.231  1.00  0.00     0.134 A 
ATOM      7  C   UNL     1      25.878  13.393  34.958  1.00  0.00     0.093 A 
ATOM      8  C   UNL     1      25.250  12.495  35.825  1.00  0.00     0.123 A 
ATOM      9  C   UNL     1      25.907  12.072  36.977  1.00  0.00     0.094 A 
ATOM     10  C   UNL     1      27.203  12.516  37.258  1.00  0.00     0.146 A 
ATOM     11  O   UNL     1      27.797  12.080  38.363  1.00  0.00    -0.452 OA
ENDROOT
BRANCH   1  12
ATOM     12  C   UNL     1      29.570  11.885  39.983  1.00  0.00     0.025 A 
ATOM     13  C   UNL     1      30.528  10.855  39.996  1.00  0.00     0.016 A 
ATOM     14  C   UNL     1      31.039  10.382  41.207  1.00  0.00     0.051 A 
ATOM     15  C   UNL     1      30.613  10.937  42.421  1.00  0.00     0.157 A 
ATOM     16  C   UNL     1      29.161  12.452  41.201  1.00  0.00     0.062 A 
ATOM     17  C   UNL     1      29.671  11.979  42.416  1.00  0.00     0.158 A 
BRANCH  15  18
ATOM     18  O   UNL     1      31.124  10.461  43.628  1.00  0.00    -0.504 OA
ATOM     19  H   UNL     1      31.386   9.490  43.746  1.00  0.00     0.293 HD
ENDBRANCH  15  18
BRANCH  17  20
ATOM     20  O   UNL     1      29.232  12.559  43.606  1.00  0.00    -0.504 OA
ATOM     21  H   UNL     1      28.458  12.177  44.136  1.00  0.00     0.293 HD
ENDBRANCH  17  20
ENDBRANCH   1  12
BRANCH   2  22
ATOM     22  O   UNL     1      31.125  13.534  38.178  1.00  0.00    -0.502 OA
ATOM     23  H   UNL     1      31.902  13.135  37.666  1.00  0.00     0.293 HD
ENDBRANCH   2  22
BRANCH   6  24
ATOM     24  O   UNL     1      27.660  14.850  34.352  1.00  0.00    -0.507 OA
ATOM     25  H   UNL     1      28.167  14.646  33.504  1.00  0.00     0.293 HD
ENDBRANCH   6  24
BRANCH   8  26
ATOM     26  O   UNL     1      23.967  12.024  35.553  1.00  0.00    -0.508 OA
ATOM     27  H   UNL     1      23.436  12.361  34.760  1.00  0.00     0.293 HD
ENDBRANCH   8  26
TORSDOF 6
ENDMDL
MODEL 9
REMARK VINA RESULT:    -6.866      1.550      7.204
REMARK INTER + INTRA:          -8.056
REMARK INTER:                  -7.898
REMARK INTRA:                  -0.158
REMARK UNBOUND:                 0.215
REMARK SMILES O=c1c(O)c(-c2ccc(O)c(O)c2)oc2cc(O)cc(O)c12
REMARK SMILES IDX 5 1 3 2 2 3 1 4 22 5 20 6 19 7 17 8 16 9 15 10 14 11 6 12
REMARK SMILES IDX 7 13 8 14 9 15 13 16 11 17 10 18 12 20 4 22 21 24 18 26
REMARK H PARENT 10 19 12 21 4 23 21 25 18 27
REMARK Flexibility Score: inf
ROOT
ATOM      1  C   UNL     1      17.005  22.126  40.824  1.00  0.00     0.180 A 
ATOM      2  C   UNL     1      17.104  20.737  40.634  1.00  0.00     0.208 A 
ATOM      3  C   UNL     1      18.304  20.201  40.139  1.00  0.00     0.238 A 
ATOM      4  O   UNL     1      18.367  18.963  39.919  1.00  0.00    -0.285 OA
ATOM      5  C   UNL     1      19.394  21.059  39.857  1.00  0.00     0.111 A 
ATOM      6  C   UNL     1      20.670  20.619  39.391  1.00  0.00     0.134 A 
ATOM      7  C   UNL     1      21.633  21.567  39.020  1.00  0.00     0.093 A 
ATOM      8  C   UNL     1      21.388  22.935  39.160  1.00  0.00     0.123 A 
ATOM      9  C   UNL     1      20.169  23.371  39.671  1.00  0.00     0.094 A 
ATOM     10  C   UNL     1      19.175  22.451  40.015  1.00  0.00     0.146 A 
ATOM     11  O   UNL     1      18.022  22.910  40.488  1.00  0.00    -0.452 OA
ENDROOT
BRANCH   1  12
ATOM     12  C   UNL     1      15.782  22.763  41.365  1.00  0.00     0.025 A 
ATOM     13  C   UNL     1      14.997  23.624  40.577  1.00  0.00     0.016 A 
ATOM     14  C   UNL     1      13.834  24.195  41.101  1.00  0.00     0.051 A 
ATOM     15  C   UNL     1      13.431  23.904  42.411  1.00  0.00     0.157 A 
ATOM     16  C   UNL     1      15.363  22.459  42.670  1.00  0.00     0.062 A 
ATOM     17  C   UNL     1      14.198  23.030  43.197  1.00  0.00     0.158 A 
BRANCH  15  18
ATOM     18  O   UNL     1      12.270  24.477  42.930  1.00  0.00    -0.504 OA
ATOM     19  H   UNL     1      11.659  23.964  43.555  1.00  0.00     0.293 HD
ENDBRANCH  15  18
BRANCH  17  20
ATOM     20  O   UNL     1      13.820  22.714  44.502  1.00  0.00    -0.504 OA
ATOM     21  H   UNL     1      13.107  23.236  44.997  1.00  0.00     0.293 HD
ENDBRANCH  17  20
ENDBRANCH   1  12
BRANCH   2  22
ATOM     22  O   UNL     1      16.007  19.912  40.898  1.00  0.00    -0.502 OA
ATOM     23  H   UNL     1      15.165  19.930  40.335  1.00  0.00     0.293 HD
ENDBRANCH   2  22
BRANCH   6  24
ATOM     24  O   UNL     1      21.049  19.276  39.300  1.00  0.00    -0.507 OA
ATOM     25  H   UNL     1      21.956  18.917  39.557  1.00  0.00     0.293 HD
ENDBRANCH   6  24
BRANCH   8  26
ATOM     26  O   UNL     1      22.359  23.870  38.804  1.00  0.00    -0.508 OA
ATOM     27  H   UNL     1      23.312  23.594  38.603  1.00  0.00     0.293 HD
ENDBRANCH   8  26
TORSDOF 6
ENDMDL
