MODEL 1
REMARK VINA RESULT:    -3.936      0.000      0.000
REMARK INTER + INTRA:          -4.316
REMARK INTER:                  -4.281
REMARK INTRA:                  -0.034
REMARK UNBOUND:                -0.034
REMARK SMILES O=C([O-])c1ccc(O)cc1
REMARK SMILES IDX 7 1 6 2 9 3 5 4 10 5 4 6 8 7 2 9 1 10 3 11
REMARK H PARENT 8 8
REMARK Flexibility Score: inf
ROOT
ATOM      1  C   UNL     1      50.919 -28.192 -32.210  1.00  0.00     0.115 A 
ATOM      2  C   UNL     1      50.612 -28.799 -30.989  1.00  0.00     0.047 A 
ATOM      3  C   UNL     1      49.889 -27.859 -33.099  1.00  0.00     0.047 A 
ATOM      4  C   UNL     1      49.281 -29.073 -30.654  1.00  0.00     0.014 A 
ATOM      5  C   UNL     1      48.557 -28.131 -32.767  1.00  0.00     0.014 A 
ATOM      6  C   UNL     1      48.240 -28.741 -31.540  1.00  0.00    -0.003 A 
ENDROOT
BRANCH   1   7
ATOM      7  O   UNL     1      52.248 -27.925 -32.531  1.00  0.00    -0.508 OA
ATOM      8  H   UNL     1      52.856 -27.424 -31.894  1.00  0.00     0.293 HD
ENDBRANCH   1   7
BRANCH   6   9
ATOM      9  C   UNL     1      46.831 -29.029 -31.191  1.00  0.00     0.071 C 
ATOM     10  O   UNL     1      45.894 -28.373 -31.719  1.00  0.00    -0.545 OA
ATOM     11  O   UNL     1      46.522 -30.028 -30.276  1.00  0.00    -0.545 OA
ENDBRANCH   6   9
TORSDOF 2
ENDMDL
MODEL 2
REMARK VINA RESULT:    -3.933      0.048      1.532
REMARK INTER + INTRA:          -4.313
REMARK INTER:                  -4.279
REMARK INTRA:                  -0.034
REMARK UNBOUND:                -0.034
REMARK SMILES O=C([O-])c1ccc(O)cc1
REMARK SMILES IDX 7 1 6 2 9 3 5 4 10 5 4 6 8 7 2 9 1 10 3 11
REMARK H PARENT 8 8
REMARK Flexibility Score: inf
ROOT
ATOM      1  C   UNL     1      50.882 -28.216 -32.205  1.00  0.00     0.115 A 
ATOM      2  C   UNL     1      49.854 -27.889 -33.092  1.00  0.00     0.047 A 
ATOM      3  C   UNL     1      50.574 -28.816 -30.977  1.00  0.00     0.047 A 
ATOM      4  C   UNL     1      48.522 -28.159 -32.759  1.00  0.00     0.014 A 
ATOM      5  C   UNL     1      49.244 -29.088 -30.640  1.00  0.00     0.014 A 
ATOM      6  C   UNL     1      48.204 -28.763 -31.528  1.00  0.00    -0.003 A 
ENDROOT
BRANCH   1   7
ATOM      7  O   UNL     1      52.203 -27.941 -32.550  1.00  0.00    -0.508 OA
ATOM      8  H   UNL     1      52.433 -27.390 -33.368  1.00  0.00     0.293 HD
ENDBRANCH   1   7
BRANCH   6   9
ATOM      9  C   UNL     1      46.798 -29.050 -31.170  1.00  0.00     0.071 C 
ATOM     10  O   UNL     1      45.859 -28.376 -31.669  1.00  0.00    -0.545 OA
ATOM     11  O   UNL     1      46.493 -30.071 -30.277  1.00  0.00    -0.545 OA
ENDBRANCH   6   9
TORSDOF 2
ENDMDL
MODEL 3
REMARK VINA RESULT:    -3.882      1.242      4.312
REMARK INTER + INTRA:          -4.256
REMARK INTER:                  -4.223
REMARK INTRA:                  -0.033
REMARK UNBOUND:                -0.034
REMARK SMILES O=C([O-])c1ccc(O)cc1
REMARK SMILES IDX 7 1 6 2 9 3 5 4 10 5 4 6 8 7 2 9 1 10 3 11
REMARK H PARENT 8 8
REMARK Flexibility Score: inf
ROOT
ATOM      1  C   UNL     1      48.064 -28.378 -32.180  1.00  0.00     0.115 A 
ATOM      2  C   UNL     1      48.518 -28.947 -30.987  1.00  0.00     0.047 A 
ATOM      3  C   UNL     1      48.990 -27.917 -33.126  1.00  0.00     0.047 A 
ATOM      4  C   UNL     1      49.891 -29.057 -30.736  1.00  0.00     0.014 A 
ATOM      5  C   UNL     1      50.362 -28.026 -32.878  1.00  0.00     0.014 A 
ATOM      6  C   UNL     1      50.827 -28.597 -31.681  1.00  0.00    -0.003 A 
ENDROOT
BRANCH   1   7
ATOM      7  O   UNL     1      46.696 -28.276 -32.417  1.00  0.00    -0.508 OA
ATOM      8  H   UNL     1      46.021 -28.343 -31.664  1.00  0.00     0.293 HD
ENDBRANCH   1   7
BRANCH   6   9
ATOM      9  C   UNL     1      52.279 -28.710 -31.421  1.00  0.00     0.071 C 
ATOM     10  O   UNL     1      52.734 -29.658 -30.729  1.00  0.00    -0.545 OA
ATOM     11  O   UNL     1      53.162 -27.769 -31.938  1.00  0.00    -0.545 OA
ENDBRANCH   6   9
TORSDOF 2
ENDMDL
MODEL 4
REMARK VINA RESULT:    -3.871      1.272      4.483
REMARK INTER + INTRA:          -4.245
REMARK INTER:                  -4.212
REMARK INTRA:                  -0.033
REMARK UNBOUND:                -0.034
REMARK SMILES O=C([O-])c1ccc(O)cc1
REMARK SMILES IDX 7 1 6 2 9 3 5 4 10 5 4 6 8 7 2 9 1 10 3 11
REMARK H PARENT 8 8
REMARK Flexibility Score: inf
ROOT
ATOM      1  C   UNL     1      48.164 -28.370 -32.232  1.00  0.00     0.115 A 
ATOM      2  C   UNL     1      49.055 -27.900 -33.201  1.00  0.00     0.047 A 
ATOM      3  C   UNL     1      48.658 -28.915 -31.041  1.00  0.00     0.047 A 
ATOM      4  C   UNL     1      50.435 -27.973 -32.983  1.00  0.00     0.014 A 
ATOM      5  C   UNL     1      50.037 -28.989 -30.819  1.00  0.00     0.014 A 
ATOM      6  C   UNL     1      50.940 -28.519 -31.789  1.00  0.00    -0.003 A 
ENDROOT
BRANCH   1   7
ATOM      7  O   UNL     1      46.793 -28.290 -32.462  1.00  0.00    -0.508 OA
ATOM      8  H   UNL     1      46.406 -27.646 -33.141  1.00  0.00     0.293 HD
ENDBRANCH   1   7
BRANCH   6   9
ATOM      9  C   UNL     1      52.399 -28.599 -31.553  1.00  0.00     0.071 C 
ATOM     10  O   UNL     1      53.175 -27.734 -32.038  1.00  0.00    -0.545 OA
ATOM     11  O   UNL     1      52.933 -29.632 -30.792  1.00  0.00    -0.545 OA
ENDBRANCH   6   9
TORSDOF 2
ENDMDL
MODEL 5
REMARK VINA RESULT:    -3.851     14.556     16.435
REMARK INTER + INTRA:          -4.223
REMARK INTER:                  -4.191
REMARK INTRA:                  -0.032
REMARK UNBOUND:                -0.034
REMARK SMILES O=C([O-])c1ccc(O)cc1
REMARK SMILES IDX 7 1 6 2 9 3 5 4 10 5 4 6 8 7 2 9 1 10 3 11
REMARK H PARENT 8 8
REMARK Flexibility Score: inf
ROOT
ATOM      1  C   UNL     1      38.622 -42.748 -29.215  1.00  0.00     0.115 A 
ATOM      2  C   UNL     1      39.055 -41.902 -30.238  1.00  0.00     0.047 A 
ATOM      3  C   UNL     1      38.220 -42.205 -27.987  1.00  0.00     0.047 A 
ATOM      4  C   UNL     1      39.088 -40.517 -30.041  1.00  0.00     0.014 A 
ATOM      5  C   UNL     1      38.252 -40.821 -27.787  1.00  0.00     0.014 A 
ATOM      6  C   UNL     1      38.686 -39.963 -28.812  1.00  0.00    -0.003 A 
ENDROOT
BRANCH   1   7
ATOM      7  O   UNL     1      38.594 -44.125 -29.425  1.00  0.00    -0.508 OA
ATOM      8  H   UNL     1      38.208 -44.523 -30.273  1.00  0.00     0.293 HD
ENDBRANCH   1   7
BRANCH   6   9
ATOM      9  C   UNL     1      38.720 -38.499 -28.597  1.00  0.00     0.071 C 
ATOM     10  O   UNL     1      39.090 -38.022 -27.492  1.00  0.00    -0.545 OA
ATOM     11  O   UNL     1      38.343 -37.629 -29.614  1.00  0.00    -0.545 OA
ENDBRANCH   6   9
TORSDOF 2
ENDMDL
MODEL 6
REMARK VINA RESULT:    -3.839      1.326      4.268
REMARK INTER + INTRA:          -4.210
REMARK INTER:                  -4.180
REMARK INTRA:                  -0.030
REMARK UNBOUND:                -0.034
REMARK SMILES O=C([O-])c1ccc(O)cc1
REMARK SMILES IDX 7 1 6 2 9 3 5 4 10 5 4 6 8 7 2 9 1 10 3 11
REMARK H PARENT 8 8
REMARK Flexibility Score: inf
ROOT
ATOM      1  C   UNL     1      47.412 -28.233 -32.077  1.00  0.00     0.115 A 
ATOM      2  C   UNL     1      48.474 -27.796 -32.873  1.00  0.00     0.047 A 
ATOM      3  C   UNL     1      47.673 -28.941 -30.897  1.00  0.00     0.047 A 
ATOM      4  C   UNL     1      49.794 -28.063 -32.494  1.00  0.00     0.014 A 
ATOM      5  C   UNL     1      48.992 -29.209 -30.515  1.00  0.00     0.014 A 
ATOM      6  C   UNL     1      50.066 -28.772 -31.310  1.00  0.00    -0.003 A 
ENDROOT
BRANCH   1   7
ATOM      7  O   UNL     1      46.102 -27.960 -32.466  1.00  0.00    -0.508 OA
ATOM      8  H   UNL     1      45.844 -27.066 -32.866  1.00  0.00     0.293 HD
ENDBRANCH   1   7
BRANCH   6   9
ATOM      9  C   UNL     1      51.460 -29.058 -30.905  1.00  0.00     0.071 C 
ATOM     10  O   UNL     1      51.865 -28.761 -29.750  1.00  0.00    -0.545 OA
ATOM     11  O   UNL     1      52.343 -29.658 -31.795  1.00  0.00    -0.545 OA
ENDBRANCH   6   9
TORSDOF 2
ENDMDL
MODEL 7
REMARK VINA RESULT:    -3.674      2.444      2.832
REMARK INTER + INTRA:          -4.030
REMARK INTER:                  -4.001
REMARK INTRA:                  -0.029
REMARK UNBOUND:                -0.034
REMARK SMILES O=C([O-])c1ccc(O)cc1
REMARK SMILES IDX 7 1 6 2 9 3 5 4 10 5 4 6 8 7 2 9 1 10 3 11
REMARK H PARENT 8 8
REMARK Flexibility Score: inf
ROOT
ATOM      1  C   UNL     1      50.167 -27.962 -32.599  1.00  0.00     0.115 A 
ATOM      2  C   UNL     1      48.788 -28.093 -32.780  1.00  0.00     0.047 A 
ATOM      3  C   UNL     1      50.658 -27.117 -31.596  1.00  0.00     0.047 A 
ATOM      4  C   UNL     1      47.899 -27.384 -31.963  1.00  0.00     0.014 A 
ATOM      5  C   UNL     1      49.773 -26.406 -30.778  1.00  0.00     0.014 A 
ATOM      6  C   UNL     1      48.384 -26.533 -30.953  1.00  0.00    -0.003 A 
ENDROOT
BRANCH   1   7
ATOM      7  O   UNL     1      51.039 -28.674 -33.418  1.00  0.00    -0.508 OA
ATOM      8  H   UNL     1      50.895 -28.735 -34.419  1.00  0.00     0.293 HD
ENDBRANCH   1   7
BRANCH   6   9
ATOM      9  C   UNL     1      47.450 -25.780 -30.087  1.00  0.00     0.071 C 
ATOM     10  O   UNL     1      47.490 -24.522 -30.043  1.00  0.00    -0.545 OA
ATOM     11  O   UNL     1      46.513 -26.452 -29.311  1.00  0.00    -0.545 OA
ENDBRANCH   6   9
TORSDOF 2
ENDMDL
MODEL 8
REMARK VINA RESULT:    -3.580     13.158     13.838
REMARK INTER + INTRA:          -3.929
REMARK INTER:                  -3.894
REMARK INTRA:                  -0.035
REMARK UNBOUND:                -0.034
REMARK SMILES O=C([O-])c1ccc(O)cc1
REMARK SMILES IDX 7 1 6 2 9 3 5 4 10 5 4 6 8 7 2 9 1 10 3 11
REMARK H PARENT 8 8
REMARK Flexibility Score: inf
ROOT
ATOM      1  C   UNL     1      54.422 -40.375 -33.253  1.00  0.00     0.115 A 
ATOM      2  C   UNL     1      55.642 -40.361 -32.573  1.00  0.00     0.047 A 
ATOM      3  C   UNL     1      53.257 -40.767 -32.581  1.00  0.00     0.047 A 
ATOM      4  C   UNL     1      55.704 -40.736 -31.227  1.00  0.00     0.014 A 
ATOM      5  C   UNL     1      53.314 -41.143 -31.235  1.00  0.00     0.014 A 
ATOM      6  C   UNL     1      54.538 -41.131 -30.544  1.00  0.00    -0.003 A 
ENDROOT
BRANCH   1   7
ATOM      7  O   UNL     1      54.375 -39.998 -34.593  1.00  0.00    -0.508 OA
ATOM      8  H   UNL     1      53.992 -39.105 -34.880  1.00  0.00     0.293 HD
ENDBRANCH   1   7
BRANCH   6   9
ATOM      9  C   UNL     1      54.597 -41.530 -29.120  1.00  0.00     0.071 C 
ATOM     10  O   UNL     1      55.566 -41.180 -28.396  1.00  0.00    -0.545 OA
ATOM     11  O   UNL     1      53.581 -42.296 -28.561  1.00  0.00    -0.545 OA
ENDBRANCH   6   9
TORSDOF 2
ENDMDL
MODEL 9
REMARK VINA RESULT:    -3.576      1.349      4.408
REMARK INTER + INTRA:          -3.924
REMARK INTER:                  -3.892
REMARK INTRA:                  -0.031
REMARK UNBOUND:                -0.034
REMARK SMILES O=C([O-])c1ccc(O)cc1
REMARK SMILES IDX 7 1 6 2 9 3 5 4 10 5 4 6 8 7 2 9 1 10 3 11
REMARK H PARENT 8 8
REMARK Flexibility Score: inf
ROOT
ATOM      1  C   UNL     1      46.795 -29.530 -30.187  1.00  0.00     0.115 A 
ATOM      2  C   UNL     1      46.458 -28.840 -31.354  1.00  0.00     0.047 A 
ATOM      3  C   UNL     1      48.140 -29.656 -29.818  1.00  0.00     0.047 A 
ATOM      4  C   UNL     1      47.459 -28.276 -32.153  1.00  0.00     0.014 A 
ATOM      5  C   UNL     1      49.144 -29.093 -30.613  1.00  0.00     0.014 A 
ATOM      6  C   UNL     1      48.813 -28.397 -31.789  1.00  0.00    -0.003 A 
ENDROOT
BRANCH   1   7
ATOM      7  O   UNL     1      45.788 -30.086 -29.402  1.00  0.00    -0.508 OA
ATOM      8  H   UNL     1      45.923 -30.262 -28.413  1.00  0.00     0.293 HD
ENDBRANCH   1   7
BRANCH   6   9
ATOM      9  C   UNL     1      49.876 -27.803 -32.630  1.00  0.00     0.071 C 
ATOM     10  O   UNL     1      50.838 -27.182 -32.103  1.00  0.00    -0.545 OA
ATOM     11  O   UNL     1      49.829 -27.923 -34.014  1.00  0.00    -0.545 OA
ENDBRANCH   6   9
TORSDOF 2
ENDMDL
