MODEL 1
REMARK VINA RESULT:    -3.405      0.000      0.000
REMARK INTER + INTRA:          -4.680
REMARK INTER:                  -4.400
REMARK INTRA:                  -0.280
REMARK UNBOUND:                -0.280
REMARK SMILES CCCCCCC(=O)[O-]
REMARK SMILES IDX 5 1 6 2 7 3 8 4 9 5 4 6 3 7 2 8 1 9
REMARK H PARENT
REMARK Flexibility Score: inf
ROOT
ATOM      1  C   UNL     1       6.061   1.014  -0.567  1.00  0.00     0.006 C 
ENDROOT
BRANCH   1   2
ATOM      2  C   UNL     1       5.696   1.462   0.855  1.00  0.00     0.053 C 
BRANCH   2   3
ATOM      3  C   UNL     1       6.202   0.501   1.888  1.00  0.00     0.041 C 
ATOM      4  O   UNL     1       7.433   0.437   2.145  1.00  0.00    -0.550 OA
ATOM      5  O   UNL     1       5.310  -0.298   2.591  1.00  0.00    -0.550 OA
ENDBRANCH   2   3
ENDBRANCH   1   2
BRANCH   1   6
ATOM      6  C   UNL     1       5.423  -0.333  -0.933  1.00  0.00     0.000 C 
BRANCH   6   7
ATOM      7  C   UNL     1       6.460  -1.284  -1.543  1.00  0.00    -0.000 C 
BRANCH   7   8
ATOM      8  C   UNL     1       7.122  -2.145  -0.461  1.00  0.00    -0.003 C 
ATOM      9  C   UNL     1       7.882  -3.315  -1.075  1.00  0.00     0.004 C 
ENDBRANCH   7   8
ENDBRANCH   6   7
ENDBRANCH   1   6
TORSDOF 5
ENDMDL
MODEL 2
REMARK VINA RESULT:    -3.304      1.044      1.563
REMARK INTER + INTRA:          -4.550
REMARK INTER:                  -4.299
REMARK INTRA:                  -0.251
REMARK UNBOUND:                -0.280
REMARK SMILES CCCCCCC(=O)[O-]
REMARK SMILES IDX 5 1 6 2 7 3 8 4 9 5 4 6 3 7 2 8 1 9
REMARK H PARENT
REMARK Flexibility Score: inf
ROOT
ATOM      1  C   UNL     1       5.758   0.104  -0.451  1.00  0.00     0.006 C 
ENDROOT
BRANCH   1   2
ATOM      2  C   UNL     1       6.712   0.425   0.708  1.00  0.00     0.053 C 
BRANCH   2   3
ATOM      3  C   UNL     1       5.975   0.619   1.998  1.00  0.00     0.041 C 
ATOM      4  O   UNL     1       5.346  -0.339   2.519  1.00  0.00    -0.550 OA
ATOM      5  O   UNL     1       6.014   1.849   2.643  1.00  0.00    -0.550 OA
ENDBRANCH   2   3
ENDBRANCH   1   2
BRANCH   1   6
ATOM      6  C   UNL     1       6.196  -1.141  -1.235  1.00  0.00     0.000 C 
BRANCH   6   7
ATOM      7  C   UNL     1       7.082  -2.049  -0.373  1.00  0.00    -0.000 C 
BRANCH   7   8
ATOM      8  C   UNL     1       7.769  -3.119  -1.229  1.00  0.00    -0.003 C 
ATOM      9  C   UNL     1       7.419  -2.955  -2.704  1.00  0.00     0.004 C 
ENDBRANCH   7   8
ENDBRANCH   6   7
ENDBRANCH   1   6
TORSDOF 5
ENDMDL
MODEL 3
REMARK VINA RESULT:    -3.188      1.686      2.762
REMARK INTER + INTRA:          -4.400
REMARK INTER:                  -4.248
REMARK INTRA:                  -0.152
REMARK UNBOUND:                -0.280
REMARK SMILES CCCCCCC(=O)[O-]
REMARK SMILES IDX 5 1 6 2 7 3 8 4 9 5 4 6 3 7 2 8 1 9
REMARK H PARENT
REMARK Flexibility Score: inf
ROOT
ATOM      1  C   UNL     1       6.720  -1.299  -0.166  1.00  0.00     0.006 C 
ENDROOT
BRANCH   1   2
ATOM      2  C   UNL     1       5.747  -0.175   0.216  1.00  0.00     0.053 C 
BRANCH   2   3
ATOM      3  C   UNL     1       5.936   0.266   1.635  1.00  0.00     0.041 C 
ATOM      4  O   UNL     1       5.289  -0.288   2.562  1.00  0.00    -0.550 OA
ATOM      5  O   UNL     1       6.853   1.266   1.937  1.00  0.00    -0.550 OA
ENDBRANCH   2   3
ENDBRANCH   1   2
BRANCH   1   6
ATOM      6  C   UNL     1       6.684  -1.612  -1.669  1.00  0.00     0.000 C 
BRANCH   6   7
ATOM      7  C   UNL     1       5.490  -0.926  -2.344  1.00  0.00    -0.000 C 
BRANCH   7   8
ATOM      8  C   UNL     1       5.135  -1.615  -3.667  1.00  0.00    -0.003 C 
ATOM      9  C   UNL     1       3.627  -1.634  -3.892  1.00  0.00     0.004 C 
ENDBRANCH   7   8
ENDBRANCH   6   7
ENDBRANCH   1   6
TORSDOF 5
ENDMDL
MODEL 4
REMARK VINA RESULT:    -3.042      1.438      2.078
REMARK INTER + INTRA:          -4.211
REMARK INTER:                  -3.931
REMARK INTRA:                  -0.280
REMARK UNBOUND:                -0.280
REMARK SMILES CCCCCCC(=O)[O-]
REMARK SMILES IDX 5 1 6 2 7 3 8 4 9 5 4 6 3 7 2 8 1 9
REMARK H PARENT
REMARK Flexibility Score: inf
ROOT
ATOM      1  C   UNL     1       7.820  -0.159   0.476  1.00  0.00     0.006 C 
ENDROOT
BRANCH   1   2
ATOM      2  C   UNL     1       6.290  -0.114   0.371  1.00  0.00     0.053 C 
BRANCH   2   3
ATOM      3  C   UNL     1       5.663   0.446   1.612  1.00  0.00     0.041 C 
ATOM      4  O   UNL     1       5.368   1.669   1.676  1.00  0.00    -0.550 OA
ATOM      5  O   UNL     1       5.373  -0.390   2.683  1.00  0.00    -0.550 OA
ENDBRANCH   2   3
ENDBRANCH   1   2
BRANCH   1   6
ATOM      6  C   UNL     1       8.407  -1.432  -0.151  1.00  0.00     0.000 C 
BRANCH   6   7
ATOM      7  C   UNL     1       7.295  -2.393  -0.587  1.00  0.00    -0.000 C 
BRANCH   7   8
ATOM      8  C   UNL     1       7.452  -2.784  -2.061  1.00  0.00    -0.003 C 
ATOM      9  C   UNL     1       6.520  -1.969  -2.951  1.00  0.00     0.004 C 
ENDBRANCH   7   8
ENDBRANCH   6   7
ENDBRANCH   1   6
TORSDOF 5
ENDMDL
MODEL 5
REMARK VINA RESULT:    -3.042      4.625      5.570
REMARK INTER + INTRA:          -4.211
REMARK INTER:                  -4.022
REMARK INTRA:                  -0.188
REMARK UNBOUND:                -0.280
REMARK SMILES CCCCCCC(=O)[O-]
REMARK SMILES IDX 5 1 6 2 7 3 8 4 9 5 4 6 3 7 2 8 1 9
REMARK H PARENT
REMARK Flexibility Score: inf
ROOT
ATOM      1  C   UNL     1       4.774  -1.464  -4.036  1.00  0.00     0.006 C 
ENDROOT
BRANCH   1   2
ATOM      2  C   UNL     1       3.367  -1.538  -3.427  1.00  0.00     0.053 C 
BRANCH   2   3
ATOM      3  C   UNL     1       2.386  -2.173  -4.364  1.00  0.00     0.041 C 
ATOM      4  O   UNL     1       2.224  -1.707  -5.523  1.00  0.00    -0.550 OA
ATOM      5  O   UNL     1       1.677  -3.300  -3.970  1.00  0.00    -0.550 OA
ENDBRANCH   2   3
ENDBRANCH   1   2
BRANCH   1   6
ATOM      6  C   UNL     1       5.875  -1.572  -2.971  1.00  0.00     0.000 C 
BRANCH   6   7
ATOM      7  C   UNL     1       5.527  -0.733  -1.736  1.00  0.00    -0.000 C 
BRANCH   7   8
ATOM      8  C   UNL     1       6.417  -1.112  -0.546  1.00  0.00    -0.003 C 
ATOM      9  C   UNL     1       7.235  -2.363  -0.845  1.00  0.00     0.004 C 
ENDBRANCH   7   8
ENDBRANCH   6   7
ENDBRANCH   1   6
TORSDOF 5
ENDMDL
MODEL 6
REMARK VINA RESULT:    -3.023      7.058      7.771
REMARK INTER + INTRA:          -4.187
REMARK INTER:                  -4.088
REMARK INTRA:                  -0.099
REMARK UNBOUND:                -0.280
REMARK SMILES CCCCCCC(=O)[O-]
REMARK SMILES IDX 5 1 6 2 7 3 8 4 9 5 4 6 3 7 2 8 1 9
REMARK H PARENT
REMARK Flexibility Score: inf
ROOT
ATOM      1  C   UNL     1       1.498  -3.890  -4.010  1.00  0.00     0.006 C 
ENDROOT
BRANCH   1   2
ATOM      2  C   UNL     1       2.258  -2.578  -3.772  1.00  0.00     0.053 C 
BRANCH   2   3
ATOM      3  C   UNL     1       2.496  -1.832  -5.050  1.00  0.00     0.041 C 
ATOM      4  O   UNL     1       3.162  -2.362  -5.978  1.00  0.00    -0.550 OA
ATOM      5  O   UNL     1       1.954  -0.566  -5.228  1.00  0.00    -0.550 OA
ENDBRANCH   2   3
ENDBRANCH   1   2
BRANCH   1   6
ATOM      6  C   UNL     1       0.668  -4.310  -2.788  1.00  0.00     0.000 C 
BRANCH   6   7
ATOM      7  C   UNL     1       0.681  -5.834  -2.614  1.00  0.00    -0.000 C 
BRANCH   7   8
ATOM      8  C   UNL     1       1.107  -6.221  -1.193  1.00  0.00    -0.003 C 
ATOM      9  C   UNL     1       1.816  -7.571  -1.179  1.00  0.00     0.004 C 
ENDBRANCH   7   8
ENDBRANCH   6   7
ENDBRANCH   1   6
TORSDOF 5
ENDMDL
MODEL 7
REMARK VINA RESULT:    -2.995      3.308      4.247
REMARK INTER + INTRA:          -4.150
REMARK INTER:                  -3.916
REMARK INTRA:                  -0.235
REMARK UNBOUND:                -0.280
REMARK SMILES CCCCCCC(=O)[O-]
REMARK SMILES IDX 5 1 6 2 7 3 8 4 9 5 4 6 3 7 2 8 1 9
REMARK H PARENT
REMARK Flexibility Score: inf
ROOT
ATOM      1  C   UNL     1       5.832  -0.847  -3.033  1.00  0.00     0.006 C 
ENDROOT
BRANCH   1   2
ATOM      2  C   UNL     1       5.409  -0.621  -1.576  1.00  0.00     0.053 C 
BRANCH   2   3
ATOM      3  C   UNL     1       6.387  -1.220  -0.612  1.00  0.00     0.041 C 
ATOM      4  O   UNL     1       6.489  -0.760   0.556  1.00  0.00    -0.550 OA
ATOM      5  O   UNL     1       7.162  -2.308  -0.993  1.00  0.00    -0.550 OA
ENDBRANCH   2   3
ENDBRANCH   1   2
BRANCH   1   6
ATOM      6  C   UNL     1       4.882  -1.801  -3.773  1.00  0.00     0.000 C 
BRANCH   6   7
ATOM      7  C   UNL     1       4.220  -1.101  -4.966  1.00  0.00    -0.000 C 
BRANCH   7   8
ATOM      8  C   UNL     1       2.699  -1.288  -4.938  1.00  0.00    -0.003 C 
ATOM      9  C   UNL     1       2.296  -2.384  -3.958  1.00  0.00     0.004 C 
ENDBRANCH   7   8
ENDBRANCH   6   7
ENDBRANCH   1   6
TORSDOF 5
ENDMDL
MODEL 8
REMARK VINA RESULT:    -2.959      7.283      8.076
REMARK INTER + INTRA:          -4.105
REMARK INTER:                  -3.899
REMARK INTRA:                  -0.206
REMARK UNBOUND:                -0.280
REMARK SMILES CCCCCCC(=O)[O-]
REMARK SMILES IDX 5 1 6 2 7 3 8 4 9 5 4 6 3 7 2 8 1 9
REMARK H PARENT
REMARK Flexibility Score: inf
ROOT
ATOM      1  C   UNL     1       1.061  -4.198  -3.013  1.00  0.00     0.006 C 
ENDROOT
BRANCH   1   2
ATOM      2  C   UNL     1       1.539  -4.014  -4.459  1.00  0.00     0.053 C 
BRANCH   2   3
ATOM      3  C   UNL     1       2.179  -2.675  -4.668  1.00  0.00     0.041 C 
ATOM      4  O   UNL     1       2.533  -1.981  -3.679  1.00  0.00    -0.550 OA
ATOM      5  O   UNL     1       2.416  -2.210  -5.955  1.00  0.00    -0.550 OA
ENDBRANCH   2   3
ENDBRANCH   1   2
BRANCH   1   6
ATOM      6  C   UNL     1      -0.275  -4.951  -2.935  1.00  0.00     0.000 C 
BRANCH   6   7
ATOM      7  C   UNL     1      -0.113  -6.283  -2.193  1.00  0.00    -0.000 C 
BRANCH   7   8
ATOM      8  C   UNL     1       1.077  -6.234  -1.228  1.00  0.00    -0.003 C 
ATOM      9  C   UNL     1       1.810  -7.570  -1.187  1.00  0.00     0.004 C 
ENDBRANCH   7   8
ENDBRANCH   6   7
ENDBRANCH   1   6
TORSDOF 5
ENDMDL
MODEL 9
REMARK VINA RESULT:    -2.918      6.350      7.447
REMARK INTER + INTRA:          -4.051
REMARK INTER:                  -3.902
REMARK INTRA:                  -0.150
REMARK UNBOUND:                -0.280
REMARK SMILES CCCCCCC(=O)[O-]
REMARK SMILES IDX 5 1 6 2 7 3 8 4 9 5 4 6 3 7 2 8 1 9
REMARK H PARENT
REMARK Flexibility Score: inf
ROOT
ATOM      1  C   UNL     1       1.559  -3.751  -4.139  1.00  0.00     0.006 C 
ENDROOT
BRANCH   1   2
ATOM      2  C   UNL     1       0.756  -4.342  -2.972  1.00  0.00     0.053 C 
BRANCH   2   3
ATOM      3  C   UNL     1       1.161  -5.754  -2.676  1.00  0.00     0.041 C 
ATOM      4  O   UNL     1       1.764  -6.436  -3.546  1.00  0.00    -0.550 OA
ATOM      5  O   UNL     1       0.902  -6.305  -1.427  1.00  0.00    -0.550 OA
ENDBRANCH   2   3
ENDBRANCH   1   2
BRANCH   1   6
ATOM      6  C   UNL     1       2.264  -2.443  -3.755  1.00  0.00     0.000 C 
BRANCH   6   7
ATOM      7  C   UNL     1       2.578  -1.603  -4.999  1.00  0.00    -0.000 C 
BRANCH   7   8
ATOM      8  C   UNL     1       4.088  -1.382  -5.147  1.00  0.00    -0.003 C 
ATOM      9  C   UNL     1       4.787  -1.429  -3.793  1.00  0.00     0.004 C 
ENDBRANCH   7   8
ENDBRANCH   6   7
ENDBRANCH   1   6
TORSDOF 5
ENDMDL
