MODEL 1
REMARK VINA RESULT:    -2.974      0.000      0.000
REMARK INTER + INTRA:         -13.250
REMARK INTER:                  -7.843
REMARK INTRA:                  -5.407
REMARK UNBOUND:                -5.407
REMARK SMILES CCCCCCCCCCCCCCCCCCCCCCCCCCCCCC(=O)[O-]
REMARK SMILES IDX 16 1 17 2 18 3 19 4 20 5 21 6 22 7 23 8 24 9 25 10 26 11
REMARK SMILES IDX 27 12 28 13 29 14 30 15 31 16 32 17 15 18 14 19 13 20 12 21
REMARK SMILES IDX 11 22 10 23 9 24 8 25 7 26 6 27 5 28 4 29 3 30 2 31 1 32
REMARK H PARENT
REMARK Flexibility Score: inf
ROOT
ATOM      1  C   UNL     1       4.755  -3.138  -4.495  1.00  0.00     0.000 C 
ENDROOT
BRANCH   1   2
ATOM      2  C   UNL     1       6.242  -2.829  -4.734  1.00  0.00     0.000 C 
BRANCH   2   3
ATOM      3  C   UNL     1       6.686  -3.136  -6.172  1.00  0.00     0.000 C 
BRANCH   3   4
ATOM      4  C   UNL     1       8.152  -3.595  -6.202  1.00  0.00     0.000 C 
BRANCH   4   5
ATOM      5  C   UNL     1       8.840  -3.494  -4.829  1.00  0.00     0.000 C 
BRANCH   5   6
ATOM      6  C   UNL     1       9.963  -2.439  -4.733  1.00  0.00     0.000 C 
BRANCH   6   7
ATOM      7  C   UNL     1       9.562  -1.105  -4.077  1.00  0.00     0.000 C 
BRANCH   7   8
ATOM      8  C   UNL     1       9.735   0.101  -5.015  1.00  0.00     0.000 C 
BRANCH   8   9
ATOM      9  C   UNL     1       9.826  -0.302  -6.499  1.00  0.00     0.000 C 
BRANCH   9  10
ATOM     10  C   UNL     1       8.550  -0.062  -7.325  1.00  0.00     0.000 C 
BRANCH  10  11
ATOM     11  C   UNL     1       7.541   0.861  -6.618  1.00  0.00     0.000 C 
BRANCH  11  12
ATOM     12  C   UNL     1       6.100   0.333  -6.707  1.00  0.00     0.000 C 
BRANCH  12  13
ATOM     13  C   UNL     1       5.058   1.382  -6.281  1.00  0.00     0.006 C 
BRANCH  13  14
ATOM     14  C   UNL     1       4.002   0.796  -5.332  1.00  0.00     0.053 C 
BRANCH  14  15
ATOM     15  C   UNL     1       3.028   1.838  -4.876  1.00  0.00     0.041 C 
ATOM     16  O   UNL     1       2.704   1.916  -3.663  1.00  0.00    -0.550 OA
ATOM     17  O   UNL     1       2.447   2.698  -5.800  1.00  0.00    -0.550 OA
ENDBRANCH  14  15
ENDBRANCH  13  14
ENDBRANCH  12  13
ENDBRANCH  11  12
ENDBRANCH  10  11
ENDBRANCH   9  10
ENDBRANCH   8   9
ENDBRANCH   7   8
ENDBRANCH   6   7
ENDBRANCH   5   6
ENDBRANCH   4   5
ENDBRANCH   3   4
ENDBRANCH   2   3
ENDBRANCH   1   2
BRANCH   1  18
ATOM     18  C   UNL     1       4.530  -4.557  -3.950  1.00  0.00     0.000 C 
BRANCH  18  19
ATOM     19  C   UNL     1       3.104  -4.715  -3.399  1.00  0.00     0.000 C 
BRANCH  19  20
ATOM     20  C   UNL     1       2.097  -5.202  -4.457  1.00  0.00     0.000 C 
BRANCH  20  21
ATOM     21  C   UNL     1       2.692  -6.077  -5.577  1.00  0.00     0.000 C 
BRANCH  21  22
ATOM     22  C   UNL     1       2.457  -5.495  -6.983  1.00  0.00     0.000 C 
BRANCH  22  23
ATOM     23  C   UNL     1       3.718  -4.836  -7.564  1.00  0.00     0.000 C 
BRANCH  23  24
ATOM     24  C   UNL     1       3.464  -3.410  -8.078  1.00  0.00    -0.000 C 
BRANCH  24  25
ATOM     25  C   UNL     1       2.290  -2.766  -7.331  1.00  0.00    -0.000 C 
BRANCH  25  26
ATOM     26  C   UNL     1       1.271  -2.170  -8.312  1.00  0.00    -0.000 C 
BRANCH  26  27
ATOM     27  C   UNL     1      -0.186  -2.418  -7.884  1.00  0.00    -0.000 C 
BRANCH  27  28
ATOM     28  C   UNL     1      -0.357  -2.599  -6.361  1.00  0.00    -0.000 C 
BRANCH  28  29
ATOM     29  C   UNL     1      -1.049  -3.926  -6.009  1.00  0.00    -0.000 C 
BRANCH  29  30
ATOM     30  C   UNL     1      -1.079  -4.867  -7.223  1.00  0.00    -0.000 C 
BRANCH  30  31
ATOM     31  C   UNL     1      -1.211  -6.343  -6.821  1.00  0.00    -0.003 C 
ATOM     32  C   UNL     1      -1.261  -6.542  -5.306  1.00  0.00     0.004 C 
ENDBRANCH  30  31
ENDBRANCH  29  30
ENDBRANCH  28  29
ENDBRANCH  27  28
ENDBRANCH  26  27
ENDBRANCH  25  26
ENDBRANCH  24  25
ENDBRANCH  23  24
ENDBRANCH  22  23
ENDBRANCH  21  22
ENDBRANCH  20  21
ENDBRANCH  19  20
ENDBRANCH  18  19
ENDBRANCH   1  18
TORSDOF 28
ENDMDL
MODEL 2
REMARK VINA RESULT:    -2.962     10.914     14.051
REMARK INTER + INTRA:         -13.217
REMARK INTER:                  -8.861
REMARK INTRA:                  -4.356
REMARK UNBOUND:                -5.407
REMARK SMILES CCCCCCCCCCCCCCCCCCCCCCCCCCCCCC(=O)[O-]
REMARK SMILES IDX 16 1 17 2 18 3 19 4 20 5 21 6 22 7 23 8 24 9 25 10 26 11
REMARK SMILES IDX 27 12 28 13 29 14 30 15 31 16 32 17 15 18 14 19 13 20 12 21
REMARK SMILES IDX 11 22 10 23 9 24 8 25 7 26 6 27 5 28 4 29 3 30 2 31 1 32
REMARK H PARENT
REMARK Flexibility Score: inf
ROOT
ATOM      1  C   UNL     1       0.984   7.102   4.087  1.00  0.00     0.000 C 
ENDROOT
BRANCH   1   2
ATOM      2  C   UNL     1       0.472   5.736   4.574  1.00  0.00     0.000 C 
BRANCH   2   3
ATOM      3  C   UNL     1       0.798   5.475   6.051  1.00  0.00     0.000 C 
BRANCH   3   4
ATOM      4  C   UNL     1      -0.420   4.889   6.782  1.00  0.00     0.000 C 
BRANCH   4   5
ATOM      5  C   UNL     1      -0.870   3.535   6.206  1.00  0.00     0.000 C 
BRANCH   5   6
ATOM      6  C   UNL     1      -2.019   2.845   6.971  1.00  0.00     0.000 C 
BRANCH   6   7
ATOM      7  C   UNL     1      -3.426   3.410   6.702  1.00  0.00     0.000 C 
BRANCH   7   8
ATOM      8  C   UNL     1      -3.726   3.584   5.205  1.00  0.00     0.000 C 
BRANCH   8   9
ATOM      9  C   UNL     1      -4.138   5.023   4.839  1.00  0.00     0.000 C 
BRANCH   9  10
ATOM     10  C   UNL     1      -3.101   5.817   4.024  1.00  0.00     0.000 C 
BRANCH  10  11
ATOM     11  C   UNL     1      -2.769   5.160   2.673  1.00  0.00     0.000 C 
BRANCH  11  12
ATOM     12  C   UNL     1      -2.170   6.156   1.667  1.00  0.00     0.000 C 
BRANCH  12  13
ATOM     13  C   UNL     1      -3.173   6.574   0.578  1.00  0.00     0.006 C 
BRANCH  13  14
ATOM     14  C   UNL     1      -2.644   6.292  -0.835  1.00  0.00     0.053 C 
BRANCH  14  15
ATOM     15  C   UNL     1      -3.172   4.998  -1.375  1.00  0.00     0.041 C 
ATOM     16  O   UNL     1      -3.851   4.984  -2.435  1.00  0.00    -0.550 OA
ATOM     17  O   UNL     1      -2.948   3.813  -0.686  1.00  0.00    -0.550 OA
ENDBRANCH  14  15
ENDBRANCH  13  14
ENDBRANCH  12  13
ENDBRANCH  11  12
ENDBRANCH  10  11
ENDBRANCH   9  10
ENDBRANCH   8   9
ENDBRANCH   7   8
ENDBRANCH   6   7
ENDBRANCH   5   6
ENDBRANCH   4   5
ENDBRANCH   3   4
ENDBRANCH   2   3
ENDBRANCH   1   2
BRANCH   1  18
ATOM     18  C   UNL     1       1.385   7.085   2.604  1.00  0.00     0.000 C 
BRANCH  18  19
ATOM     19  C   UNL     1       2.909   7.207   2.446  1.00  0.00     0.000 C 
BRANCH  19  20
ATOM     20  C   UNL     1       3.625   5.844   2.426  1.00  0.00     0.000 C 
BRANCH  20  21
ATOM     21  C   UNL     1       4.407   5.494   3.708  1.00  0.00     0.000 C 
BRANCH  21  22
ATOM     22  C   UNL     1       3.986   4.147   4.320  1.00  0.00     0.000 C 
BRANCH  22  23
ATOM     23  C   UNL     1       3.044   3.352   3.402  1.00  0.00     0.000 C 
BRANCH  23  24
ATOM     24  C   UNL     1       2.125   2.393   4.174  1.00  0.00    -0.000 C 
BRANCH  24  25
ATOM     25  C   UNL     1       2.549   2.303   5.645  1.00  0.00    -0.000 C 
BRANCH  25  26
ATOM     26  C   UNL     1       2.173   0.942   6.245  1.00  0.00    -0.000 C 
BRANCH  26  27
ATOM     27  C   UNL     1       0.910   0.336   5.608  1.00  0.00    -0.000 C 
BRANCH  27  28
ATOM     28  C   UNL     1       0.678  -1.142   5.988  1.00  0.00    -0.000 C 
BRANCH  28  29
ATOM     29  C   UNL     1       0.019  -1.937   4.849  1.00  0.00    -0.000 C 
BRANCH  29  30
ATOM     30  C   UNL     1       0.243  -3.446   5.032  1.00  0.00    -0.000 C 
BRANCH  30  31
ATOM     31  C   UNL     1       1.281  -3.760   6.119  1.00  0.00    -0.003 C 
ATOM     32  C   UNL     1       0.726  -4.662   7.223  1.00  0.00     0.004 C 
ENDBRANCH  30  31
ENDBRANCH  29  30
ENDBRANCH  28  29
ENDBRANCH  27  28
ENDBRANCH  26  27
ENDBRANCH  25  26
ENDBRANCH  24  25
ENDBRANCH  23  24
ENDBRANCH  22  23
ENDBRANCH  21  22
ENDBRANCH  20  21
ENDBRANCH  19  20
ENDBRANCH  18  19
ENDBRANCH   1  18
TORSDOF 28
ENDMDL
MODEL 3
REMARK VINA RESULT:    -2.959     10.768     14.009
REMARK INTER + INTRA:         -13.209
REMARK INTER:                  -9.810
REMARK INTRA:                  -3.399
REMARK UNBOUND:                -5.407
REMARK SMILES CCCCCCCCCCCCCCCCCCCCCCCCCCCCCC(=O)[O-]
REMARK SMILES IDX 16 1 17 2 18 3 19 4 20 5 21 6 22 7 23 8 24 9 25 10 26 11
REMARK SMILES IDX 27 12 28 13 29 14 30 15 31 16 32 17 15 18 14 19 13 20 12 21
REMARK SMILES IDX 11 22 10 23 9 24 8 25 7 26 6 27 5 28 4 29 3 30 2 31 1 32
REMARK H PARENT
REMARK Flexibility Score: inf
ROOT
ATOM      1  C   UNL     1       3.257   5.747   2.605  1.00  0.00     0.000 C 
ENDROOT
BRANCH   1   2
ATOM      2  C   UNL     1       4.117   4.513   2.925  1.00  0.00     0.000 C 
BRANCH   2   3
ATOM      3  C   UNL     1       3.315   3.394   3.605  1.00  0.00     0.000 C 
BRANCH   3   4
ATOM      4  C   UNL     1       3.927   3.038   4.969  1.00  0.00     0.000 C 
BRANCH   4   5
ATOM      5  C   UNL     1       2.867   2.741   6.043  1.00  0.00     0.000 C 
BRANCH   5   6
ATOM      6  C   UNL     1       2.265   1.320   5.998  1.00  0.00     0.000 C 
BRANCH   6   7
ATOM      7  C   UNL     1       1.061   1.083   6.928  1.00  0.00     0.000 C 
BRANCH   7   8
ATOM      8  C   UNL     1      -0.003   0.162   6.308  1.00  0.00     0.000 C 
BRANCH   8   9
ATOM      9  C   UNL     1       0.605  -0.984   5.479  1.00  0.00     0.000 C 
BRANCH   9  10
ATOM     10  C   UNL     1      -0.393  -2.057   5.008  1.00  0.00     0.000 C 
BRANCH  10  11
ATOM     11  C   UNL     1       0.292  -3.262   4.339  1.00  0.00     0.000 C 
BRANCH  11  12
ATOM     12  C   UNL     1      -0.706  -4.370   3.963  1.00  0.00     0.000 C 
BRANCH  12  13
ATOM     13  C   UNL     1      -2.165  -3.977   4.254  1.00  0.00     0.006 C 
BRANCH  13  14
ATOM     14  C   UNL     1      -3.130  -4.504   3.182  1.00  0.00     0.053 C 
BRANCH  14  15
ATOM     15  C   UNL     1      -4.507  -3.940   3.352  1.00  0.00     0.041 C 
ATOM     16  O   UNL     1      -4.699  -2.699   3.267  1.00  0.00    -0.550 OA
ATOM     17  O   UNL     1      -5.572  -4.783   3.646  1.00  0.00    -0.550 OA
ENDBRANCH  14  15
ENDBRANCH  13  14
ENDBRANCH  12  13
ENDBRANCH  11  12
ENDBRANCH  10  11
ENDBRANCH   9  10
ENDBRANCH   8   9
ENDBRANCH   7   8
ENDBRANCH   6   7
ENDBRANCH   5   6
ENDBRANCH   4   5
ENDBRANCH   3   4
ENDBRANCH   2   3
ENDBRANCH   1   2
BRANCH   1  18
ATOM     18  C   UNL     1       2.570   6.325   3.851  1.00  0.00     0.000 C 
BRANCH  18  19
ATOM     19  C   UNL     1       1.044   6.355   3.675  1.00  0.00     0.000 C 
BRANCH  19  20
ATOM     20  C   UNL     1       0.279   6.082   4.982  1.00  0.00     0.000 C 
BRANCH  20  21
ATOM     21  C   UNL     1      -0.070   4.604   5.244  1.00  0.00     0.000 C 
BRANCH  21  22
ATOM     22  C   UNL     1      -0.639   4.360   6.653  1.00  0.00     0.000 C 
BRANCH  22  23
ATOM     23  C   UNL     1      -2.166   4.523   6.707  1.00  0.00     0.000 C 
BRANCH  23  24
ATOM     24  C   UNL     1      -2.913   3.391   5.985  1.00  0.00    -0.000 C 
BRANCH  24  25
ATOM     25  C   UNL     1      -3.778   3.950   4.848  1.00  0.00    -0.000 C 
BRANCH  25  26
ATOM     26  C   UNL     1      -3.836   5.483   4.902  1.00  0.00    -0.000 C 
BRANCH  26  27
ATOM     27  C   UNL     1      -3.229   6.148   3.654  1.00  0.00    -0.000 C 
BRANCH  27  28
ATOM     28  C   UNL     1      -2.659   5.138   2.635  1.00  0.00    -0.000 C 
BRANCH  28  29
ATOM     29  C   UNL     1      -2.584   5.725   1.217  1.00  0.00    -0.000 C 
BRANCH  29  30
ATOM     30  C   UNL     1      -2.482   4.610   0.166  1.00  0.00    -0.000 C 
BRANCH  30  31
ATOM     31  C   UNL     1      -3.073   5.021  -1.190  1.00  0.00    -0.003 C 
ATOM     32  C   UNL     1      -3.869   6.325  -1.118  1.00  0.00     0.004 C 
ENDBRANCH  30  31
ENDBRANCH  29  30
ENDBRANCH  28  29
ENDBRANCH  27  28
ENDBRANCH  26  27
ENDBRANCH  25  26
ENDBRANCH  24  25
ENDBRANCH  23  24
ENDBRANCH  22  23
ENDBRANCH  21  22
ENDBRANCH  20  21
ENDBRANCH  19  20
ENDBRANCH  18  19
ENDBRANCH   1  18
TORSDOF 28
ENDMDL
MODEL 4
REMARK VINA RESULT:    -2.932      1.533      4.125
REMARK INTER + INTRA:         -13.137
REMARK INTER:                  -7.973
REMARK INTRA:                  -5.165
REMARK UNBOUND:                -5.407
REMARK SMILES CCCCCCCCCCCCCCCCCCCCCCCCCCCCCC(=O)[O-]
REMARK SMILES IDX 16 1 17 2 18 3 19 4 20 5 21 6 22 7 23 8 24 9 25 10 26 11
REMARK SMILES IDX 27 12 28 13 29 14 30 15 31 16 32 17 15 18 14 19 13 20 12 21
REMARK SMILES IDX 11 22 10 23 9 24 8 25 7 26 6 27 5 28 4 29 3 30 2 31 1 32
REMARK H PARENT
REMARK Flexibility Score: inf
ROOT
ATOM      1  C   UNL     1       6.238  -2.621  -4.534  1.00  0.00     0.000 C 
ENDROOT
BRANCH   1   2
ATOM      2  C   UNL     1       7.133  -3.503  -5.420  1.00  0.00     0.000 C 
BRANCH   2   3
ATOM      3  C   UNL     1       8.555  -3.654  -4.860  1.00  0.00     0.000 C 
BRANCH   3   4
ATOM      4  C   UNL     1       9.059  -2.321  -4.287  1.00  0.00     0.000 C 
BRANCH   4   5
ATOM      5  C   UNL     1      10.567  -2.105  -4.506  1.00  0.00     0.000 C 
BRANCH   5   6
ATOM      6  C   UNL     1      10.986  -0.652  -4.810  1.00  0.00     0.000 C 
BRANCH   6   7
ATOM      7  C   UNL     1       9.827   0.341  -5.017  1.00  0.00     0.000 C 
BRANCH   7   8
ATOM      8  C   UNL     1       9.989   1.196  -6.285  1.00  0.00     0.000 C 
BRANCH   8   9
ATOM      9  C   UNL     1       8.857   0.976  -7.306  1.00  0.00     0.000 C 
BRANCH   9  10
ATOM     10  C   UNL     1       7.795  -0.060  -6.896  1.00  0.00     0.000 C 
BRANCH  10  11
ATOM     11  C   UNL     1       6.463   0.582  -6.471  1.00  0.00     0.000 C 
BRANCH  11  12
ATOM     12  C   UNL     1       5.362   0.407  -7.529  1.00  0.00     0.000 C 
BRANCH  12  13
ATOM     13  C   UNL     1       4.021   1.026  -7.097  1.00  0.00     0.006 C 
BRANCH  13  14
ATOM     14  C   UNL     1       3.849   1.024  -5.571  1.00  0.00     0.053 C 
BRANCH  14  15
ATOM     15  C   UNL     1       2.816   2.015  -5.129  1.00  0.00     0.041 C 
ATOM     16  O   UNL     1       2.358   2.859  -5.943  1.00  0.00    -0.550 OA
ATOM     17  O   UNL     1       2.389   2.031  -3.807  1.00  0.00    -0.550 OA
ENDBRANCH  14  15
ENDBRANCH  13  14
ENDBRANCH  12  13
ENDBRANCH  11  12
ENDBRANCH  10  11
ENDBRANCH   9  10
ENDBRANCH   8   9
ENDBRANCH   7   8
ENDBRANCH   6   7
ENDBRANCH   5   6
ENDBRANCH   4   5
ENDBRANCH   3   4
ENDBRANCH   2   3
ENDBRANCH   1   2
BRANCH   1  18
ATOM     18  C   UNL     1       4.823  -2.456  -5.107  1.00  0.00     0.000 C 
BRANCH  18  19
ATOM     19  C   UNL     1       4.550  -3.494  -6.206  1.00  0.00     0.000 C 
BRANCH  19  20
ATOM     20  C   UNL     1       4.031  -2.868  -7.513  1.00  0.00     0.000 C 
BRANCH  20  21
ATOM     21  C   UNL     1       2.659  -3.382  -7.990  1.00  0.00     0.000 C 
BRANCH  21  22
ATOM     22  C   UNL     1       1.627  -3.484  -6.853  1.00  0.00     0.000 C 
BRANCH  22  23
ATOM     23  C   UNL     1       1.142  -4.925  -6.626  1.00  0.00     0.000 C 
BRANCH  23  24
ATOM     24  C   UNL     1       0.902  -5.248  -5.143  1.00  0.00    -0.000 C 
BRANCH  24  25
ATOM     25  C   UNL     1       2.158  -5.861  -4.511  1.00  0.00    -0.000 C 
BRANCH  25  26
ATOM     26  C   UNL     1       2.662  -5.005  -3.342  1.00  0.00    -0.000 C 
BRANCH  26  27
ATOM     27  C   UNL     1       4.119  -5.316  -2.958  1.00  0.00    -0.000 C 
BRANCH  27  28
ATOM     28  C   UNL     1       4.277  -6.627  -2.157  1.00  0.00    -0.000 C 
BRANCH  28  29
ATOM     29  C   UNL     1       5.577  -7.367  -2.508  1.00  0.00    -0.000 C 
BRANCH  29  30
ATOM     30  C   UNL     1       6.367  -6.609  -3.585  1.00  0.00    -0.000 C 
BRANCH  30  31
ATOM     31  C   UNL     1       6.596  -7.449  -4.850  1.00  0.00    -0.003 C 
ATOM     32  C   UNL     1       5.753  -6.976  -6.035  1.00  0.00     0.004 C 
ENDBRANCH  30  31
ENDBRANCH  29  30
ENDBRANCH  28  29
ENDBRANCH  27  28
ENDBRANCH  26  27
ENDBRANCH  25  26
ENDBRANCH  24  25
ENDBRANCH  23  24
ENDBRANCH  22  23
ENDBRANCH  21  22
ENDBRANCH  20  21
ENDBRANCH  19  20
ENDBRANCH  18  19
ENDBRANCH   1  18
TORSDOF 28
ENDMDL
MODEL 5
REMARK VINA RESULT:    -2.908      3.047      4.735
REMARK INTER + INTRA:         -13.074
REMARK INTER:                  -7.936
REMARK INTRA:                  -5.138
REMARK UNBOUND:                -5.407
REMARK SMILES CCCCCCCCCCCCCCCCCCCCCCCCCCCCCC(=O)[O-]
REMARK SMILES IDX 16 1 17 2 18 3 19 4 20 5 21 6 22 7 23 8 24 9 25 10 26 11
REMARK SMILES IDX 27 12 28 13 29 14 30 15 31 16 32 17 15 18 14 19 13 20 12 21
REMARK SMILES IDX 11 22 10 23 9 24 8 25 7 26 6 27 5 28 4 29 3 30 2 31 1 32
REMARK H PARENT
REMARK Flexibility Score: inf
ROOT
ATOM      1  C   UNL     1       5.157  -2.669  -5.894  1.00  0.00     0.000 C 
ENDROOT
BRANCH   1   2
ATOM      2  C   UNL     1       6.414  -1.797  -6.049  1.00  0.00     0.000 C 
BRANCH   2   3
ATOM      3  C   UNL     1       7.503  -2.474  -6.895  1.00  0.00     0.000 C 
BRANCH   3   4
ATOM      4  C   UNL     1       8.845  -2.484  -6.147  1.00  0.00     0.000 C 
BRANCH   4   5
ATOM      5  C   UNL     1       8.693  -2.222  -4.639  1.00  0.00     0.000 C 
BRANCH   5   6
ATOM      6  C   UNL     1       9.540  -1.058  -4.085  1.00  0.00     0.000 C 
BRANCH   6   7
ATOM      7  C   UNL     1      10.420  -0.330  -5.118  1.00  0.00     0.000 C 
BRANCH   7   8
ATOM      8  C   UNL     1       9.928   1.093  -5.430  1.00  0.00     0.000 C 
BRANCH   8   9
ATOM      9  C   UNL     1       9.190   1.190  -6.778  1.00  0.00     0.000 C 
BRANCH   9  10
ATOM     10  C   UNL     1       7.690   1.519  -6.685  1.00  0.00     0.000 C 
BRANCH  10  11
ATOM     11  C   UNL     1       6.916   1.165  -7.967  1.00  0.00     0.000 C 
BRANCH  11  12
ATOM     12  C   UNL     1       5.397   1.330  -7.801  1.00  0.00     0.000 C 
BRANCH  12  13
ATOM     13  C   UNL     1       5.022   2.125  -6.538  1.00  0.00     0.006 C 
BRANCH  13  14
ATOM     14  C   UNL     1       4.154   1.302  -5.574  1.00  0.00     0.053 C 
BRANCH  14  15
ATOM     15  C   UNL     1       2.954   2.073  -5.116  1.00  0.00     0.041 C 
ATOM     16  O   UNL     1       2.387   2.884  -5.893  1.00  0.00    -0.550 OA
ATOM     17  O   UNL     1       2.486   1.923  -3.816  1.00  0.00    -0.550 OA
ENDBRANCH  14  15
ENDBRANCH  13  14
ENDBRANCH  12  13
ENDBRANCH  11  12
ENDBRANCH  10  11
ENDBRANCH   9  10
ENDBRANCH   8   9
ENDBRANCH   7   8
ENDBRANCH   6   7
ENDBRANCH   5   6
ENDBRANCH   4   5
ENDBRANCH   3   4
ENDBRANCH   2   3
ENDBRANCH   1   2
BRANCH   1  18
ATOM     18  C   UNL     1       4.900  -3.077  -4.436  1.00  0.00     0.000 C 
BRANCH  18  19
ATOM     19  C   UNL     1       5.298  -4.542  -4.196  1.00  0.00     0.000 C 
BRANCH  19  20
ATOM     20  C   UNL     1       5.534  -5.325  -5.500  1.00  0.00     0.000 C 
BRANCH  20  21
ATOM     21  C   UNL     1       6.969  -5.851  -5.700  1.00  0.00     0.000 C 
BRANCH  21  22
ATOM     22  C   UNL     1       7.777  -5.908  -4.391  1.00  0.00     0.000 C 
BRANCH  22  23
ATOM     23  C   UNL     1       7.890  -7.335  -3.832  1.00  0.00     0.000 C 
BRANCH  23  24
ATOM     24  C   UNL     1       6.815  -7.651  -2.780  1.00  0.00    -0.000 C 
BRANCH  24  25
ATOM     25  C   UNL     1       6.052  -8.928  -3.151  1.00  0.00    -0.000 C 
BRANCH  25  26
ATOM     26  C   UNL     1       5.027  -8.656  -4.259  1.00  0.00    -0.000 C 
BRANCH  26  27
ATOM     27  C   UNL     1       3.637  -9.234  -3.942  1.00  0.00    -0.000 C 
BRANCH  27  28
ATOM     28  C   UNL     1       2.964  -8.579  -2.717  1.00  0.00    -0.000 C 
BRANCH  28  29
ATOM     29  C   UNL     1       2.961  -7.045  -2.808  1.00  0.00    -0.000 C 
BRANCH  29  30
ATOM     30  C   UNL     1       3.636  -6.421  -1.577  1.00  0.00    -0.000 C 
BRANCH  30  31
ATOM     31  C   UNL     1       3.840  -7.431  -0.440  1.00  0.00    -0.003 C 
ATOM     32  C   UNL     1       4.445  -6.797   0.813  1.00  0.00     0.004 C 
ENDBRANCH  30  31
ENDBRANCH  29  30
ENDBRANCH  28  29
ENDBRANCH  27  28
ENDBRANCH  26  27
ENDBRANCH  25  26
ENDBRANCH  24  25
ENDBRANCH  23  24
ENDBRANCH  22  23
ENDBRANCH  21  22
ENDBRANCH  20  21
ENDBRANCH  19  20
ENDBRANCH  18  19
ENDBRANCH   1  18
TORSDOF 28
ENDMDL
MODEL 6
REMARK VINA RESULT:    -2.864     11.338     14.153
REMARK INTER + INTRA:         -12.959
REMARK INTER:                  -8.402
REMARK INTRA:                  -4.558
REMARK UNBOUND:                -5.407
REMARK SMILES CCCCCCCCCCCCCCCCCCCCCCCCCCCCCC(=O)[O-]
REMARK SMILES IDX 16 1 17 2 18 3 19 4 20 5 21 6 22 7 23 8 24 9 25 10 26 11
REMARK SMILES IDX 27 12 28 13 29 14 30 15 31 16 32 17 15 18 14 19 13 20 12 21
REMARK SMILES IDX 11 22 10 23 9 24 8 25 7 26 6 27 5 28 4 29 3 30 2 31 1 32
REMARK H PARENT
REMARK Flexibility Score: inf
ROOT
ATOM      1  C   UNL     1      -0.396   4.295   6.323  1.00  0.00     0.000 C 
ENDROOT
BRANCH   1   2
ATOM      2  C   UNL     1       0.608   5.419   6.015  1.00  0.00     0.000 C 
BRANCH   2   3
ATOM      3  C   UNL     1       0.262   6.184   4.729  1.00  0.00     0.000 C 
BRANCH   3   4
ATOM      4  C   UNL     1       1.121   5.690   3.555  1.00  0.00     0.000 C 
BRANCH   4   5
ATOM      5  C   UNL     1       2.621   5.969   3.750  1.00  0.00     0.000 C 
BRANCH   5   6
ATOM      6  C   UNL     1       3.571   4.934   3.112  1.00  0.00     0.000 C 
BRANCH   6   7
ATOM      7  C   UNL     1       3.162   3.460   3.295  1.00  0.00     0.000 C 
BRANCH   7   8
ATOM      8  C   UNL     1       3.190   3.009   4.765  1.00  0.00     0.000 C 
BRANCH   8   9
ATOM      9  C   UNL     1       2.054   2.029   5.113  1.00  0.00     0.000 C 
BRANCH   9  10
ATOM     10  C   UNL     1       2.137   1.396   6.513  1.00  0.00     0.000 C 
BRANCH  10  11
ATOM     11  C   UNL     1       1.670  -0.070   6.538  1.00  0.00     0.000 C 
BRANCH  11  12
ATOM     12  C   UNL     1       0.609  -0.366   5.466  1.00  0.00     0.000 C 
BRANCH  12  13
ATOM     13  C   UNL     1      -0.248  -1.599   5.805  1.00  0.00     0.006 C 
BRANCH  13  14
ATOM     14  C   UNL     1      -0.815  -1.534   7.230  1.00  0.00     0.053 C 
BRANCH  14  15
ATOM     15  C   UNL     1      -2.305  -1.691   7.240  1.00  0.00     0.041 C 
ATOM     16  O   UNL     1      -2.909  -2.079   6.206  1.00  0.00    -0.550 OA
ATOM     17  O   UNL     1      -3.031  -1.369   8.381  1.00  0.00    -0.550 OA
ENDBRANCH  14  15
ENDBRANCH  13  14
ENDBRANCH  12  13
ENDBRANCH  11  12
ENDBRANCH  10  11
ENDBRANCH   9  10
ENDBRANCH   8   9
ENDBRANCH   7   8
ENDBRANCH   6   7
ENDBRANCH   5   6
ENDBRANCH   4   5
ENDBRANCH   3   4
ENDBRANCH   2   3
ENDBRANCH   1   2
BRANCH   1  18
ATOM     18  C   UNL     1      -0.319   3.822   7.783  1.00  0.00     0.000 C 
BRANCH  18  19
ATOM     19  C   UNL     1      -1.123   2.529   7.985  1.00  0.00     0.000 C 
BRANCH  19  20
ATOM     20  C   UNL     1      -1.839   2.056   6.706  1.00  0.00     0.000 C 
BRANCH  20  21
ATOM     21  C   UNL     1      -3.370   1.926   6.820  1.00  0.00     0.000 C 
BRANCH  21  22
ATOM     22  C   UNL     1      -4.125   2.873   5.870  1.00  0.00     0.000 C 
BRANCH  22  23
ATOM     23  C   UNL     1      -4.236   4.301   6.429  1.00  0.00     0.000 C 
BRANCH  23  24
ATOM     24  C   UNL     1      -3.977   5.380   5.366  1.00  0.00    -0.000 C 
BRANCH  24  25
ATOM     25  C   UNL     1      -3.235   4.787   4.161  1.00  0.00    -0.000 C 
BRANCH  25  26
ATOM     26  C   UNL     1      -3.055   5.835   3.055  1.00  0.00    -0.000 C 
BRANCH  26  27
ATOM     27  C   UNL     1      -2.349   5.272   1.809  1.00  0.00    -0.000 C 
BRANCH  27  28
ATOM     28  C   UNL     1      -2.787   5.951   0.494  1.00  0.00    -0.000 C 
BRANCH  28  29
ATOM     29  C   UNL     1      -2.722   4.992  -0.705  1.00  0.00    -0.000 C 
BRANCH  29  30
ATOM     30  C   UNL     1      -3.604   5.493  -1.858  1.00  0.00    -0.000 C 
BRANCH  30  31
ATOM     31  C   UNL     1      -2.783   6.044  -3.032  1.00  0.00    -0.003 C 
ATOM     32  C   UNL     1      -1.321   6.298  -2.664  1.00  0.00     0.004 C 
ENDBRANCH  30  31
ENDBRANCH  29  30
ENDBRANCH  28  29
ENDBRANCH  27  28
ENDBRANCH  26  27
ENDBRANCH  25  26
ENDBRANCH  24  25
ENDBRANCH  23  24
ENDBRANCH  22  23
ENDBRANCH  21  22
ENDBRANCH  20  21
ENDBRANCH  19  20
ENDBRANCH  18  19
ENDBRANCH   1  18
TORSDOF 28
ENDMDL
MODEL 7
REMARK VINA RESULT:    -2.856     10.965     14.648
REMARK INTER + INTRA:         -12.938
REMARK INTER:                  -7.520
REMARK INTRA:                  -5.418
REMARK UNBOUND:                -5.407
REMARK SMILES CCCCCCCCCCCCCCCCCCCCCCCCCCCCCC(=O)[O-]
REMARK SMILES IDX 16 1 17 2 18 3 19 4 20 5 21 6 22 7 23 8 24 9 25 10 26 11
REMARK SMILES IDX 27 12 28 13 29 14 30 15 31 16 32 17 15 18 14 19 13 20 12 21
REMARK SMILES IDX 11 22 10 23 9 24 8 25 7 26 6 27 5 28 4 29 3 30 2 31 1 32
REMARK H PARENT
REMARK Flexibility Score: inf
ROOT
ATOM      1  C   UNL     1       0.545   5.708   4.331  1.00  0.00     0.000 C 
ENDROOT
BRANCH   1   2
ATOM      2  C   UNL     1       0.067   6.353   5.642  1.00  0.00     0.000 C 
BRANCH   2   3
ATOM      3  C   UNL     1      -0.651   5.358   6.565  1.00  0.00     0.000 C 
BRANCH   3   4
ATOM      4  C   UNL     1      -1.008   4.072   5.804  1.00  0.00     0.000 C 
BRANCH   4   5
ATOM      5  C   UNL     1      -2.172   3.298   6.447  1.00  0.00     0.000 C 
BRANCH   5   6
ATOM      6  C   UNL     1      -3.549   3.509   5.783  1.00  0.00     0.000 C 
BRANCH   6   7
ATOM      7  C   UNL     1      -4.273   4.814   6.163  1.00  0.00     0.000 C 
BRANCH   7   8
ATOM      8  C   UNL     1      -4.660   5.663   4.941  1.00  0.00     0.000 C 
BRANCH   8   9
ATOM      9  C   UNL     1      -3.531   6.606   4.484  1.00  0.00     0.000 C 
BRANCH   9  10
ATOM     10  C   UNL     1      -3.138   6.491   3.000  1.00  0.00     0.000 C 
BRANCH  10  11
ATOM     11  C   UNL     1      -2.742   5.062   2.593  1.00  0.00     0.000 C 
BRANCH  11  12
ATOM     12  C   UNL     1      -2.292   4.972   1.125  1.00  0.00     0.000 C 
BRANCH  12  13
ATOM     13  C   UNL     1      -2.965   6.031   0.234  1.00  0.00     0.006 C 
BRANCH  13  14
ATOM     14  C   UNL     1      -3.303   5.482  -1.160  1.00  0.00     0.053 C 
BRANCH  14  15
ATOM     15  C   UNL     1      -2.337   5.971  -2.195  1.00  0.00     0.041 C 
ATOM     16  O   UNL     1      -2.756   6.384  -3.308  1.00  0.00    -0.550 OA
ATOM     17  O   UNL     1      -0.971   5.933  -1.946  1.00  0.00    -0.550 OA
ENDBRANCH  14  15
ENDBRANCH  13  14
ENDBRANCH  12  13
ENDBRANCH  11  12
ENDBRANCH  10  11
ENDBRANCH   9  10
ENDBRANCH   8   9
ENDBRANCH   7   8
ENDBRANCH   6   7
ENDBRANCH   5   6
ENDBRANCH   4   5
ENDBRANCH   3   4
ENDBRANCH   2   3
ENDBRANCH   1   2
BRANCH   1  18
ATOM     18  C   UNL     1       0.505   6.684   3.146  1.00  0.00     0.000 C 
BRANCH  18  19
ATOM     19  C   UNL     1       1.245   7.988   3.482  1.00  0.00     0.000 C 
BRANCH  19  20
ATOM     20  C   UNL     1       2.765   7.896   3.257  1.00  0.00     0.000 C 
BRANCH  20  21
ATOM     21  C   UNL     1       3.199   7.069   2.031  1.00  0.00     0.000 C 
BRANCH  21  22
ATOM     22  C   UNL     1       4.713   6.797   1.994  1.00  0.00     0.000 C 
BRANCH  22  23
ATOM     23  C   UNL     1       5.057   5.339   2.338  1.00  0.00     0.000 C 
BRANCH  23  24
ATOM     24  C   UNL     1       3.812   4.453   2.499  1.00  0.00    -0.000 C 
BRANCH  24  25
ATOM     25  C   UNL     1       3.811   3.763   3.869  1.00  0.00    -0.000 C 
BRANCH  25  26
ATOM     26  C   UNL     1       4.116   4.764   4.991  1.00  0.00    -0.000 C 
BRANCH  26  27
ATOM     27  C   UNL     1       3.337   4.467   6.284  1.00  0.00    -0.000 C 
BRANCH  27  28
ATOM     28  C   UNL     1       2.517   3.160   6.222  1.00  0.00    -0.000 C 
BRANCH  28  29
ATOM     29  C   UNL     1       1.943   2.770   7.593  1.00  0.00    -0.000 C 
BRANCH  29  30
ATOM     30  C   UNL     1       1.340   1.358   7.554  1.00  0.00    -0.000 C 
BRANCH  30  31
ATOM     31  C   UNL     1       1.804   0.552   6.333  1.00  0.00    -0.003 C 
ATOM     32  C   UNL     1       0.638  -0.008   5.517  1.00  0.00     0.004 C 
ENDBRANCH  30  31
ENDBRANCH  29  30
ENDBRANCH  28  29
ENDBRANCH  27  28
ENDBRANCH  26  27
ENDBRANCH  25  26
ENDBRANCH  24  25
ENDBRANCH  23  24
ENDBRANCH  22  23
ENDBRANCH  21  22
ENDBRANCH  20  21
ENDBRANCH  19  20
ENDBRANCH  18  19
ENDBRANCH   1  18
TORSDOF 28
ENDMDL
MODEL 8
REMARK VINA RESULT:    -2.850      2.285      4.097
REMARK INTER + INTRA:         -12.923
REMARK INTER:                  -6.983
REMARK INTRA:                  -5.940
REMARK UNBOUND:                -5.407
REMARK SMILES CCCCCCCCCCCCCCCCCCCCCCCCCCCCCC(=O)[O-]
REMARK SMILES IDX 16 1 17 2 18 3 19 4 20 5 21 6 22 7 23 8 24 9 25 10 26 11
REMARK SMILES IDX 27 12 28 13 29 14 30 15 31 16 32 17 15 18 14 19 13 20 12 21
REMARK SMILES IDX 11 22 10 23 9 24 8 25 7 26 6 27 5 28 4 29 3 30 2 31 1 32
REMARK H PARENT
REMARK Flexibility Score: inf
ROOT
ATOM      1  C   UNL     1       7.284  -3.016  -5.947  1.00  0.00     0.000 C 
ENDROOT
BRANCH   1   2
ATOM      2  C   UNL     1       8.697  -3.617  -5.853  1.00  0.00     0.000 C 
BRANCH   2   3
ATOM      3  C   UNL     1       9.663  -3.020  -6.886  1.00  0.00     0.000 C 
BRANCH   3   4
ATOM      4  C   UNL     1      10.938  -2.500  -6.203  1.00  0.00     0.000 C 
BRANCH   4   5
ATOM      5  C   UNL     1      10.745  -2.231  -4.700  1.00  0.00     0.000 C 
BRANCH   5   6
ATOM      6  C   UNL     1      10.307  -0.796  -4.340  1.00  0.00     0.000 C 
BRANCH   6   7
ATOM      7  C   UNL     1      10.857   0.313  -5.256  1.00  0.00     0.000 C 
BRANCH   7   8
ATOM      8  C   UNL     1       9.749   1.124  -5.948  1.00  0.00     0.000 C 
BRANCH   8   9
ATOM      9  C   UNL     1       8.427   0.345  -6.076  1.00  0.00     0.000 C 
BRANCH   9  10
ATOM     10  C   UNL     1       7.642   0.591  -7.377  1.00  0.00     0.000 C 
BRANCH  10  11
ATOM     11  C   UNL     1       6.142   0.274  -7.243  1.00  0.00     0.000 C 
BRANCH  11  12
ATOM     12  C   UNL     1       5.410   1.276  -6.335  1.00  0.00     0.000 C 
BRANCH  12  13
ATOM     13  C   UNL     1       4.165   0.667  -5.665  1.00  0.00     0.006 C 
BRANCH  13  14
ATOM     14  C   UNL     1       3.127   0.197  -6.694  1.00  0.00     0.053 C 
BRANCH  14  15
ATOM     15  C   UNL     1       2.023   1.196  -6.862  1.00  0.00     0.041 C 
ATOM     16  O   UNL     1       0.986   0.892  -7.508  1.00  0.00    -0.550 OA
ATOM     17  O   UNL     1       2.158   2.476  -6.340  1.00  0.00    -0.550 OA
ENDBRANCH  14  15
ENDBRANCH  13  14
ENDBRANCH  12  13
ENDBRANCH  11  12
ENDBRANCH  10  11
ENDBRANCH   9  10
ENDBRANCH   8   9
ENDBRANCH   7   8
ENDBRANCH   6   7
ENDBRANCH   5   6
ENDBRANCH   4   5
ENDBRANCH   3   4
ENDBRANCH   2   3
ENDBRANCH   1   2
BRANCH   1  18
ATOM     18  C   UNL     1       6.708  -2.651  -4.570  1.00  0.00     0.000 C 
BRANCH  18  19
ATOM     19  C   UNL     1       5.179  -2.802  -4.556  1.00  0.00     0.000 C 
BRANCH  19  20
ATOM     20  C   UNL     1       4.586  -3.081  -5.949  1.00  0.00     0.000 C 
BRANCH  20  21
ATOM     21  C   UNL     1       3.645  -4.299  -6.031  1.00  0.00     0.000 C 
BRANCH  21  22
ATOM     22  C   UNL     1       4.165  -5.398  -6.974  1.00  0.00     0.000 C 
BRANCH  22  23
ATOM     23  C   UNL     1       4.905  -6.516  -6.223  1.00  0.00     0.000 C 
BRANCH  23  24
ATOM     24  C   UNL     1       6.401  -6.578  -6.566  1.00  0.00    -0.000 C 
BRANCH  24  25
ATOM     25  C   UNL     1       7.226  -6.955  -5.329  1.00  0.00    -0.000 C 
BRANCH  25  26
ATOM     26  C   UNL     1       6.663  -6.289  -4.067  1.00  0.00    -0.000 C 
BRANCH  26  27
ATOM     27  C   UNL     1       6.443  -7.285  -2.914  1.00  0.00    -0.000 C 
BRANCH  27  28
ATOM     28  C   UNL     1       5.018  -7.236  -2.322  1.00  0.00    -0.000 C 
BRANCH  28  29
ATOM     29  C   UNL     1       4.319  -5.897  -2.605  1.00  0.00    -0.000 C 
BRANCH  29  30
ATOM     30  C   UNL     1       2.858  -6.118  -3.023  1.00  0.00    -0.000 C 
BRANCH  30  31
ATOM     31  C   UNL     1       2.593  -7.551  -3.505  1.00  0.00    -0.003 C 
ATOM     32  C   UNL     1       1.646  -7.607  -4.705  1.00  0.00     0.004 C 
ENDBRANCH  30  31
ENDBRANCH  29  30
ENDBRANCH  28  29
ENDBRANCH  27  28
ENDBRANCH  26  27
ENDBRANCH  25  26
ENDBRANCH  24  25
ENDBRANCH  23  24
ENDBRANCH  22  23
ENDBRANCH  21  22
ENDBRANCH  20  21
ENDBRANCH  19  20
ENDBRANCH  18  19
ENDBRANCH   1  18
TORSDOF 28
ENDMDL
MODEL 9
REMARK VINA RESULT:    -2.841     10.163     13.006
REMARK INTER + INTRA:         -12.899
REMARK INTER:                  -8.592
REMARK INTRA:                  -4.307
REMARK UNBOUND:                -5.407
REMARK SMILES CCCCCCCCCCCCCCCCCCCCCCCCCCCCCC(=O)[O-]
REMARK SMILES IDX 16 1 17 2 18 3 19 4 20 5 21 6 22 7 23 8 24 9 25 10 26 11
REMARK SMILES IDX 27 12 28 13 29 14 30 15 31 16 32 17 15 18 14 19 13 20 12 21
REMARK SMILES IDX 11 22 10 23 9 24 8 25 7 26 6 27 5 28 4 29 3 30 2 31 1 32
REMARK H PARENT
REMARK Flexibility Score: inf
ROOT
ATOM      1  C   UNL     1       4.098   1.537   6.414  1.00  0.00     0.000 C 
ENDROOT
BRANCH   1   2
ATOM      2  C   UNL     1       4.274   3.017   6.792  1.00  0.00     0.000 C 
BRANCH   2   3
ATOM      3  C   UNL     1       3.984   3.966   5.621  1.00  0.00     0.000 C 
BRANCH   3   4
ATOM      4  C   UNL     1       3.677   3.173   4.342  1.00  0.00     0.000 C 
BRANCH   4   5
ATOM      5  C   UNL     1       2.334   3.565   3.700  1.00  0.00     0.000 C 
BRANCH   5   6
ATOM      6  C   UNL     1       1.584   4.718   4.399  1.00  0.00     0.000 C 
BRANCH   6   7
ATOM      7  C   UNL     1       1.281   5.941   3.514  1.00  0.00     0.000 C 
BRANCH   7   8
ATOM      8  C   UNL     1       2.265   7.101   3.735  1.00  0.00     0.000 C 
BRANCH   8   9
ATOM      9  C   UNL     1       3.487   7.037   2.800  1.00  0.00     0.000 C 
BRANCH   9  10
ATOM     10  C   UNL     1       4.846   6.868   3.503  1.00  0.00     0.000 C 
BRANCH  10  11
ATOM     11  C   UNL     1       5.750   5.828   2.820  1.00  0.00     0.000 C 
BRANCH  11  12
ATOM     12  C   UNL     1       5.091   5.200   1.580  1.00  0.00     0.000 C 
BRANCH  12  13
ATOM     13  C   UNL     1       6.001   5.245   0.340  1.00  0.00     0.006 C 
BRANCH  13  14
ATOM     14  C   UNL     1       7.331   5.957   0.625  1.00  0.00     0.053 C 
BRANCH  14  15
ATOM     15  C   UNL     1       8.506   5.108   0.244  1.00  0.00     0.041 C 
ATOM     16  O   UNL     1       8.331   4.018  -0.360  1.00  0.00    -0.550 OA
ATOM     17  O   UNL     1       9.791   5.503   0.594  1.00  0.00    -0.550 OA
ENDBRANCH  14  15
ENDBRANCH  13  14
ENDBRANCH  12  13
ENDBRANCH  11  12
ENDBRANCH  10  11
ENDBRANCH   9  10
ENDBRANCH   8   9
ENDBRANCH   7   8
ENDBRANCH   6   7
ENDBRANCH   5   6
ENDBRANCH   4   5
ENDBRANCH   3   4
ENDBRANCH   2   3
ENDBRANCH   1   2
BRANCH   1  18
ATOM     18  C   UNL     1       3.032   0.834   7.268  1.00  0.00     0.000 C 
BRANCH  18  19
ATOM     19  C   UNL     1       1.943   0.208   6.383  1.00  0.00     0.000 C 
BRANCH  19  20
ATOM     20  C   UNL     1       0.823   1.198   6.012  1.00  0.00     0.000 C 
BRANCH  20  21
ATOM     21  C   UNL     1       0.605   2.349   7.013  1.00  0.00     0.000 C 
BRANCH  21  22
ATOM     22  C   UNL     1      -0.882   2.660   7.257  1.00  0.00     0.000 C 
BRANCH  22  23
ATOM     23  C   UNL     1      -1.305   4.015   6.667  1.00  0.00     0.000 C 
BRANCH  23  24
ATOM     24  C   UNL     1      -2.437   3.889   5.635  1.00  0.00    -0.000 C 
BRANCH  24  25
ATOM     25  C   UNL     1      -3.107   5.248   5.398  1.00  0.00    -0.000 C 
BRANCH  25  26
ATOM     26  C   UNL     1      -3.519   5.411   3.929  1.00  0.00    -0.000 C 
BRANCH  26  27
ATOM     27  C   UNL     1      -2.318   5.397   2.967  1.00  0.00    -0.000 C 
BRANCH  27  28
ATOM     28  C   UNL     1      -2.119   6.728   2.212  1.00  0.00    -0.000 C 
BRANCH  28  29
ATOM     29  C   UNL     1      -3.300   7.050   1.282  1.00  0.00    -0.000 C 
BRANCH  29  30
ATOM     30  C   UNL     1      -2.852   7.070  -0.187  1.00  0.00    -0.000 C 
BRANCH  30  31
ATOM     31  C   UNL     1      -3.778   6.251  -1.098  1.00  0.00    -0.003 C 
ATOM     32  C   UNL     1      -3.220   4.864  -1.416  1.00  0.00     0.004 C 
ENDBRANCH  30  31
ENDBRANCH  29  30
ENDBRANCH  28  29
ENDBRANCH  27  28
ENDBRANCH  26  27
ENDBRANCH  25  26
ENDBRANCH  24  25
ENDBRANCH  23  24
ENDBRANCH  22  23
ENDBRANCH  21  22
ENDBRANCH  20  21
ENDBRANCH  19  20
ENDBRANCH  18  19
ENDBRANCH   1  18
TORSDOF 28
ENDMDL
