MODEL 1
REMARK VINA RESULT:    -5.607      0.000      0.000
REMARK INTER + INTRA:         -11.148
REMARK INTER:                  -9.868
REMARK INTRA:                  -1.280
REMARK UNBOUND:                -1.280
REMARK SMILES CCCCCCCCCCCCCCC(=O)[O-]
REMARK SMILES IDX 9 1 10 2 11 3 12 4 13 5 14 6 15 7 16 8 17 9 8 10 7 11 6 12
REMARK SMILES IDX 5 13 4 14 3 15 2 16 1 17
REMARK H PARENT
REMARK Flexibility Score: inf
ROOT
ATOM      1  C   UNL     1     -22.699 -31.366  22.858  1.00  0.00     0.000 C 
ENDROOT
BRANCH   1   2
ATOM      2  C   UNL     1     -21.622 -32.454  22.999  1.00  0.00     0.000 C 
BRANCH   2   3
ATOM      3  C   UNL     1     -20.221 -31.874  23.253  1.00  0.00     0.000 C 
BRANCH   3   4
ATOM      4  C   UNL     1     -20.272 -30.549  24.046  1.00  0.00     0.000 C 
BRANCH   4   5
ATOM      5  C   UNL     1     -18.881 -29.997  24.410  1.00  0.00     0.006 C 
BRANCH   5   6
ATOM      6  C   UNL     1     -18.051 -29.550  23.197  1.00  0.00     0.053 C 
BRANCH   6   7
ATOM      7  C   UNL     1     -16.813 -30.379  23.032  1.00  0.00     0.041 C 
ATOM      8  O   UNL     1     -16.627 -31.390  23.759  1.00  0.00    -0.550 OA
ATOM      9  O   UNL     1     -15.875 -30.047  22.063  1.00  0.00    -0.550 OA
ENDBRANCH   6   7
ENDBRANCH   5   6
ENDBRANCH   4   5
ENDBRANCH   3   4
ENDBRANCH   2   3
ENDBRANCH   1   2
BRANCH   1  10
ATOM     10  C   UNL     1     -24.037 -31.772  23.491  1.00  0.00     0.000 C 
BRANCH  10  11
ATOM     11  C   UNL     1     -24.043 -31.483  24.997  1.00  0.00    -0.000 C 
BRANCH  11  12
ATOM     12  C   UNL     1     -24.170 -32.783  25.805  1.00  0.00    -0.000 C 
BRANCH  12  13
ATOM     13  C   UNL     1     -25.627 -33.259  25.933  1.00  0.00    -0.000 C 
BRANCH  13  14
ATOM     14  C   UNL     1     -26.619 -32.092  26.074  1.00  0.00    -0.000 C 
BRANCH  14  15
ATOM     15  C   UNL     1     -27.782 -32.173  25.068  1.00  0.00    -0.000 C 
BRANCH  15  16
ATOM     16  C   UNL     1     -27.617 -33.250  23.981  1.00  0.00    -0.003 C 
ATOM     17  C   UNL     1     -27.569 -32.671  22.567  1.00  0.00     0.004 C 
ENDBRANCH  15  16
ENDBRANCH  14  15
ENDBRANCH  13  14
ENDBRANCH  12  13
ENDBRANCH  11  12
ENDBRANCH  10  11
ENDBRANCH   1  10
TORSDOF 13
ENDMDL
MODEL 2
REMARK VINA RESULT:    -5.514      4.883      8.799
REMARK INTER + INTRA:         -10.984
REMARK INTER:                 -10.081
REMARK INTRA:                  -0.904
REMARK UNBOUND:                -1.280
REMARK SMILES CCCCCCCCCCCCCCC(=O)[O-]
REMARK SMILES IDX 9 1 10 2 11 3 12 4 13 5 14 6 15 7 16 8 17 9 8 10 7 11 6 12
REMARK SMILES IDX 5 13 4 14 3 15 2 16 1 17
REMARK H PARENT
REMARK Flexibility Score: inf
ROOT
ATOM      1  C   UNL     1     -24.536 -32.875  25.897  1.00  0.00     0.000 C 
ENDROOT
BRANCH   1   2
ATOM      2  C   UNL     1     -25.972 -33.215  26.326  1.00  0.00     0.000 C 
BRANCH   2   3
ATOM      3  C   UNL     1     -27.028 -32.379  25.584  1.00  0.00     0.000 C 
BRANCH   3   4
ATOM      4  C   UNL     1     -27.614 -33.126  24.366  1.00  0.00     0.000 C 
BRANCH   4   5
ATOM      5  C   UNL     1     -28.258 -32.192  23.324  1.00  0.00     0.006 C 
BRANCH   5   6
ATOM      6  C   UNL     1     -28.424 -30.743  23.805  1.00  0.00     0.053 C 
BRANCH   6   7
ATOM      7  C   UNL     1     -29.811 -30.477  24.308  1.00  0.00     0.041 C 
ATOM      8  O   UNL     1     -30.031 -30.397  25.545  1.00  0.00    -0.550 OA
ATOM      9  O   UNL     1     -30.856 -30.296  23.411  1.00  0.00    -0.550 OA
ENDBRANCH   6   7
ENDBRANCH   5   6
ENDBRANCH   4   5
ENDBRANCH   3   4
ENDBRANCH   2   3
ENDBRANCH   1   2
BRANCH   1  10
ATOM     10  C   UNL     1     -24.441 -31.533  25.157  1.00  0.00     0.000 C 
BRANCH  10  11
ATOM     11  C   UNL     1     -23.775 -31.708  23.786  1.00  0.00    -0.000 C 
BRANCH  11  12
ATOM     12  C   UNL     1     -22.299 -31.284  23.834  1.00  0.00    -0.000 C 
BRANCH  12  13
ATOM     13  C   UNL     1     -21.397 -32.189  22.978  1.00  0.00    -0.000 C 
BRANCH  13  14
ATOM     14  C   UNL     1     -19.900 -31.940  23.229  1.00  0.00    -0.000 C 
BRANCH  14  15
ATOM     15  C   UNL     1     -19.632 -30.611  23.961  1.00  0.00    -0.000 C 
BRANCH  15  16
ATOM     16  C   UNL     1     -18.144 -30.293  24.191  1.00  0.00    -0.003 C 
ATOM     17  C   UNL     1     -17.207 -31.221  23.419  1.00  0.00     0.004 C 
ENDBRANCH  15  16
ENDBRANCH  14  15
ENDBRANCH  13  14
ENDBRANCH  12  13
ENDBRANCH  11  12
ENDBRANCH  10  11
ENDBRANCH   1  10
TORSDOF 13
ENDMDL
MODEL 3
REMARK VINA RESULT:    -5.502      3.876      8.417
REMARK INTER + INTRA:         -10.963
REMARK INTER:                  -9.974
REMARK INTRA:                  -0.989
REMARK UNBOUND:                -1.280
REMARK SMILES CCCCCCCCCCCCCCC(=O)[O-]
REMARK SMILES IDX 9 1 10 2 11 3 12 4 13 5 14 6 15 7 16 8 17 9 8 10 7 11 6 12
REMARK SMILES IDX 5 13 4 14 3 15 2 16 1 17
REMARK H PARENT
REMARK Flexibility Score: inf
ROOT
ATOM      1  C   UNL     1     -23.528 -31.875  23.546  1.00  0.00     0.000 C 
ENDROOT
BRANCH   1   2
ATOM      2  C   UNL     1     -24.063 -31.518  24.942  1.00  0.00     0.000 C 
BRANCH   2   3
ATOM      3  C   UNL     1     -24.967 -32.614  25.530  1.00  0.00     0.000 C 
BRANCH   3   4
ATOM      4  C   UNL     1     -26.358 -32.072  25.929  1.00  0.00     0.000 C 
BRANCH   4   5
ATOM      5  C   UNL     1     -27.522 -32.788  25.220  1.00  0.00     0.006 C 
BRANCH   5   6
ATOM      6  C   UNL     1     -27.294 -33.012  23.718  1.00  0.00     0.053 C 
BRANCH   6   7
ATOM      7  C   UNL     1     -27.471 -31.747  22.932  1.00  0.00     0.041 C 
ATOM      8  O   UNL     1     -26.713 -31.497  21.958  1.00  0.00    -0.550 OA
ATOM      9  O   UNL     1     -28.484 -30.856  23.261  1.00  0.00    -0.550 OA
ENDBRANCH   6   7
ENDBRANCH   5   6
ENDBRANCH   4   5
ENDBRANCH   3   4
ENDBRANCH   2   3
ENDBRANCH   1   2
BRANCH   1  10
ATOM     10  C   UNL     1     -22.134 -31.293  23.278  1.00  0.00     0.000 C 
BRANCH  10  11
ATOM     11  C   UNL     1     -21.171 -32.378  22.781  1.00  0.00    -0.000 C 
BRANCH  11  12
ATOM     12  C   UNL     1     -19.718 -32.028  23.135  1.00  0.00    -0.000 C 
BRANCH  12  13
ATOM     13  C   UNL     1     -19.608 -30.747  23.979  1.00  0.00    -0.000 C 
BRANCH  13  14
ATOM     14  C   UNL     1     -18.156 -30.259  24.127  1.00  0.00    -0.000 C 
BRANCH  14  15
ATOM     15  C   UNL     1     -17.140 -31.202  23.457  1.00  0.00    -0.000 C 
BRANCH  15  16
ATOM     16  C   UNL     1     -16.166 -30.512  22.485  1.00  0.00    -0.003 C 
ATOM     17  C   UNL     1     -16.701 -29.187  21.943  1.00  0.00     0.004 C 
ENDBRANCH  15  16
ENDBRANCH  14  15
ENDBRANCH  13  14
ENDBRANCH  12  13
ENDBRANCH  11  12
ENDBRANCH  10  11
ENDBRANCH   1  10
TORSDOF 13
ENDMDL
MODEL 4
REMARK VINA RESULT:    -5.436      4.482      8.689
REMARK INTER + INTRA:         -10.847
REMARK INTER:                  -9.975
REMARK INTRA:                  -0.873
REMARK UNBOUND:                -1.280
REMARK SMILES CCCCCCCCCCCCCCC(=O)[O-]
REMARK SMILES IDX 9 1 10 2 11 3 12 4 13 5 14 6 15 7 16 8 17 9 8 10 7 11 6 12
REMARK SMILES IDX 5 13 4 14 3 15 2 16 1 17
REMARK H PARENT
REMARK Flexibility Score: inf
ROOT
ATOM      1  C   UNL     1     -24.216 -31.070  24.708  1.00  0.00     0.000 C 
ENDROOT
BRANCH   1   2
ATOM      2  C   UNL     1     -24.760 -32.264  25.508  1.00  0.00     0.000 C 
BRANCH   2   3
ATOM      3  C   UNL     1     -26.018 -32.881  24.874  1.00  0.00     0.000 C 
BRANCH   3   4
ATOM      4  C   UNL     1     -27.292 -32.585  25.697  1.00  0.00     0.000 C 
BRANCH   4   5
ATOM      5  C   UNL     1     -28.264 -31.617  24.996  1.00  0.00     0.006 C 
BRANCH   5   6
ATOM      6  C   UNL     1     -27.882 -31.292  23.544  1.00  0.00     0.053 C 
BRANCH   6   7
ATOM      7  C   UNL     1     -28.764 -32.004  22.563  1.00  0.00     0.041 C 
ATOM      8  O   UNL     1     -28.628 -33.241  22.371  1.00  0.00    -0.550 OA
ATOM      9  O   UNL     1     -29.749 -31.307  21.876  1.00  0.00    -0.550 OA
ENDBRANCH   6   7
ENDBRANCH   5   6
ENDBRANCH   4   5
ENDBRANCH   3   4
ENDBRANCH   2   3
ENDBRANCH   1   2
BRANCH   1  10
ATOM     10  C   UNL     1     -23.902 -31.428  23.249  1.00  0.00     0.000 C 
BRANCH  10  11
ATOM     11  C   UNL     1     -22.395 -31.637  23.047  1.00  0.00    -0.000 C 
BRANCH  11  12
ATOM     12  C   UNL     1     -21.617 -30.346  23.340  1.00  0.00    -0.000 C 
BRANCH  12  13
ATOM     13  C   UNL     1     -20.442 -30.571  24.305  1.00  0.00    -0.000 C 
BRANCH  13  14
ATOM     14  C   UNL     1     -19.251 -31.276  23.633  1.00  0.00    -0.000 C 
BRANCH  14  15
ATOM     15  C   UNL     1     -17.901 -30.615  23.967  1.00  0.00    -0.000 C 
BRANCH  15  16
ATOM     16  C   UNL     1     -16.684 -31.249  23.269  1.00  0.00    -0.003 C 
ATOM     17  C   UNL     1     -15.984 -30.295  22.303  1.00  0.00     0.004 C 
ENDBRANCH  15  16
ENDBRANCH  14  15
ENDBRANCH  13  14
ENDBRANCH  12  13
ENDBRANCH  11  12
ENDBRANCH  10  11
ENDBRANCH   1  10
TORSDOF 13
ENDMDL
MODEL 5
REMARK VINA RESULT:    -5.426      0.991      2.629
REMARK INTER + INTRA:         -10.831
REMARK INTER:                  -9.591
REMARK INTRA:                  -1.239
REMARK UNBOUND:                -1.280
REMARK SMILES CCCCCCCCCCCCCCC(=O)[O-]
REMARK SMILES IDX 9 1 10 2 11 3 12 4 13 5 14 6 15 7 16 8 17 9 8 10 7 11 6 12
REMARK SMILES IDX 5 13 4 14 3 15 2 16 1 17
REMARK H PARENT
REMARK Flexibility Score: inf
ROOT
ATOM      1  C   UNL     1     -24.423 -30.840  23.202  1.00  0.00     0.000 C 
ENDROOT
BRANCH   1   2
ATOM      2  C   UNL     1     -23.212 -31.510  23.870  1.00  0.00     0.000 C 
BRANCH   2   3
ATOM      3  C   UNL     1     -22.085 -31.830  22.874  1.00  0.00     0.000 C 
BRANCH   3   4
ATOM      4  C   UNL     1     -20.684 -31.649  23.499  1.00  0.00     0.000 C 
BRANCH   4   5
ATOM      5  C   UNL     1     -20.488 -30.282  24.181  1.00  0.00     0.006 C 
BRANCH   5   6
ATOM      6  C   UNL     1     -19.072 -30.058  24.732  1.00  0.00     0.053 C 
BRANCH   6   7
ATOM      7  C   UNL     1     -18.030 -30.185  23.662  1.00  0.00     0.041 C 
ATOM      8  O   UNL     1     -17.951 -29.320  22.750  1.00  0.00    -0.550 OA
ATOM      9  O   UNL     1     -17.132 -31.244  23.684  1.00  0.00    -0.550 OA
ENDBRANCH   6   7
ENDBRANCH   5   6
ENDBRANCH   4   5
ENDBRANCH   3   4
ENDBRANCH   2   3
ENDBRANCH   1   2
BRANCH   1  10
ATOM     10  C   UNL     1     -25.168 -31.781  22.245  1.00  0.00     0.000 C 
BRANCH  10  11
ATOM     11  C   UNL     1     -26.666 -31.454  22.208  1.00  0.00    -0.000 C 
BRANCH  11  12
ATOM     12  C   UNL     1     -27.511 -32.723  22.394  1.00  0.00    -0.000 C 
BRANCH  12  13
ATOM     13  C   UNL     1     -27.498 -33.232  23.845  1.00  0.00    -0.000 C 
BRANCH  13  14
ATOM     14  C   UNL     1     -27.936 -32.156  24.854  1.00  0.00    -0.000 C 
BRANCH  14  15
ATOM     15  C   UNL     1     -26.855 -31.849  25.906  1.00  0.00    -0.000 C 
BRANCH  15  16
ATOM     16  C   UNL     1     -26.321 -33.082  26.657  1.00  0.00    -0.003 C 
ATOM     17  C   UNL     1     -24.876 -33.423  26.297  1.00  0.00     0.004 C 
ENDBRANCH  15  16
ENDBRANCH  14  15
ENDBRANCH  13  14
ENDBRANCH  12  13
ENDBRANCH  11  12
ENDBRANCH  10  11
ENDBRANCH   1  10
TORSDOF 13
ENDMDL
MODEL 6
REMARK VINA RESULT:    -5.413      1.767      3.118
REMARK INTER + INTRA:         -10.808
REMARK INTER:                 -10.073
REMARK INTRA:                  -0.735
REMARK UNBOUND:                -1.280
REMARK SMILES CCCCCCCCCCCCCCC(=O)[O-]
REMARK SMILES IDX 9 1 10 2 11 3 12 4 13 5 14 6 15 7 16 8 17 9 8 10 7 11 6 12
REMARK SMILES IDX 5 13 4 14 3 15 2 16 1 17
REMARK H PARENT
REMARK Flexibility Score: inf
ROOT
ATOM      1  C   UNL     1     -20.434 -30.376  24.338  1.00  0.00     0.000 C 
ENDROOT
BRANCH   1   2
ATOM      2  C   UNL     1     -18.908 -30.210  24.420  1.00  0.00     0.000 C 
BRANCH   2   3
ATOM      3  C   UNL     1     -18.153 -31.205  23.524  1.00  0.00     0.000 C 
BRANCH   3   4
ATOM      4  C   UNL     1     -16.623 -30.998  23.581  1.00  0.00     0.000 C 
BRANCH   4   5
ATOM      5  C   UNL     1     -16.069 -30.186  22.395  1.00  0.00     0.006 C 
BRANCH   5   6
ATOM      6  C   UNL     1     -16.615 -30.626  21.029  1.00  0.00     0.053 C 
BRANCH   6   7
ATOM      7  C   UNL     1     -16.367 -29.594  19.970  1.00  0.00     0.041 C 
ATOM      8  O   UNL     1     -16.606 -29.857  18.762  1.00  0.00    -0.550 OA
ATOM      9  O   UNL     1     -15.892 -28.336  20.318  1.00  0.00    -0.550 OA
ENDBRANCH   6   7
ENDBRANCH   5   6
ENDBRANCH   4   5
ENDBRANCH   3   4
ENDBRANCH   2   3
ENDBRANCH   1   2
BRANCH   1  10
ATOM     10  C   UNL     1     -20.860 -31.436  23.313  1.00  0.00     0.000 C 
BRANCH  10  11
ATOM     11  C   UNL     1     -22.350 -31.773  23.459  1.00  0.00    -0.000 C 
BRANCH  11  12
ATOM     12  C   UNL     1     -22.930 -31.154  24.740  1.00  0.00    -0.000 C 
BRANCH  12  13
ATOM     13  C   UNL     1     -24.204 -30.335  24.474  1.00  0.00    -0.000 C 
BRANCH  13  14
ATOM     14  C   UNL     1     -25.472 -31.021  25.013  1.00  0.00    -0.000 C 
BRANCH  14  15
ATOM     15  C   UNL     1     -25.169 -32.344  25.740  1.00  0.00    -0.000 C 
BRANCH  15  16
ATOM     16  C   UNL     1     -26.394 -33.020  26.382  1.00  0.00    -0.003 C 
ATOM     17  C   UNL     1     -27.652 -32.921  25.520  1.00  0.00     0.004 C 
ENDBRANCH  15  16
ENDBRANCH  14  15
ENDBRANCH  13  14
ENDBRANCH  12  13
ENDBRANCH  11  12
ENDBRANCH  10  11
ENDBRANCH   1  10
TORSDOF 13
ENDMDL
MODEL 7
REMARK VINA RESULT:    -5.383      1.227      2.401
REMARK INTER + INTRA:         -10.755
REMARK INTER:                  -9.737
REMARK INTRA:                  -1.018
REMARK UNBOUND:                -1.280
REMARK SMILES CCCCCCCCCCCCCCC(=O)[O-]
REMARK SMILES IDX 9 1 10 2 11 3 12 4 13 5 14 6 15 7 16 8 17 9 8 10 7 11 6 12
REMARK SMILES IDX 5 13 4 14 3 15 2 16 1 17
REMARK H PARENT
REMARK Flexibility Score: inf
ROOT
ATOM      1  C   UNL     1     -24.677 -31.571  25.164  1.00  0.00     0.000 C 
ENDROOT
BRANCH   1   2
ATOM      2  C   UNL     1     -23.244 -31.728  24.634  1.00  0.00     0.000 C 
BRANCH   2   3
ATOM      3  C   UNL     1     -22.467 -30.401  24.620  1.00  0.00     0.000 C 
BRANCH   3   4
ATOM      4  C   UNL     1     -21.294 -30.421  23.614  1.00  0.00     0.000 C 
BRANCH   4   5
ATOM      5  C   UNL     1     -19.911 -30.295  24.281  1.00  0.00     0.006 C 
BRANCH   5   6
ATOM      6  C   UNL     1     -18.837 -31.202  23.665  1.00  0.00     0.053 C 
BRANCH   6   7
ATOM      7  C   UNL     1     -17.561 -30.458  23.404  1.00  0.00     0.041 C 
ATOM      8  O   UNL     1     -16.451 -31.024  23.585  1.00  0.00    -0.550 OA
ATOM      9  O   UNL     1     -17.598 -29.149  22.943  1.00  0.00    -0.550 OA
ENDBRANCH   6   7
ENDBRANCH   5   6
ENDBRANCH   4   5
ENDBRANCH   3   4
ENDBRANCH   2   3
ENDBRANCH   1   2
BRANCH   1  10
ATOM     10  C   UNL     1     -25.203 -32.847  25.838  1.00  0.00     0.000 C 
BRANCH  10  11
ATOM     11  C   UNL     1     -26.616 -32.632  26.395  1.00  0.00    -0.000 C 
BRANCH  11  12
ATOM     12  C   UNL     1     -27.148 -31.240  26.022  1.00  0.00    -0.000 C 
BRANCH  12  13
ATOM     13  C   UNL     1     -28.591 -31.282  25.492  1.00  0.00    -0.000 C 
BRANCH  13  14
ATOM     14  C   UNL     1     -28.708 -30.743  24.055  1.00  0.00    -0.000 C 
BRANCH  14  15
ATOM     15  C   UNL     1     -27.552 -31.204  23.149  1.00  0.00    -0.000 C 
BRANCH  15  16
ATOM     16  C   UNL     1     -27.896 -32.377  22.214  1.00  0.00    -0.003 C 
ATOM     17  C   UNL     1     -28.030 -33.709  22.950  1.00  0.00     0.004 C 
ENDBRANCH  15  16
ENDBRANCH  14  15
ENDBRANCH  13  14
ENDBRANCH  12  13
ENDBRANCH  11  12
ENDBRANCH  10  11
ENDBRANCH   1  10
TORSDOF 13
ENDMDL
MODEL 8
REMARK VINA RESULT:    -5.333      2.951      4.710
REMARK INTER + INTRA:         -10.666
REMARK INTER:                  -8.317
REMARK INTRA:                  -2.349
REMARK UNBOUND:                -1.280
REMARK SMILES CCCCCCCCCCCCCCC(=O)[O-]
REMARK SMILES IDX 9 1 10 2 11 3 12 4 13 5 14 6 15 7 16 8 17 9 8 10 7 11 6 12
REMARK SMILES IDX 5 13 4 14 3 15 2 16 1 17
REMARK H PARENT
REMARK Flexibility Score: inf
ROOT
ATOM      1  C   UNL     1     -26.785 -31.381  26.356  1.00  0.00     0.000 C 
ENDROOT
BRANCH   1   2
ATOM      2  C   UNL     1     -26.309 -32.808  26.038  1.00  0.00     0.000 C 
BRANCH   2   3
ATOM      3  C   UNL     1     -24.780 -32.911  25.915  1.00  0.00     0.000 C 
BRANCH   3   4
ATOM      4  C   UNL     1     -24.245 -32.193  24.656  1.00  0.00     0.000 C 
BRANCH   4   5
ATOM      5  C   UNL     1     -23.194 -31.111  24.966  1.00  0.00     0.006 C 
BRANCH   5   6
ATOM      6  C   UNL     1     -22.037 -31.059  23.958  1.00  0.00     0.053 C 
BRANCH   6   7
ATOM      7  C   UNL     1     -22.269 -30.029  22.894  1.00  0.00     0.041 C 
ATOM      8  O   UNL     1     -23.021 -30.286  21.917  1.00  0.00    -0.550 OA
ATOM      9  O   UNL     1     -21.673 -28.778  22.991  1.00  0.00    -0.550 OA
ENDBRANCH   6   7
ENDBRANCH   5   6
ENDBRANCH   4   5
ENDBRANCH   3   4
ENDBRANCH   2   3
ENDBRANCH   1   2
BRANCH   1  10
ATOM     10  C   UNL     1     -28.165 -31.071  25.762  1.00  0.00     0.000 C 
BRANCH  10  11
ATOM     11  C   UNL     1     -28.115 -29.815  24.882  1.00  0.00    -0.000 C 
BRANCH  11  12
ATOM     12  C   UNL     1     -26.679 -29.283  24.764  1.00  0.00    -0.000 C 
BRANCH  12  13
ATOM     13  C   UNL     1     -26.168 -29.279  23.314  1.00  0.00    -0.000 C 
BRANCH  13  14
ATOM     14  C   UNL     1     -27.079 -30.076  22.364  1.00  0.00    -0.000 C 
BRANCH  14  15
ATOM     15  C   UNL     1     -26.512 -31.465  22.020  1.00  0.00    -0.000 C 
BRANCH  15  16
ATOM     16  C   UNL     1     -27.386 -32.647  22.474  1.00  0.00    -0.003 C 
ATOM     17  C   UNL     1     -28.874 -32.431  22.200  1.00  0.00     0.004 C 
ENDBRANCH  15  16
ENDBRANCH  14  15
ENDBRANCH  13  14
ENDBRANCH  12  13
ENDBRANCH  11  12
ENDBRANCH  10  11
ENDBRANCH   1  10
TORSDOF 13
ENDMDL
MODEL 9
REMARK VINA RESULT:    -5.295      4.141      8.874
REMARK INTER + INTRA:         -10.599
REMARK INTER:                  -9.943
REMARK INTRA:                  -0.656
REMARK UNBOUND:                -1.280
REMARK SMILES CCCCCCCCCCCCCCC(=O)[O-]
REMARK SMILES IDX 9 1 10 2 11 3 12 4 13 5 14 6 15 7 16 8 17 9 8 10 7 11 6 12
REMARK SMILES IDX 5 13 4 14 3 15 2 16 1 17
REMARK H PARENT
REMARK Flexibility Score: inf
ROOT
ATOM      1  C   UNL     1     -21.778 -31.307  23.675  1.00  0.00     0.000 C 
ENDROOT
BRANCH   1   2
ATOM      2  C   UNL     1     -22.963 -30.996  24.603  1.00  0.00     0.000 C 
BRANCH   2   3
ATOM      3  C   UNL     1     -24.105 -32.017  24.471  1.00  0.00     0.000 C 
BRANCH   3   4
ATOM      4  C   UNL     1     -24.461 -32.675  25.823  1.00  0.00     0.000 C 
BRANCH   4   5
ATOM      5  C   UNL     1     -25.964 -32.968  25.987  1.00  0.00     0.006 C 
BRANCH   5   6
ATOM      6  C   UNL     1     -26.784 -32.753  24.706  1.00  0.00     0.053 C 
BRANCH   6   7
ATOM      7  C   UNL     1     -27.651 -31.533  24.796  1.00  0.00     0.041 C 
ATOM      8  O   UNL     1     -28.246 -31.258  25.872  1.00  0.00    -0.550 OA
ATOM      9  O   UNL     1     -27.786 -30.690  23.701  1.00  0.00    -0.550 OA
ENDBRANCH   6   7
ENDBRANCH   5   6
ENDBRANCH   4   5
ENDBRANCH   3   4
ENDBRANCH   2   3
ENDBRANCH   1   2
BRANCH   1  10
ATOM     10  C   UNL     1     -20.507 -30.537  24.058  1.00  0.00     0.000 C 
BRANCH  10  11
ATOM     11  C   UNL     1     -19.250 -31.311  23.642  1.00  0.00    -0.000 C 
BRANCH  11  12
ATOM     12  C   UNL     1     -17.978 -30.550  24.044  1.00  0.00    -0.000 C 
BRANCH  12  13
ATOM     13  C   UNL     1     -16.699 -31.204  23.494  1.00  0.00    -0.000 C 
BRANCH  13  14
ATOM     14  C   UNL     1     -16.427 -30.827  22.028  1.00  0.00    -0.000 C 
BRANCH  14  15
ATOM     15  C   UNL     1     -15.883 -29.395  21.871  1.00  0.00    -0.000 C 
BRANCH  15  16
ATOM     16  C   UNL     1     -16.816 -28.432  21.117  1.00  0.00    -0.003 C 
ATOM     17  C   UNL     1     -17.562 -27.473  22.044  1.00  0.00     0.004 C 
ENDBRANCH  15  16
ENDBRANCH  14  15
ENDBRANCH  13  14
ENDBRANCH  12  13
ENDBRANCH  11  12
ENDBRANCH  10  11
ENDBRANCH   1  10
TORSDOF 13
ENDMDL
