MODEL 1
REMARK VINA RESULT:    -5.021      0.000      0.000
REMARK INTER + INTRA:          -6.932
REMARK INTER:                  -6.489
REMARK INTRA:                  -0.443
REMARK UNBOUND:                -0.443
REMARK SMILES CO[C@]1(CO)O[C@@H](CO)[C@H](O)[C@@H]1O
REMARK SMILES IDX 3 1 12 2 10 3 7 4 6 5 2 6 1 7 4 8 5 9 13 11 11 13 8 15 9 16
REMARK H PARENT 5 10 13 12 11 14 9 17
REMARK Flexibility Score: inf
ROOT
ATOM      1  C   UNL     1      14.858 -10.200  21.822  1.00  0.00     0.221 C 
ATOM      2  C   UNL     1      14.368 -10.963  23.068  1.00  0.00     0.207 C 
ATOM      3  C   UNL     1      15.496 -11.930  23.322  1.00  0.00     0.180 C 
ATOM      4  C   UNL     1      16.030 -12.180  21.919  1.00  0.00     0.179 C 
ATOM      5  O   UNL     1      15.778 -11.038  21.129  1.00  0.00    -0.337 OA
ENDROOT
BRANCH   1   6
ATOM      6  O   UNL     1      13.727  -9.830  21.031  1.00  0.00    -0.349 OA
ATOM      7  C   UNL     1      13.344  -8.480  21.190  1.00  0.00     0.198 C 
ENDBRANCH   1   6
BRANCH   1   8
ATOM      8  C   UNL     1      15.595  -8.915  22.257  1.00  0.00     0.224 C 
BRANCH   8   9
ATOM      9  O   UNL     1      16.909  -8.919  21.772  1.00  0.00    -0.391 OA
ATOM     10  H   UNL     1      17.097  -7.990  21.476  1.00  0.00     0.210 HD
ENDBRANCH   8   9
ENDBRANCH   1   8
BRANCH   2  11
ATOM     11  O   UNL     1      13.185 -11.674  22.784  1.00  0.00    -0.385 OA
ATOM     12  H   UNL     1      12.651 -11.106  22.170  1.00  0.00     0.211 HD
ENDBRANCH   2  11
BRANCH   3  13
ATOM     13  O   UNL     1      15.055 -13.125  23.915  1.00  0.00    -0.387 OA
ATOM     14  H   UNL     1      14.128 -13.271  23.593  1.00  0.00     0.211 HD
ENDBRANCH   3  13
BRANCH   4  15
ATOM     15  C   UNL     1      17.531 -12.492  21.927  1.00  0.00     0.191 C 
BRANCH  15  16
ATOM     16  O   UNL     1      18.221 -11.593  21.102  1.00  0.00    -0.394 OA
ATOM     17  H   UNL     1      17.559 -10.922  20.793  1.00  0.00     0.210 HD
ENDBRANCH  15  16
ENDBRANCH   4  15
TORSDOF 7
ENDMDL
MODEL 2
REMARK VINA RESULT:    -4.757      1.124      3.437
REMARK INTER + INTRA:          -6.591
REMARK INTER:                  -6.305
REMARK INTRA:                  -0.286
REMARK UNBOUND:                -0.443
REMARK SMILES CO[C@]1(CO)O[C@@H](CO)[C@H](O)[C@@H]1O
REMARK SMILES IDX 3 1 12 2 10 3 7 4 6 5 2 6 1 7 4 8 5 9 13 11 11 13 8 15 9 16
REMARK H PARENT 5 10 13 12 11 14 9 17
REMARK Flexibility Score: inf
ROOT
ATOM      1  C   UNL     1      15.793 -11.915  22.467  1.00  0.00     0.221 C 
ATOM      2  C   UNL     1      14.485 -12.090  21.671  1.00  0.00     0.207 C 
ATOM      3  C   UNL     1      14.159 -10.676  21.266  1.00  0.00     0.180 C 
ATOM      4  C   UNL     1      14.741  -9.868  22.416  1.00  0.00     0.179 C 
ATOM      5  O   UNL     1      15.826 -10.582  22.969  1.00  0.00    -0.337 OA
ENDROOT
BRANCH   1   6
ATOM      6  O   UNL     1      15.845 -12.905  23.495  1.00  0.00    -0.349 OA
ATOM      7  C   UNL     1      15.881 -12.363  24.800  1.00  0.00     0.198 C 
ENDBRANCH   1   6
BRANCH   1   8
ATOM      8  C   UNL     1      17.003 -12.116  21.528  1.00  0.00     0.224 C 
BRANCH   8   9
ATOM      9  O   UNL     1      17.641 -10.893  21.286  1.00  0.00    -0.391 OA
ATOM     10  H   UNL     1      17.205 -10.511  20.480  1.00  0.00     0.210 HD
ENDBRANCH   8   9
ENDBRANCH   1   8
BRANCH   2  11
ATOM     11  O   UNL     1      13.463 -12.598  22.497  1.00  0.00    -0.385 OA
ATOM     12  H   UNL     1      13.714 -13.532  22.720  1.00  0.00     0.211 HD
ENDBRANCH   2  11
BRANCH   3  13
ATOM     13  O   UNL     1      12.776 -10.458  21.144  1.00  0.00    -0.387 OA
ATOM     14  H   UNL     1      12.355 -10.896  21.928  1.00  0.00     0.211 HD
ENDBRANCH   3  13
BRANCH   4  15
ATOM     15  C   UNL     1      15.205  -8.479  21.961  1.00  0.00     0.191 C 
BRANCH  15  16
ATOM     16  O   UNL     1      16.603  -8.438  21.865  1.00  0.00    -0.394 OA
ATOM     17  H   UNL     1      16.887  -7.555  22.219  1.00  0.00     0.210 HD
ENDBRANCH  15  16
ENDBRANCH   4  15
TORSDOF 7
ENDMDL
MODEL 3
REMARK VINA RESULT:    -4.444      1.267      3.086
REMARK INTER + INTRA:          -6.187
REMARK INTER:                  -5.775
REMARK INTRA:                  -0.412
REMARK UNBOUND:                -0.443
REMARK SMILES CO[C@]1(CO)O[C@@H](CO)[C@H](O)[C@@H]1O
REMARK SMILES IDX 3 1 12 2 10 3 7 4 6 5 2 6 1 7 4 8 5 9 13 11 11 13 8 15 9 16
REMARK H PARENT 5 10 13 12 11 14 9 17
REMARK Flexibility Score: inf
ROOT
ATOM      1  C   UNL     1      14.912 -10.297  22.113  1.00  0.00     0.221 C 
ATOM      2  C   UNL     1      16.079 -10.985  21.379  1.00  0.00     0.207 C 
ATOM      3  C   UNL     1      16.316 -12.211  22.223  1.00  0.00     0.180 C 
ATOM      4  C   UNL     1      15.913 -11.732  23.610  1.00  0.00     0.179 C 
ATOM      5  O   UNL     1      14.940 -10.718  23.473  1.00  0.00    -0.337 OA
ENDROOT
BRANCH   1   6
ATOM      6  O   UNL     1      15.039  -8.882  21.959  1.00  0.00    -0.349 OA
ATOM      7  C   UNL     1      13.850  -8.252  21.529  1.00  0.00     0.198 C 
ENDBRANCH   1   6
BRANCH   1   8
ATOM      8  C   UNL     1      13.572 -10.742  21.488  1.00  0.00     0.224 C 
BRANCH   8   9
ATOM      9  O   UNL     1      12.764 -11.355  22.454  1.00  0.00    -0.391 OA
ATOM     10  H   UNL     1      11.867 -10.936  22.370  1.00  0.00     0.210 HD
ENDBRANCH   8   9
ENDBRANCH   1   8
BRANCH   2  11
ATOM     11  O   UNL     1      17.227 -10.169  21.391  1.00  0.00    -0.385 OA
ATOM     12  H   UNL     1      17.146  -9.551  20.618  1.00  0.00     0.211 HD
ENDBRANCH   2  11
BRANCH   3  13
ATOM     13  O   UNL     1      17.658 -12.626  22.203  1.00  0.00    -0.387 OA
ATOM     14  H   UNL     1      18.162 -11.917  21.725  1.00  0.00     0.211 HD
ENDBRANCH   3  13
BRANCH   4  15
ATOM     15  C   UNL     1      15.361 -12.875  24.470  1.00  0.00     0.191 C 
BRANCH  15  16
ATOM     16  O   UNL     1      14.019 -13.125  24.151  1.00  0.00    -0.394 OA
ATOM     17  H   UNL     1      13.637 -13.641  24.907  1.00  0.00     0.210 HD
ENDBRANCH  15  16
ENDBRANCH   4  15
TORSDOF 7
ENDMDL
MODEL 4
REMARK VINA RESULT:    -4.131     15.378     16.468
REMARK INTER + INTRA:          -5.781
REMARK INTER:                  -5.341
REMARK INTRA:                  -0.441
REMARK UNBOUND:                -0.443
REMARK SMILES CO[C@]1(CO)O[C@@H](CO)[C@H](O)[C@@H]1O
REMARK SMILES IDX 3 1 12 2 10 3 7 4 6 5 2 6 1 7 4 8 5 9 13 11 11 13 8 15 9 16
REMARK H PARENT 5 10 13 12 11 14 9 17
REMARK Flexibility Score: inf
ROOT
ATOM      1  C   UNL     1      10.718  -5.167  36.953  1.00  0.00     0.221 C 
ATOM      2  C   UNL     1      10.367  -5.019  35.460  1.00  0.00     0.207 C 
ATOM      3  C   UNL     1      11.603  -4.365  34.898  1.00  0.00     0.180 C 
ATOM      4  C   UNL     1      12.100  -3.546  36.080  1.00  0.00     0.179 C 
ATOM      5  O   UNL     1      11.693  -4.179  37.274  1.00  0.00    -0.337 OA
ENDROOT
BRANCH   1   6
ATOM      6  O   UNL     1       9.521  -5.047  37.724  1.00  0.00    -0.349 OA
ATOM      7  C   UNL     1       9.158  -6.237  38.393  1.00  0.00     0.198 C 
ENDBRANCH   1   6
BRANCH   1   8
ATOM      8  C   UNL     1      11.329  -6.562  37.207  1.00  0.00     0.224 C 
BRANCH   8   9
ATOM      9  O   UNL     1      12.635  -6.440  37.698  1.00  0.00    -0.391 OA
ATOM     10  H   UNL     1      13.062  -5.716  37.168  1.00  0.00     0.210 HD
ENDBRANCH   8   9
ENDBRANCH   1   8
BRANCH   2  11
ATOM     11  O   UNL     1       9.257  -4.168  35.290  1.00  0.00    -0.385 OA
ATOM     12  H   UNL     1       8.567  -4.692  34.806  1.00  0.00     0.211 HD
ENDBRANCH   2  11
BRANCH   3  13
ATOM     13  O   UNL     1      11.320  -3.542  33.796  1.00  0.00    -0.387 OA
ATOM     14  H   UNL     1      12.009  -2.828  33.796  1.00  0.00     0.211 HD
ENDBRANCH   3  13
BRANCH   4  15
ATOM     15  C   UNL     1      13.626  -3.390  36.063  1.00  0.00     0.191 C 
BRANCH  15  16
ATOM     16  O   UNL     1      14.185  -3.923  37.232  1.00  0.00    -0.394 OA
ATOM     17  H   UNL     1      15.072  -4.291  36.982  1.00  0.00     0.210 HD
ENDBRANCH  15  16
ENDBRANCH   4  15
TORSDOF 7
ENDMDL
MODEL 5
REMARK VINA RESULT:    -4.109     15.047     16.234
REMARK INTER + INTRA:          -5.753
REMARK INTER:                  -5.354
REMARK INTRA:                  -0.399
REMARK UNBOUND:                -0.443
REMARK SMILES CO[C@]1(CO)O[C@@H](CO)[C@H](O)[C@@H]1O
REMARK SMILES IDX 3 1 12 2 10 3 7 4 6 5 2 6 1 7 4 8 5 9 13 11 11 13 8 15 9 16
REMARK H PARENT 5 10 13 12 11 14 9 17
REMARK Flexibility Score: inf
ROOT
ATOM      1  C   UNL     1      11.577  -4.809  36.957  1.00  0.00     0.221 C 
ATOM      2  C   UNL     1      12.109  -3.817  35.905  1.00  0.00     0.207 C 
ATOM      3  C   UNL     1      11.169  -4.036  34.747  1.00  0.00     0.180 C 
ATOM      4  C   UNL     1      10.799  -5.503  34.904  1.00  0.00     0.179 C 
ATOM      5  O   UNL     1      10.887  -5.849  36.269  1.00  0.00    -0.337 OA
ENDROOT
BRANCH   1   6
ATOM      6  O   UNL     1      12.672  -5.284  37.742  1.00  0.00    -0.349 OA
ATOM      7  C   UNL     1      12.276  -5.923  38.938  1.00  0.00     0.198 C 
ENDBRANCH   1   6
BRANCH   1   8
ATOM      8  C   UNL     1      10.578  -4.091  37.890  1.00  0.00     0.224 C 
BRANCH   8   9
ATOM      9  O   UNL     1      10.882  -2.727  37.973  1.00  0.00    -0.391 OA
ATOM     10  H   UNL     1      10.013  -2.255  38.060  1.00  0.00     0.210 HD
ENDBRANCH   8   9
ENDBRANCH   1   8
BRANCH   2  11
ATOM     11  O   UNL     1      13.423  -4.151  35.524  1.00  0.00    -0.385 OA
ATOM     12  H   UNL     1      13.990  -4.052  36.333  1.00  0.00     0.211 HD
ENDBRANCH   2  11
BRANCH   3  13
ATOM     13  O   UNL     1      11.784  -3.799  33.506  1.00  0.00    -0.387 OA
ATOM     14  H   UNL     1      12.325  -4.606  33.304  1.00  0.00     0.211 HD
ENDBRANCH   3  13
BRANCH   4  15
ATOM     15  C   UNL     1       9.388  -5.795  34.379  1.00  0.00     0.191 C 
BRANCH  15  16
ATOM     16  O   UNL     1       9.093  -4.970  33.285  1.00  0.00    -0.394 OA
ATOM     17  H   UNL     1       9.803  -4.277  33.250  1.00  0.00     0.210 HD
ENDBRANCH  15  16
ENDBRANCH   4  15
TORSDOF 7
ENDMDL
MODEL 6
REMARK VINA RESULT:    -4.091     15.960     17.075
REMARK INTER + INTRA:          -5.730
REMARK INTER:                  -5.278
REMARK INTRA:                  -0.452
REMARK UNBOUND:                -0.443
REMARK SMILES CO[C@]1(CO)O[C@@H](CO)[C@H](O)[C@@H]1O
REMARK SMILES IDX 3 1 12 2 10 3 7 4 6 5 2 6 1 7 4 8 5 9 13 11 11 13 8 15 9 16
REMARK H PARENT 5 10 13 12 11 14 9 17
REMARK Flexibility Score: inf
ROOT
ATOM      1  C   UNL     1      12.089  -3.867  36.694  1.00  0.00     0.221 C 
ATOM      2  C   UNL     1      11.497  -4.674  35.523  1.00  0.00     0.207 C 
ATOM      3  C   UNL     1      10.031  -4.337  35.604  1.00  0.00     0.180 C 
ATOM      4  C   UNL     1       9.834  -4.104  37.095  1.00  0.00     0.179 C 
ATOM      5  O   UNL     1      11.052  -3.652  37.647  1.00  0.00    -0.337 OA
ENDROOT
BRANCH   1   6
ATOM      6  O   UNL     1      13.206  -4.581  37.230  1.00  0.00    -0.349 OA
ATOM      7  C   UNL     1      14.454  -4.016  36.887  1.00  0.00     0.198 C 
ENDBRANCH   1   6
BRANCH   1   8
ATOM      8  C   UNL     1      12.581  -2.495  36.184  1.00  0.00     0.224 C 
BRANCH   8   9
ATOM      9  O   UNL     1      12.154  -1.475  37.043  1.00  0.00    -0.391 OA
ATOM     10  H   UNL     1      11.162  -1.492  37.020  1.00  0.00     0.210 HD
ENDBRANCH   8   9
ENDBRANCH   1   8
BRANCH   2  11
ATOM     11  O   UNL     1      11.681  -6.056  35.725  1.00  0.00    -0.385 OA
ATOM     12  H   UNL     1      12.616  -6.261  35.465  1.00  0.00     0.211 HD
ENDBRANCH   2  11
BRANCH   3  13
ATOM     13  O   UNL     1       9.213  -5.383  35.144  1.00  0.00    -0.387 OA
ATOM     14  H   UNL     1       8.881  -5.106  34.251  1.00  0.00     0.211 HD
ENDBRANCH   3  13
BRANCH   4  15
ATOM     15  C   UNL     1       8.722  -3.085  37.372  1.00  0.00     0.191 C 
BRANCH  15  16
ATOM     16  O   UNL     1       9.259  -1.913  37.924  1.00  0.00    -0.394 OA
ATOM     17  H   UNL     1      10.215  -1.887  37.661  1.00  0.00     0.210 HD
ENDBRANCH  15  16
ENDBRANCH   4  15
TORSDOF 7
ENDMDL
MODEL 7
REMARK VINA RESULT:    -4.088     14.806     15.864
REMARK INTER + INTRA:          -5.726
REMARK INTER:                  -5.371
REMARK INTRA:                  -0.355
REMARK UNBOUND:                -0.443
REMARK SMILES CO[C@]1(CO)O[C@@H](CO)[C@H](O)[C@@H]1O
REMARK SMILES IDX 3 1 12 2 10 3 7 4 6 5 2 6 1 7 4 8 5 9 13 11 11 13 8 15 9 16
REMARK H PARENT 5 10 13 12 11 14 9 17
REMARK Flexibility Score: inf
ROOT
ATOM      1  C   UNL     1      11.035  -5.552  35.271  1.00  0.00     0.221 C 
ATOM      2  C   UNL     1      11.120  -5.809  36.788  1.00  0.00     0.207 C 
ATOM      3  C   UNL     1      11.742  -4.536  37.299  1.00  0.00     0.180 C 
ATOM      4  C   UNL     1      12.609  -4.105  36.126  1.00  0.00     0.179 C 
ATOM      5  O   UNL     1      12.031  -4.591  34.933  1.00  0.00    -0.337 OA
ENDROOT
BRANCH   1   6
ATOM      6  O   UNL     1      11.195  -6.794  34.582  1.00  0.00    -0.349 OA
ATOM      7  C   UNL     1       9.981  -7.486  34.376  1.00  0.00     0.198 C 
ENDBRANCH   1   6
BRANCH   1   8
ATOM      8  C   UNL     1       9.650  -4.969  34.919  1.00  0.00     0.224 C 
BRANCH   8   9
ATOM      9  O   UNL     1       9.753  -4.085  33.838  1.00  0.00    -0.391 OA
ATOM     10  H   UNL     1       8.853  -3.681  33.725  1.00  0.00     0.210 HD
ENDBRANCH   8   9
ENDBRANCH   1   8
BRANCH   2  11
ATOM     11  O   UNL     1      11.968  -6.899  37.063  1.00  0.00    -0.385 OA
ATOM     12  H   UNL     1      12.331  -7.207  36.191  1.00  0.00     0.211 HD
ENDBRANCH   2  11
BRANCH   3  13
ATOM     13  O   UNL     1      12.518  -4.743  38.452  1.00  0.00    -0.387 OA
ATOM     14  H   UNL     1      11.954  -4.471  39.221  1.00  0.00     0.211 HD
ENDBRANCH   3  13
BRANCH   4  15
ATOM     15  C   UNL     1      12.757  -2.581  36.054  1.00  0.00     0.191 C 
BRANCH  15  16
ATOM     16  O   UNL     1      12.058  -1.972  37.105  1.00  0.00    -0.394 OA
ATOM     17  H   UNL     1      12.659  -1.985  37.894  1.00  0.00     0.210 HD
ENDBRANCH  15  16
ENDBRANCH   4  15
TORSDOF 7
ENDMDL
MODEL 8
REMARK VINA RESULT:    -4.010     15.124     16.193
REMARK INTER + INTRA:          -5.625
REMARK INTER:                  -5.093
REMARK INTRA:                  -0.532
REMARK UNBOUND:                -0.443
REMARK SMILES CO[C@]1(CO)O[C@@H](CO)[C@H](O)[C@@H]1O
REMARK SMILES IDX 3 1 12 2 10 3 7 4 6 5 2 6 1 7 4 8 5 9 13 11 11 13 8 15 9 16
REMARK H PARENT 5 10 13 12 11 14 9 17
REMARK Flexibility Score: inf
ROOT
ATOM      1  C   UNL     1       8.694  -4.926  35.656  1.00  0.00     0.221 C 
ATOM      2  C   UNL     1       9.097  -4.280  36.996  1.00  0.00     0.207 C 
ATOM      3  C   UNL     1      10.514  -3.841  36.732  1.00  0.00     0.180 C 
ATOM      4  C   UNL     1      10.995  -4.884  35.734  1.00  0.00     0.179 C 
ATOM      5  O   UNL     1       9.884  -5.356  35.002  1.00  0.00    -0.337 OA
ENDROOT
BRANCH   1   6
ATOM      6  O   UNL     1       7.778  -5.992  35.913  1.00  0.00    -0.349 OA
ATOM      7  C   UNL     1       7.839  -7.032  34.959  1.00  0.00     0.198 C 
ENDBRANCH   1   6
BRANCH   1   8
ATOM      8  C   UNL     1       7.993  -3.879  34.764  1.00  0.00     0.224 C 
BRANCH   8   9
ATOM      9  O   UNL     1       8.539  -3.894  33.474  1.00  0.00    -0.391 OA
ATOM     10  H   UNL     1       8.566  -2.947  33.176  1.00  0.00     0.210 HD
ENDBRANCH   8   9
ENDBRANCH   1   8
BRANCH   2  11
ATOM     11  O   UNL     1       9.076  -5.231  38.035  1.00  0.00    -0.385 OA
ATOM     12  H   UNL     1       9.457  -6.069  37.663  1.00  0.00     0.211 HD
ENDBRANCH   2  11
BRANCH   3  13
ATOM     13  O   UNL     1      11.304  -3.853  37.894  1.00  0.00    -0.387 OA
ATOM     14  H   UNL     1      11.333  -4.795  38.203  1.00  0.00     0.211 HD
ENDBRANCH   3  13
BRANCH   4  15
ATOM     15  C   UNL     1      12.050  -4.315  34.778  1.00  0.00     0.191 C 
BRANCH  15  16
ATOM     16  O   UNL     1      11.441  -3.525  33.792  1.00  0.00    -0.394 OA
ATOM     17  H   UNL     1      11.773  -2.599  33.924  1.00  0.00     0.210 HD
ENDBRANCH  15  16
ENDBRANCH   4  15
TORSDOF 7
ENDMDL
MODEL 9
REMARK VINA RESULT:    -4.004     14.344     15.451
REMARK INTER + INTRA:          -5.618
REMARK INTER:                  -5.235
REMARK INTRA:                  -0.383
REMARK UNBOUND:                -0.443
REMARK SMILES CO[C@]1(CO)O[C@@H](CO)[C@H](O)[C@@H]1O
REMARK SMILES IDX 3 1 12 2 10 3 7 4 6 5 2 6 1 7 4 8 5 9 13 11 11 13 8 15 9 16
REMARK H PARENT 5 10 13 12 11 14 9 17
REMARK Flexibility Score: inf
ROOT
ATOM      1  C   UNL     1      10.561  -5.418  34.886  1.00  0.00     0.221 C 
ATOM      2  C   UNL     1      11.659  -4.545  34.248  1.00  0.00     0.207 C 
ATOM      3  C   UNL     1      12.586  -4.289  35.408  1.00  0.00     0.180 C 
ATOM      4  C   UNL     1      11.632  -4.306  36.594  1.00  0.00     0.179 C 
ATOM      5  O   UNL     1      10.539  -5.142  36.283  1.00  0.00    -0.337 OA
ENDROOT
BRANCH   1   6
ATOM      6  O   UNL     1       9.317  -5.144  34.238  1.00  0.00    -0.349 OA
ATOM      7  C   UNL     1       8.883  -6.184  33.386  1.00  0.00     0.198 C 
ENDBRANCH   1   6
BRANCH   1   8
ATOM      8  C   UNL     1      10.902  -6.911  34.685  1.00  0.00     0.224 C 
BRANCH   8   9
ATOM      9  O   UNL     1      11.173  -7.519  35.917  1.00  0.00    -0.391 OA
ATOM     10  H   UNL     1      11.328  -6.780  36.561  1.00  0.00     0.210 HD
ENDBRANCH   8   9
ENDBRANCH   1   8
BRANCH   2  11
ATOM     11  O   UNL     1      11.123  -3.327  33.787  1.00  0.00    -0.385 OA
ATOM     12  H   UNL     1      11.670  -2.603  34.190  1.00  0.00     0.211 HD
ENDBRANCH   2  11
BRANCH   3  13
ATOM     13  O   UNL     1      13.244  -3.052  35.306  1.00  0.00    -0.387 OA
ATOM     14  H   UNL     1      12.804  -2.447  35.959  1.00  0.00     0.211 HD
ENDBRANCH   3  13
BRANCH   4  15
ATOM     15  C   UNL     1      12.321  -4.796  37.873  1.00  0.00     0.191 C 
BRANCH  15  16
ATOM     16  O   UNL     1      13.710  -4.843  37.693  1.00  0.00    -0.394 OA
ATOM     17  H   UNL     1      14.095  -4.122  38.256  1.00  0.00     0.210 HD
ENDBRANCH  15  16
ENDBRANCH   4  15
TORSDOF 7
ENDMDL
