MODEL 1
REMARK VINA RESULT:    -4.024      0.000      0.000
REMARK INTER + INTRA:         -15.371
REMARK INTER:                 -10.141
REMARK INTRA:                  -5.229
REMARK UNBOUND:                -5.229
REMARK SMILES CCCCCCCCCCCCCCCCCCCCCCCCCCCC(=O)[O-]
REMARK SMILES IDX 15 1 16 2 17 3 18 4 19 5 20 6 21 7 22 8 23 9 24 10 25 11
REMARK SMILES IDX 26 12 27 13 28 14 29 15 30 16 14 17 13 18 12 19 11 20 10 21
REMARK SMILES IDX 9 22 8 23 7 24 6 25 5 26 4 27 3 28 2 29 1 30
REMARK H PARENT
REMARK Flexibility Score: inf
ROOT
ATOM      1  C   UNL     1     -19.624 119.132  -1.407  1.00  0.00     0.000 C 
ENDROOT
BRANCH   1   2
ATOM      2  C   UNL     1     -20.215 120.408  -2.018  1.00  0.00     0.000 C 
BRANCH   2   3
ATOM      3  C   UNL     1     -21.192 120.074  -3.155  1.00  0.00     0.000 C 
BRANCH   3   4
ATOM      4  C   UNL     1     -22.610 120.610  -2.900  1.00  0.00     0.000 C 
BRANCH   4   5
ATOM      5  C   UNL     1     -22.905 120.998  -1.438  1.00  0.00     0.000 C 
BRANCH   5   6
ATOM      6  C   UNL     1     -24.332 120.639  -0.974  1.00  0.00     0.000 C 
BRANCH   6   7
ATOM      7  C   UNL     1     -25.277 120.347  -2.152  1.00  0.00     0.000 C 
BRANCH   7   8
ATOM      8  C   UNL     1     -26.404 119.370  -1.780  1.00  0.00     0.000 C 
BRANCH   8   9
ATOM      9  C   UNL     1     -26.354 118.041  -2.568  1.00  0.00     0.000 C 
BRANCH   9  10
ATOM     10  C   UNL     1     -24.948 117.701  -3.097  1.00  0.00     0.000 C 
BRANCH  10  11
ATOM     11  C   UNL     1     -24.336 116.485  -2.379  1.00  0.00     0.000 C 
BRANCH  11  12
ATOM     12  C   UNL     1     -25.349 115.771  -1.466  1.00  0.00     0.006 C 
BRANCH  12  13
ATOM     13  C   UNL     1     -24.913 115.694   0.008  1.00  0.00     0.053 C 
BRANCH  13  14
ATOM     14  C   UNL     1     -25.408 116.868   0.796  1.00  0.00     0.041 C 
ATOM     15  O   UNL     1     -24.592 117.693   1.287  1.00  0.00    -0.550 OA
ATOM     16  O   UNL     1     -26.772 117.073   0.956  1.00  0.00    -0.550 OA
ENDBRANCH  13  14
ENDBRANCH  12  13
ENDBRANCH  11  12
ENDBRANCH  10  11
ENDBRANCH   9  10
ENDBRANCH   8   9
ENDBRANCH   7   8
ENDBRANCH   6   7
ENDBRANCH   5   6
ENDBRANCH   4   5
ENDBRANCH   3   4
ENDBRANCH   2   3
ENDBRANCH   1   2
BRANCH   1  17
ATOM     17  C   UNL     1     -20.597 117.952  -1.557  1.00  0.00     0.000 C 
BRANCH  17  18
ATOM     18  C   UNL     1     -21.443 117.721  -0.294  1.00  0.00     0.000 C 
BRANCH  18  19
ATOM     19  C   UNL     1     -21.291 116.296   0.262  1.00  0.00     0.000 C 
BRANCH  19  20
ATOM     20  C   UNL     1     -21.293 115.259  -0.871  1.00  0.00     0.000 C 
BRANCH  20  21
ATOM     21  C   UNL     1     -20.192 114.193  -0.716  1.00  0.00     0.000 C 
BRANCH  21  22
ATOM     22  C   UNL     1     -18.935 114.649   0.050  1.00  0.00    -0.000 C 
BRANCH  22  23
ATOM     23  C   UNL     1     -17.656 114.590  -0.801  1.00  0.00    -0.000 C 
BRANCH  23  24
ATOM     24  C   UNL     1     -17.536 115.760  -1.797  1.00  0.00    -0.000 C 
BRANCH  24  25
ATOM     25  C   UNL     1     -17.301 115.372  -3.272  1.00  0.00    -0.000 C 
BRANCH  25  26
ATOM     26  C   UNL     1     -18.340 114.403  -3.878  1.00  0.00    -0.000 C 
BRANCH  26  27
ATOM     27  C   UNL     1     -19.727 115.030  -4.115  1.00  0.00    -0.000 C 
BRANCH  27  28
ATOM     28  C   UNL     1     -19.684 116.400  -4.823  1.00  0.00    -0.000 C 
BRANCH  28  29
ATOM     29  C   UNL     1     -21.067 116.823  -5.341  1.00  0.00    -0.003 C 
ATOM     30  C   UNL     1     -21.213 116.525  -6.831  1.00  0.00     0.004 C 
ENDBRANCH  28  29
ENDBRANCH  27  28
ENDBRANCH  26  27
ENDBRANCH  25  26
ENDBRANCH  24  25
ENDBRANCH  23  24
ENDBRANCH  22  23
ENDBRANCH  21  22
ENDBRANCH  20  21
ENDBRANCH  19  20
ENDBRANCH  18  19
ENDBRANCH  17  18
ENDBRANCH   1  17
TORSDOF 26
ENDMDL
MODEL 2
REMARK VINA RESULT:    -3.962      1.942      2.509
REMARK INTER + INTRA:         -15.213
REMARK INTER:                 -10.119
REMARK INTRA:                  -5.095
REMARK UNBOUND:                -5.229
REMARK SMILES CCCCCCCCCCCCCCCCCCCCCCCCCCCC(=O)[O-]
REMARK SMILES IDX 15 1 16 2 17 3 18 4 19 5 20 6 21 7 22 8 23 9 24 10 25 11
REMARK SMILES IDX 26 12 27 13 28 14 29 15 30 16 14 17 13 18 12 19 11 20 10 21
REMARK SMILES IDX 9 22 8 23 7 24 6 25 5 26 4 27 3 28 2 29 1 30
REMARK H PARENT
REMARK Flexibility Score: inf
ROOT
ATOM      1  C   UNL     1     -19.997 119.663  -1.782  1.00  0.00     0.000 C 
ENDROOT
BRANCH   1   2
ATOM      2  C   UNL     1     -20.585 120.456  -0.608  1.00  0.00     0.000 C 
BRANCH   2   3
ATOM      3  C   UNL     1     -21.928 121.096  -0.993  1.00  0.00     0.000 C 
BRANCH   3   4
ATOM      4  C   UNL     1     -22.390 120.710  -2.408  1.00  0.00     0.000 C 
BRANCH   4   5
ATOM      5  C   UNL     1     -23.911 120.524  -2.565  1.00  0.00     0.000 C 
BRANCH   5   6
ATOM      6  C   UNL     1     -24.681 120.532  -1.227  1.00  0.00     0.000 C 
BRANCH   6   7
ATOM      7  C   UNL     1     -25.249 119.150  -0.868  1.00  0.00     0.000 C 
BRANCH   7   8
ATOM      8  C   UNL     1     -24.345 118.371   0.102  1.00  0.00     0.000 C 
BRANCH   8   9
ATOM      9  C   UNL     1     -25.076 117.226   0.841  1.00  0.00     0.000 C 
BRANCH   9  10
ATOM     10  C   UNL     1     -24.940 115.864   0.138  1.00  0.00     0.000 C 
BRANCH  10  11
ATOM     11  C   UNL     1     -26.199 115.497  -0.667  1.00  0.00     0.000 C 
BRANCH  11  12
ATOM     12  C   UNL     1     -25.877 115.135  -2.129  1.00  0.00     0.006 C 
BRANCH  12  13
ATOM     13  C   UNL     1     -24.541 115.709  -2.633  1.00  0.00     0.053 C 
BRANCH  13  14
ATOM     14  C   UNL     1     -24.252 115.290  -4.041  1.00  0.00     0.041 C 
ATOM     15  O   UNL     1     -23.665 114.199  -4.272  1.00  0.00    -0.550 OA
ATOM     16  O   UNL     1     -24.664 116.086  -5.103  1.00  0.00    -0.550 OA
ENDBRANCH  13  14
ENDBRANCH  12  13
ENDBRANCH  11  12
ENDBRANCH  10  11
ENDBRANCH   9  10
ENDBRANCH   8   9
ENDBRANCH   7   8
ENDBRANCH   6   7
ENDBRANCH   5   6
ENDBRANCH   4   5
ENDBRANCH   3   4
ENDBRANCH   2   3
ENDBRANCH   1   2
BRANCH   1  17
ATOM     17  C   UNL     1     -19.843 118.179  -1.417  1.00  0.00     0.000 C 
BRANCH  17  18
ATOM     18  C   UNL     1     -21.196 117.476  -1.220  1.00  0.00     0.000 C 
BRANCH  18  19
ATOM     19  C   UNL     1     -21.146 116.399  -0.125  1.00  0.00     0.000 C 
BRANCH  19  20
ATOM     20  C   UNL     1     -21.459 115.011  -0.704  1.00  0.00     0.000 C 
BRANCH  20  21
ATOM     21  C   UNL     1     -20.237 114.073  -0.719  1.00  0.00     0.000 C 
BRANCH  21  22
ATOM     22  C   UNL     1     -19.003 114.586   0.049  1.00  0.00    -0.000 C 
BRANCH  22  23
ATOM     23  C   UNL     1     -17.675 114.229  -0.638  1.00  0.00    -0.000 C 
BRANCH  23  24
ATOM     24  C   UNL     1     -17.024 115.426  -1.358  1.00  0.00    -0.000 C 
BRANCH  24  25
ATOM     25  C   UNL     1     -17.544 115.723  -2.781  1.00  0.00    -0.000 C 
BRANCH  25  26
ATOM     26  C   UNL     1     -17.969 114.488  -3.605  1.00  0.00    -0.000 C 
BRANCH  26  27
ATOM     27  C   UNL     1     -19.038 114.776  -4.674  1.00  0.00    -0.000 C 
BRANCH  27  28
ATOM     28  C   UNL     1     -20.336 115.394  -4.113  1.00  0.00    -0.000 C 
BRANCH  28  29
ATOM     29  C   UNL     1     -20.679 116.727  -4.797  1.00  0.00    -0.003 C 
ATOM     30  C   UNL     1     -20.088 116.794  -6.201  1.00  0.00     0.004 C 
ENDBRANCH  28  29
ENDBRANCH  27  28
ENDBRANCH  26  27
ENDBRANCH  25  26
ENDBRANCH  24  25
ENDBRANCH  23  24
ENDBRANCH  22  23
ENDBRANCH  21  22
ENDBRANCH  20  21
ENDBRANCH  19  20
ENDBRANCH  18  19
ENDBRANCH  17  18
ENDBRANCH   1  17
TORSDOF 26
ENDMDL
MODEL 3
REMARK VINA RESULT:    -3.958      2.012      3.947
REMARK INTER + INTRA:         -15.204
REMARK INTER:                 -10.004
REMARK INTRA:                  -5.200
REMARK UNBOUND:                -5.229
REMARK SMILES CCCCCCCCCCCCCCCCCCCCCCCCCCCC(=O)[O-]
REMARK SMILES IDX 15 1 16 2 17 3 18 4 19 5 20 6 21 7 22 8 23 9 24 10 25 11
REMARK SMILES IDX 26 12 27 13 28 14 29 15 30 16 14 17 13 18 12 19 11 20 10 21
REMARK SMILES IDX 9 22 8 23 7 24 6 25 5 26 4 27 3 28 2 29 1 30
REMARK H PARENT
REMARK Flexibility Score: inf
ROOT
ATOM      1  C   UNL     1     -22.094 116.661   0.546  1.00  0.00     0.000 C 
ENDROOT
BRANCH   1   2
ATOM      2  C   UNL     1     -23.252 117.644   0.763  1.00  0.00     0.000 C 
BRANCH   2   3
ATOM      3  C   UNL     1     -24.600 116.993   0.417  1.00  0.00     0.000 C 
BRANCH   3   4
ATOM      4  C   UNL     1     -25.646 118.009  -0.069  1.00  0.00     0.000 C 
BRANCH   4   5
ATOM      5  C   UNL     1     -25.917 117.988  -1.585  1.00  0.00     0.000 C 
BRANCH   5   6
ATOM      6  C   UNL     1     -26.737 119.195  -2.088  1.00  0.00     0.000 C 
BRANCH   6   7
ATOM      7  C   UNL     1     -25.896 120.163  -2.936  1.00  0.00     0.000 C 
BRANCH   7   8
ATOM      8  C   UNL     1     -25.210 121.250  -2.092  1.00  0.00     0.000 C 
BRANCH   8   9
ATOM      9  C   UNL     1     -23.746 120.914  -1.726  1.00  0.00     0.000 C 
BRANCH   9  10
ATOM     10  C   UNL     1     -22.977 120.224  -2.867  1.00  0.00     0.000 C 
BRANCH  10  11
ATOM     11  C   UNL     1     -22.556 118.790  -2.501  1.00  0.00     0.000 C 
BRANCH  11  12
ATOM     12  C   UNL     1     -21.099 118.486  -2.898  1.00  0.00     0.006 C 
BRANCH  12  13
ATOM     13  C   UNL     1     -20.089 118.685  -1.755  1.00  0.00     0.053 C 
BRANCH  13  14
ATOM     14  C   UNL     1     -20.001 120.120  -1.334  1.00  0.00     0.041 C 
ATOM     15  O   UNL     1     -19.620 121.000  -2.151  1.00  0.00    -0.550 OA
ATOM     16  O   UNL     1     -20.378 120.492  -0.049  1.00  0.00    -0.550 OA
ENDBRANCH  13  14
ENDBRANCH  12  13
ENDBRANCH  11  12
ENDBRANCH  10  11
ENDBRANCH   9  10
ENDBRANCH   8   9
ENDBRANCH   7   8
ENDBRANCH   6   7
ENDBRANCH   5   6
ENDBRANCH   4   5
ENDBRANCH   3   4
ENDBRANCH   2   3
ENDBRANCH   1   2
BRANCH   1  17
ATOM     17  C   UNL     1     -22.445 115.636  -0.545  1.00  0.00     0.000 C 
BRANCH  17  18
ATOM     18  C   UNL     1     -21.206 114.901  -1.083  1.00  0.00     0.000 C 
BRANCH  18  19
ATOM     19  C   UNL     1     -19.928 115.255  -0.305  1.00  0.00     0.000 C 
BRANCH  19  20
ATOM     20  C   UNL     1     -19.033 114.020  -0.125  1.00  0.00     0.000 C 
BRANCH  20  21
ATOM     21  C   UNL     1     -17.598 114.234  -0.645  1.00  0.00     0.000 C 
BRANCH  21  22
ATOM     22  C   UNL     1     -17.355 115.564  -1.382  1.00  0.00    -0.000 C 
BRANCH  22  23
ATOM     23  C   UNL     1     -17.012 115.374  -2.869  1.00  0.00    -0.000 C 
BRANCH  23  24
ATOM     24  C   UNL     1     -17.498 114.027  -3.436  1.00  0.00    -0.000 C 
BRANCH  24  25
ATOM     25  C   UNL     1     -18.859 114.052  -4.164  1.00  0.00    -0.000 C 
BRANCH  25  26
ATOM     26  C   UNL     1     -19.470 115.453  -4.384  1.00  0.00    -0.000 C 
BRANCH  26  27
ATOM     27  C   UNL     1     -20.876 115.441  -5.011  1.00  0.00    -0.000 C 
BRANCH  27  28
ATOM     28  C   UNL     1     -21.698 114.177  -4.684  1.00  0.00    -0.000 C 
BRANCH  28  29
ATOM     29  C   UNL     1     -23.076 114.524  -4.098  1.00  0.00    -0.003 C 
ATOM     30  C   UNL     1     -23.533 115.909  -4.547  1.00  0.00     0.004 C 
ENDBRANCH  28  29
ENDBRANCH  27  28
ENDBRANCH  26  27
ENDBRANCH  25  26
ENDBRANCH  24  25
ENDBRANCH  23  24
ENDBRANCH  22  23
ENDBRANCH  21  22
ENDBRANCH  20  21
ENDBRANCH  19  20
ENDBRANCH  18  19
ENDBRANCH  17  18
ENDBRANCH   1  17
TORSDOF 26
ENDMDL
MODEL 4
REMARK VINA RESULT:    -3.927      1.446      5.072
REMARK INTER + INTRA:         -15.125
REMARK INTER:                  -9.850
REMARK INTRA:                  -5.274
REMARK UNBOUND:                -5.229
REMARK SMILES CCCCCCCCCCCCCCCCCCCCCCCCCCCC(=O)[O-]
REMARK SMILES IDX 15 1 16 2 17 3 18 4 19 5 20 6 21 7 22 8 23 9 24 10 25 11
REMARK SMILES IDX 26 12 27 13 28 14 29 15 30 16 14 17 13 18 12 19 11 20 10 21
REMARK SMILES IDX 9 22 8 23 7 24 6 25 5 26 4 27 3 28 2 29 1 30
REMARK H PARENT
REMARK Flexibility Score: inf
ROOT
ATOM      1  C   UNL     1     -19.633 119.967  -1.749  1.00  0.00     0.000 C 
ENDROOT
BRANCH   1   2
ATOM      2  C   UNL     1     -20.060 118.525  -1.448  1.00  0.00     0.000 C 
BRANCH   2   3
ATOM      3  C   UNL     1     -20.301 117.740  -2.746  1.00  0.00     0.000 C 
BRANCH   3   4
ATOM      4  C   UNL     1     -19.350 116.542  -2.905  1.00  0.00     0.000 C 
BRANCH   4   5
ATOM      5  C   UNL     1     -18.250 116.440  -1.831  1.00  0.00     0.000 C 
BRANCH   5   6
ATOM      6  C   UNL     1     -18.349 115.171  -0.958  1.00  0.00     0.000 C 
BRANCH   6   7
ATOM      7  C   UNL     1     -19.578 114.315  -1.302  1.00  0.00     0.000 C 
BRANCH   7   8
ATOM      8  C   UNL     1     -20.728 114.496  -0.297  1.00  0.00     0.000 C 
BRANCH   8   9
ATOM      9  C   UNL     1     -21.922 115.297  -0.865  1.00  0.00     0.000 C 
BRANCH   9  10
ATOM     10  C   UNL     1     -22.986 115.636   0.196  1.00  0.00     0.000 C 
BRANCH  10  11
ATOM     11  C   UNL     1     -23.032 117.141   0.511  1.00  0.00     0.000 C 
BRANCH  11  12
ATOM     12  C   UNL     1     -24.457 117.630   0.834  1.00  0.00     0.006 C 
BRANCH  12  13
ATOM     13  C   UNL     1     -25.557 116.609   0.495  1.00  0.00     0.053 C 
BRANCH  13  14
ATOM     14  C   UNL     1     -26.328 116.198   1.711  1.00  0.00     0.041 C 
ATOM     15  O   UNL     1     -26.578 114.982   1.924  1.00  0.00    -0.550 OA
ATOM     16  O   UNL     1     -26.738 117.155   2.631  1.00  0.00    -0.550 OA
ENDBRANCH  13  14
ENDBRANCH  12  13
ENDBRANCH  11  12
ENDBRANCH  10  11
ENDBRANCH   9  10
ENDBRANCH   8   9
ENDBRANCH   7   8
ENDBRANCH   6   7
ENDBRANCH   5   6
ENDBRANCH   4   5
ENDBRANCH   3   4
ENDBRANCH   2   3
ENDBRANCH   1   2
BRANCH   1  17
ATOM     17  C   UNL     1     -20.440 120.964  -0.903  1.00  0.00     0.000 C 
BRANCH  17  18
ATOM     18  C   UNL     1     -21.629 120.302  -0.187  1.00  0.00     0.000 C 
BRANCH  18  19
ATOM     19  C   UNL     1     -22.972 120.953  -0.554  1.00  0.00     0.000 C 
BRANCH  19  20
ATOM     20  C   UNL     1     -23.246 120.838  -2.061  1.00  0.00     0.000 C 
BRANCH  20  21
ATOM     21  C   UNL     1     -23.614 119.407  -2.501  1.00  0.00     0.000 C 
BRANCH  21  22
ATOM     22  C   UNL     1     -25.118 119.074  -2.470  1.00  0.00    -0.000 C 
BRANCH  22  23
ATOM     23  C   UNL     1     -25.452 117.736  -3.151  1.00  0.00    -0.000 C 
BRANCH  23  24
ATOM     24  C   UNL     1     -24.253 116.771  -3.213  1.00  0.00    -0.000 C 
BRANCH  24  25
ATOM     25  C   UNL     1     -24.596 115.267  -3.259  1.00  0.00    -0.000 C 
BRANCH  25  26
ATOM     26  C   UNL     1     -23.810 114.438  -4.299  1.00  0.00    -0.000 C 
BRANCH  26  27
ATOM     27  C   UNL     1     -22.352 114.891  -4.499  1.00  0.00    -0.000 C 
BRANCH  27  28
ATOM     28  C   UNL     1     -21.914 114.962  -5.977  1.00  0.00    -0.000 C 
BRANCH  28  29
ATOM     29  C   UNL     1     -21.696 116.410  -6.443  1.00  0.00    -0.003 C 
ATOM     30  C   UNL     1     -20.220 116.789  -6.389  1.00  0.00     0.004 C 
ENDBRANCH  28  29
ENDBRANCH  27  28
ENDBRANCH  26  27
ENDBRANCH  25  26
ENDBRANCH  24  25
ENDBRANCH  23  24
ENDBRANCH  22  23
ENDBRANCH  21  22
ENDBRANCH  20  21
ENDBRANCH  19  20
ENDBRANCH  18  19
ENDBRANCH  17  18
ENDBRANCH   1  17
TORSDOF 26
ENDMDL
MODEL 5
REMARK VINA RESULT:    -3.921      2.769      4.513
REMARK INTER + INTRA:         -15.110
REMARK INTER:                  -9.486
REMARK INTRA:                  -5.624
REMARK UNBOUND:                -5.229
REMARK SMILES CCCCCCCCCCCCCCCCCCCCCCCCCCCC(=O)[O-]
REMARK SMILES IDX 15 1 16 2 17 3 18 4 19 5 20 6 21 7 22 8 23 9 24 10 25 11
REMARK SMILES IDX 26 12 27 13 28 14 29 15 30 16 14 17 13 18 12 19 11 20 10 21
REMARK SMILES IDX 9 22 8 23 7 24 6 25 5 26 4 27 3 28 2 29 1 30
REMARK H PARENT
REMARK Flexibility Score: inf
ROOT
ATOM      1  C   UNL     1     -19.942 118.879  -1.814  1.00  0.00     0.000 C 
ENDROOT
BRANCH   1   2
ATOM      2  C   UNL     1     -20.233 120.356  -2.109  1.00  0.00     0.000 C 
BRANCH   2   3
ATOM      3  C   UNL     1     -20.787 121.068  -0.865  1.00  0.00     0.000 C 
BRANCH   3   4
ATOM      4  C   UNL     1     -22.320 121.003  -0.773  1.00  0.00     0.000 C 
BRANCH   4   5
ATOM      5  C   UNL     1     -23.052 121.002  -2.128  1.00  0.00     0.000 C 
BRANCH   5   6
ATOM      6  C   UNL     1     -24.457 120.364  -2.077  1.00  0.00     0.000 C 
BRANCH   6   7
ATOM      7  C   UNL     1     -24.558 119.250  -1.023  1.00  0.00     0.000 C 
BRANCH   7   8
ATOM      8  C   UNL     1     -25.238 117.982  -1.564  1.00  0.00     0.000 C 
BRANCH   8   9
ATOM      9  C   UNL     1     -24.618 117.465  -2.883  1.00  0.00     0.000 C 
BRANCH   9  10
ATOM     10  C   UNL     1     -24.041 116.042  -2.766  1.00  0.00     0.000 C 
BRANCH  10  11
ATOM     11  C   UNL     1     -24.801 115.033  -3.645  1.00  0.00     0.000 C 
BRANCH  11  12
ATOM     12  C   UNL     1     -23.950 114.523  -4.823  1.00  0.00     0.006 C 
BRANCH  12  13
ATOM     13  C   UNL     1     -23.582 115.613  -5.844  1.00  0.00     0.053 C 
BRANCH  13  14
ATOM     14  C   UNL     1     -22.730 115.074  -6.951  1.00  0.00     0.041 C 
ATOM     15  O   UNL     1     -22.801 115.570  -8.107  1.00  0.00    -0.550 OA
ATOM     16  O   UNL     1     -21.827 114.049  -6.698  1.00  0.00    -0.550 OA
ENDBRANCH  13  14
ENDBRANCH  12  13
ENDBRANCH  11  12
ENDBRANCH  10  11
ENDBRANCH   9  10
ENDBRANCH   8   9
ENDBRANCH   7   8
ENDBRANCH   6   7
ENDBRANCH   5   6
ENDBRANCH   4   5
ENDBRANCH   3   4
ENDBRANCH   2   3
ENDBRANCH   1   2
BRANCH   1  17
ATOM     17  C   UNL     1     -20.980 117.972  -2.493  1.00  0.00     0.000 C 
BRANCH  17  18
ATOM     18  C   UNL     1     -21.151 118.288  -3.988  1.00  0.00     0.000 C 
BRANCH  18  19
ATOM     19  C   UNL     1     -20.507 117.225  -4.891  1.00  0.00     0.000 C 
BRANCH  19  20
ATOM     20  C   UNL     1     -20.236 115.930  -4.111  1.00  0.00     0.000 C 
BRANCH  20  21
ATOM     21  C   UNL     1     -19.057 115.117  -4.681  1.00  0.00     0.000 C 
BRANCH  21  22
ATOM     22  C   UNL     1     -17.894 114.867  -3.701  1.00  0.00    -0.000 C 
BRANCH  22  23
ATOM     23  C   UNL     1     -17.966 115.748  -2.443  1.00  0.00    -0.000 C 
BRANCH  23  24
ATOM     24  C   UNL     1     -17.623 114.986  -1.149  1.00  0.00    -0.000 C 
BRANCH  24  25
ATOM     25  C   UNL     1     -18.819 114.605  -0.251  1.00  0.00    -0.000 C 
BRANCH  25  26
ATOM     26  C   UNL     1     -20.101 114.177  -0.999  1.00  0.00    -0.000 C 
BRANCH  26  27
ATOM     27  C   UNL     1     -21.354 114.993  -0.629  1.00  0.00    -0.000 C 
BRANCH  27  28
ATOM     28  C   UNL     1     -21.112 116.051   0.467  1.00  0.00    -0.000 C 
BRANCH  28  29
ATOM     29  C   UNL     1     -22.324 116.977   0.649  1.00  0.00    -0.003 C 
ATOM     30  C   UNL     1     -21.947 118.233   1.429  1.00  0.00     0.004 C 
ENDBRANCH  28  29
ENDBRANCH  27  28
ENDBRANCH  26  27
ENDBRANCH  25  26
ENDBRANCH  24  25
ENDBRANCH  23  24
ENDBRANCH  22  23
ENDBRANCH  21  22
ENDBRANCH  20  21
ENDBRANCH  19  20
ENDBRANCH  18  19
ENDBRANCH  17  18
ENDBRANCH   1  17
TORSDOF 26
ENDMDL
MODEL 6
REMARK VINA RESULT:    -3.915      1.923      5.937
REMARK INTER + INTRA:         -15.096
REMARK INTER:                  -9.921
REMARK INTRA:                  -5.175
REMARK UNBOUND:                -5.229
REMARK SMILES CCCCCCCCCCCCCCCCCCCCCCCCCCCC(=O)[O-]
REMARK SMILES IDX 15 1 16 2 17 3 18 4 19 5 20 6 21 7 22 8 23 9 24 10 25 11
REMARK SMILES IDX 26 12 27 13 28 14 29 15 30 16 14 17 13 18 12 19 11 20 10 21
REMARK SMILES IDX 9 22 8 23 7 24 6 25 5 26 4 27 3 28 2 29 1 30
REMARK H PARENT
REMARK Flexibility Score: inf
ROOT
ATOM      1  C   UNL     1     -16.643 114.538  -1.215  1.00  0.00     0.000 C 
ENDROOT
BRANCH   1   2
ATOM      2  C   UNL     1     -16.659 113.949  -2.631  1.00  0.00     0.000 C 
BRANCH   2   3
ATOM      3  C   UNL     1     -17.402 114.876  -3.605  1.00  0.00     0.000 C 
BRANCH   3   4
ATOM      4  C   UNL     1     -18.510 114.153  -4.389  1.00  0.00     0.000 C 
BRANCH   4   5
ATOM      5  C   UNL     1     -19.731 115.025  -4.740  1.00  0.00     0.000 C 
BRANCH   5   6
ATOM      6  C   UNL     1     -19.719 116.413  -4.065  1.00  0.00     0.000 C 
BRANCH   6   7
ATOM      7  C   UNL     1     -21.041 117.173  -4.259  1.00  0.00     0.000 C 
BRANCH   7   8
ATOM      8  C   UNL     1     -21.351 118.132  -3.098  1.00  0.00     0.000 C 
BRANCH   8   9
ATOM      9  C   UNL     1     -20.133 118.412  -2.188  1.00  0.00     0.000 C 
BRANCH   9  10
ATOM     10  C   UNL     1     -20.087 119.858  -1.662  1.00  0.00     0.000 C 
BRANCH  10  11
ATOM     11  C   UNL     1     -20.918 120.036  -0.379  1.00  0.00     0.000 C 
BRANCH  11  12
ATOM     12  C   UNL     1     -22.087 121.021  -0.568  1.00  0.00     0.006 C 
BRANCH  12  13
ATOM     13  C   UNL     1     -23.416 120.345  -0.946  1.00  0.00     0.053 C 
BRANCH  13  14
ATOM     14  C   UNL     1     -24.054 120.998  -2.133  1.00  0.00     0.041 C 
ATOM     15  O   UNL     1     -23.460 121.016  -3.245  1.00  0.00    -0.550 OA
ATOM     16  O   UNL     1     -25.322 121.554  -2.025  1.00  0.00    -0.550 OA
ENDBRANCH  13  14
ENDBRANCH  12  13
ENDBRANCH  11  12
ENDBRANCH  10  11
ENDBRANCH   9  10
ENDBRANCH   8   9
ENDBRANCH   7   8
ENDBRANCH   6   7
ENDBRANCH   5   6
ENDBRANCH   4   5
ENDBRANCH   3   4
ENDBRANCH   2   3
ENDBRANCH   1   2
BRANCH   1  17
ATOM     17  C   UNL     1     -17.846 115.469  -0.997  1.00  0.00     0.000 C 
BRANCH  17  18
ATOM     18  C   UNL     1     -18.961 114.807  -0.170  1.00  0.00     0.000 C 
BRANCH  18  19
ATOM     19  C   UNL     1     -20.084 114.234  -1.049  1.00  0.00     0.000 C 
BRANCH  19  20
ATOM     20  C   UNL     1     -21.363 115.077  -0.928  1.00  0.00     0.000 C 
BRANCH  20  21
ATOM     21  C   UNL     1     -21.278 116.145   0.180  1.00  0.00     0.000 C 
BRANCH  21  22
ATOM     22  C   UNL     1     -22.604 116.857   0.512  1.00  0.00    -0.000 C 
BRANCH  22  23
ATOM     23  C   UNL     1     -23.693 116.628  -0.550  1.00  0.00    -0.000 C 
BRANCH  23  24
ATOM     24  C   UNL     1     -24.907 115.845  -0.015  1.00  0.00    -0.000 C 
BRANCH  24  25
ATOM     25  C   UNL     1     -26.210 115.979  -0.831  1.00  0.00    -0.000 C 
BRANCH  25  26
ATOM     26  C   UNL     1     -26.770 114.660  -1.409  1.00  0.00    -0.000 C 
BRANCH  26  27
ATOM     27  C   UNL     1     -26.655 114.539  -2.940  1.00  0.00    -0.000 C 
BRANCH  27  28
ATOM     28  C   UNL     1     -26.144 115.819  -3.634  1.00  0.00    -0.000 C 
BRANCH  28  29
ATOM     29  C   UNL     1     -24.934 115.538  -4.538  1.00  0.00    -0.003 C 
ATOM     30  C   UNL     1     -23.822 114.834  -3.767  1.00  0.00     0.004 C 
ENDBRANCH  28  29
ENDBRANCH  27  28
ENDBRANCH  26  27
ENDBRANCH  25  26
ENDBRANCH  24  25
ENDBRANCH  23  24
ENDBRANCH  22  23
ENDBRANCH  21  22
ENDBRANCH  20  21
ENDBRANCH  19  20
ENDBRANCH  18  19
ENDBRANCH  17  18
ENDBRANCH   1  17
TORSDOF 26
ENDMDL
MODEL 7
REMARK VINA RESULT:    -3.902      1.945      4.715
REMARK INTER + INTRA:         -15.063
REMARK INTER:                  -9.952
REMARK INTRA:                  -5.111
REMARK UNBOUND:                -5.229
REMARK SMILES CCCCCCCCCCCCCCCCCCCCCCCCCCCC(=O)[O-]
REMARK SMILES IDX 15 1 16 2 17 3 18 4 19 5 20 6 21 7 22 8 23 9 24 10 25 11
REMARK SMILES IDX 26 12 27 13 28 14 29 15 30 16 14 17 13 18 12 19 11 20 10 21
REMARK SMILES IDX 9 22 8 23 7 24 6 25 5 26 4 27 3 28 2 29 1 30
REMARK H PARENT
REMARK Flexibility Score: inf
ROOT
ATOM      1  C   UNL     1     -19.959 118.683  -1.748  1.00  0.00     0.000 C 
ENDROOT
BRANCH   1   2
ATOM      2  C   UNL     1     -20.673 118.058  -2.953  1.00  0.00     0.000 C 
BRANCH   2   3
ATOM      3  C   UNL     1     -19.866 116.881  -3.521  1.00  0.00     0.000 C 
BRANCH   3   4
ATOM      4  C   UNL     1     -20.742 115.863  -4.271  1.00  0.00     0.000 C 
BRANCH   4   5
ATOM      5  C   UNL     1     -21.913 116.474  -5.063  1.00  0.00     0.000 C 
BRANCH   5   6
ATOM      6  C   UNL     1     -23.199 115.620  -5.032  1.00  0.00     0.000 C 
BRANCH   6   7
ATOM      7  C   UNL     1     -23.574 115.175  -3.609  1.00  0.00     0.000 C 
BRANCH   7   8
ATOM      8  C   UNL     1     -24.065 116.340  -2.733  1.00  0.00     0.000 C 
BRANCH   8   9
ATOM      9  C   UNL     1     -24.925 115.886  -1.531  1.00  0.00     0.000 C 
BRANCH   9  10
ATOM     10  C   UNL     1     -26.106 116.829  -1.238  1.00  0.00     0.000 C 
BRANCH  10  11
ATOM     11  C   UNL     1     -26.621 117.527  -2.510  1.00  0.00     0.000 C 
BRANCH  11  12
ATOM     12  C   UNL     1     -26.684 119.058  -2.355  1.00  0.00     0.006 C 
BRANCH  12  13
ATOM     13  C   UNL     1     -25.467 119.793  -2.941  1.00  0.00     0.053 C 
BRANCH  13  14
ATOM     14  C   UNL     1     -25.664 121.278  -2.945  1.00  0.00     0.041 C 
ATOM     15  O   UNL     1     -25.648 121.918  -4.030  1.00  0.00    -0.550 OA
ATOM     16  O   UNL     1     -25.904 121.952  -1.755  1.00  0.00    -0.550 OA
ENDBRANCH  13  14
ENDBRANCH  12  13
ENDBRANCH  11  12
ENDBRANCH  10  11
ENDBRANCH   9  10
ENDBRANCH   8   9
ENDBRANCH   7   8
ENDBRANCH   6   7
ENDBRANCH   5   6
ENDBRANCH   4   5
ENDBRANCH   3   4
ENDBRANCH   2   3
ENDBRANCH   1   2
BRANCH   1  17
ATOM     17  C   UNL     1     -19.793 120.199  -1.937  1.00  0.00     0.000 C 
BRANCH  17  18
ATOM     18  C   UNL     1     -20.709 121.013  -1.009  1.00  0.00     0.000 C 
BRANCH  18  19
ATOM     19  C   UNL     1     -22.188 120.926  -1.419  1.00  0.00     0.000 C 
BRANCH  19  20
ATOM     20  C   UNL     1     -23.056 120.441  -0.249  1.00  0.00     0.000 C 
BRANCH  20  21
ATOM     21  C   UNL     1     -23.181 118.906  -0.185  1.00  0.00     0.000 C 
BRANCH  21  22
ATOM     22  C   UNL     1     -22.417 118.230   0.970  1.00  0.00    -0.000 C 
BRANCH  22  23
ATOM     23  C   UNL     1     -22.369 116.698   0.846  1.00  0.00    -0.000 C 
BRANCH  23  24
ATOM     24  C   UNL     1     -21.109 116.189   0.120  1.00  0.00    -0.000 C 
BRANCH  24  25
ATOM     25  C   UNL     1     -21.272 114.877  -0.677  1.00  0.00    -0.000 C 
BRANCH  25  26
ATOM     26  C   UNL     1     -19.956 114.171  -1.070  1.00  0.00    -0.000 C 
BRANCH  26  27
ATOM     27  C   UNL     1     -18.844 114.266  -0.008  1.00  0.00    -0.000 C 
BRANCH  27  28
ATOM     28  C   UNL     1     -17.416 114.230  -0.590  1.00  0.00    -0.000 C 
BRANCH  28  29
ATOM     29  C   UNL     1     -17.170 115.380  -1.579  1.00  0.00    -0.003 C 
ATOM     30  C   UNL     1     -16.882 114.850  -2.981  1.00  0.00     0.004 C 
ENDBRANCH  28  29
ENDBRANCH  27  28
ENDBRANCH  26  27
ENDBRANCH  25  26
ENDBRANCH  24  25
ENDBRANCH  23  24
ENDBRANCH  22  23
ENDBRANCH  21  22
ENDBRANCH  20  21
ENDBRANCH  19  20
ENDBRANCH  18  19
ENDBRANCH  17  18
ENDBRANCH   1  17
TORSDOF 26
ENDMDL
MODEL 8
REMARK VINA RESULT:    -3.880      2.613      7.429
REMARK INTER + INTRA:         -15.006
REMARK INTER:                 -10.165
REMARK INTRA:                  -4.841
REMARK UNBOUND:                -5.229
REMARK SMILES CCCCCCCCCCCCCCCCCCCCCCCCCCCC(=O)[O-]
REMARK SMILES IDX 15 1 16 2 17 3 18 4 19 5 20 6 21 7 22 8 23 9 24 10 25 11
REMARK SMILES IDX 26 12 27 13 28 14 29 15 30 16 14 17 13 18 12 19 11 20 10 21
REMARK SMILES IDX 9 22 8 23 7 24 6 25 5 26 4 27 3 28 2 29 1 30
REMARK H PARENT
REMARK Flexibility Score: inf
ROOT
ATOM      1  C   UNL     1     -21.109 116.596  -0.469  1.00  0.00     0.000 C 
ENDROOT
BRANCH   1   2
ATOM      2  C   UNL     1     -21.537 115.253  -1.074  1.00  0.00     0.000 C 
BRANCH   2   3
ATOM      3  C   UNL     1     -20.373 114.252  -1.071  1.00  0.00     0.000 C 
BRANCH   3   4
ATOM      4  C   UNL     1     -19.242 114.653  -0.110  1.00  0.00     0.000 C 
BRANCH   4   5
ATOM      5  C   UNL     1     -17.848 114.115  -0.486  1.00  0.00     0.000 C 
BRANCH   5   6
ATOM      6  C   UNL     1     -16.881 115.200  -1.005  1.00  0.00     0.000 C 
BRANCH   6   7
ATOM      7  C   UNL     1     -17.111 115.531  -2.489  1.00  0.00     0.000 C 
BRANCH   7   8
ATOM      8  C   UNL     1     -17.317 114.276  -3.352  1.00  0.00     0.000 C 
BRANCH   8   9
ATOM      9  C   UNL     1     -18.504 114.393  -4.335  1.00  0.00     0.000 C 
BRANCH   9  10
ATOM     10  C   UNL     1     -19.187 115.772  -4.302  1.00  0.00     0.000 C 
BRANCH  10  11
ATOM     11  C   UNL     1     -20.650 115.708  -4.777  1.00  0.00     0.000 C 
BRANCH  11  12
ATOM     12  C   UNL     1     -21.251 114.297  -4.637  1.00  0.00     0.006 C 
BRANCH  12  13
ATOM     13  C   UNL     1     -22.740 114.214  -5.015  1.00  0.00     0.053 C 
BRANCH  13  14
ATOM     14  C   UNL     1     -22.989 114.710  -6.406  1.00  0.00     0.041 C 
ATOM     15  O   UNL     1     -23.778 115.671  -6.607  1.00  0.00    -0.550 OA
ATOM     16  O   UNL     1     -22.320 114.136  -7.480  1.00  0.00    -0.550 OA
ENDBRANCH  13  14
ENDBRANCH  12  13
ENDBRANCH  11  12
ENDBRANCH  10  11
ENDBRANCH   9  10
ENDBRANCH   8   9
ENDBRANCH   7   8
ENDBRANCH   6   7
ENDBRANCH   5   6
ENDBRANCH   4   5
ENDBRANCH   3   4
ENDBRANCH   2   3
ENDBRANCH   1   2
BRANCH   1  17
ATOM     17  C   UNL     1     -21.074 117.693  -1.545  1.00  0.00     0.000 C 
BRANCH  17  18
ATOM     18  C   UNL     1     -19.695 118.365  -1.656  1.00  0.00     0.000 C 
BRANCH  18  19
ATOM     19  C   UNL     1     -19.778 119.897  -1.561  1.00  0.00     0.000 C 
BRANCH  19  20
ATOM     20  C   UNL     1     -20.708 120.327  -0.416  1.00  0.00     0.000 C 
BRANCH  20  21
ATOM     21  C   UNL     1     -21.743 121.385  -0.845  1.00  0.00     0.000 C 
BRANCH  21  22
ATOM     22  C   UNL     1     -23.143 120.838  -1.186  1.00  0.00    -0.000 C 
BRANCH  22  23
ATOM     23  C   UNL     1     -23.374 120.678  -2.698  1.00  0.00    -0.000 C 
BRANCH  23  24
ATOM     24  C   UNL     1     -24.624 121.424  -3.202  1.00  0.00    -0.000 C 
BRANCH  24  25
ATOM     25  C   UNL     1     -25.951 121.076  -2.494  1.00  0.00    -0.000 C 
BRANCH  25  26
ATOM     26  C   UNL     1     -26.534 119.684  -2.824  1.00  0.00    -0.000 C 
BRANCH  26  27
ATOM     27  C   UNL     1     -26.534 118.700  -1.639  1.00  0.00    -0.000 C 
BRANCH  27  28
ATOM     28  C   UNL     1     -25.350 117.711  -1.644  1.00  0.00    -0.000 C 
BRANCH  28  29
ATOM     29  C   UNL     1     -24.727 117.553  -0.248  1.00  0.00    -0.003 C 
ATOM     30  C   UNL     1     -24.852 116.117   0.251  1.00  0.00     0.004 C 
ENDBRANCH  28  29
ENDBRANCH  27  28
ENDBRANCH  26  27
ENDBRANCH  25  26
ENDBRANCH  24  25
ENDBRANCH  23  24
ENDBRANCH  22  23
ENDBRANCH  21  22
ENDBRANCH  20  21
ENDBRANCH  19  20
ENDBRANCH  18  19
ENDBRANCH  17  18
ENDBRANCH   1  17
TORSDOF 26
ENDMDL
MODEL 9
REMARK VINA RESULT:    -2.778      2.582      6.821
REMARK INTER + INTRA:         -12.230
REMARK INTER:                  -7.335
REMARK INTRA:                  -4.895
REMARK UNBOUND:                -5.229
REMARK SMILES CCCCCCCCCCCCCCCCCCCCCCCCCCCC(=O)[O-]
REMARK SMILES IDX 15 1 16 2 17 3 18 4 19 5 20 6 21 7 22 8 23 9 24 10 25 11
REMARK SMILES IDX 26 12 27 13 28 14 29 15 30 16 14 17 13 18 12 19 11 20 10 21
REMARK SMILES IDX 9 22 8 23 7 24 6 25 5 26 4 27 3 28 2 29 1 30
REMARK H PARENT
REMARK Flexibility Score: inf
ROOT
ATOM      1  C   UNL     1     -20.093 120.326  -2.061  1.00  0.00     0.000 C 
ENDROOT
BRANCH   1   2
ATOM      2  C   UNL     1     -20.795 121.201  -1.014  1.00  0.00     0.000 C 
BRANCH   2   3
ATOM      3  C   UNL     1     -22.069 120.520  -0.492  1.00  0.00     0.000 C 
BRANCH   3   4
ATOM      4  C   UNL     1     -21.787 119.505   0.628  1.00  0.00     0.000 C 
BRANCH   4   5
ATOM      5  C   UNL     1     -22.517 118.156   0.479  1.00  0.00     0.000 C 
BRANCH   5   6
ATOM      6  C   UNL     1     -21.590 116.929   0.609  1.00  0.00     0.000 C 
BRANCH   6   7
ATOM      7  C   UNL     1     -22.180 115.674  -0.054  1.00  0.00     0.000 C 
BRANCH   7   8
ATOM      8  C   UNL     1     -21.099 114.725  -0.597  1.00  0.00     0.000 C 
BRANCH   8   9
ATOM      9  C   UNL     1     -19.658 115.208  -0.314  1.00  0.00     0.000 C 
BRANCH   9  10
ATOM     10  C   UNL     1     -18.664 114.054  -0.091  1.00  0.00     0.000 C 
BRANCH  10  11
ATOM     11  C   UNL     1     -17.304 114.320  -0.761  1.00  0.00     0.000 C 
BRANCH  11  12
ATOM     12  C   UNL     1     -17.380 115.436  -1.819  1.00  0.00     0.006 C 
BRANCH  12  13
ATOM     13  C   UNL     1     -17.217 114.936  -3.265  1.00  0.00     0.053 C 
BRANCH  13  14
ATOM     14  C   UNL     1     -18.534 114.834  -3.970  1.00  0.00     0.041 C 
ATOM     15  O   UNL     1     -18.796 115.592  -4.942  1.00  0.00    -0.550 OA
ATOM     16  O   UNL     1     -19.461 113.875  -3.578  1.00  0.00    -0.550 OA
ENDBRANCH  13  14
ENDBRANCH  12  13
ENDBRANCH  11  12
ENDBRANCH  10  11
ENDBRANCH   9  10
ENDBRANCH   8   9
ENDBRANCH   7   8
ENDBRANCH   6   7
ENDBRANCH   5   6
ENDBRANCH   4   5
ENDBRANCH   3   4
ENDBRANCH   2   3
ENDBRANCH   1   2
BRANCH   1  17
ATOM     17  C   UNL     1     -21.108 119.443  -2.804  1.00  0.00     0.000 C 
BRANCH  17  18
ATOM     18  C   UNL     1     -20.697 117.961  -2.823  1.00  0.00     0.000 C 
BRANCH  18  19
ATOM     19  C   UNL     1     -21.681 117.088  -3.617  1.00  0.00     0.000 C 
BRANCH  19  20
ATOM     20  C   UNL     1     -23.114 117.256  -3.091  1.00  0.00     0.000 C 
BRANCH  20  21
ATOM     21  C   UNL     1     -24.071 116.152  -3.581  1.00  0.00     0.000 C 
BRANCH  21  22
ATOM     22  C   UNL     1     -25.460 116.139  -2.914  1.00  0.00    -0.000 C 
BRANCH  22  23
ATOM     23  C   UNL     1     -25.419 115.683  -1.446  1.00  0.00    -0.000 C 
BRANCH  23  24
ATOM     24  C   UNL     1     -26.282 116.556  -0.516  1.00  0.00    -0.000 C 
BRANCH  24  25
ATOM     25  C   UNL     1     -27.029 117.727  -1.189  1.00  0.00    -0.000 C 
BRANCH  25  26
ATOM     26  C   UNL     1     -26.760 119.123  -0.583  1.00  0.00    -0.000 C 
BRANCH  26  27
ATOM     27  C   UNL     1     -25.500 119.819  -1.131  1.00  0.00    -0.000 C 
BRANCH  27  28
ATOM     28  C   UNL     1     -25.669 121.336  -1.354  1.00  0.00    -0.000 C 
BRANCH  28  29
ATOM     29  C   UNL     1     -25.587 121.710  -2.843  1.00  0.00    -0.003 C 
ATOM     30  C   UNL     1     -24.226 121.347  -3.428  1.00  0.00     0.004 C 
ENDBRANCH  28  29
ENDBRANCH  27  28
ENDBRANCH  26  27
ENDBRANCH  25  26
ENDBRANCH  24  25
ENDBRANCH  23  24
ENDBRANCH  22  23
ENDBRANCH  21  22
ENDBRANCH  20  21
ENDBRANCH  19  20
ENDBRANCH  18  19
ENDBRANCH  17  18
ENDBRANCH   1  17
TORSDOF 26
ENDMDL
