MODEL 1
REMARK VINA RESULT:    -5.739      0.000      0.000
REMARK INTER + INTRA:         -19.605
REMARK INTER:                 -14.463
REMARK INTRA:                  -5.141
REMARK UNBOUND:                -5.141
REMARK SMILES CCCCCCCCCCCCCCCCCCCCCCCCCCCC(=O)[O-]
REMARK SMILES IDX 15 1 16 2 17 3 18 4 19 5 20 6 21 7 22 8 23 9 24 10 25 11
REMARK SMILES IDX 26 12 27 13 28 14 29 15 30 16 14 17 13 18 12 19 11 20 10 21
REMARK SMILES IDX 9 22 8 23 7 24 6 25 5 26 4 27 3 28 2 29 1 30
REMARK H PARENT
REMARK Flexibility Score: inf
ROOT
ATOM      1  C   UNL     1     119.754 177.966 129.720  1.00  0.00     0.000 C 
ENDROOT
BRANCH   1   2
ATOM      2  C   UNL     1     120.515 177.308 128.554  1.00  0.00     0.000 C 
BRANCH   2   3
ATOM      3  C   UNL     1     121.918 177.881 128.278  1.00  0.00     0.000 C 
BRANCH   3   4
ATOM      4  C   UNL     1     122.005 178.646 126.946  1.00  0.00     0.000 C 
BRANCH   4   5
ATOM      5  C   UNL     1     121.913 177.719 125.721  1.00  0.00     0.000 C 
BRANCH   5   6
ATOM      6  C   UNL     1     122.961 176.587 125.673  1.00  0.00     0.000 C 
BRANCH   6   7
ATOM      7  C   UNL     1     122.443 175.240 125.136  1.00  0.00     0.000 C 
BRANCH   7   8
ATOM      8  C   UNL     1     120.922 175.238 124.903  1.00  0.00     0.000 C 
BRANCH   8   9
ATOM      9  C   UNL     1     120.136 174.748 126.128  1.00  0.00     0.000 C 
BRANCH   9  10
ATOM     10  C   UNL     1     120.489 173.302 126.515  1.00  0.00     0.000 C 
BRANCH  10  11
ATOM     11  C   UNL     1     120.167 172.983 127.984  1.00  0.00     0.000 C 
BRANCH  11  12
ATOM     12  C   UNL     1     118.928 172.082 128.164  1.00  0.00     0.006 C 
BRANCH  12  13
ATOM     13  C   UNL     1     117.922 172.247 127.017  1.00  0.00     0.053 C 
BRANCH  13  14
ATOM     14  C   UNL     1     117.581 170.919 126.414  1.00  0.00     0.041 C 
ATOM     15  O   UNL     1     117.906 170.662 125.223  1.00  0.00    -0.550 OA
ATOM     16  O   UNL     1     116.883 169.975 127.156  1.00  0.00    -0.550 OA
ENDBRANCH  13  14
ENDBRANCH  12  13
ENDBRANCH  11  12
ENDBRANCH  10  11
ENDBRANCH   9  10
ENDBRANCH   8   9
ENDBRANCH   7   8
ENDBRANCH   6   7
ENDBRANCH   5   6
ENDBRANCH   4   5
ENDBRANCH   3   4
ENDBRANCH   2   3
ENDBRANCH   1   2
BRANCH   1  17
ATOM     17  C   UNL     1     119.275 177.000 130.820  1.00  0.00     0.000 C 
BRANCH  17  18
ATOM     18  C   UNL     1     118.907 175.593 130.302  1.00  0.00     0.000 C 
BRANCH  18  19
ATOM     19  C   UNL     1     117.428 175.242 130.542  1.00  0.00     0.000 C 
BRANCH  19  20
ATOM     20  C   UNL     1     116.640 175.037 129.235  1.00  0.00     0.000 C 
BRANCH  20  21
ATOM     21  C   UNL     1     117.092 175.920 128.058  1.00  0.00     0.000 C 
BRANCH  21  22
ATOM     22  C   UNL     1     116.514 175.458 126.709  1.00  0.00    -0.000 C 
BRANCH  22  23
ATOM     23  C   UNL     1     115.482 176.444 126.139  1.00  0.00    -0.000 C 
BRANCH  23  24
ATOM     24  C   UNL     1     115.360 177.726 126.980  1.00  0.00    -0.000 C 
BRANCH  24  25
ATOM     25  C   UNL     1     115.929 178.966 126.269  1.00  0.00    -0.000 C 
BRANCH  25  26
ATOM     26  C   UNL     1     117.296 179.426 126.814  1.00  0.00    -0.000 C 
BRANCH  26  27
ATOM     27  C   UNL     1     118.401 179.374 125.743  1.00  0.00    -0.000 C 
BRANCH  27  28
ATOM     28  C   UNL     1     118.608 177.962 125.172  1.00  0.00    -0.000 C 
BRANCH  28  29
ATOM     29  C   UNL     1     118.297 177.875 123.670  1.00  0.00    -0.003 C 
ATOM     30  C   UNL     1     119.321 178.656 122.850  1.00  0.00     0.004 C 
ENDBRANCH  28  29
ENDBRANCH  27  28
ENDBRANCH  26  27
ENDBRANCH  25  26
ENDBRANCH  24  25
ENDBRANCH  23  24
ENDBRANCH  22  23
ENDBRANCH  21  22
ENDBRANCH  20  21
ENDBRANCH  19  20
ENDBRANCH  18  19
ENDBRANCH  17  18
ENDBRANCH   1  17
TORSDOF 26
ENDMDL
MODEL 2
REMARK VINA RESULT:    -5.526      4.278      6.803
REMARK INTER + INTRA:         -19.066
REMARK INTER:                 -14.954
REMARK INTRA:                  -4.111
REMARK UNBOUND:                -5.141
REMARK SMILES CCCCCCCCCCCCCCCCCCCCCCCCCCCC(=O)[O-]
REMARK SMILES IDX 15 1 16 2 17 3 18 4 19 5 20 6 21 7 22 8 23 9 24 10 25 11
REMARK SMILES IDX 26 12 27 13 28 14 29 15 30 16 14 17 13 18 12 19 11 20 10 21
REMARK SMILES IDX 9 22 8 23 7 24 6 25 5 26 4 27 3 28 2 29 1 30
REMARK H PARENT
REMARK Flexibility Score: inf
ROOT
ATOM      1  C   UNL     1     119.373 178.736 125.378  1.00  0.00     0.000 C 
ENDROOT
BRANCH   1   2
ATOM      2  C   UNL     1     119.335 177.555 124.388  1.00  0.00     0.000 C 
BRANCH   2   3
ATOM      3  C   UNL     1     119.452 176.158 125.026  1.00  0.00     0.000 C 
BRANCH   3   4
ATOM      4  C   UNL     1     120.659 175.359 124.508  1.00  0.00     0.000 C 
BRANCH   4   5
ATOM      5  C   UNL     1     121.788 175.247 125.547  1.00  0.00     0.000 C 
BRANCH   5   6
ATOM      6  C   UNL     1     123.115 175.930 125.153  1.00  0.00     0.000 C 
BRANCH   6   7
ATOM      7  C   UNL     1     123.053 176.793 123.880  1.00  0.00     0.000 C 
BRANCH   7   8
ATOM      8  C   UNL     1     124.227 176.525 122.922  1.00  0.00     0.000 C 
BRANCH   8   9
ATOM      9  C   UNL     1     123.772 176.315 121.470  1.00  0.00     0.000 C 
BRANCH   9  10
ATOM     10  C   UNL     1     122.347 176.838 121.219  1.00  0.00     0.000 C 
BRANCH  10  11
ATOM     11  C   UNL     1     121.907 176.685 119.753  1.00  0.00     0.000 C 
BRANCH  11  12
ATOM     12  C   UNL     1     123.010 176.121 118.833  1.00  0.00     0.006 C 
BRANCH  12  13
ATOM     13  C   UNL     1     122.825 176.559 117.374  1.00  0.00     0.053 C 
BRANCH  13  14
ATOM     14  C   UNL     1     123.542 177.848 117.113  1.00  0.00     0.041 C 
ATOM     15  O   UNL     1     123.243 178.547 116.107  1.00  0.00    -0.550 OA
ATOM     16  O   UNL     1     124.557 178.268 117.964  1.00  0.00    -0.550 OA
ENDBRANCH  13  14
ENDBRANCH  12  13
ENDBRANCH  11  12
ENDBRANCH  10  11
ENDBRANCH   9  10
ENDBRANCH   8   9
ENDBRANCH   7   8
ENDBRANCH   6   7
ENDBRANCH   5   6
ENDBRANCH   4   5
ENDBRANCH   3   4
ENDBRANCH   2   3
ENDBRANCH   1   2
BRANCH   1  17
ATOM     17  C   UNL     1     119.887 178.394 126.788  1.00  0.00     0.000 C 
BRANCH  17  18
ATOM     18  C   UNL     1     121.381 178.719 127.008  1.00  0.00     0.000 C 
BRANCH  18  19
ATOM     19  C   UNL     1     121.988 177.943 128.190  1.00  0.00     0.000 C 
BRANCH  19  20
ATOM     20  C   UNL     1     121.198 178.128 129.498  1.00  0.00     0.000 C 
BRANCH  20  21
ATOM     21  C   UNL     1     120.961 176.838 130.304  1.00  0.00     0.000 C 
BRANCH  21  22
ATOM     22  C   UNL     1     119.619 176.841 131.055  1.00  0.00    -0.000 C 
BRANCH  22  23
ATOM     23  C   UNL     1     118.636 175.790 130.513  1.00  0.00    -0.000 C 
BRANCH  23  24
ATOM     24  C   UNL     1     118.691 175.661 128.982  1.00  0.00    -0.000 C 
BRANCH  24  25
ATOM     25  C   UNL     1     117.540 176.399 128.277  1.00  0.00    -0.000 C 
BRANCH  25  26
ATOM     26  C   UNL     1     116.576 175.467 127.513  1.00  0.00    -0.000 C 
BRANCH  26  27
ATOM     27  C   UNL     1     115.984 176.138 126.259  1.00  0.00    -0.000 C 
BRANCH  27  28
ATOM     28  C   UNL     1     115.250 177.451 126.579  1.00  0.00    -0.000 C 
BRANCH  28  29
ATOM     29  C   UNL     1     115.671 178.607 125.660  1.00  0.00    -0.003 C 
ATOM     30  C   UNL     1     115.984 179.865 126.466  1.00  0.00     0.004 C 
ENDBRANCH  28  29
ENDBRANCH  27  28
ENDBRANCH  26  27
ENDBRANCH  25  26
ENDBRANCH  24  25
ENDBRANCH  23  24
ENDBRANCH  22  23
ENDBRANCH  21  22
ENDBRANCH  20  21
ENDBRANCH  19  20
ENDBRANCH  18  19
ENDBRANCH  17  18
ENDBRANCH   1  17
TORSDOF 26
ENDMDL
MODEL 3
REMARK VINA RESULT:    -5.516      2.331      6.369
REMARK INTER + INTRA:         -19.043
REMARK INTER:                 -14.151
REMARK INTRA:                  -4.892
REMARK UNBOUND:                -5.141
REMARK SMILES CCCCCCCCCCCCCCCCCCCCCCCCCCCC(=O)[O-]
REMARK SMILES IDX 15 1 16 2 17 3 18 4 19 5 20 6 21 7 22 8 23 9 24 10 25 11
REMARK SMILES IDX 26 12 27 13 28 14 29 15 30 16 14 17 13 18 12 19 11 20 10 21
REMARK SMILES IDX 9 22 8 23 7 24 6 25 5 26 4 27 3 28 2 29 1 30
REMARK H PARENT
REMARK Flexibility Score: inf
ROOT
ATOM      1  C   UNL     1     115.983 176.083 126.985  1.00  0.00     0.000 C 
ENDROOT
BRANCH   1   2
ATOM      2  C   UNL     1     116.906 175.516 128.080  1.00  0.00     0.000 C 
BRANCH   2   3
ATOM      3  C   UNL     1     116.364 175.623 129.518  1.00  0.00     0.000 C 
BRANCH   3   4
ATOM      4  C   UNL     1     117.364 175.128 130.577  1.00  0.00     0.000 C 
BRANCH   4   5
ATOM      5  C   UNL     1     118.740 174.785 129.979  1.00  0.00     0.000 C 
BRANCH   5   6
ATOM      6  C   UNL     1     119.893 175.718 130.406  1.00  0.00     0.000 C 
BRANCH   6   7
ATOM      7  C   UNL     1     119.490 177.182 130.658  1.00  0.00     0.000 C 
BRANCH   7   8
ATOM      8  C   UNL     1     119.362 177.994 129.357  1.00  0.00     0.000 C 
BRANCH   8   9
ATOM      9  C   UNL     1     120.406 177.595 128.304  1.00  0.00     0.000 C 
BRANCH   9  10
ATOM     10  C   UNL     1     121.735 178.353 128.474  1.00  0.00     0.000 C 
BRANCH  10  11
ATOM     11  C   UNL     1     122.316 178.842 127.137  1.00  0.00     0.000 C 
BRANCH  11  12
ATOM     12  C   UNL     1     122.169 177.822 125.990  1.00  0.00     0.006 C 
BRANCH  12  13
ATOM     13  C   UNL     1     123.521 177.232 125.565  1.00  0.00     0.053 C 
BRANCH  13  14
ATOM     14  C   UNL     1     123.355 176.312 124.394  1.00  0.00     0.041 C 
ATOM     15  O   UNL     1     123.926 175.189 124.386  1.00  0.00    -0.550 OA
ATOM     16  O   UNL     1     122.591 176.704 123.302  1.00  0.00    -0.550 OA
ENDBRANCH  13  14
ENDBRANCH  12  13
ENDBRANCH  11  12
ENDBRANCH  10  11
ENDBRANCH   9  10
ENDBRANCH   8   9
ENDBRANCH   7   8
ENDBRANCH   6   7
ENDBRANCH   5   6
ENDBRANCH   4   5
ENDBRANCH   3   4
ENDBRANCH   2   3
ENDBRANCH   1   2
BRANCH   1  17
ATOM     17  C   UNL     1     115.409 177.484 127.271  1.00  0.00     0.000 C 
BRANCH  17  18
ATOM     18  C   UNL     1     115.578 178.481 126.105  1.00  0.00     0.000 C 
BRANCH  18  19
ATOM     19  C   UNL     1     116.702 179.502 126.356  1.00  0.00     0.000 C 
BRANCH  19  20
ATOM     20  C   UNL     1     118.086 178.990 125.914  1.00  0.00     0.000 C 
BRANCH  20  21
ATOM     21  C   UNL     1     118.115 178.300 124.538  1.00  0.00     0.000 C 
BRANCH  21  22
ATOM     22  C   UNL     1     119.241 177.259 124.416  1.00  0.00    -0.000 C 
BRANCH  22  23
ATOM     23  C   UNL     1     119.017 176.037 125.322  1.00  0.00    -0.000 C 
BRANCH  23  24
ATOM     24  C   UNL     1     120.076 174.942 125.114  1.00  0.00    -0.000 C 
BRANCH  24  25
ATOM     25  C   UNL     1     120.585 174.341 126.436  1.00  0.00    -0.000 C 
BRANCH  25  26
ATOM     26  C   UNL     1     120.162 172.873 126.657  1.00  0.00    -0.000 C 
BRANCH  26  27
ATOM     27  C   UNL     1     118.652 172.661 126.446  1.00  0.00    -0.000 C 
BRANCH  27  28
ATOM     28  C   UNL     1     117.958 172.060 127.679  1.00  0.00    -0.000 C 
BRANCH  28  29
ATOM     29  C   UNL     1     117.390 170.657 127.418  1.00  0.00    -0.003 C 
ATOM     30  C   UNL     1     117.020 170.478 125.947  1.00  0.00     0.004 C 
ENDBRANCH  28  29
ENDBRANCH  27  28
ENDBRANCH  26  27
ENDBRANCH  25  26
ENDBRANCH  24  25
ENDBRANCH  23  24
ENDBRANCH  22  23
ENDBRANCH  21  22
ENDBRANCH  20  21
ENDBRANCH  19  20
ENDBRANCH  18  19
ENDBRANCH  17  18
ENDBRANCH   1  17
TORSDOF 26
ENDMDL
MODEL 4
REMARK VINA RESULT:    -5.442      3.427      5.677
REMARK INTER + INTRA:         -18.854
REMARK INTER:                 -13.942
REMARK INTRA:                  -4.912
REMARK UNBOUND:                -5.141
REMARK SMILES CCCCCCCCCCCCCCCCCCCCCCCCCCCC(=O)[O-]
REMARK SMILES IDX 15 1 16 2 17 3 18 4 19 5 20 6 21 7 22 8 23 9 24 10 25 11
REMARK SMILES IDX 26 12 27 13 28 14 29 15 30 16 14 17 13 18 12 19 11 20 10 21
REMARK SMILES IDX 9 22 8 23 7 24 6 25 5 26 4 27 3 28 2 29 1 30
REMARK H PARENT
REMARK Flexibility Score: inf
ROOT
ATOM      1  C   UNL     1     118.033 175.972 130.046  1.00  0.00     0.000 C 
ENDROOT
BRANCH   1   2
ATOM      2  C   UNL     1     119.125 176.120 131.123  1.00  0.00     0.000 C 
BRANCH   2   3
ATOM      3  C   UNL     1     120.158 177.232 130.863  1.00  0.00     0.000 C 
BRANCH   3   4
ATOM      4  C   UNL     1     120.202 177.681 129.393  1.00  0.00     0.000 C 
BRANCH   4   5
ATOM      5  C   UNL     1     121.637 177.782 128.846  1.00  0.00     0.000 C 
BRANCH   5   6
ATOM      6  C   UNL     1     121.911 179.000 127.938  1.00  0.00     0.000 C 
BRANCH   6   7
ATOM      7  C   UNL     1     122.233 178.663 126.471  1.00  0.00     0.000 C 
BRANCH   7   8
ATOM      8  C   UNL     1     122.727 177.217 126.289  1.00  0.00     0.000 C 
BRANCH   8   9
ATOM      9  C   UNL     1     123.478 177.010 124.965  1.00  0.00     0.000 C 
BRANCH   9  10
ATOM     10  C   UNL     1     122.836 175.920 124.089  1.00  0.00     0.000 C 
BRANCH  10  11
ATOM     11  C   UNL     1     122.586 176.387 122.646  1.00  0.00     0.000 C 
BRANCH  11  12
ATOM     12  C   UNL     1     123.777 177.151 122.029  1.00  0.00     0.006 C 
BRANCH  12  13
ATOM     13  C   UNL     1     124.182 176.584 120.663  1.00  0.00     0.053 C 
BRANCH  13  14
ATOM     14  C   UNL     1     123.786 177.517 119.560  1.00  0.00     0.041 C 
ATOM     15  O   UNL     1     122.993 177.132 118.659  1.00  0.00    -0.550 OA
ATOM     16  O   UNL     1     124.308 178.804 119.514  1.00  0.00    -0.550 OA
ENDBRANCH  13  14
ENDBRANCH  12  13
ENDBRANCH  11  12
ENDBRANCH  10  11
ENDBRANCH   9  10
ENDBRANCH   8   9
ENDBRANCH   7   8
ENDBRANCH   6   7
ENDBRANCH   5   6
ENDBRANCH   4   5
ENDBRANCH   3   4
ENDBRANCH   2   3
ENDBRANCH   1   2
BRANCH   1  17
ATOM     17  C   UNL     1     118.011 174.616 129.316  1.00  0.00     0.000 C 
BRANCH  17  18
ATOM     18  C   UNL     1     119.409 173.996 129.102  1.00  0.00     0.000 C 
BRANCH  18  19
ATOM     19  C   UNL     1     119.594 173.428 127.684  1.00  0.00     0.000 C 
BRANCH  19  20
ATOM     20  C   UNL     1     120.505 174.303 126.802  1.00  0.00     0.000 C 
BRANCH  20  21
ATOM     21  C   UNL     1     119.807 174.961 125.599  1.00  0.00     0.000 C 
BRANCH  21  22
ATOM     22  C   UNL     1     119.257 176.362 125.919  1.00  0.00    -0.000 C 
BRANCH  22  23
ATOM     23  C   UNL     1     119.209 177.275 124.684  1.00  0.00    -0.000 C 
BRANCH  23  24
ATOM     24  C   UNL     1     118.504 178.613 124.963  1.00  0.00    -0.000 C 
BRANCH  24  25
ATOM     25  C   UNL     1     118.439 178.956 126.461  1.00  0.00    -0.000 C 
BRANCH  25  26
ATOM     26  C   UNL     1     117.032 179.356 126.950  1.00  0.00    -0.000 C 
BRANCH  26  27
ATOM     27  C   UNL     1     115.933 178.988 125.935  1.00  0.00    -0.000 C 
BRANCH  27  28
ATOM     28  C   UNL     1     114.963 177.923 126.471  1.00  0.00    -0.000 C 
BRANCH  28  29
ATOM     29  C   UNL     1     115.676 176.800 127.239  1.00  0.00    -0.003 C 
ATOM     30  C   UNL     1     116.018 175.634 126.316  1.00  0.00     0.004 C 
ENDBRANCH  28  29
ENDBRANCH  27  28
ENDBRANCH  26  27
ENDBRANCH  25  26
ENDBRANCH  24  25
ENDBRANCH  23  24
ENDBRANCH  22  23
ENDBRANCH  21  22
ENDBRANCH  20  21
ENDBRANCH  19  20
ENDBRANCH  18  19
ENDBRANCH  17  18
ENDBRANCH   1  17
TORSDOF 26
ENDMDL
MODEL 5
REMARK VINA RESULT:    -5.403      4.254      6.363
REMARK INTER + INTRA:         -18.757
REMARK INTER:                 -14.949
REMARK INTRA:                  -3.808
REMARK UNBOUND:                -5.141
REMARK SMILES CCCCCCCCCCCCCCCCCCCCCCCCCCCC(=O)[O-]
REMARK SMILES IDX 15 1 16 2 17 3 18 4 19 5 20 6 21 7 22 8 23 9 24 10 25 11
REMARK SMILES IDX 26 12 27 13 28 14 29 15 30 16 14 17 13 18 12 19 11 20 10 21
REMARK SMILES IDX 9 22 8 23 7 24 6 25 5 26 4 27 3 28 2 29 1 30
REMARK H PARENT
REMARK Flexibility Score: inf
ROOT
ATOM      1  C   UNL     1     122.004 178.764 127.606  1.00  0.00     0.000 C 
ENDROOT
BRANCH   1   2
ATOM      2  C   UNL     1     121.730 177.841 126.403  1.00  0.00     0.000 C 
BRANCH   2   3
ATOM      3  C   UNL     1     122.983 177.281 125.704  1.00  0.00     0.000 C 
BRANCH   3   4
ATOM      4  C   UNL     1     122.693 176.029 124.859  1.00  0.00     0.000 C 
BRANCH   4   5
ATOM      5  C   UNL     1     121.880 176.344 123.591  1.00  0.00     0.000 C 
BRANCH   5   6
ATOM      6  C   UNL     1     122.716 176.753 122.359  1.00  0.00     0.000 C 
BRANCH   6   7
ATOM      7  C   UNL     1     124.129 176.146 122.298  1.00  0.00     0.000 C 
BRANCH   7   8
ATOM      8  C   UNL     1     124.363 175.315 121.024  1.00  0.00     0.000 C 
BRANCH   8   9
ATOM      9  C   UNL     1     125.782 175.484 120.459  1.00  0.00     0.000 C 
BRANCH   9  10
ATOM     10  C   UNL     1     125.839 176.504 119.309  1.00  0.00     0.000 C 
BRANCH  10  11
ATOM     11  C   UNL     1     125.401 177.913 119.741  1.00  0.00     0.000 C 
BRANCH  11  12
ATOM     12  C   UNL     1     124.211 178.467 118.928  1.00  0.00     0.006 C 
BRANCH  12  13
ATOM     13  C   UNL     1     124.027 177.726 117.597  1.00  0.00     0.053 C 
BRANCH  13  14
ATOM     14  C   UNL     1     122.711 177.011 117.565  1.00  0.00     0.041 C 
ATOM     15  O   UNL     1     122.124 176.815 116.467  1.00  0.00    -0.550 OA
ATOM     16  O   UNL     1     122.120 176.582 118.748  1.00  0.00    -0.550 OA
ENDBRANCH  13  14
ENDBRANCH  12  13
ENDBRANCH  11  12
ENDBRANCH  10  11
ENDBRANCH   9  10
ENDBRANCH   8   9
ENDBRANCH   7   8
ENDBRANCH   6   7
ENDBRANCH   5   6
ENDBRANCH   4   5
ENDBRANCH   3   4
ENDBRANCH   2   3
ENDBRANCH   1   2
BRANCH   1  17
ATOM     17  C   UNL     1     121.480 178.250 128.960  1.00  0.00     0.000 C 
BRANCH  17  18
ATOM     18  C   UNL     1     120.474 177.085 128.842  1.00  0.00     0.000 C 
BRANCH  18  19
ATOM     19  C   UNL     1     119.143 177.377 129.556  1.00  0.00     0.000 C 
BRANCH  19  20
ATOM     20  C   UNL     1     118.284 176.116 129.762  1.00  0.00     0.000 C 
BRANCH  20  21
ATOM     21  C   UNL     1     117.118 175.954 128.771  1.00  0.00     0.000 C 
BRANCH  21  22
ATOM     22  C   UNL     1     117.386 174.879 127.704  1.00  0.00    -0.000 C 
BRANCH  22  23
ATOM     23  C   UNL     1     117.320 175.436 126.273  1.00  0.00    -0.000 C 
BRANCH  23  24
ATOM     24  C   UNL     1     118.535 176.311 125.922  1.00  0.00    -0.000 C 
BRANCH  24  25
ATOM     25  C   UNL     1     118.317 177.158 124.656  1.00  0.00    -0.000 C 
BRANCH  25  26
ATOM     26  C   UNL     1     118.262 178.677 124.923  1.00  0.00    -0.000 C 
BRANCH  26  27
ATOM     27  C   UNL     1     118.343 179.011 126.424  1.00  0.00    -0.000 C 
BRANCH  27  28
ATOM     28  C   UNL     1     116.958 179.151 127.076  1.00  0.00    -0.000 C 
BRANCH  28  29
ATOM     29  C   UNL     1     115.821 179.237 126.046  1.00  0.00    -0.003 C 
ATOM     30  C   UNL     1     114.756 178.176 126.313  1.00  0.00     0.004 C 
ENDBRANCH  28  29
ENDBRANCH  27  28
ENDBRANCH  26  27
ENDBRANCH  25  26
ENDBRANCH  24  25
ENDBRANCH  23  24
ENDBRANCH  22  23
ENDBRANCH  21  22
ENDBRANCH  20  21
ENDBRANCH  19  20
ENDBRANCH  18  19
ENDBRANCH  17  18
ENDBRANCH   1  17
TORSDOF 26
ENDMDL
MODEL 6
REMARK VINA RESULT:    -5.345      3.702      5.379
REMARK INTER + INTRA:         -18.610
REMARK INTER:                 -14.620
REMARK INTRA:                  -3.990
REMARK UNBOUND:                -5.141
REMARK SMILES CCCCCCCCCCCCCCCCCCCCCCCCCCCC(=O)[O-]
REMARK SMILES IDX 15 1 16 2 17 3 18 4 19 5 20 6 21 7 22 8 23 9 24 10 25 11
REMARK SMILES IDX 26 12 27 13 28 14 29 15 30 16 14 17 13 18 12 19 11 20 10 21
REMARK SMILES IDX 9 22 8 23 7 24 6 25 5 26 4 27 3 28 2 29 1 30
REMARK H PARENT
REMARK Flexibility Score: inf
ROOT
ATOM      1  C   UNL     1     119.023 175.556 130.394  1.00  0.00     0.000 C 
ENDROOT
BRANCH   1   2
ATOM      2  C   UNL     1     119.192 177.088 130.405  1.00  0.00     0.000 C 
BRANCH   2   3
ATOM      3  C   UNL     1     119.933 177.677 129.190  1.00  0.00     0.000 C 
BRANCH   3   4
ATOM      4  C   UNL     1     121.333 178.210 129.539  1.00  0.00     0.000 C 
BRANCH   4   5
ATOM      5  C   UNL     1     122.069 178.790 128.317  1.00  0.00     0.000 C 
BRANCH   5   6
ATOM      6  C   UNL     1     121.626 178.222 126.952  1.00  0.00     0.000 C 
BRANCH   6   7
ATOM      7  C   UNL     1     122.691 177.392 126.213  1.00  0.00     0.000 C 
BRANCH   7   8
ATOM      8  C   UNL     1     122.091 176.187 125.467  1.00  0.00     0.000 C 
BRANCH   8   9
ATOM      9  C   UNL     1     122.699 175.993 124.070  1.00  0.00     0.000 C 
BRANCH   9  10
ATOM     10  C   UNL     1     121.742 176.430 122.946  1.00  0.00     0.000 C 
BRANCH  10  11
ATOM     11  C   UNL     1     122.472 177.098 121.770  1.00  0.00     0.000 C 
BRANCH  11  12
ATOM     12  C   UNL     1     122.834 176.121 120.632  1.00  0.00     0.006 C 
BRANCH  12  13
ATOM     13  C   UNL     1     122.824 176.804 119.258  1.00  0.00     0.053 C 
BRANCH  13  14
ATOM     14  C   UNL     1     124.186 177.322 118.912  1.00  0.00     0.041 C 
ATOM     15  O   UNL     1     125.213 176.661 119.224  1.00  0.00    -0.550 OA
ATOM     16  O   UNL     1     124.325 178.546 118.269  1.00  0.00    -0.550 OA
ENDBRANCH  13  14
ENDBRANCH  12  13
ENDBRANCH  11  12
ENDBRANCH  10  11
ENDBRANCH   9  10
ENDBRANCH   8   9
ENDBRANCH   7   8
ENDBRANCH   6   7
ENDBRANCH   5   6
ENDBRANCH   4   5
ENDBRANCH   3   4
ENDBRANCH   2   3
ENDBRANCH   1   2
BRANCH   1  17
ATOM     17  C   UNL     1     119.832 174.815 129.314  1.00  0.00     0.000 C 
BRANCH  17  18
ATOM     18  C   UNL     1     119.072 173.645 128.652  1.00  0.00     0.000 C 
BRANCH  18  19
ATOM     19  C   UNL     1     118.959 173.801 127.125  1.00  0.00     0.000 C 
BRANCH  19  20
ATOM     20  C   UNL     1     118.501 175.208 126.698  1.00  0.00     0.000 C 
BRANCH  20  21
ATOM     21  C   UNL     1     116.977 175.389 126.581  1.00  0.00     0.000 C 
BRANCH  21  22
ATOM     22  C   UNL     1     116.339 175.929 127.872  1.00  0.00    -0.000 C 
BRANCH  22  23
ATOM     23  C   UNL     1     115.412 177.128 127.616  1.00  0.00    -0.000 C 
BRANCH  23  24
ATOM     24  C   UNL     1     115.296 177.480 126.124  1.00  0.00    -0.000 C 
BRANCH  24  25
ATOM     25  C   UNL     1     115.286 178.996 125.864  1.00  0.00    -0.000 C 
BRANCH  25  26
ATOM     26  C   UNL     1     116.454 179.752 126.532  1.00  0.00    -0.000 C 
BRANCH  26  27
ATOM     27  C   UNL     1     117.769 178.952 126.490  1.00  0.00    -0.000 C 
BRANCH  27  28
ATOM     28  C   UNL     1     118.716 179.425 125.375  1.00  0.00    -0.000 C 
BRANCH  28  29
ATOM     29  C   UNL     1     119.114 178.295 124.413  1.00  0.00    -0.003 C 
ATOM     30  C   UNL     1     117.943 177.895 123.520  1.00  0.00     0.004 C 
ENDBRANCH  28  29
ENDBRANCH  27  28
ENDBRANCH  26  27
ENDBRANCH  25  26
ENDBRANCH  24  25
ENDBRANCH  23  24
ENDBRANCH  22  23
ENDBRANCH  21  22
ENDBRANCH  20  21
ENDBRANCH  19  20
ENDBRANCH  18  19
ENDBRANCH  17  18
ENDBRANCH   1  17
TORSDOF 26
ENDMDL
MODEL 7
REMARK VINA RESULT:    -5.313      4.137      7.083
REMARK INTER + INTRA:         -18.530
REMARK INTER:                 -14.021
REMARK INTRA:                  -4.509
REMARK UNBOUND:                -5.141
REMARK SMILES CCCCCCCCCCCCCCCCCCCCCCCCCCCC(=O)[O-]
REMARK SMILES IDX 15 1 16 2 17 3 18 4 19 5 20 6 21 7 22 8 23 9 24 10 25 11
REMARK SMILES IDX 26 12 27 13 28 14 29 15 30 16 14 17 13 18 12 19 11 20 10 21
REMARK SMILES IDX 9 22 8 23 7 24 6 25 5 26 4 27 3 28 2 29 1 30
REMARK H PARENT
REMARK Flexibility Score: inf
ROOT
ATOM      1  C   UNL     1     118.151 177.498 124.081  1.00  0.00     0.000 C 
ENDROOT
BRANCH   1   2
ATOM      2  C   UNL     1     119.411 178.307 123.717  1.00  0.00     0.000 C 
BRANCH   2   3
ATOM      3  C   UNL     1     120.708 177.485 123.597  1.00  0.00     0.000 C 
BRANCH   3   4
ATOM      4  C   UNL     1     120.643 176.144 124.347  1.00  0.00     0.000 C 
BRANCH   4   5
ATOM      5  C   UNL     1     121.898 175.877 125.197  1.00  0.00     0.000 C 
BRANCH   5   6
ATOM      6  C   UNL     1     122.794 177.108 125.451  1.00  0.00     0.000 C 
BRANCH   6   7
ATOM      7  C   UNL     1     124.281 176.918 125.098  1.00  0.00     0.000 C 
BRANCH   7   8
ATOM      8  C   UNL     1     124.616 177.383 123.670  1.00  0.00     0.000 C 
BRANCH   8   9
ATOM      9  C   UNL     1     124.539 176.244 122.642  1.00  0.00     0.000 C 
BRANCH   9  10
ATOM     10  C   UNL     1     123.673 176.608 121.424  1.00  0.00     0.000 C 
BRANCH  10  11
ATOM     11  C   UNL     1     124.507 177.072 120.218  1.00  0.00     0.000 C 
BRANCH  11  12
ATOM     12  C   UNL     1     123.830 178.185 119.391  1.00  0.00     0.006 C 
BRANCH  12  13
ATOM     13  C   UNL     1     124.280 178.169 117.924  1.00  0.00     0.053 C 
BRANCH  13  14
ATOM     14  C   UNL     1     123.208 177.601 117.045  1.00  0.00     0.041 C 
ATOM     15  O   UNL     1     122.422 176.724 117.492  1.00  0.00    -0.550 OA
ATOM     16  O   UNL     1     123.092 178.022 115.726  1.00  0.00    -0.550 OA
ENDBRANCH  13  14
ENDBRANCH  12  13
ENDBRANCH  11  12
ENDBRANCH  10  11
ENDBRANCH   9  10
ENDBRANCH   8   9
ENDBRANCH   7   8
ENDBRANCH   6   7
ENDBRANCH   5   6
ENDBRANCH   4   5
ENDBRANCH   3   4
ENDBRANCH   2   3
ENDBRANCH   1   2
BRANCH   1  17
ATOM     17  C   UNL     1     117.346 178.039 125.277  1.00  0.00     0.000 C 
BRANCH  17  18
ATOM     18  C   UNL     1     118.170 178.924 126.239  1.00  0.00     0.000 C 
BRANCH  18  19
ATOM     19  C   UNL     1     118.428 178.243 127.595  1.00  0.00     0.000 C 
BRANCH  19  20
ATOM     20  C   UNL     1     119.772 177.494 127.644  1.00  0.00     0.000 C 
BRANCH  20  21
ATOM     21  C   UNL     1     120.517 177.582 128.987  1.00  0.00     0.000 C 
BRANCH  21  22
ATOM     22  C   UNL     1     119.569 177.757 130.186  1.00  0.00    -0.000 C 
BRANCH  22  23
ATOM     23  C   UNL     1     119.535 176.520 131.098  1.00  0.00    -0.000 C 
BRANCH  23  24
ATOM     24  C   UNL     1     118.654 175.393 130.535  1.00  0.00    -0.000 C 
BRANCH  24  25
ATOM     25  C   UNL     1     117.218 175.851 130.227  1.00  0.00    -0.000 C 
BRANCH  25  26
ATOM     26  C   UNL     1     116.658 175.298 128.899  1.00  0.00    -0.000 C 
BRANCH  26  27
ATOM     27  C   UNL     1     117.518 174.153 128.333  1.00  0.00    -0.000 C 
BRANCH  27  28
ATOM     28  C   UNL     1     117.849 174.339 126.844  1.00  0.00    -0.000 C 
BRANCH  28  29
ATOM     29  C   UNL     1     119.221 173.760 126.463  1.00  0.00    -0.003 C 
ATOM     30  C   UNL     1     120.096 173.562 127.698  1.00  0.00     0.004 C 
ENDBRANCH  28  29
ENDBRANCH  27  28
ENDBRANCH  26  27
ENDBRANCH  25  26
ENDBRANCH  24  25
ENDBRANCH  23  24
ENDBRANCH  22  23
ENDBRANCH  21  22
ENDBRANCH  20  21
ENDBRANCH  19  20
ENDBRANCH  18  19
ENDBRANCH  17  18
ENDBRANCH   1  17
TORSDOF 26
ENDMDL
MODEL 8
REMARK VINA RESULT:    -5.302      3.962      6.306
REMARK INTER + INTRA:         -18.503
REMARK INTER:                 -14.652
REMARK INTRA:                  -3.851
REMARK UNBOUND:                -5.141
REMARK SMILES CCCCCCCCCCCCCCCCCCCCCCCCCCCC(=O)[O-]
REMARK SMILES IDX 15 1 16 2 17 3 18 4 19 5 20 6 21 7 22 8 23 9 24 10 25 11
REMARK SMILES IDX 26 12 27 13 28 14 29 15 30 16 14 17 13 18 12 19 11 20 10 21
REMARK SMILES IDX 9 22 8 23 7 24 6 25 5 26 4 27 3 28 2 29 1 30
REMARK H PARENT
REMARK Flexibility Score: inf
ROOT
ATOM      1  C   UNL     1     119.880 172.779 126.989  1.00  0.00     0.000 C 
ENDROOT
BRANCH   1   2
ATOM      2  C   UNL     1     119.643 174.140 126.306  1.00  0.00     0.000 C 
BRANCH   2   3
ATOM      3  C   UNL     1     120.894 174.793 125.689  1.00  0.00     0.000 C 
BRANCH   3   4
ATOM      4  C   UNL     1     120.581 175.634 124.440  1.00  0.00     0.000 C 
BRANCH   4   5
ATOM      5  C   UNL     1     121.435 176.912 124.354  1.00  0.00     0.000 C 
BRANCH   5   6
ATOM      6  C   UNL     1     122.419 177.125 125.524  1.00  0.00     0.000 C 
BRANCH   6   7
ATOM      7  C   UNL     1     123.904 177.188 125.125  1.00  0.00     0.000 C 
BRANCH   7   8
ATOM      8  C   UNL     1     124.186 176.506 123.775  1.00  0.00     0.000 C 
BRANCH   8   9
ATOM      9  C   UNL     1     124.814 177.461 122.748  1.00  0.00     0.000 C 
BRANCH   9  10
ATOM     10  C   UNL     1     124.525 177.038 121.297  1.00  0.00     0.000 C 
BRANCH  10  11
ATOM     11  C   UNL     1     123.138 176.396 121.129  1.00  0.00     0.000 C 
BRANCH  11  12
ATOM     12  C   UNL     1     122.399 176.847 119.852  1.00  0.00     0.006 C 
BRANCH  12  13
ATOM     13  C   UNL     1     122.988 176.206 118.588  1.00  0.00     0.053 C 
BRANCH  13  14
ATOM     14  C   UNL     1     122.864 177.132 117.416  1.00  0.00     0.041 C 
ATOM     15  O   UNL     1     122.025 176.892 116.506  1.00  0.00    -0.550 OA
ATOM     16  O   UNL     1     123.690 178.245 117.316  1.00  0.00    -0.550 OA
ENDBRANCH  13  14
ENDBRANCH  12  13
ENDBRANCH  11  12
ENDBRANCH  10  11
ENDBRANCH   9  10
ENDBRANCH   8   9
ENDBRANCH   7   8
ENDBRANCH   6   7
ENDBRANCH   5   6
ENDBRANCH   4   5
ENDBRANCH   3   4
ENDBRANCH   2   3
ENDBRANCH   1   2
BRANCH   1  17
ATOM     17  C   UNL     1     119.599 172.748 128.503  1.00  0.00     0.000 C 
BRANCH  17  18
ATOM     18  C   UNL     1     119.747 174.119 129.197  1.00  0.00     0.000 C 
BRANCH  18  19
ATOM     19  C   UNL     1     118.402 174.680 129.693  1.00  0.00     0.000 C 
BRANCH  19  20
ATOM     20  C   UNL     1     118.561 175.686 130.848  1.00  0.00     0.000 C 
BRANCH  20  21
ATOM     21  C   UNL     1     119.868 176.498 130.829  1.00  0.00     0.000 C 
BRANCH  21  22
ATOM     22  C   UNL     1     119.721 177.851 130.111  1.00  0.00    -0.000 C 
BRANCH  22  23
ATOM     23  C   UNL     1     120.309 177.834 128.691  1.00  0.00    -0.000 C 
BRANCH  23  24
ATOM     24  C   UNL     1     119.247 177.566 127.612  1.00  0.00    -0.000 C 
BRANCH  24  25
ATOM     25  C   UNL     1     119.189 178.668 126.540  1.00  0.00    -0.000 C 
BRANCH  25  26
ATOM     26  C   UNL     1     117.782 178.889 125.947  1.00  0.00    -0.000 C 
BRANCH  26  27
ATOM     27  C   UNL     1     117.326 177.710 125.068  1.00  0.00    -0.000 C 
BRANCH  27  28
ATOM     28  C   UNL     1     116.004 177.089 125.547  1.00  0.00    -0.000 C 
BRANCH  28  29
ATOM     29  C   UNL     1     115.536 177.653 126.898  1.00  0.00    -0.003 C 
ATOM     30  C   UNL     1     115.748 176.640 128.020  1.00  0.00     0.004 C 
ENDBRANCH  28  29
ENDBRANCH  27  28
ENDBRANCH  26  27
ENDBRANCH  25  26
ENDBRANCH  24  25
ENDBRANCH  23  24
ENDBRANCH  22  23
ENDBRANCH  21  22
ENDBRANCH  20  21
ENDBRANCH  19  20
ENDBRANCH  18  19
ENDBRANCH  17  18
ENDBRANCH   1  17
TORSDOF 26
ENDMDL
MODEL 9
REMARK VINA RESULT:    -5.290      3.991      6.034
REMARK INTER + INTRA:         -18.471
REMARK INTER:                 -14.095
REMARK INTRA:                  -4.377
REMARK UNBOUND:                -5.141
REMARK SMILES CCCCCCCCCCCCCCCCCCCCCCCCCCCC(=O)[O-]
REMARK SMILES IDX 15 1 16 2 17 3 18 4 19 5 20 6 21 7 22 8 23 9 24 10 25 11
REMARK SMILES IDX 26 12 27 13 28 14 29 15 30 16 14 17 13 18 12 19 11 20 10 21
REMARK SMILES IDX 9 22 8 23 7 24 6 25 5 26 4 27 3 28 2 29 1 30
REMARK H PARENT
REMARK Flexibility Score: inf
ROOT
ATOM      1  C   UNL     1     121.630 178.229 129.057  1.00  0.00     0.000 C 
ENDROOT
BRANCH   1   2
ATOM      2  C   UNL     1     121.973 178.634 127.611  1.00  0.00     0.000 C 
BRANCH   2   3
ATOM      3  C   UNL     1     122.181 177.463 126.632  1.00  0.00     0.000 C 
BRANCH   3   4
ATOM      4  C   UNL     1     123.174 177.790 125.504  1.00  0.00     0.000 C 
BRANCH   4   5
ATOM      5  C   UNL     1     124.174 176.649 125.243  1.00  0.00     0.000 C 
BRANCH   5   6
ATOM      6  C   UNL     1     124.141 176.060 123.817  1.00  0.00     0.000 C 
BRANCH   6   7
ATOM      7  C   UNL     1     123.655 177.027 122.722  1.00  0.00     0.000 C 
BRANCH   7   8
ATOM      8  C   UNL     1     122.333 176.575 122.076  1.00  0.00     0.000 C 
BRANCH   8   9
ATOM      9  C   UNL     1     122.345 176.710 120.546  1.00  0.00     0.000 C 
BRANCH   9  10
ATOM     10  C   UNL     1     123.468 177.636 120.045  1.00  0.00     0.000 C 
BRANCH  10  11
ATOM     11  C   UNL     1     123.971 177.255 118.642  1.00  0.00     0.000 C 
BRANCH  11  12
ATOM     12  C   UNL     1     125.242 176.381 118.659  1.00  0.00     0.006 C 
BRANCH  12  13
ATOM     13  C   UNL     1     126.032 176.533 119.965  1.00  0.00     0.053 C 
BRANCH  13  14
ATOM     14  C   UNL     1     126.292 175.196 120.588  1.00  0.00     0.041 C 
ATOM     15  O   UNL     1     127.474 174.787 120.739  1.00  0.00    -0.550 OA
ATOM     16  O   UNL     1     125.229 174.391 120.981  1.00  0.00    -0.550 OA
ENDBRANCH  13  14
ENDBRANCH  12  13
ENDBRANCH  11  12
ENDBRANCH  10  11
ENDBRANCH   9  10
ENDBRANCH   8   9
ENDBRANCH   7   8
ENDBRANCH   6   7
ENDBRANCH   5   6
ENDBRANCH   4   5
ENDBRANCH   3   4
ENDBRANCH   2   3
ENDBRANCH   1   2
BRANCH   1  17
ATOM     17  C   UNL     1     120.196 177.710 129.271  1.00  0.00     0.000 C 
BRANCH  17  18
ATOM     18  C   UNL     1     120.122 176.343 129.985  1.00  0.00     0.000 C 
BRANCH  18  19
ATOM     19  C   UNL     1     118.969 175.466 129.467  1.00  0.00     0.000 C 
BRANCH  19  20
ATOM     20  C   UNL     1     118.827 175.504 127.934  1.00  0.00     0.000 C 
BRANCH  20  21
ATOM     21  C   UNL     1     119.867 174.671 127.164  1.00  0.00     0.000 C 
BRANCH  21  22
ATOM     22  C   UNL     1     119.932 175.030 125.669  1.00  0.00    -0.000 C 
BRANCH  22  23
ATOM     23  C   UNL     1     118.961 176.161 125.291  1.00  0.00    -0.000 C 
BRANCH  23  24
ATOM     24  C   UNL     1     119.564 177.143 124.273  1.00  0.00    -0.000 C 
BRANCH  24  25
ATOM     25  C   UNL     1     119.018 178.574 124.424  1.00  0.00    -0.000 C 
BRANCH  25  26
ATOM     26  C   UNL     1     118.834 179.020 125.890  1.00  0.00    -0.000 C 
BRANCH  26  27
ATOM     27  C   UNL     1     117.369 179.365 126.217  1.00  0.00    -0.000 C 
BRANCH  27  28
ATOM     28  C   UNL     1     116.781 178.472 127.321  1.00  0.00    -0.000 C 
BRANCH  28  29
ATOM     29  C   UNL     1     115.787 177.433 126.780  1.00  0.00    -0.003 C 
ATOM     30  C   UNL     1     114.983 177.997 125.612  1.00  0.00     0.004 C 
ENDBRANCH  28  29
ENDBRANCH  27  28
ENDBRANCH  26  27
ENDBRANCH  25  26
ENDBRANCH  24  25
ENDBRANCH  23  24
ENDBRANCH  22  23
ENDBRANCH  21  22
ENDBRANCH  20  21
ENDBRANCH  19  20
ENDBRANCH  18  19
ENDBRANCH  17  18
ENDBRANCH   1  17
TORSDOF 26
ENDMDL
