MODEL 1
REMARK VINA RESULT:    -4.168      0.000      0.000
REMARK INTER + INTRA:          -4.290
REMARK INTER:                  -4.290
REMARK INTRA:                   0.000
REMARK UNBOUND:                 0.000
REMARK SMILES Nc1ncnc2nc[nH]c12
REMARK SMILES IDX 8 1 7 2 6 3 5 4 4 5 3 6 2 7 10 8 9 9 1 11
REMARK H PARENT 9 10 1 12 1 13
REMARK Flexibility Score: inf
ROOT
ATOM      1  C   UNL     1     -11.903   0.508  32.420  1.00  0.00     0.199 A 
ATOM      2  N   UNL     1     -12.232   1.438  31.482  1.00  0.00    -0.217 NA
ATOM      3  C   UNL     1     -13.094   2.223  32.149  1.00  0.00     0.182 A 
ATOM      4  N   UNL     1     -13.730   3.317  31.666  1.00  0.00    -0.215 NA
ATOM      5  C   UNL     1     -14.577   3.992  32.501  1.00  0.00     0.226 A 
ATOM      6  N   UNL     1     -14.769   3.566  33.791  1.00  0.00    -0.217 NA
ATOM      7  C   UNL     1     -14.129   2.463  34.280  1.00  0.00     0.152 A 
ATOM      8  C   UNL     1     -13.270   1.786  33.417  1.00  0.00     0.127 A 
ATOM      9  N   UNL     1     -12.522   0.694  33.614  1.00  0.00    -0.340 N 
ATOM     10  H   UNL     1     -12.426   0.113  34.476  1.00  0.00     0.168 HD
ENDROOT
BRANCH   7  11
ATOM     11  N   UNL     1     -14.345   2.038  35.626  1.00  0.00    -0.382 N 
ATOM     12  H   UNL     1     -13.558   1.705  36.224  1.00  0.00     0.158 HD
ATOM     13  H   UNL     1     -15.307   2.056  36.031  1.00  0.00     0.158 HD
ENDBRANCH   7  11
TORSDOF 1
ENDMDL
MODEL 2
REMARK VINA RESULT:    -4.153      1.376      2.384
REMARK INTER + INTRA:          -4.275
REMARK INTER:                  -4.275
REMARK INTRA:                   0.000
REMARK UNBOUND:                 0.000
REMARK SMILES Nc1ncnc2nc[nH]c12
REMARK SMILES IDX 8 1 7 2 6 3 5 4 4 5 3 6 2 7 10 8 9 9 1 11
REMARK H PARENT 9 10 1 12 1 13
REMARK Flexibility Score: inf
ROOT
ATOM      1  C   UNL     1     -13.743   1.463  35.013  1.00  0.00     0.199 A 
ATOM      2  N   UNL     1     -13.296   1.240  33.747  1.00  0.00    -0.217 NA
ATOM      3  C   UNL     1     -13.723   2.333  33.096  1.00  0.00     0.182 A 
ATOM      4  N   UNL     1     -13.540   2.616  31.784  1.00  0.00    -0.215 NA
ATOM      5  C   UNL     1     -14.052   3.786  31.298  1.00  0.00     0.226 A 
ATOM      6  N   UNL     1     -14.732   4.645  32.125  1.00  0.00    -0.217 NA
ATOM      7  C   UNL     1     -14.919   4.362  33.448  1.00  0.00     0.152 A 
ATOM      8  C   UNL     1     -14.390   3.166  33.927  1.00  0.00     0.127 A 
ATOM      9  N   UNL     1     -14.417   2.634  35.155  1.00  0.00    -0.340 N 
ATOM     10  H   UNL     1     -14.849   3.017  36.025  1.00  0.00     0.168 HD
ENDROOT
BRANCH   7  11
ATOM     11  N   UNL     1     -15.629   5.271  34.289  1.00  0.00    -0.382 N 
ATOM     12  H   UNL     1     -15.456   5.309  35.317  1.00  0.00     0.158 HD
ATOM     13  H   UNL     1     -16.341   5.916  33.878  1.00  0.00     0.158 HD
ENDBRANCH   7  11
TORSDOF 1
ENDMDL
MODEL 3
REMARK VINA RESULT:    -4.142      3.597      5.724
REMARK INTER + INTRA:          -4.264
REMARK INTER:                  -4.264
REMARK INTRA:                   0.000
REMARK UNBOUND:                 0.000
REMARK SMILES Nc1ncnc2nc[nH]c12
REMARK SMILES IDX 8 1 7 2 6 3 5 4 4 5 3 6 2 7 10 8 9 9 1 11
REMARK H PARENT 9 10 1 12 1 13
REMARK Flexibility Score: inf
ROOT
ATOM      1  C   UNL     1     -15.621   8.662  31.944  1.00  0.00     0.199 A 
ATOM      2  N   UNL     1     -14.522   7.859  31.974  1.00  0.00    -0.217 NA
ATOM      3  C   UNL     1     -15.030   6.697  32.416  1.00  0.00     0.182 A 
ATOM      4  N   UNL     1     -14.348   5.546  32.629  1.00  0.00    -0.215 NA
ATOM      5  C   UNL     1     -15.041   4.460  33.084  1.00  0.00     0.226 A 
ATOM      6  N   UNL     1     -16.391   4.542  33.316  1.00  0.00    -0.217 NA
ATOM      7  C   UNL     1     -17.081   5.702  33.103  1.00  0.00     0.152 A 
ATOM      8  C   UNL     1     -16.360   6.799  32.638  1.00  0.00     0.127 A 
ATOM      9  N   UNL     1     -16.760   8.042  32.345  1.00  0.00    -0.340 N 
ATOM     10  H   UNL     1     -17.719   8.452  32.405  1.00  0.00     0.168 HD
ENDROOT
BRANCH   7  11
ATOM     11  N   UNL     1     -18.486   5.765  33.351  1.00  0.00    -0.382 N 
ATOM     12  H   UNL     1     -19.159   6.036  32.601  1.00  0.00     0.158 HD
ATOM     13  H   UNL     1     -18.860   5.537  34.299  1.00  0.00     0.158 HD
ENDBRANCH   7  11
TORSDOF 1
ENDMDL
MODEL 4
REMARK VINA RESULT:    -4.117      1.008      3.089
REMARK INTER + INTRA:          -4.237
REMARK INTER:                  -4.237
REMARK INTRA:                   0.000
REMARK UNBOUND:                 0.000
REMARK SMILES Nc1ncnc2nc[nH]c12
REMARK SMILES IDX 8 1 7 2 6 3 5 4 4 5 3 6 2 7 10 8 9 9 1 11
REMARK H PARENT 9 10 1 12 1 13
REMARK Flexibility Score: inf
ROOT
ATOM      1  C   UNL     1     -15.257   5.233  33.075  1.00  0.00     0.199 A 
ATOM      2  N   UNL     1     -14.634   4.745  31.968  1.00  0.00    -0.217 NA
ATOM      3  C   UNL     1     -14.146   3.574  32.408  1.00  0.00     0.182 A 
ATOM      4  N   UNL     1     -13.428   2.677  31.690  1.00  0.00    -0.215 NA
ATOM      5  C   UNL     1     -13.015   1.533  32.315  1.00  0.00     0.226 A 
ATOM      6  N   UNL     1     -13.324   1.309  33.633  1.00  0.00    -0.217 NA
ATOM      7  C   UNL     1     -14.046   2.213  34.359  1.00  0.00     0.152 A 
ATOM      8  C   UNL     1     -14.460   3.372  33.708  1.00  0.00     0.127 A 
ATOM      9  N   UNL     1     -15.168   4.416  34.156  1.00  0.00    -0.340 N 
ATOM     10  H   UNL     1     -15.565   4.577  35.108  1.00  0.00     0.168 HD
ENDROOT
BRANCH   7  11
ATOM     11  N   UNL     1     -14.356   1.958  35.729  1.00  0.00    -0.382 N 
ATOM     12  H   UNL     1     -13.700   2.229  36.494  1.00  0.00     0.158 HD
ATOM     13  H   UNL     1     -15.254   1.491  35.984  1.00  0.00     0.158 HD
ENDBRANCH   7  11
TORSDOF 1
ENDMDL
MODEL 5
REMARK VINA RESULT:    -4.080      5.995      7.895
REMARK INTER + INTRA:          -4.200
REMARK INTER:                  -4.200
REMARK INTRA:                   0.000
REMARK UNBOUND:                 0.000
REMARK SMILES Nc1ncnc2nc[nH]c12
REMARK SMILES IDX 8 1 7 2 6 3 5 4 4 5 3 6 2 7 10 8 9 9 1 11
REMARK H PARENT 9 10 1 12 1 13
REMARK Flexibility Score: inf
ROOT
ATOM      1  C   UNL     1     -17.350  10.778  31.200  1.00  0.00     0.199 A 
ATOM      2  N   UNL     1     -16.063  10.911  30.782  1.00  0.00    -0.217 NA
ATOM      3  C   UNL     1     -15.509   9.758  31.192  1.00  0.00     0.182 A 
ATOM      4  N   UNL     1     -14.220   9.377  31.026  1.00  0.00    -0.215 NA
ATOM      5  C   UNL     1     -13.839   8.159  31.516  1.00  0.00     0.226 A 
ATOM      6  N   UNL     1     -14.744   7.352  32.158  1.00  0.00    -0.217 NA
ATOM      7  C   UNL     1     -16.044   7.736  32.328  1.00  0.00     0.152 A 
ATOM      8  C   UNL     1     -16.417   8.979  31.822  1.00  0.00     0.127 A 
ATOM      9  N   UNL     1     -17.598   9.607  31.840  1.00  0.00    -0.340 N 
ATOM     10  H   UNL     1     -18.505   9.284  32.246  1.00  0.00     0.168 HD
ENDROOT
BRANCH   7  11
ATOM     11  N   UNL     1     -16.970   6.879  32.999  1.00  0.00    -0.382 N 
ATOM     12  H   UNL     1     -17.194   5.929  32.633  1.00  0.00     0.158 HD
ATOM     13  H   UNL     1     -17.438   7.201  33.875  1.00  0.00     0.158 HD
ENDBRANCH   7  11
TORSDOF 1
ENDMDL
MODEL 6
REMARK VINA RESULT:    -4.067     12.995     13.592
REMARK INTER + INTRA:          -4.186
REMARK INTER:                  -4.186
REMARK INTRA:                   0.000
REMARK UNBOUND:                 0.000
REMARK SMILES Nc1ncnc2nc[nH]c12
REMARK SMILES IDX 8 1 7 2 6 3 5 4 4 5 3 6 2 7 10 8 9 9 1 11
REMARK H PARENT 9 10 1 12 1 13
REMARK Flexibility Score: inf
ROOT
ATOM      1  C   UNL     1      -2.488   3.788  26.581  1.00  0.00     0.199 A 
ATOM      2  N   UNL     1      -1.733   3.508  27.678  1.00  0.00    -0.217 NA
ATOM      3  C   UNL     1      -1.578   2.178  27.586  1.00  0.00     0.182 A 
ATOM      4  N   UNL     1      -0.895   1.383  28.443  1.00  0.00    -0.215 NA
ATOM      5  C   UNL     1      -0.848   0.042  28.182  1.00  0.00     0.226 A 
ATOM      6  N   UNL     1      -1.478  -0.475  27.078  1.00  0.00    -0.217 NA
ATOM      7  C   UNL     1      -2.168   0.325  26.213  1.00  0.00     0.152 A 
ATOM      8  C   UNL     1      -2.206   1.688  26.493  1.00  0.00     0.127 A 
ATOM      9  N   UNL     1      -2.794   2.695  25.836  1.00  0.00    -0.340 N 
ATOM     10  H   UNL     1      -3.357   2.663  24.957  1.00  0.00     0.168 HD
ENDROOT
BRANCH   7  11
ATOM     11  N   UNL     1      -2.817  -0.236  25.070  1.00  0.00    -0.382 N 
ATOM     12  H   UNL     1      -2.720   0.195  24.125  1.00  0.00     0.158 HD
ATOM     13  H   UNL     1      -3.403  -1.094  25.171  1.00  0.00     0.158 HD
ENDBRANCH   7  11
TORSDOF 1
ENDMDL
MODEL 7
REMARK VINA RESULT:    -4.030      6.098      7.852
REMARK INTER + INTRA:          -4.148
REMARK INTER:                  -4.148
REMARK INTRA:                   0.000
REMARK UNBOUND:                 0.000
REMARK SMILES Nc1ncnc2nc[nH]c12
REMARK SMILES IDX 8 1 7 2 6 3 5 4 4 5 3 6 2 7 10 8 9 9 1 11
REMARK H PARENT 9 10 1 12 1 13
REMARK Flexibility Score: inf
ROOT
ATOM      1  C   UNL     1     -15.696   7.100  32.652  1.00  0.00     0.199 A 
ATOM      2  N   UNL     1     -14.595   7.555  31.996  1.00  0.00    -0.217 NA
ATOM      3  C   UNL     1     -15.018   8.734  31.510  1.00  0.00     0.182 A 
ATOM      4  N   UNL     1     -14.298   9.607  30.767  1.00  0.00    -0.215 NA
ATOM      5  C   UNL     1     -14.904  10.763  30.361  1.00  0.00     0.226 A 
ATOM      6  N   UNL     1     -16.207  11.023  30.704  1.00  0.00    -0.217 NA
ATOM      7  C   UNL     1     -16.936  10.143  31.453  1.00  0.00     0.152 A 
ATOM      8  C   UNL     1     -16.303   8.970  31.858  1.00  0.00     0.127 A 
ATOM      9  N   UNL     1     -16.758   7.944  32.586  1.00  0.00    -0.340 N 
ATOM     10  H   UNL     1     -17.703   7.810  33.010  1.00  0.00     0.168 HD
ENDROOT
BRANCH   7  11
ATOM     11  N   UNL     1     -18.291  10.435  31.797  1.00  0.00    -0.382 N 
ATOM     12  H   UNL     1     -18.635  11.417  31.867  1.00  0.00     0.158 HD
ATOM     13  H   UNL     1     -18.961   9.657  31.986  1.00  0.00     0.158 HD
ENDBRANCH   7  11
TORSDOF 1
ENDMDL
MODEL 8
REMARK VINA RESULT:    -3.953     15.416     16.781
REMARK INTER + INTRA:          -4.068
REMARK INTER:                  -4.068
REMARK INTRA:                   0.000
REMARK UNBOUND:                 0.000
REMARK SMILES Nc1ncnc2nc[nH]c12
REMARK SMILES IDX 8 1 7 2 6 3 5 4 4 5 3 6 2 7 10 8 9 9 1 11
REMARK H PARENT 9 10 1 12 1 13
REMARK Flexibility Score: inf
ROOT
ATOM      1  C   UNL     1      -9.702   8.382  19.906  1.00  0.00     0.199 A 
ATOM      2  N   UNL     1     -10.814   8.604  19.153  1.00  0.00    -0.217 NA
ATOM      3  C   UNL     1     -10.718   9.916  18.882  1.00  0.00     0.182 A 
ATOM      4  N   UNL     1     -11.586  10.656  18.153  1.00  0.00    -0.215 NA
ATOM      5  C   UNL     1     -11.319  11.987  17.986  1.00  0.00     0.226 A 
ATOM      6  N   UNL     1     -10.199  12.547  18.546  1.00  0.00    -0.217 NA
ATOM      7  C   UNL     1      -9.322  11.803  19.283  1.00  0.00     0.152 A 
ATOM      8  C   UNL     1      -9.609  10.450  19.443  1.00  0.00     0.127 A 
ATOM      9  N   UNL     1      -8.945   9.492  20.101  1.00  0.00    -0.340 N 
ATOM     10  H   UNL     1      -8.054   9.566  20.640  1.00  0.00     0.168 HD
ENDROOT
BRANCH   7  11
ATOM     11  N   UNL     1      -8.163  12.408  19.856  1.00  0.00    -0.382 N 
ATOM     12  H   UNL     1      -8.058  12.512  20.889  1.00  0.00     0.158 HD
ATOM     13  H   UNL     1      -7.397  12.759  19.239  1.00  0.00     0.158 HD
ENDBRANCH   7  11
TORSDOF 1
ENDMDL
MODEL 9
REMARK VINA RESULT:    -3.864      6.879      8.833
REMARK INTER + INTRA:          -3.977
REMARK INTER:                  -3.977
REMARK INTRA:                   0.000
REMARK UNBOUND:                 0.000
REMARK SMILES Nc1ncnc2nc[nH]c12
REMARK SMILES IDX 8 1 7 2 6 3 5 4 4 5 3 6 2 7 10 8 9 9 1 11
REMARK H PARENT 9 10 1 12 1 13
REMARK Flexibility Score: inf
ROOT
ATOM      1  C   UNL     1     -14.623  11.998  29.716  1.00  0.00     0.199 A 
ATOM      2  N   UNL     1     -13.684  11.040  29.941  1.00  0.00    -0.217 NA
ATOM      3  C   UNL     1     -14.364  10.139  30.669  1.00  0.00     0.182 A 
ATOM      4  N   UNL     1     -13.886   8.973  31.164  1.00  0.00    -0.215 NA
ATOM      5  C   UNL     1     -14.735   8.182  31.886  1.00  0.00     0.226 A 
ATOM      6  N   UNL     1     -16.035   8.568  32.099  1.00  0.00    -0.217 NA
ATOM      7  C   UNL     1     -16.519   9.744  31.602  1.00  0.00     0.152 A 
ATOM      8  C   UNL     1     -15.641  10.538  30.868  1.00  0.00     0.127 A 
ATOM      9  N   UNL     1     -15.831  11.720  30.270  1.00  0.00    -0.340 N 
ATOM     10  H   UNL     1     -16.697  12.302  30.230  1.00  0.00     0.168 HD
ENDROOT
BRANCH   7  11
ATOM     11  N   UNL     1     -17.875  10.125  31.836  1.00  0.00    -0.382 N 
ATOM     12  H   UNL     1     -18.599   9.423  32.100  1.00  0.00     0.158 HD
ATOM     13  H   UNL     1     -18.160  11.125  31.742  1.00  0.00     0.158 HD
ENDBRANCH   7  11
TORSDOF 1
ENDMDL
