MODEL 1
REMARK VINA RESULT:    -4.432      0.000      0.000
REMARK INTER + INTRA:          -4.778
REMARK INTER:                  -4.691
REMARK INTRA:                  -0.087
REMARK UNBOUND:                -0.087
REMARK SMILES C=C(C)[C@@H]1CC=C(C)C(=O)C1
REMARK SMILES IDX 8 1 7 2 6 3 5 4 4 5 11 6 9 7 10 8 2 9 1 10 3 11
REMARK H PARENT
REMARK Flexibility Score: inf
ROOT
ATOM      1  C   UNL     1      28.358  34.347  28.913  1.00  0.00     0.048 C 
ATOM      2  C   UNL     1      29.462  33.358  28.657  1.00  0.00    -0.012 C 
ATOM      3  C   UNL     1      30.671  33.794  28.263  1.00  0.00    -0.019 C 
ATOM      4  C   UNL     1      31.816  32.849  28.009  1.00  0.00     0.036 C 
ATOM      5  C   UNL     1      31.312  31.498  27.470  1.00  0.00     0.025 C 
ATOM      6  C   UNL     1      30.263  30.899  28.424  1.00  0.00     0.089 C 
ATOM      7  C   UNL     1      29.180  31.902  28.717  1.00  0.00     0.158 C 
ATOM      8  O   UNL     1      28.037  31.491  29.051  1.00  0.00    -0.295 OA
ENDROOT
BRANCH   5   9
ATOM      9  C   UNL     1      32.461  30.529  27.228  1.00  0.00    -0.077 C 
ATOM     10  C   UNL     1      32.852  30.247  25.975  1.00  0.00     0.008 C 
ATOM     11  C   UNL     1      33.183  29.865  28.374  1.00  0.00     0.039 C 
ENDBRANCH   5   9
TORSDOF 1
ENDMDL
MODEL 2
REMARK VINA RESULT:    -4.357     11.331     12.867
REMARK INTER + INTRA:          -4.698
REMARK INTER:                  -4.602
REMARK INTRA:                  -0.096
REMARK UNBOUND:                -0.087
REMARK SMILES C=C(C)[C@@H]1CC=C(C)C(=O)C1
REMARK SMILES IDX 8 1 7 2 6 3 5 4 4 5 11 6 9 7 10 8 2 9 1 10 3 11
REMARK H PARENT
REMARK Flexibility Score: inf
ROOT
ATOM      1  C   UNL     1      20.630  24.057  26.848  1.00  0.00     0.048 C 
ATOM      2  C   UNL     1      20.127  25.222  27.655  1.00  0.00    -0.012 C 
ATOM      3  C   UNL     1      18.847  25.613  27.538  1.00  0.00    -0.019 C 
ATOM      4  C   UNL     1      18.287  26.762  28.336  1.00  0.00     0.036 C 
ATOM      5  C   UNL     1      19.361  27.833  28.594  1.00  0.00     0.025 C 
ATOM      6  C   UNL     1      20.594  27.203  29.267  1.00  0.00     0.089 C 
ATOM      7  C   UNL     1      21.072  26.011  28.483  1.00  0.00     0.158 C 
ATOM      8  O   UNL     1      22.282  25.667  28.567  1.00  0.00    -0.295 OA
ENDROOT
BRANCH   5   9
ATOM      9  C   UNL     1      18.809  28.990  29.417  1.00  0.00    -0.077 C 
ATOM     10  C   UNL     1      18.296  28.765  30.638  1.00  0.00     0.008 C 
ATOM     11  C   UNL     1      18.819  30.404  28.890  1.00  0.00     0.039 C 
ENDBRANCH   5   9
TORSDOF 1
ENDMDL
MODEL 3
REMARK VINA RESULT:    -4.342     10.890     13.300
REMARK INTER + INTRA:          -4.683
REMARK INTER:                  -4.585
REMARK INTRA:                  -0.098
REMARK UNBOUND:                -0.087
REMARK SMILES C=C(C)[C@@H]1CC=C(C)C(=O)C1
REMARK SMILES IDX 8 1 7 2 6 3 5 4 4 5 11 6 9 7 10 8 2 9 1 10 3 11
REMARK H PARENT
REMARK Flexibility Score: inf
ROOT
ATOM      1  C   UNL     1      15.258  29.811  29.536  1.00  0.00     0.048 C 
ATOM      2  C   UNL     1      16.293  30.887  29.713  1.00  0.00    -0.012 C 
ATOM      3  C   UNL     1      16.021  32.146  29.332  1.00  0.00    -0.019 C 
ATOM      4  C   UNL     1      17.015  33.265  29.502  1.00  0.00     0.036 C 
ATOM      5  C   UNL     1      18.458  32.751  29.357  1.00  0.00     0.025 C 
ATOM      6  C   UNL     1      18.714  31.591  30.336  1.00  0.00     0.089 C 
ATOM      7  C   UNL     1      17.653  30.533  30.190  1.00  0.00     0.158 C 
ATOM      8  O   UNL     1      17.923  29.345  30.515  1.00  0.00    -0.295 OA
ENDROOT
BRANCH   5   9
ATOM      9  C   UNL     1      19.472  33.872  29.546  1.00  0.00    -0.077 C 
ATOM     10  C   UNL     1      19.055  35.118  29.820  1.00  0.00     0.008 C 
ATOM     11  C   UNL     1      20.955  33.617  29.430  1.00  0.00     0.039 C 
ENDBRANCH   5   9
TORSDOF 1
ENDMDL
MODEL 4
REMARK VINA RESULT:    -4.289      8.446     10.129
REMARK INTER + INTRA:          -4.627
REMARK INTER:                  -4.529
REMARK INTRA:                  -0.098
REMARK UNBOUND:                -0.087
REMARK SMILES C=C(C)[C@@H]1CC=C(C)C(=O)C1
REMARK SMILES IDX 8 1 7 2 6 3 5 4 4 5 11 6 9 7 10 8 2 9 1 10 3 11
REMARK H PARENT
REMARK Flexibility Score: inf
ROOT
ATOM      1  C   UNL     1      24.693  29.654  30.033  1.00  0.00     0.048 C 
ATOM      2  C   UNL     1      23.658  28.755  29.416  1.00  0.00    -0.012 C 
ATOM      3  C   UNL     1      22.353  29.055  29.539  1.00  0.00    -0.019 C 
ATOM      4  C   UNL     1      21.276  28.198  28.927  1.00  0.00     0.036 C 
ATOM      5  C   UNL     1      21.690  26.716  28.910  1.00  0.00     0.025 C 
ATOM      6  C   UNL     1      23.044  26.546  28.197  1.00  0.00     0.089 C 
ATOM      7  C   UNL     1      24.070  27.477  28.784  1.00  0.00     0.158 C 
ATOM      8  O   UNL     1      25.291  27.176  28.699  1.00  0.00    -0.295 OA
ENDROOT
BRANCH   5   9
ATOM      9  C   UNL     1      20.614  25.844  28.275  1.00  0.00    -0.077 C 
ATOM     10  C   UNL     1      20.931  24.637  27.779  1.00  0.00     0.008 C 
ATOM     11  C   UNL     1      19.181  26.306  28.184  1.00  0.00     0.039 C 
ENDBRANCH   5   9
TORSDOF 1
ENDMDL
MODEL 5
REMARK VINA RESULT:    -4.138     12.103     13.367
REMARK INTER + INTRA:          -4.466
REMARK INTER:                  -4.369
REMARK INTRA:                  -0.097
REMARK UNBOUND:                -0.087
REMARK SMILES C=C(C)[C@@H]1CC=C(C)C(=O)C1
REMARK SMILES IDX 8 1 7 2 6 3 5 4 4 5 11 6 9 7 10 8 2 9 1 10 3 11
REMARK H PARENT
REMARK Flexibility Score: inf
ROOT
ATOM      1  C   UNL     1      18.213  31.773  29.442  1.00  0.00     0.048 C 
ATOM      2  C   UNL     1      18.230  30.288  29.203  1.00  0.00    -0.012 C 
ATOM      3  C   UNL     1      19.313  29.711  28.657  1.00  0.00    -0.019 C 
ATOM      4  C   UNL     1      19.389  28.227  28.412  1.00  0.00     0.036 C 
ATOM      5  C   UNL     1      18.003  27.648  28.078  1.00  0.00     0.025 C 
ATOM      6  C   UNL     1      16.993  28.005  29.183  1.00  0.00     0.089 C 
ATOM      7  C   UNL     1      17.007  29.485  29.454  1.00  0.00     0.158 C 
ATOM      8  O   UNL     1      15.977  30.031  29.933  1.00  0.00    -0.295 OA
ENDROOT
BRANCH   5   9
ATOM      9  C   UNL     1      18.067  26.144  27.847  1.00  0.00    -0.077 C 
ATOM     10  C   UNL     1      16.943  25.411  27.870  1.00  0.00     0.008 C 
ATOM     11  C   UNL     1      19.379  25.444  27.592  1.00  0.00     0.039 C 
ENDBRANCH   5   9
TORSDOF 1
ENDMDL
MODEL 6
REMARK VINA RESULT:    -4.122     11.360     13.021
REMARK INTER + INTRA:          -4.449
REMARK INTER:                  -4.351
REMARK INTRA:                  -0.098
REMARK UNBOUND:                -0.087
REMARK SMILES C=C(C)[C@@H]1CC=C(C)C(=O)C1
REMARK SMILES IDX 8 1 7 2 6 3 5 4 4 5 11 6 9 7 10 8 2 9 1 10 3 11
REMARK H PARENT
REMARK Flexibility Score: inf
ROOT
ATOM      1  C   UNL     1      16.001  32.878  29.680  1.00  0.00     0.048 C 
ATOM      2  C   UNL     1      16.915  31.689  29.571  1.00  0.00    -0.012 C 
ATOM      3  C   UNL     1      18.228  31.873  29.353  1.00  0.00    -0.019 C 
ATOM      4  C   UNL     1      19.190  30.718  29.252  1.00  0.00     0.036 C 
ATOM      5  C   UNL     1      18.510  29.482  28.637  1.00  0.00     0.025 C 
ATOM      6  C   UNL     1      17.243  29.117  29.431  1.00  0.00     0.089 C 
ATOM      7  C   UNL     1      16.347  30.318  29.579  1.00  0.00     0.158 C 
ATOM      8  O   UNL     1      15.111  30.144  29.748  1.00  0.00    -0.295 OA
ENDROOT
BRANCH   5   9
ATOM      9  C   UNL     1      19.470  28.303  28.549  1.00  0.00    -0.077 C 
ATOM     10  C   UNL     1      20.763  28.461  28.871  1.00  0.00     0.008 C 
ATOM     11  C   UNL     1      19.001  26.941  28.100  1.00  0.00     0.039 C 
ENDBRANCH   5   9
TORSDOF 1
ENDMDL
MODEL 7
REMARK VINA RESULT:    -4.075      9.299     11.960
REMARK INTER + INTRA:          -4.400
REMARK INTER:                  -4.303
REMARK INTRA:                  -0.097
REMARK UNBOUND:                -0.087
REMARK SMILES C=C(C)[C@@H]1CC=C(C)C(=O)C1
REMARK SMILES IDX 8 1 7 2 6 3 5 4 4 5 11 6 9 7 10 8 2 9 1 10 3 11
REMARK H PARENT
REMARK Flexibility Score: inf
ROOT
ATOM      1  C   UNL     1      22.387  34.722  30.206  1.00  0.00     0.048 C 
ATOM      2  C   UNL     1      21.119  33.985  29.871  1.00  0.00    -0.012 C 
ATOM      3  C   UNL     1      19.991  34.673  29.627  1.00  0.00    -0.019 C 
ATOM      4  C   UNL     1      18.698  33.986  29.271  1.00  0.00     0.036 C 
ATOM      5  C   UNL     1      18.587  32.618  29.967  1.00  0.00     0.025 C 
ATOM      6  C   UNL     1      19.817  31.751  29.643  1.00  0.00     0.089 C 
ATOM      7  C   UNL     1      21.087  32.503  29.936  1.00  0.00     0.158 C 
ATOM      8  O   UNL     1      22.136  31.856  30.200  1.00  0.00    -0.295 OA
ENDROOT
BRANCH   5   9
ATOM      9  C   UNL     1      17.292  31.907  29.598  1.00  0.00    -0.077 C 
ATOM     10  C   UNL     1      16.229  32.615  29.185  1.00  0.00     0.008 C 
ATOM     11  C   UNL     1      17.167  30.406  29.688  1.00  0.00     0.039 C 
ENDBRANCH   5   9
TORSDOF 1
ENDMDL
MODEL 8
REMARK VINA RESULT:    -4.067     12.058     14.073
REMARK INTER + INTRA:          -4.392
REMARK INTER:                  -4.294
REMARK INTRA:                  -0.098
REMARK UNBOUND:                -0.087
REMARK SMILES C=C(C)[C@@H]1CC=C(C)C(=O)C1
REMARK SMILES IDX 8 1 7 2 6 3 5 4 4 5 11 6 9 7 10 8 2 9 1 10 3 11
REMARK H PARENT
REMARK Flexibility Score: inf
ROOT
ATOM      1  C   UNL     1      19.735  27.319  28.666  1.00  0.00     0.048 C 
ATOM      2  C   UNL     1      18.804  28.490  28.816  1.00  0.00    -0.012 C 
ATOM      3  C   UNL     1      19.292  29.742  28.773  1.00  0.00    -0.019 C 
ATOM      4  C   UNL     1      18.402  30.950  28.901  1.00  0.00     0.036 C 
ATOM      5  C   UNL     1      17.204  30.662  29.822  1.00  0.00     0.025 C 
ATOM      6  C   UNL     1      16.436  29.422  29.329  1.00  0.00     0.089 C 
ATOM      7  C   UNL     1      17.373  28.261  29.137  1.00  0.00     0.158 C 
ATOM      8  O   UNL     1      16.920  27.088  29.213  1.00  0.00    -0.295 OA
ENDROOT
BRANCH   5   9
ATOM      9  C   UNL     1      16.288  31.873  29.943  1.00  0.00    -0.077 C 
ATOM     10  C   UNL     1      16.443  32.920  29.117  1.00  0.00     0.008 C 
ATOM     11  C   UNL     1      15.196  31.930  30.982  1.00  0.00     0.039 C 
ENDBRANCH   5   9
TORSDOF 1
ENDMDL
