MODEL 1
REMARK VINA RESULT:    -5.431      0.000      0.000
REMARK INTER + INTRA:          -5.965
REMARK INTER:                  -5.907
REMARK INTRA:                  -0.058
REMARK UNBOUND:                -0.058
REMARK SMILES CCc1cccc(O)c1
REMARK SMILES IDX 3 1 9 2 7 3 6 4 5 5 4 6 2 7 1 8 8 9
REMARK H PARENT 8 10
REMARK Flexibility Score: inf
ROOT
ATOM      1  C   UNL     1       3.513   5.084 -30.112  1.00  0.00    -0.045 A 
ATOM      2  C   UNL     1       4.345   6.192 -30.347  1.00  0.00     0.049 A 
ATOM      3  C   UNL     1       5.514   6.049 -31.110  1.00  0.00     0.115 A 
ATOM      4  C   UNL     1       5.846   4.801 -31.646  1.00  0.00     0.046 A 
ATOM      5  C   UNL     1       5.016   3.699 -31.427  1.00  0.00     0.004 A 
ATOM      6  C   UNL     1       3.851   3.838 -30.668  1.00  0.00     0.004 A 
ENDROOT
BRANCH   1   7
ATOM      7  C   UNL     1       2.242   5.243 -29.321  1.00  0.00     0.032 C 
ATOM      8  C   UNL     1       1.030   5.269 -30.247  1.00  0.00     0.009 C 
ENDBRANCH   1   7
BRANCH   3   9
ATOM      9  O   UNL     1       6.347   7.141 -31.342  1.00  0.00    -0.508 OA
ATOM     10  H   UNL     1       7.343   7.096 -31.158  1.00  0.00     0.293 HD
ENDBRANCH   3   9
TORSDOF 2
ENDMDL
MODEL 2
REMARK VINA RESULT:    -5.300      1.538      2.228
REMARK INTER + INTRA:          -5.822
REMARK INTER:                  -5.774
REMARK INTRA:                  -0.048
REMARK UNBOUND:                -0.058
REMARK SMILES CCc1cccc(O)c1
REMARK SMILES IDX 3 1 9 2 7 3 6 4 5 5 4 6 2 7 1 8 8 9
REMARK H PARENT 8 10
REMARK Flexibility Score: inf
ROOT
ATOM      1  C   UNL     1       3.800   5.165 -30.115  1.00  0.00    -0.045 A 
ATOM      2  C   UNL     1       4.293   3.942 -30.601  1.00  0.00     0.049 A 
ATOM      3  C   UNL     1       5.502   3.900 -31.311  1.00  0.00     0.115 A 
ATOM      4  C   UNL     1       6.223   5.078 -31.528  1.00  0.00     0.046 A 
ATOM      5  C   UNL     1       5.745   6.294 -31.035  1.00  0.00     0.004 A 
ATOM      6  C   UNL     1       4.541   6.340 -30.327  1.00  0.00     0.004 A 
ENDROOT
BRANCH   1   7
ATOM      7  C   UNL     1       2.520   5.207 -29.324  1.00  0.00     0.032 C 
ATOM      8  C   UNL     1       1.313   5.269 -30.253  1.00  0.00     0.009 C 
ENDBRANCH   1   7
BRANCH   3   9
ATOM      9  O   UNL     1       5.994   2.692 -31.802  1.00  0.00    -0.508 OA
ATOM     10  H   UNL     1       6.566   2.654 -32.638  1.00  0.00     0.293 HD
ENDBRANCH   3   9
TORSDOF 2
ENDMDL
MODEL 3
REMARK VINA RESULT:    -5.282      2.091      3.963
REMARK INTER + INTRA:          -5.803
REMARK INTER:                  -5.754
REMARK INTRA:                  -0.049
REMARK UNBOUND:                -0.058
REMARK SMILES CCc1cccc(O)c1
REMARK SMILES IDX 3 1 9 2 7 3 6 4 5 5 4 6 2 7 1 8 8 9
REMARK H PARENT 8 10
REMARK Flexibility Score: inf
ROOT
ATOM      1  C   UNL     1       5.033   5.699 -30.833  1.00  0.00    -0.045 A 
ATOM      2  C   UNL     1       4.736   4.442 -31.387  1.00  0.00     0.049 A 
ATOM      3  C   UNL     1       3.588   3.745 -30.983  1.00  0.00     0.115 A 
ATOM      4  C   UNL     1       2.732   4.308 -30.031  1.00  0.00     0.046 A 
ATOM      5  C   UNL     1       3.015   5.563 -29.488  1.00  0.00     0.004 A 
ATOM      6  C   UNL     1       4.158   6.260 -29.888  1.00  0.00     0.004 A 
ENDROOT
BRANCH   1   7
ATOM      7  C   UNL     1       6.248   6.463 -31.291  1.00  0.00     0.032 C 
ATOM      8  C   UNL     1       7.320   5.512 -31.811  1.00  0.00     0.009 C 
ENDBRANCH   1   7
BRANCH   3   9
ATOM      9  O   UNL     1       3.290   2.496 -31.523  1.00  0.00    -0.508 OA
ATOM     10  H   UNL     1       3.963   1.738 -31.507  1.00  0.00     0.293 HD
ENDBRANCH   3   9
TORSDOF 2
ENDMDL
MODEL 4
REMARK VINA RESULT:    -4.800      1.449      2.611
REMARK INTER + INTRA:          -5.279
REMARK INTER:                  -5.233
REMARK INTRA:                  -0.046
REMARK UNBOUND:                -0.058
REMARK SMILES CCc1cccc(O)c1
REMARK SMILES IDX 3 1 9 2 7 3 6 4 5 5 4 6 2 7 1 8 8 9
REMARK H PARENT 8 10
REMARK Flexibility Score: inf
ROOT
ATOM      1  C   UNL     1       3.586   4.066 -31.363  1.00  0.00    -0.045 A 
ATOM      2  C   UNL     1       4.626   4.963 -31.658  1.00  0.00     0.049 A 
ATOM      3  C   UNL     1       4.884   6.050 -30.811  1.00  0.00     0.115 A 
ATOM      4  C   UNL     1       4.107   6.237 -29.663  1.00  0.00     0.046 A 
ATOM      5  C   UNL     1       3.081   5.340 -29.356  1.00  0.00     0.004 A 
ATOM      6  C   UNL     1       2.822   4.255 -30.199  1.00  0.00     0.004 A 
ENDROOT
BRANCH   1   7
ATOM      7  C   UNL     1       3.329   2.879 -32.254  1.00  0.00     0.032 C 
ATOM      8  C   UNL     1       2.782   3.327 -33.605  1.00  0.00     0.009 C 
ENDBRANCH   1   7
BRANCH   3   9
ATOM      9  O   UNL     1       5.909   6.948 -31.101  1.00  0.00    -0.508 OA
ATOM     10  H   UNL     1       6.221   7.107 -32.053  1.00  0.00     0.293 HD
ENDBRANCH   3   9
TORSDOF 2
ENDMDL
MODEL 5
REMARK VINA RESULT:    -4.779      2.099      4.138
REMARK INTER + INTRA:          -5.256
REMARK INTER:                  -5.184
REMARK INTRA:                  -0.072
REMARK UNBOUND:                -0.058
REMARK SMILES CCc1cccc(O)c1
REMARK SMILES IDX 3 1 9 2 7 3 6 4 5 5 4 6 2 7 1 8 8 9
REMARK H PARENT 8 10
REMARK Flexibility Score: inf
ROOT
ATOM      1  C   UNL     1       5.784   5.259 -31.316  1.00  0.00    -0.045 A 
ATOM      2  C   UNL     1       5.090   4.057 -31.540  1.00  0.00     0.049 A 
ATOM      3  C   UNL     1       3.819   3.860 -30.982  1.00  0.00     0.115 A 
ATOM      4  C   UNL     1       3.236   4.867 -30.207  1.00  0.00     0.046 A 
ATOM      5  C   UNL     1       3.914   6.070 -29.992  1.00  0.00     0.004 A 
ATOM      6  C   UNL     1       5.181   6.269 -30.547  1.00  0.00     0.004 A 
ENDROOT
BRANCH   1   7
ATOM      7  C   UNL     1       7.134   5.485 -31.942  1.00  0.00     0.032 C 
ATOM      8  C   UNL     1       7.298   6.942 -32.360  1.00  0.00     0.009 C 
ENDBRANCH   1   7
BRANCH   3   9
ATOM      9  O   UNL     1       3.128   2.669 -31.194  1.00  0.00    -0.508 OA
ATOM     10  H   UNL     1       2.129   2.660 -31.370  1.00  0.00     0.293 HD
ENDBRANCH   3   9
TORSDOF 2
ENDMDL
MODEL 6
REMARK VINA RESULT:    -4.768      2.063      3.621
REMARK INTER + INTRA:          -5.244
REMARK INTER:                  -5.170
REMARK INTRA:                  -0.074
REMARK UNBOUND:                -0.058
REMARK SMILES CCc1cccc(O)c1
REMARK SMILES IDX 3 1 9 2 7 3 6 4 5 5 4 6 2 7 1 8 8 9
REMARK H PARENT 8 10
REMARK Flexibility Score: inf
ROOT
ATOM      1  C   UNL     1       4.731   5.626 -30.736  1.00  0.00    -0.045 A 
ATOM      2  C   UNL     1       3.558   6.187 -30.204  1.00  0.00     0.049 A 
ATOM      3  C   UNL     1       2.401   5.405 -30.064  1.00  0.00     0.115 A 
ATOM      4  C   UNL     1       2.420   4.061 -30.446  1.00  0.00     0.046 A 
ATOM      5  C   UNL     1       3.588   3.493 -30.961  1.00  0.00     0.004 A 
ATOM      6  C   UNL     1       4.742   4.269 -31.102  1.00  0.00     0.004 A 
ENDROOT
BRANCH   1   7
ATOM      7  C   UNL     1       5.983   6.454 -30.856  1.00  0.00     0.032 C 
ATOM      8  C   UNL     1       7.004   5.762 -31.752  1.00  0.00     0.009 C 
ENDBRANCH   1   7
BRANCH   3   9
ATOM      9  O   UNL     1       1.232   5.956 -29.544  1.00  0.00    -0.508 OA
ATOM     10  H   UNL     1       1.253   6.771 -28.941  1.00  0.00     0.293 HD
ENDBRANCH   3   9
TORSDOF 2
ENDMDL
MODEL 7
REMARK VINA RESULT:    -4.767      2.468      4.073
REMARK INTER + INTRA:          -5.243
REMARK INTER:                  -5.169
REMARK INTRA:                  -0.073
REMARK UNBOUND:                -0.058
REMARK SMILES CCc1cccc(O)c1
REMARK SMILES IDX 3 1 9 2 7 3 6 4 5 5 4 6 2 7 1 8 8 9
REMARK H PARENT 8 10
REMARK Flexibility Score: inf
ROOT
ATOM      1  C   UNL     1       3.532   4.022 -31.267  1.00  0.00    -0.045 A 
ATOM      2  C   UNL     1       2.359   4.433 -31.923  1.00  0.00     0.049 A 
ATOM      3  C   UNL     1       1.404   5.206 -31.247  1.00  0.00     0.115 A 
ATOM      4  C   UNL     1       1.624   5.576 -29.916  1.00  0.00     0.046 A 
ATOM      5  C   UNL     1       2.795   5.183 -29.263  1.00  0.00     0.004 A 
ATOM      6  C   UNL     1       3.749   4.413 -29.935  1.00  0.00     0.004 A 
ENDROOT
BRANCH   1   7
ATOM      7  C   UNL     1       4.573   3.221 -32.002  1.00  0.00     0.032 C 
ATOM      8  C   UNL     1       5.965   3.508 -31.449  1.00  0.00     0.009 C 
ENDBRANCH   1   7
BRANCH   3   9
ATOM      9  O   UNL     1       0.236   5.611 -31.888  1.00  0.00    -0.508 OA
ATOM     10  H   UNL     1       0.212   6.440 -32.471  1.00  0.00     0.293 HD
ENDBRANCH   3   9
TORSDOF 2
ENDMDL
MODEL 8
REMARK VINA RESULT:    -4.559      1.923      2.327
REMARK INTER + INTRA:          -5.017
REMARK INTER:                  -4.941
REMARK INTRA:                  -0.076
REMARK UNBOUND:                -0.058
REMARK SMILES CCc1cccc(O)c1
REMARK SMILES IDX 3 1 9 2 7 3 6 4 5 5 4 6 2 7 1 8 8 9
REMARK H PARENT 8 10
REMARK Flexibility Score: inf
ROOT
ATOM      1  C   UNL     1       3.229   4.405 -30.741  1.00  0.00    -0.045 A 
ATOM      2  C   UNL     1       4.551   3.930 -30.700  1.00  0.00     0.049 A 
ATOM      3  C   UNL     1       5.148   3.399 -31.852  1.00  0.00     0.115 A 
ATOM      4  C   UNL     1       4.427   3.350 -33.049  1.00  0.00     0.046 A 
ATOM      5  C   UNL     1       3.117   3.834 -33.101  1.00  0.00     0.004 A 
ATOM      6  C   UNL     1       2.520   4.364 -31.953  1.00  0.00     0.004 A 
ENDROOT
BRANCH   1   7
ATOM      7  C   UNL     1       2.599   5.006 -29.513  1.00  0.00     0.032 C 
ATOM      8  C   UNL     1       1.219   5.570 -29.836  1.00  0.00     0.009 C 
ENDBRANCH   1   7
BRANCH   3   9
ATOM      9  O   UNL     1       6.455   2.920 -31.817  1.00  0.00    -0.508 OA
ATOM     10  H   UNL     1       7.046   2.931 -32.641  1.00  0.00     0.293 HD
ENDBRANCH   3   9
TORSDOF 2
ENDMDL
MODEL 9
REMARK VINA RESULT:    -4.335      1.706      3.925
REMARK INTER + INTRA:          -4.774
REMARK INTER:                  -4.722
REMARK INTRA:                  -0.052
REMARK UNBOUND:                -0.058
REMARK SMILES CCc1cccc(O)c1
REMARK SMILES IDX 3 1 9 2 7 3 6 4 5 5 4 6 2 7 1 8 8 9
REMARK H PARENT 8 10
REMARK Flexibility Score: inf
ROOT
ATOM      1  C   UNL     1       6.591   5.034 -31.888  1.00  0.00    -0.045 A 
ATOM      2  C   UNL     1       5.969   6.108 -31.228  1.00  0.00     0.049 A 
ATOM      3  C   UNL     1       4.774   5.907 -30.521  1.00  0.00     0.115 A 
ATOM      4  C   UNL     1       4.205   4.631 -30.466  1.00  0.00     0.046 A 
ATOM      5  C   UNL     1       4.826   3.557 -31.108  1.00  0.00     0.004 A 
ATOM      6  C   UNL     1       6.017   3.754 -31.813  1.00  0.00     0.004 A 
ENDROOT
BRANCH   1   7
ATOM      7  C   UNL     1       7.890   5.242 -32.619  1.00  0.00     0.032 C 
ATOM      8  C   UNL     1       8.497   6.596 -32.267  1.00  0.00     0.009 C 
ENDBRANCH   1   7
BRANCH   3   9
ATOM      9  O   UNL     1       4.148   6.968 -29.871  1.00  0.00    -0.508 OA
ATOM     10  H   UNL     1       3.310   7.398 -30.244  1.00  0.00     0.293 HD
ENDBRANCH   3   9
TORSDOF 2
ENDMDL
