MODEL 1
REMARK VINA RESULT:    -3.490      0.000      0.000
REMARK INTER + INTRA:          -8.499
REMARK INTER:                  -6.754
REMARK INTRA:                  -1.745
REMARK UNBOUND:                -1.745
REMARK SMILES CCCCCCCCCCCCCCCCCC(=O)[O-]
REMARK SMILES IDX 10 1 11 2 12 3 13 4 14 5 15 6 16 7 17 8 18 9 19 10 20 11
REMARK SMILES IDX 9 12 8 13 7 14 6 15 5 16 4 17 3 18 2 19 1 20
REMARK H PARENT
REMARK Flexibility Score: inf
ROOT
ATOM      1  C   UNL     1     -38.837 -33.027  24.000  1.00  0.00     0.000 C 
ENDROOT
BRANCH   1   2
ATOM      2  C   UNL     1     -39.840 -31.878  24.199  1.00  0.00     0.000 C 
BRANCH   2   3
ATOM      3  C   UNL     1     -41.092 -32.315  24.977  1.00  0.00     0.000 C 
BRANCH   3   4
ATOM      4  C   UNL     1     -42.398 -31.907  24.278  1.00  0.00     0.000 C 
BRANCH   4   5
ATOM      5  C   UNL     1     -43.108 -33.134  23.686  1.00  0.00     0.000 C 
BRANCH   5   6
ATOM      6  C   UNL     1     -44.637 -33.059  23.826  1.00  0.00     0.000 C 
BRANCH   6   7
ATOM      7  C   UNL     1     -45.371 -33.913  22.782  1.00  0.00     0.006 C 
BRANCH   7   8
ATOM      8  C   UNL     1     -44.377 -34.643  21.874  1.00  0.00     0.053 C 
BRANCH   8   9
ATOM      9  C   UNL     1     -44.954 -35.941  21.404  1.00  0.00     0.041 C 
ATOM     10  O   UNL     1     -46.101 -36.300  21.782  1.00  0.00    -0.550 OA
ATOM     11  O   UNL     1     -44.204 -36.779  20.588  1.00  0.00    -0.550 OA
ENDBRANCH   8   9
ENDBRANCH   7   8
ENDBRANCH   6   7
ENDBRANCH   5   6
ENDBRANCH   4   5
ENDBRANCH   3   4
ENDBRANCH   2   3
ENDBRANCH   1   2
BRANCH   1  12
ATOM     12  C   UNL     1     -37.771 -33.087  25.111  1.00  0.00     0.000 C 
BRANCH  12  13
ATOM     13  C   UNL     1     -38.002 -34.166  26.188  1.00  0.00    -0.000 C 
BRANCH  13  14
ATOM     14  C   UNL     1     -37.663 -33.741  27.628  1.00  0.00    -0.000 C 
BRANCH  14  15
ATOM     15  C   UNL     1     -38.251 -32.369  28.000  1.00  0.00    -0.000 C 
BRANCH  15  16
ATOM     16  C   UNL     1     -39.363 -32.471  29.058  1.00  0.00    -0.000 C 
BRANCH  16  17
ATOM     17  C   UNL     1     -40.770 -32.343  28.455  1.00  0.00    -0.000 C 
BRANCH  17  18
ATOM     18  C   UNL     1     -41.700 -33.437  29.001  1.00  0.00    -0.000 C 
BRANCH  18  19
ATOM     19  C   UNL     1     -42.746 -33.892  27.972  1.00  0.00    -0.003 C 
ATOM     20  C   UNL     1     -43.731 -32.783  27.602  1.00  0.00     0.004 C 
ENDBRANCH  18  19
ENDBRANCH  17  18
ENDBRANCH  16  17
ENDBRANCH  15  16
ENDBRANCH  14  15
ENDBRANCH  13  14
ENDBRANCH  12  13
ENDBRANCH   1  12
TORSDOF 16
ENDMDL
MODEL 2
REMARK VINA RESULT:    -3.353      5.890      9.826
REMARK INTER + INTRA:          -8.235
REMARK INTER:                  -7.113
REMARK INTRA:                  -1.123
REMARK UNBOUND:                -1.745
REMARK SMILES CCCCCCCCCCCCCCCCCC(=O)[O-]
REMARK SMILES IDX 10 1 11 2 12 3 13 4 14 5 15 6 16 7 17 8 18 9 19 10 20 11
REMARK SMILES IDX 9 12 8 13 7 14 6 15 5 16 4 17 3 18 2 19 1 20
REMARK H PARENT
REMARK Flexibility Score: inf
ROOT
ATOM      1  C   UNL     1     -44.432 -37.527  16.972  1.00  0.00     0.000 C 
ENDROOT
BRANCH   1   2
ATOM      2  C   UNL     1     -45.196 -37.914  15.694  1.00  0.00     0.000 C 
BRANCH   2   3
ATOM      3  C   UNL     1     -44.273 -38.045  14.471  1.00  0.00     0.000 C 
BRANCH   3   4
ATOM      4  C   UNL     1     -45.042 -38.351  13.176  1.00  0.00     0.000 C 
BRANCH   4   5
ATOM      5  C   UNL     1     -46.017 -37.214  12.837  1.00  0.00     0.000 C 
BRANCH   5   6
ATOM      6  C   UNL     1     -45.312 -35.987  12.238  1.00  0.00     0.000 C 
BRANCH   6   7
ATOM      7  C   UNL     1     -45.999 -34.665  12.614  1.00  0.00     0.006 C 
BRANCH   7   8
ATOM      8  C   UNL     1     -45.732 -34.307  14.079  1.00  0.00     0.053 C 
BRANCH   8   9
ATOM      9  C   UNL     1     -45.322 -32.873  14.201  1.00  0.00     0.041 C 
ATOM     10  O   UNL     1     -44.934 -32.236  13.186  1.00  0.00    -0.550 OA
ATOM     11  O   UNL     1     -45.323 -32.253  15.444  1.00  0.00    -0.550 OA
ENDBRANCH   8   9
ENDBRANCH   7   8
ENDBRANCH   6   7
ENDBRANCH   5   6
ENDBRANCH   4   5
ENDBRANCH   3   4
ENDBRANCH   2   3
ENDBRANCH   1   2
BRANCH   1  12
ATOM     12  C   UNL     1     -45.359 -37.337  18.186  1.00  0.00     0.000 C 
BRANCH  12  13
ATOM     13  C   UNL     1     -44.662 -36.873  19.482  1.00  0.00    -0.000 C 
BRANCH  13  14
ATOM     14  C   UNL     1     -45.309 -37.364  20.789  1.00  0.00    -0.000 C 
BRANCH  14  15
ATOM     15  C   UNL     1     -45.715 -36.212  21.723  1.00  0.00    -0.000 C 
BRANCH  15  16
ATOM     16  C   UNL     1     -45.938 -34.890  20.968  1.00  0.00    -0.000 C 
BRANCH  16  17
ATOM     17  C   UNL     1     -45.360 -33.677  21.712  1.00  0.00    -0.000 C 
BRANCH  17  18
ATOM     18  C   UNL     1     -44.155 -34.086  22.573  1.00  0.00    -0.000 C 
BRANCH  18  19
ATOM     19  C   UNL     1     -44.038 -33.256  23.860  1.00  0.00    -0.003 C 
ATOM     20  C   UNL     1     -42.763 -32.413  23.905  1.00  0.00     0.004 C 
ENDBRANCH  18  19
ENDBRANCH  17  18
ENDBRANCH  16  17
ENDBRANCH  15  16
ENDBRANCH  14  15
ENDBRANCH  13  14
ENDBRANCH  12  13
ENDBRANCH   1  12
TORSDOF 16
ENDMDL
MODEL 3
REMARK VINA RESULT:    -3.279      6.064     11.443
REMARK INTER + INTRA:          -8.091
REMARK INTER:                  -6.515
REMARK INTRA:                  -1.576
REMARK UNBOUND:                -1.745
REMARK SMILES CCCCCCCCCCCCCCCCCC(=O)[O-]
REMARK SMILES IDX 10 1 11 2 12 3 13 4 14 5 15 6 16 7 17 8 18 9 19 10 20 11
REMARK SMILES IDX 9 12 8 13 7 14 6 15 5 16 4 17 3 18 2 19 1 20
REMARK H PARENT
REMARK Flexibility Score: inf
ROOT
ATOM      1  C   UNL     1     -44.193 -37.826  16.146  1.00  0.00     0.000 C 
ENDROOT
BRANCH   1   2
ATOM      2  C   UNL     1     -45.585 -37.690  16.786  1.00  0.00     0.000 C 
BRANCH   2   3
ATOM      3  C   UNL     1     -46.007 -36.224  16.973  1.00  0.00     0.000 C 
BRANCH   3   4
ATOM      4  C   UNL     1     -46.050 -35.801  18.449  1.00  0.00     0.000 C 
BRANCH   4   5
ATOM      5  C   UNL     1     -44.766 -36.224  19.178  1.00  0.00     0.000 C 
BRANCH   5   6
ATOM      6  C   UNL     1     -45.049 -37.005  20.471  1.00  0.00     0.000 C 
BRANCH   6   7
ATOM      7  C   UNL     1     -45.438 -36.091  21.642  1.00  0.00     0.006 C 
BRANCH   7   8
ATOM      8  C   UNL     1     -44.453 -34.926  21.780  1.00  0.00     0.053 C 
BRANCH   8   9
ATOM      9  C   UNL     1     -45.189 -33.628  21.889  1.00  0.00     0.041 C 
ATOM     10  O   UNL     1     -45.913 -33.228  20.939  1.00  0.00    -0.550 OA
ATOM     11  O   UNL     1     -45.037 -32.836  23.020  1.00  0.00    -0.550 OA
ENDBRANCH   8   9
ENDBRANCH   7   8
ENDBRANCH   6   7
ENDBRANCH   5   6
ENDBRANCH   4   5
ENDBRANCH   3   4
ENDBRANCH   2   3
ENDBRANCH   1   2
BRANCH   1  12
ATOM     12  C   UNL     1     -44.243 -38.442  14.735  1.00  0.00     0.000 C 
BRANCH  12  13
ATOM     13  C   UNL     1     -44.359 -37.429  13.578  1.00  0.00    -0.000 C 
BRANCH  13  14
ATOM     14  C   UNL     1     -45.748 -37.333  12.924  1.00  0.00    -0.000 C 
BRANCH  14  15
ATOM     15  C   UNL     1     -46.022 -35.954  12.301  1.00  0.00    -0.000 C 
BRANCH  15  16
ATOM     16  C   UNL     1     -46.124 -34.840  13.356  1.00  0.00    -0.000 C 
BRANCH  16  17
ATOM     17  C   UNL     1     -45.807 -33.449  12.785  1.00  0.00    -0.000 C 
BRANCH  17  18
ATOM     18  C   UNL     1     -45.647 -32.418  13.913  1.00  0.00    -0.000 C 
BRANCH  18  19
ATOM     19  C   UNL     1     -45.190 -33.054  15.234  1.00  0.00    -0.003 C 
ATOM     20  C   UNL     1     -45.133 -32.049  16.385  1.00  0.00     0.004 C 
ENDBRANCH  18  19
ENDBRANCH  17  18
ENDBRANCH  16  17
ENDBRANCH  15  16
ENDBRANCH  14  15
ENDBRANCH  13  14
ENDBRANCH  12  13
ENDBRANCH   1  12
TORSDOF 16
ENDMDL
MODEL 4
REMARK VINA RESULT:    -3.237      6.004     11.342
REMARK INTER + INTRA:          -8.011
REMARK INTER:                  -6.580
REMARK INTRA:                  -1.431
REMARK UNBOUND:                -1.745
REMARK SMILES CCCCCCCCCCCCCCCCCC(=O)[O-]
REMARK SMILES IDX 10 1 11 2 12 3 13 4 14 5 15 6 16 7 17 8 18 9 19 10 20 11
REMARK SMILES IDX 9 12 8 13 7 14 6 15 5 16 4 17 3 18 2 19 1 20
REMARK H PARENT
REMARK Flexibility Score: inf
ROOT
ATOM      1  C   UNL     1     -43.698 -38.215  14.253  1.00  0.00     0.000 C 
ENDROOT
BRANCH   1   2
ATOM      2  C   UNL     1     -44.078 -37.446  15.531  1.00  0.00     0.000 C 
BRANCH   2   3
ATOM      3  C   UNL     1     -44.583 -38.373  16.648  1.00  0.00     0.000 C 
BRANCH   3   4
ATOM      4  C   UNL     1     -45.999 -38.011  17.125  1.00  0.00     0.000 C 
BRANCH   4   5
ATOM      5  C   UNL     1     -46.119 -38.163  18.648  1.00  0.00     0.000 C 
BRANCH   5   6
ATOM      6  C   UNL     1     -45.893 -36.839  19.396  1.00  0.00     0.000 C 
BRANCH   6   7
ATOM      7  C   UNL     1     -45.348 -37.045  20.816  1.00  0.00     0.006 C 
BRANCH   7   8
ATOM      8  C   UNL     1     -45.559 -35.793  21.672  1.00  0.00     0.053 C 
BRANCH   8   9
ATOM      9  C   UNL     1     -44.281 -35.024  21.798  1.00  0.00     0.041 C 
ATOM     10  O   UNL     1     -43.235 -35.434  21.229  1.00  0.00    -0.550 OA
ATOM     11  O   UNL     1     -44.234 -33.880  22.585  1.00  0.00    -0.550 OA
ENDBRANCH   8   9
ENDBRANCH   7   8
ENDBRANCH   6   7
ENDBRANCH   5   6
ENDBRANCH   4   5
ENDBRANCH   3   4
ENDBRANCH   2   3
ENDBRANCH   1   2
BRANCH   1  12
ATOM     12  C   UNL     1     -44.332 -37.614  12.985  1.00  0.00     0.000 C 
BRANCH  12  13
ATOM     13  C   UNL     1     -45.383 -36.512  13.232  1.00  0.00    -0.000 C 
BRANCH  13  14
ATOM     14  C   UNL     1     -45.586 -35.524  12.070  1.00  0.00    -0.000 C 
BRANCH  14  15
ATOM     15  C   UNL     1     -45.939 -34.105  12.546  1.00  0.00    -0.000 C 
BRANCH  15  16
ATOM     16  C   UNL     1     -45.946 -33.982  14.079  1.00  0.00    -0.000 C 
BRANCH  16  17
ATOM     17  C   UNL     1     -45.500 -32.595  14.566  1.00  0.00    -0.000 C 
BRANCH  17  18
ATOM     18  C   UNL     1     -45.964 -32.347  16.009  1.00  0.00    -0.000 C 
BRANCH  18  19
ATOM     19  C   UNL     1     -46.125 -33.647  16.810  1.00  0.00    -0.003 C 
ATOM     20  C   UNL     1     -46.047 -33.425  18.321  1.00  0.00     0.004 C 
ENDBRANCH  18  19
ENDBRANCH  17  18
ENDBRANCH  16  17
ENDBRANCH  15  16
ENDBRANCH  14  15
ENDBRANCH  13  14
ENDBRANCH  12  13
ENDBRANCH   1  12
TORSDOF 16
ENDMDL
MODEL 5
REMARK VINA RESULT:    -3.229      5.206     10.811
REMARK INTER + INTRA:          -7.994
REMARK INTER:                  -6.752
REMARK INTRA:                  -1.243
REMARK UNBOUND:                -1.745
REMARK SMILES CCCCCCCCCCCCCCCCCC(=O)[O-]
REMARK SMILES IDX 10 1 11 2 12 3 13 4 14 5 15 6 16 7 17 8 18 9 19 10 20 11
REMARK SMILES IDX 9 12 8 13 7 14 6 15 5 16 4 17 3 18 2 19 1 20
REMARK H PARENT
REMARK Flexibility Score: inf
ROOT
ATOM      1  C   UNL     1     -44.617 -37.174  18.179  1.00  0.00     0.000 C 
ENDROOT
BRANCH   1   2
ATOM      2  C   UNL     1     -44.169 -36.985  19.638  1.00  0.00     0.000 C 
BRANCH   2   3
ATOM      3  C   UNL     1     -45.242 -37.426  20.647  1.00  0.00     0.000 C 
BRANCH   3   4
ATOM      4  C   UNL     1     -45.611 -36.318  21.645  1.00  0.00     0.000 C 
BRANCH   4   5
ATOM      5  C   UNL     1     -44.744 -35.069  21.422  1.00  0.00     0.000 C 
BRANCH   5   6
ATOM      6  C   UNL     1     -45.381 -33.795  21.999  1.00  0.00     0.000 C 
BRANCH   6   7
ATOM      7  C   UNL     1     -45.115 -33.627  23.502  1.00  0.00     0.006 C 
BRANCH   7   8
ATOM      8  C   UNL     1     -44.367 -32.321  23.783  1.00  0.00     0.053 C 
BRANCH   8   9
ATOM      9  C   UNL     1     -43.097 -32.594  24.526  1.00  0.00     0.041 C 
ATOM     10  O   UNL     1     -41.984 -32.343  23.993  1.00  0.00    -0.550 OA
ATOM     11  O   UNL     1     -43.142 -33.173  25.788  1.00  0.00    -0.550 OA
ENDBRANCH   8   9
ENDBRANCH   7   8
ENDBRANCH   6   7
ENDBRANCH   5   6
ENDBRANCH   4   5
ENDBRANCH   3   4
ENDBRANCH   2   3
ENDBRANCH   1   2
BRANCH   1  12
ATOM     12  C   UNL     1     -45.503 -36.020  17.673  1.00  0.00     0.000 C 
BRANCH  12  13
ATOM     13  C   UNL     1     -44.759 -34.705  17.362  1.00  0.00    -0.000 C 
BRANCH  13  14
ATOM     14  C   UNL     1     -45.137 -34.035  16.029  1.00  0.00    -0.000 C 
BRANCH  14  15
ATOM     15  C   UNL     1     -45.752 -35.019  15.019  1.00  0.00    -0.000 C 
BRANCH  15  16
ATOM     16  C   UNL     1     -45.720 -34.482  13.578  1.00  0.00    -0.000 C 
BRANCH  16  17
ATOM     17  C   UNL     1     -45.761 -35.601  12.527  1.00  0.00    -0.000 C 
BRANCH  17  18
ATOM     18  C   UNL     1     -44.566 -36.552  12.694  1.00  0.00    -0.000 C 
BRANCH  18  19
ATOM     19  C   UNL     1     -44.950 -37.866  13.392  1.00  0.00    -0.003 C 
ATOM     20  C   UNL     1     -44.025 -38.205  14.561  1.00  0.00     0.004 C 
ENDBRANCH  18  19
ENDBRANCH  17  18
ENDBRANCH  16  17
ENDBRANCH  15  16
ENDBRANCH  14  15
ENDBRANCH  13  14
ENDBRANCH  12  13
ENDBRANCH   1  12
TORSDOF 16
ENDMDL
MODEL 6
REMARK VINA RESULT:    -3.214      4.301      9.744
REMARK INTER + INTRA:          -7.965
REMARK INTER:                  -6.121
REMARK INTRA:                  -1.845
REMARK UNBOUND:                -1.745
REMARK SMILES CCCCCCCCCCCCCCCCCC(=O)[O-]
REMARK SMILES IDX 10 1 11 2 12 3 13 4 14 5 15 6 16 7 17 8 18 9 19 10 20 11
REMARK SMILES IDX 9 12 8 13 7 14 6 15 5 16 4 17 3 18 2 19 1 20
REMARK H PARENT
REMARK Flexibility Score: inf
ROOT
ATOM      1  C   UNL     1     -44.226 -36.683  19.513  1.00  0.00     0.000 C 
ENDROOT
BRANCH   1   2
ATOM      2  C   UNL     1     -44.052 -35.993  20.877  1.00  0.00     0.000 C 
BRANCH   2   3
ATOM      3  C   UNL     1     -45.382 -35.476  21.450  1.00  0.00     0.000 C 
BRANCH   3   4
ATOM      4  C   UNL     1     -45.321 -33.994  21.848  1.00  0.00     0.000 C 
BRANCH   4   5
ATOM      5  C   UNL     1     -44.134 -33.727  22.787  1.00  0.00     0.000 C 
BRANCH   5   6
ATOM      6  C   UNL     1     -44.576 -33.266  24.185  1.00  0.00     0.000 C 
BRANCH   6   7
ATOM      7  C   UNL     1     -43.571 -32.305  24.838  1.00  0.00     0.006 C 
BRANCH   7   8
ATOM      8  C   UNL     1     -42.283 -32.217  24.014  1.00  0.00     0.053 C 
BRANCH   8   9
ATOM      9  C   UNL     1     -41.088 -32.196  24.913  1.00  0.00     0.041 C 
ATOM     10  O   UNL     1     -41.235 -32.154  26.164  1.00  0.00    -0.550 OA
ATOM     11  O   UNL     1     -39.809 -32.174  24.369  1.00  0.00    -0.550 OA
ENDBRANCH   8   9
ENDBRANCH   7   8
ENDBRANCH   6   7
ENDBRANCH   5   6
ENDBRANCH   4   5
ENDBRANCH   3   4
ENDBRANCH   2   3
ENDBRANCH   1   2
BRANCH   1  12
ATOM     12  C   UNL     1     -45.675 -37.139  19.255  1.00  0.00     0.000 C 
BRANCH  12  13
ATOM     13  C   UNL     1     -45.886 -37.971  17.974  1.00  0.00    -0.000 C 
BRANCH  13  14
ATOM     14  C   UNL     1     -44.616 -38.241  17.148  1.00  0.00    -0.000 C 
BRANCH  14  15
ATOM     15  C   UNL     1     -44.721 -37.724  15.704  1.00  0.00    -0.000 C 
BRANCH  15  16
ATOM     16  C   UNL     1     -45.869 -36.717  15.519  1.00  0.00    -0.000 C 
BRANCH  16  17
ATOM     17  C   UNL     1     -45.454 -35.488  14.697  1.00  0.00    -0.000 C 
BRANCH  17  18
ATOM     18  C   UNL     1     -45.686 -34.194  15.493  1.00  0.00    -0.000 C 
BRANCH  18  19
ATOM     19  C   UNL     1     -44.913 -34.170  16.821  1.00  0.00    -0.003 C 
ATOM     20  C   UNL     1     -45.763 -33.671  17.990  1.00  0.00     0.004 C 
ENDBRANCH  18  19
ENDBRANCH  17  18
ENDBRANCH  16  17
ENDBRANCH  15  16
ENDBRANCH  14  15
ENDBRANCH  13  14
ENDBRANCH  12  13
ENDBRANCH   1  12
TORSDOF 16
ENDMDL
MODEL 7
REMARK VINA RESULT:    -3.173      5.325     10.815
REMARK INTER + INTRA:          -7.885
REMARK INTER:                  -7.027
REMARK INTRA:                  -0.859
REMARK UNBOUND:                -1.745
REMARK SMILES CCCCCCCCCCCCCCCCCC(=O)[O-]
REMARK SMILES IDX 10 1 11 2 12 3 13 4 14 5 15 6 16 7 17 8 18 9 19 10 20 11
REMARK SMILES IDX 9 12 8 13 7 14 6 15 5 16 4 17 3 18 2 19 1 20
REMARK H PARENT
REMARK Flexibility Score: inf
ROOT
ATOM      1  C   UNL     1     -45.257 -35.750  19.589  1.00  0.00     0.000 C 
ENDROOT
BRANCH   1   2
ATOM      2  C   UNL     1     -44.552 -35.789  20.956  1.00  0.00     0.000 C 
BRANCH   2   3
ATOM      3  C   UNL     1     -45.335 -35.037  22.045  1.00  0.00     0.000 C 
BRANCH   3   4
ATOM      4  C   UNL     1     -45.378 -33.520  21.805  1.00  0.00     0.000 C 
BRANCH   4   5
ATOM      5  C   UNL     1     -44.823 -32.758  23.018  1.00  0.00     0.000 C 
BRANCH   5   6
ATOM      6  C   UNL     1     -43.458 -33.293  23.480  1.00  0.00     0.000 C 
BRANCH   6   7
ATOM      7  C   UNL     1     -42.908 -32.541  24.701  1.00  0.00     0.006 C 
BRANCH   7   8
ATOM      8  C   UNL     1     -43.535 -33.065  25.996  1.00  0.00     0.053 C 
BRANCH   8   9
ATOM      9  C   UNL     1     -42.474 -33.376  27.004  1.00  0.00     0.041 C 
ATOM     10  O   UNL     1     -42.737 -34.104  27.997  1.00  0.00    -0.550 OA
ATOM     11  O   UNL     1     -41.207 -32.821  26.871  1.00  0.00    -0.550 OA
ENDBRANCH   8   9
ENDBRANCH   7   8
ENDBRANCH   6   7
ENDBRANCH   5   6
ENDBRANCH   4   5
ENDBRANCH   3   4
ENDBRANCH   2   3
ENDBRANCH   1   2
BRANCH   1  12
ATOM     12  C   UNL     1     -44.841 -36.915  18.671  1.00  0.00     0.000 C 
BRANCH  12  13
ATOM     13  C   UNL     1     -45.995 -37.594  17.906  1.00  0.00    -0.000 C 
BRANCH  13  14
ATOM     14  C   UNL     1     -45.601 -38.255  16.573  1.00  0.00    -0.000 C 
BRANCH  14  15
ATOM     15  C   UNL     1     -44.891 -37.286  15.613  1.00  0.00    -0.000 C 
BRANCH  15  16
ATOM     16  C   UNL     1     -43.950 -38.008  14.634  1.00  0.00    -0.000 C 
BRANCH  16  17
ATOM     17  C   UNL     1     -44.405 -37.885  13.172  1.00  0.00    -0.000 C 
BRANCH  17  18
ATOM     18  C   UNL     1     -45.665 -37.012  13.063  1.00  0.00    -0.000 C 
BRANCH  18  19
ATOM     19  C   UNL     1     -45.428 -35.730  12.251  1.00  0.00    -0.003 C 
ATOM     20  C   UNL     1     -45.551 -34.463  13.098  1.00  0.00     0.004 C 
ENDBRANCH  18  19
ENDBRANCH  17  18
ENDBRANCH  16  17
ENDBRANCH  15  16
ENDBRANCH  14  15
ENDBRANCH  13  14
ENDBRANCH  12  13
ENDBRANCH   1  12
TORSDOF 16
ENDMDL
MODEL 8
REMARK VINA RESULT:    -3.115      5.719     10.152
REMARK INTER + INTRA:          -7.774
REMARK INTER:                  -6.700
REMARK INTRA:                  -1.074
REMARK UNBOUND:                -1.745
REMARK SMILES CCCCCCCCCCCCCCCCCC(=O)[O-]
REMARK SMILES IDX 10 1 11 2 12 3 13 4 14 5 15 6 16 7 17 8 18 9 19 10 20 11
REMARK SMILES IDX 9 12 8 13 7 14 6 15 5 16 4 17 3 18 2 19 1 20
REMARK H PARENT
REMARK Flexibility Score: inf
ROOT
ATOM      1  C   UNL     1     -43.873 -37.673  14.947  1.00  0.00     0.000 C 
ENDROOT
BRANCH   1   2
ATOM      2  C   UNL     1     -44.926 -38.238  13.978  1.00  0.00     0.000 C 
BRANCH   2   3
ATOM      3  C   UNL     1     -45.451 -37.179  12.995  1.00  0.00     0.000 C 
BRANCH   3   4
ATOM      4  C   UNL     1     -45.911 -35.892  13.698  1.00  0.00     0.000 C 
BRANCH   4   5
ATOM      5  C   UNL     1     -45.584 -34.657  12.846  1.00  0.00     0.000 C 
BRANCH   5   6
ATOM      6  C   UNL     1     -46.047 -33.346  13.502  1.00  0.00     0.000 C 
BRANCH   6   7
ATOM      7  C   UNL     1     -44.998 -32.757  14.456  1.00  0.00     0.006 C 
BRANCH   7   8
ATOM      8  C   UNL     1     -45.657 -32.213  15.727  1.00  0.00     0.053 C 
BRANCH   8   9
ATOM      9  C   UNL     1     -45.246 -33.020  16.917  1.00  0.00     0.041 C 
ATOM     10  O   UNL     1     -45.678 -32.726  18.063  1.00  0.00    -0.550 OA
ATOM     11  O   UNL     1     -44.347 -34.069  16.769  1.00  0.00    -0.550 OA
ENDBRANCH   8   9
ENDBRANCH   7   8
ENDBRANCH   6   7
ENDBRANCH   5   6
ENDBRANCH   4   5
ENDBRANCH   3   4
ENDBRANCH   2   3
ENDBRANCH   1   2
BRANCH   1  12
ATOM     12  C   UNL     1     -44.270 -37.844  16.425  1.00  0.00     0.000 C 
BRANCH  12  13
ATOM     13  C   UNL     1     -45.715 -38.327  16.667  1.00  0.00    -0.000 C 
BRANCH  13  14
ATOM     14  C   UNL     1     -46.121 -38.472  18.145  1.00  0.00    -0.000 C 
BRANCH  14  15
ATOM     15  C   UNL     1     -45.957 -37.165  18.940  1.00  0.00    -0.000 C 
BRANCH  15  16
ATOM     16  C   UNL     1     -44.720 -37.182  19.853  1.00  0.00    -0.000 C 
BRANCH  16  17
ATOM     17  C   UNL     1     -45.015 -36.643  21.262  1.00  0.00    -0.000 C 
BRANCH  17  18
ATOM     18  C   UNL     1     -44.434 -35.232  21.439  1.00  0.00    -0.000 C 
BRANCH  18  19
ATOM     19  C   UNL     1     -45.207 -34.400  22.474  1.00  0.00    -0.003 C 
ATOM     20  C   UNL     1     -44.456 -33.137  22.896  1.00  0.00     0.004 C 
ENDBRANCH  18  19
ENDBRANCH  17  18
ENDBRANCH  16  17
ENDBRANCH  15  16
ENDBRANCH  14  15
ENDBRANCH  13  14
ENDBRANCH  12  13
ENDBRANCH   1  12
TORSDOF 16
ENDMDL
MODEL 9
REMARK VINA RESULT:    -3.089      3.283      6.100
REMARK INTER + INTRA:          -7.724
REMARK INTER:                  -6.758
REMARK INTRA:                  -0.966
REMARK UNBOUND:                -1.745
REMARK SMILES CCCCCCCCCCCCCCCCCC(=O)[O-]
REMARK SMILES IDX 10 1 11 2 12 3 13 4 14 5 15 6 16 7 17 8 18 9 19 10 20 11
REMARK SMILES IDX 9 12 8 13 7 14 6 15 5 16 4 17 3 18 2 19 1 20
REMARK H PARENT
REMARK Flexibility Score: inf
ROOT
ATOM      1  C   UNL     1     -45.673 -34.280  23.031  1.00  0.00     0.000 C 
ENDROOT
BRANCH   1   2
ATOM      2  C   UNL     1     -45.086 -34.489  21.624  1.00  0.00     0.000 C 
BRANCH   2   3
ATOM      3  C   UNL     1     -44.794 -35.967  21.321  1.00  0.00     0.000 C 
BRANCH   3   4
ATOM      4  C   UNL     1     -45.303 -36.403  19.938  1.00  0.00     0.000 C 
BRANCH   4   5
ATOM      5  C   UNL     1     -44.571 -35.645  18.821  1.00  0.00     0.000 C 
BRANCH   5   6
ATOM      6  C   UNL     1     -44.903 -36.186  17.421  1.00  0.00     0.000 C 
BRANCH   6   7
ATOM      7  C   UNL     1     -44.955 -37.720  17.375  1.00  0.00     0.006 C 
BRANCH   7   8
ATOM      8  C   UNL     1     -45.301 -38.214  15.968  1.00  0.00     0.053 C 
BRANCH   8   9
ATOM      9  C   UNL     1     -44.165 -37.959  15.029  1.00  0.00     0.041 C 
ATOM     10  O   UNL     1     -43.020 -38.419  15.279  1.00  0.00    -0.550 OA
ATOM     11  O   UNL     1     -44.359 -37.171  13.901  1.00  0.00    -0.550 OA
ENDBRANCH   8   9
ENDBRANCH   7   8
ENDBRANCH   6   7
ENDBRANCH   5   6
ENDBRANCH   4   5
ENDBRANCH   3   4
ENDBRANCH   2   3
ENDBRANCH   1   2
BRANCH   1  12
ATOM     12  C   UNL     1     -44.818 -33.338  23.899  1.00  0.00     0.000 C 
BRANCH  12  13
ATOM     13  C   UNL     1     -43.367 -33.132  23.417  1.00  0.00    -0.000 C 
BRANCH  13  14
ATOM     14  C   UNL     1     -42.493 -32.246  24.322  1.00  0.00    -0.000 C 
BRANCH  14  15
ATOM     15  C   UNL     1     -42.603 -32.618  25.810  1.00  0.00    -0.000 C 
BRANCH  15  16
ATOM     16  C   UNL     1     -41.551 -31.906  26.676  1.00  0.00    -0.000 C 
BRANCH  16  17
ATOM     17  C   UNL     1     -40.139 -31.976  26.073  1.00  0.00    -0.000 C 
BRANCH  17  18
ATOM     18  C   UNL     1     -39.410 -33.247  26.535  1.00  0.00    -0.000 C 
BRANCH  18  19
ATOM     19  C   UNL     1     -38.182 -33.571  25.671  1.00  0.00    -0.003 C 
ATOM     20  C   UNL     1     -38.341 -33.112  24.222  1.00  0.00     0.004 C 
ENDBRANCH  18  19
ENDBRANCH  17  18
ENDBRANCH  16  17
ENDBRANCH  15  16
ENDBRANCH  14  15
ENDBRANCH  13  14
ENDBRANCH  12  13
ENDBRANCH   1  12
TORSDOF 16
ENDMDL
