MODEL 1
REMARK VINA RESULT:    -5.991      0.000      0.000
REMARK INTER + INTRA:          -7.289
REMARK INTER:                  -7.042
REMARK INTRA:                  -0.247
REMARK UNBOUND:                -0.247
REMARK SMILES O=c1c(O)c(-c2ccc(O)cc2)oc2cc(O)cc(O)c12
REMARK SMILES IDX 5 1 3 2 2 3 1 4 21 5 19 6 18 7 16 8 15 9 14 10 13 11 6 12
REMARK SMILES IDX 7 13 8 14 9 15 12 16 11 17 10 18 4 20 20 22 17 24
REMARK H PARENT 10 19 4 21 20 23 17 25
REMARK Flexibility Score: inf
ROOT
ATOM      1  C   UNL     1     133.096 130.660 142.661  1.00  0.00     0.180 A 
ATOM      2  C   UNL     1     133.146 131.001 141.299  1.00  0.00     0.208 A 
ATOM      3  C   UNL     1     133.628 132.268 140.930  1.00  0.00     0.238 A 
ATOM      4  O   UNL     1     133.619 132.587 139.713  1.00  0.00    -0.285 OA
ATOM      5  C   UNL     1     134.070 133.170 141.926  1.00  0.00     0.111 A 
ATOM      6  C   UNL     1     134.615 134.463 141.664  1.00  0.00     0.134 A 
ATOM      7  C   UNL     1     134.899 135.323 142.732  1.00  0.00     0.093 A 
ATOM      8  C   UNL     1     134.719 134.914 144.053  1.00  0.00     0.123 A 
ATOM      9  C   UNL     1     134.243 133.630 144.322  1.00  0.00     0.094 A 
ATOM     10  C   UNL     1     133.917 132.763 143.277  1.00  0.00     0.146 A 
ATOM     11  O   UNL     1     133.456 131.553 143.576  1.00  0.00    -0.452 OA
ENDROOT
BRANCH   1  12
ATOM     12  C   UNL     1     132.624 129.336 143.126  1.00  0.00     0.021 A 
ATOM     13  C   UNL     1     133.526 128.346 143.557  1.00  0.00     0.016 A 
ATOM     14  C   UNL     1     133.055 127.111 144.015  1.00  0.00     0.047 A 
ATOM     15  C   UNL     1     131.682 126.855 144.061  1.00  0.00     0.115 A 
ATOM     16  C   UNL     1     131.245 129.079 143.196  1.00  0.00     0.016 A 
ATOM     17  C   UNL     1     130.777 127.844 143.653  1.00  0.00     0.047 A 
BRANCH  15  18
ATOM     18  O   UNL     1     131.227 125.621 144.518  1.00  0.00    -0.508 OA
ATOM     19  H   UNL     1     130.295 125.507 144.899  1.00  0.00     0.293 HD
ENDBRANCH  15  18
ENDBRANCH   1  12
BRANCH   2  20
ATOM     20  O   UNL     1     132.683 130.103 140.332  1.00  0.00    -0.502 OA
ATOM     21  H   UNL     1     133.013 129.147 140.275  1.00  0.00     0.293 HD
ENDBRANCH   2  20
BRANCH   6  22
ATOM     22  O   UNL     1     134.920 134.936 140.385  1.00  0.00    -0.507 OA
ATOM     23  H   UNL     1     134.411 135.662 139.904  1.00  0.00     0.293 HD
ENDBRANCH   6  22
BRANCH   8  24
ATOM     24  O   UNL     1     135.026 135.790 145.092  1.00  0.00    -0.508 OA
ATOM     25  H   UNL     1     134.651 136.731 145.120  1.00  0.00     0.293 HD
ENDBRANCH   8  24
TORSDOF 5
ENDMDL
MODEL 2
REMARK VINA RESULT:    -5.943      2.553      3.801
REMARK INTER + INTRA:          -7.232
REMARK INTER:                  -6.951
REMARK INTRA:                  -0.281
REMARK UNBOUND:                -0.247
REMARK SMILES O=c1c(O)c(-c2ccc(O)cc2)oc2cc(O)cc(O)c12
REMARK SMILES IDX 5 1 3 2 2 3 1 4 21 5 19 6 18 7 16 8 15 9 14 10 13 11 6 12
REMARK SMILES IDX 7 13 8 14 9 15 12 16 11 17 10 18 4 20 20 22 17 24
REMARK H PARENT 10 19 4 21 20 23 17 25
REMARK Flexibility Score: inf
ROOT
ATOM      1  C   UNL     1     131.578 130.022 142.585  1.00  0.00     0.180 A 
ATOM      2  C   UNL     1     132.427 130.751 143.436  1.00  0.00     0.208 A 
ATOM      3  C   UNL     1     132.435 132.153 143.353  1.00  0.00     0.238 A 
ATOM      4  O   UNL     1     133.236 132.797 144.080  1.00  0.00    -0.285 OA
ATOM      5  C   UNL     1     131.583 132.809 142.433  1.00  0.00     0.111 A 
ATOM      6  C   UNL     1     131.480 134.225 142.292  1.00  0.00     0.134 A 
ATOM      7  C   UNL     1     130.701 134.763 141.260  1.00  0.00     0.093 A 
ATOM      8  C   UNL     1     129.971 133.937 140.404  1.00  0.00     0.123 A 
ATOM      9  C   UNL     1     130.018 132.553 140.571  1.00  0.00     0.094 A 
ATOM     10  C   UNL     1     130.814 131.986 141.569  1.00  0.00     0.146 A 
ATOM     11  O   UNL     1     130.840 130.663 141.687  1.00  0.00    -0.452 OA
ENDROOT
BRANCH   1  12
ATOM     12  C   UNL     1     131.496 128.544 142.631  1.00  0.00     0.021 A 
ATOM     13  C   UNL     1     130.717 127.883 143.598  1.00  0.00     0.016 A 
ATOM     14  C   UNL     1     130.635 126.488 143.606  1.00  0.00     0.047 A 
ATOM     15  C   UNL     1     131.316 125.737 142.644  1.00  0.00     0.115 A 
ATOM     16  C   UNL     1     132.160 127.784 141.654  1.00  0.00     0.016 A 
ATOM     17  C   UNL     1     132.077 126.389 141.665  1.00  0.00     0.047 A 
BRANCH  15  18
ATOM     18  O   UNL     1     131.226 124.347 142.665  1.00  0.00    -0.508 OA
ATOM     19  H   UNL     1     130.531 123.853 142.119  1.00  0.00     0.293 HD
ENDBRANCH  15  18
ENDBRANCH   1  12
BRANCH   2  20
ATOM     20  O   UNL     1     133.277 130.082 144.323  1.00  0.00    -0.502 OA
ATOM     21  H   UNL     1     132.939 129.632 145.165  1.00  0.00     0.293 HD
ENDBRANCH   2  20
BRANCH   6  22
ATOM     22  O   UNL     1     132.094 135.142 143.150  1.00  0.00    -0.507 OA
ATOM     23  H   UNL     1     131.918 135.208 144.142  1.00  0.00     0.293 HD
ENDBRANCH   6  22
BRANCH   8  24
ATOM     24  O   UNL     1     129.195 134.506 139.397  1.00  0.00    -0.508 OA
ATOM     25  H   UNL     1     128.213 134.714 139.539  1.00  0.00     0.293 HD
ENDBRANCH   8  24
TORSDOF 5
ENDMDL
MODEL 3
REMARK VINA RESULT:    -5.912      2.111      2.226
REMARK INTER + INTRA:          -7.195
REMARK INTER:                  -6.899
REMARK INTRA:                  -0.296
REMARK UNBOUND:                -0.247
REMARK SMILES O=c1c(O)c(-c2ccc(O)cc2)oc2cc(O)cc(O)c12
REMARK SMILES IDX 5 1 3 2 2 3 1 4 21 5 19 6 18 7 16 8 15 9 14 10 13 11 6 12
REMARK SMILES IDX 7 13 8 14 9 15 12 16 11 17 10 18 4 20 20 22 17 24
REMARK H PARENT 10 19 4 21 20 23 17 25
REMARK Flexibility Score: inf
ROOT
ATOM      1  C   UNL     1     131.960 131.487 142.318  1.00  0.00     0.180 A 
ATOM      2  C   UNL     1     131.074 132.367 141.676  1.00  0.00     0.208 A 
ATOM      3  C   UNL     1     131.274 133.751 141.805  1.00  0.00     0.238 A 
ATOM      4  O   UNL     1     130.445 134.534 141.272  1.00  0.00    -0.285 OA
ATOM      5  C   UNL     1     132.368 134.237 142.560  1.00  0.00     0.111 A 
ATOM      6  C   UNL     1     132.689 135.618 142.724  1.00  0.00     0.134 A 
ATOM      7  C   UNL     1     133.718 135.989 143.600  1.00  0.00     0.093 A 
ATOM      8  C   UNL     1     134.477 135.028 144.267  1.00  0.00     0.123 A 
ATOM      9  C   UNL     1     134.209 133.673 144.068  1.00  0.00     0.094 A 
ATOM     10  C   UNL     1     133.167 133.273 143.228  1.00  0.00     0.146 A 
ATOM     11  O   UNL     1     132.938 131.974 143.074  1.00  0.00    -0.452 OA
ENDROOT
BRANCH   1  12
ATOM     12  C   UNL     1     131.829 130.016 142.209  1.00  0.00     0.021 A 
ATOM     13  C   UNL     1     132.400 129.307 141.136  1.00  0.00     0.016 A 
ATOM     14  C   UNL     1     132.283 127.915 141.067  1.00  0.00     0.047 A 
ATOM     15  C   UNL     1     131.609 127.215 142.072  1.00  0.00     0.115 A 
ATOM     16  C   UNL     1     131.172 129.303 143.226  1.00  0.00     0.016 A 
ATOM     17  C   UNL     1     131.056 127.912 143.154  1.00  0.00     0.047 A 
BRANCH  15  18
ATOM     18  O   UNL     1     131.500 125.828 141.989  1.00  0.00    -0.508 OA
ATOM     19  H   UNL     1     132.311 125.227 142.074  1.00  0.00     0.293 HD
ENDBRANCH  15  18
ENDBRANCH   1  12
BRANCH   2  20
ATOM     20  O   UNL     1     129.986 131.867 140.953  1.00  0.00    -0.502 OA
ATOM     21  H   UNL     1     129.260 131.305 141.381  1.00  0.00     0.293 HD
ENDBRANCH   2  20
BRANCH   6  22
ATOM     22  O   UNL     1     132.055 136.654 142.034  1.00  0.00    -0.507 OA
ATOM     23  H   UNL     1     131.212 136.550 141.489  1.00  0.00     0.293 HD
ENDBRANCH   6  22
BRANCH   8  24
ATOM     24  O   UNL     1     135.502 135.432 145.120  1.00  0.00    -0.508 OA
ATOM     25  H   UNL     1     136.158 136.156 144.852  1.00  0.00     0.293 HD
ENDBRANCH   8  24
TORSDOF 5
ENDMDL
MODEL 4
REMARK VINA RESULT:    -5.863      1.596      6.507
REMARK INTER + INTRA:          -7.138
REMARK INTER:                  -6.849
REMARK INTRA:                  -0.289
REMARK UNBOUND:                -0.247
REMARK SMILES O=c1c(O)c(-c2ccc(O)cc2)oc2cc(O)cc(O)c12
REMARK SMILES IDX 5 1 3 2 2 3 1 4 21 5 19 6 18 7 16 8 15 9 14 10 13 11 6 12
REMARK SMILES IDX 7 13 8 14 9 15 12 16 11 17 10 18 4 20 20 22 17 24
REMARK H PARENT 10 19 4 21 20 23 17 25
REMARK Flexibility Score: inf
ROOT
ATOM      1  C   UNL     1     133.699 131.816 142.063  1.00  0.00     0.180 A 
ATOM      2  C   UNL     1     134.229 131.126 140.960  1.00  0.00     0.208 A 
ATOM      3  C   UNL     1     133.784 129.821 140.694  1.00  0.00     0.238 A 
ATOM      4  O   UNL     1     134.302 129.189 139.737  1.00  0.00    -0.285 OA
ATOM      5  C   UNL     1     132.801 129.230 141.523  1.00  0.00     0.111 A 
ATOM      6  C   UNL     1     132.247 127.930 141.323  1.00  0.00     0.134 A 
ATOM      7  C   UNL     1     131.376 127.394 142.280  1.00  0.00     0.093 A 
ATOM      8  C   UNL     1     130.990 128.136 143.396  1.00  0.00     0.123 A 
ATOM      9  C   UNL     1     131.479 129.430 143.571  1.00  0.00     0.094 A 
ATOM     10  C   UNL     1     132.377 129.978 142.652  1.00  0.00     0.146 A 
ATOM     11  O   UNL     1     132.828 131.210 142.860  1.00  0.00    -0.452 OA
ENDROOT
BRANCH   1  12
ATOM     12  C   UNL     1     134.101 133.203 142.393  1.00  0.00     0.021 A 
ATOM     13  C   UNL     1     135.190 133.467 143.243  1.00  0.00     0.016 A 
ATOM     14  C   UNL     1     135.567 134.785 143.521  1.00  0.00     0.047 A 
ATOM     15  C   UNL     1     134.870 135.852 142.946  1.00  0.00     0.115 A 
ATOM     16  C   UNL     1     133.420 134.280 141.802  1.00  0.00     0.016 A 
ATOM     17  C   UNL     1     133.797 135.596 142.082  1.00  0.00     0.047 A 
BRANCH  15  18
ATOM     18  O   UNL     1     135.255 137.160 143.232  1.00  0.00    -0.508 OA
ATOM     19  H   UNL     1     134.774 137.954 142.829  1.00  0.00     0.293 HD
ENDBRANCH  15  18
ENDBRANCH   1  12
BRANCH   2  20
ATOM     20  O   UNL     1     135.216 131.720 140.167  1.00  0.00    -0.502 OA
ATOM     21  H   UNL     1     135.001 132.413 139.460  1.00  0.00     0.293 HD
ENDBRANCH   2  20
BRANCH   6  22
ATOM     22  O   UNL     1     132.495 127.142 140.195  1.00  0.00    -0.507 OA
ATOM     23  H   UNL     1     133.286 127.253 139.578  1.00  0.00     0.293 HD
ENDBRANCH   6  22
BRANCH   8  24
ATOM     24  O   UNL     1     130.110 127.577 144.321  1.00  0.00    -0.508 OA
ATOM     25  H   UNL     1     130.163 127.806 145.307  1.00  0.00     0.293 HD
ENDBRANCH   8  24
TORSDOF 5
ENDMDL
MODEL 5
REMARK VINA RESULT:    -5.859      2.223      7.290
REMARK INTER + INTRA:          -7.133
REMARK INTER:                  -6.839
REMARK INTRA:                  -0.294
REMARK UNBOUND:                -0.247
REMARK SMILES O=c1c(O)c(-c2ccc(O)cc2)oc2cc(O)cc(O)c12
REMARK SMILES IDX 5 1 3 2 2 3 1 4 21 5 19 6 18 7 16 8 15 9 14 10 13 11 6 12
REMARK SMILES IDX 7 13 8 14 9 15 12 16 11 17 10 18 4 20 20 22 17 24
REMARK H PARENT 10 19 4 21 20 23 17 25
REMARK Flexibility Score: inf
ROOT
ATOM      1  C   UNL     1     132.552 128.739 143.061  1.00  0.00     0.180 A 
ATOM      2  C   UNL     1     132.284 128.144 141.817  1.00  0.00     0.208 A 
ATOM      3  C   UNL     1     132.101 126.753 141.752  1.00  0.00     0.238 A 
ATOM      4  O   UNL     1     131.914 126.220 140.627  1.00  0.00    -0.285 OA
ATOM      5  C   UNL     1     132.172 125.978 142.934  1.00  0.00     0.111 A 
ATOM      6  C   UNL     1     131.963 124.567 142.991  1.00  0.00     0.134 A 
ATOM      7  C   UNL     1     132.187 123.883 144.193  1.00  0.00     0.093 A 
ATOM      8  C   UNL     1     132.549 124.567 145.353  1.00  0.00     0.123 A 
ATOM      9  C   UNL     1     132.698 125.954 145.322  1.00  0.00     0.094 A 
ATOM     10  C   UNL     1     132.516 126.659 144.130  1.00  0.00     0.146 A 
ATOM     11  O   UNL     1     132.678 127.977 144.141  1.00  0.00    -0.452 OA
ENDROOT
BRANCH   1  12
ATOM     12  C   UNL     1     132.732 130.202 143.213  1.00  0.00     0.021 A 
ATOM     13  C   UNL     1     131.650 131.045 143.525  1.00  0.00     0.016 A 
ATOM     14  C   UNL     1     131.849 132.419 143.688  1.00  0.00     0.047 A 
ATOM     15  C   UNL     1     133.129 132.966 143.555  1.00  0.00     0.115 A 
ATOM     16  C   UNL     1     134.019 130.755 143.102  1.00  0.00     0.016 A 
ATOM     17  C   UNL     1     134.215 132.130 143.264  1.00  0.00     0.047 A 
BRANCH  15  18
ATOM     18  O   UNL     1     133.312 134.337 143.719  1.00  0.00    -0.508 OA
ATOM     19  H   UNL     1     134.198 134.720 144.026  1.00  0.00     0.293 HD
ENDBRANCH  15  18
ENDBRANCH   1  12
BRANCH   2  20
ATOM     20  O   UNL     1     132.239 128.926 140.658  1.00  0.00    -0.502 OA
ATOM     21  H   UNL     1     132.155 129.935 140.685  1.00  0.00     0.293 HD
ENDBRANCH   2  20
BRANCH   6  22
ATOM     22  O   UNL     1     131.512 123.801 141.913  1.00  0.00    -0.507 OA
ATOM     23  H   UNL     1     132.019 123.031 141.502  1.00  0.00     0.293 HD
ENDBRANCH   6  22
BRANCH   8  24
ATOM     24  O   UNL     1     132.748 123.857 146.535  1.00  0.00    -0.508 OA
ATOM     25  H   UNL     1     133.668 123.769 146.951  1.00  0.00     0.293 HD
ENDBRANCH   8  24
TORSDOF 5
ENDMDL
MODEL 6
REMARK VINA RESULT:    -5.726      2.876      6.562
REMARK INTER + INTRA:          -6.977
REMARK INTER:                  -6.699
REMARK INTRA:                  -0.278
REMARK UNBOUND:                -0.247
REMARK SMILES O=c1c(O)c(-c2ccc(O)cc2)oc2cc(O)cc(O)c12
REMARK SMILES IDX 5 1 3 2 2 3 1 4 21 5 19 6 18 7 16 8 15 9 14 10 13 11 6 12
REMARK SMILES IDX 7 13 8 14 9 15 12 16 11 17 10 18 4 20 20 22 17 24
REMARK H PARENT 10 19 4 21 20 23 17 25
REMARK Flexibility Score: inf
ROOT
ATOM      1  C   UNL     1     134.997 131.949 140.992  1.00  0.00     0.180 A 
ATOM      2  C   UNL     1     134.824 132.914 141.998  1.00  0.00     0.208 A 
ATOM      3  C   UNL     1     133.864 132.693 142.999  1.00  0.00     0.238 A 
ATOM      4  O   UNL     1     133.677 133.585 143.866  1.00  0.00    -0.285 OA
ATOM      5  C   UNL     1     133.101 131.500 142.991  1.00  0.00     0.111 A 
ATOM      6  C   UNL     1     132.131 131.153 143.977  1.00  0.00     0.134 A 
ATOM      7  C   UNL     1     131.342 130.009 143.799  1.00  0.00     0.093 A 
ATOM      8  C   UNL     1     131.533 129.167 142.704  1.00  0.00     0.123 A 
ATOM      9  C   UNL     1     132.520 129.466 141.765  1.00  0.00     0.094 A 
ATOM     10  C   UNL     1     133.298 130.618 141.897  1.00  0.00     0.146 A 
ATOM     11  O   UNL     1     134.220 130.872 140.975  1.00  0.00    -0.452 OA
ENDROOT
BRANCH   1  12
ATOM     12  C   UNL     1     136.005 132.100 139.918  1.00  0.00     0.021 A 
ATOM     13  C   UNL     1     137.361 131.798 140.138  1.00  0.00     0.016 A 
ATOM     14  C   UNL     1     138.291 131.926 139.102  1.00  0.00     0.047 A 
ATOM     15  C   UNL     1     137.878 132.342 137.833  1.00  0.00     0.115 A 
ATOM     16  C   UNL     1     135.594 132.498 138.635  1.00  0.00     0.016 A 
ATOM     17  C   UNL     1     136.526 132.625 137.601  1.00  0.00     0.047 A 
BRANCH  15  18
ATOM     18  O   UNL     1     138.815 132.466 136.810  1.00  0.00    -0.508 OA
ATOM     19  H   UNL     1     139.414 131.694 136.544  1.00  0.00     0.293 HD
ENDBRANCH  15  18
ENDBRANCH   1  12
BRANCH   2  20
ATOM     20  O   UNL     1     135.572 134.096 141.975  1.00  0.00    -0.502 OA
ATOM     21  H   UNL     1     135.473 134.788 141.243  1.00  0.00     0.293 HD
ENDBRANCH   2  20
BRANCH   6  22
ATOM     22  O   UNL     1     131.922 131.876 145.156  1.00  0.00    -0.507 OA
ATOM     23  H   UNL     1     131.017 132.079 145.553  1.00  0.00     0.293 HD
ENDBRANCH   6  22
BRANCH   8  24
ATOM     24  O   UNL     1     130.741 128.029 142.566  1.00  0.00    -0.508 OA
ATOM     25  H   UNL     1     129.774 128.090 142.270  1.00  0.00     0.293 HD
ENDBRANCH   8  24
TORSDOF 5
ENDMDL
MODEL 7
REMARK VINA RESULT:    -5.716      3.419      5.288
REMARK INTER + INTRA:          -6.965
REMARK INTER:                  -6.686
REMARK INTRA:                  -0.280
REMARK UNBOUND:                -0.247
REMARK SMILES O=c1c(O)c(-c2ccc(O)cc2)oc2cc(O)cc(O)c12
REMARK SMILES IDX 5 1 3 2 2 3 1 4 21 5 19 6 18 7 16 8 15 9 14 10 13 11 6 12
REMARK SMILES IDX 7 13 8 14 9 15 12 16 11 17 10 18 4 20 20 22 17 24
REMARK H PARENT 10 19 4 21 20 23 17 25
REMARK Flexibility Score: inf
ROOT
ATOM      1  C   UNL     1     135.748 130.896 140.936  1.00  0.00     0.180 A 
ATOM      2  C   UNL     1     134.804 130.184 141.695  1.00  0.00     0.208 A 
ATOM      3  C   UNL     1     134.144 130.837 142.749  1.00  0.00     0.238 A 
ATOM      4  O   UNL     1     133.340 130.179 143.458  1.00  0.00    -0.285 OA
ATOM      5  C   UNL     1     134.424 132.198 143.020  1.00  0.00     0.111 A 
ATOM      6  C   UNL     1     133.786 132.970 144.036  1.00  0.00     0.134 A 
ATOM      7  C   UNL     1     134.235 134.270 144.301  1.00  0.00     0.093 A 
ATOM      8  C   UNL     1     135.254 134.848 143.545  1.00  0.00     0.123 A 
ATOM      9  C   UNL     1     135.845 134.123 142.509  1.00  0.00     0.094 A 
ATOM     10  C   UNL     1     135.443 132.811 142.245  1.00  0.00     0.146 A 
ATOM     11  O   UNL     1     136.038 132.151 141.257  1.00  0.00    -0.452 OA
ENDROOT
BRANCH   1  12
ATOM     12  C   UNL     1     136.466 130.284 139.795  1.00  0.00     0.021 A 
ATOM     13  C   UNL     1     135.866 130.168 138.528  1.00  0.00     0.016 A 
ATOM     14  C   UNL     1     136.572 129.608 137.459  1.00  0.00     0.047 A 
ATOM     15  C   UNL     1     137.887 129.171 137.637  1.00  0.00     0.115 A 
ATOM     16  C   UNL     1     137.796 129.861 139.961  1.00  0.00     0.016 A 
ATOM     17  C   UNL     1     138.500 129.301 138.891  1.00  0.00     0.047 A 
BRANCH  15  18
ATOM     18  O   UNL     1     138.579 128.614 136.564  1.00  0.00    -0.508 OA
ATOM     19  H   UNL     1     138.110 128.375 135.698  1.00  0.00     0.293 HD
ENDBRANCH  15  18
ENDBRANCH   1  12
BRANCH   2  20
ATOM     20  O   UNL     1     134.558 128.834 141.425  1.00  0.00    -0.502 OA
ATOM     21  H   UNL     1     134.310 128.171 142.149  1.00  0.00     0.293 HD
ENDBRANCH   2  20
BRANCH   6  22
ATOM     22  O   UNL     1     132.697 132.521 144.789  1.00  0.00    -0.507 OA
ATOM     23  H   UNL     1     132.652 132.530 145.797  1.00  0.00     0.293 HD
ENDBRANCH   6  22
BRANCH   8  24
ATOM     24  O   UNL     1     135.665 136.149 143.826  1.00  0.00    -0.508 OA
ATOM     25  H   UNL     1     136.514 136.534 143.427  1.00  0.00     0.293 HD
ENDBRANCH   8  24
TORSDOF 5
ENDMDL
MODEL 8
REMARK VINA RESULT:    -5.699      3.022      7.741
REMARK INTER + INTRA:          -6.946
REMARK INTER:                  -6.665
REMARK INTRA:                  -0.281
REMARK UNBOUND:                -0.247
REMARK SMILES O=c1c(O)c(-c2ccc(O)cc2)oc2cc(O)cc(O)c12
REMARK SMILES IDX 5 1 3 2 2 3 1 4 21 5 19 6 18 7 16 8 15 9 14 10 13 11 6 12
REMARK SMILES IDX 7 13 8 14 9 15 12 16 11 17 10 18 4 20 20 22 17 24
REMARK H PARENT 10 19 4 21 20 23 17 25
REMARK Flexibility Score: inf
ROOT
ATOM      1  C   UNL     1     131.457 128.588 142.375  1.00  0.00     0.180 A 
ATOM      2  C   UNL     1     132.624 127.904 141.997  1.00  0.00     0.208 A 
ATOM      3  C   UNL     1     132.551 126.527 141.728  1.00  0.00     0.238 A 
ATOM      4  O   UNL     1     133.610 125.910 141.443  1.00  0.00    -0.285 OA
ATOM      5  C   UNL     1     131.308 125.856 141.823  1.00  0.00     0.111 A 
ATOM      6  C   UNL     1     131.110 124.473 141.534  1.00  0.00     0.134 A 
ATOM      7  C   UNL     1     129.864 123.885 141.788  1.00  0.00     0.093 A 
ATOM      8  C   UNL     1     128.793 124.644 142.259  1.00  0.00     0.123 A 
ATOM      9  C   UNL     1     128.960 126.010 142.489  1.00  0.00     0.094 A 
ATOM     10  C   UNL     1     130.200 126.617 142.279  1.00  0.00     0.146 A 
ATOM     11  O   UNL     1     130.320 127.918 142.520  1.00  0.00    -0.452 OA
ENDROOT
BRANCH   1  12
ATOM     12  C   UNL     1     131.449 130.043 142.650  1.00  0.00     0.021 A 
ATOM     13  C   UNL     1     131.798 130.551 143.915  1.00  0.00     0.016 A 
ATOM     14  C   UNL     1     131.807 131.931 144.144  1.00  0.00     0.047 A 
ATOM     15  C   UNL     1     131.483 132.818 143.114  1.00  0.00     0.115 A 
ATOM     16  C   UNL     1     131.146 130.942 141.614  1.00  0.00     0.016 A 
ATOM     17  C   UNL     1     131.155 132.320 141.846  1.00  0.00     0.047 A 
BRANCH  15  18
ATOM     18  O   UNL     1     131.496 134.189 143.357  1.00  0.00    -0.508 OA
ATOM     19  H   UNL     1     131.358 134.563 144.288  1.00  0.00     0.293 HD
ENDBRANCH  15  18
ENDBRANCH   1  12
BRANCH   2  20
ATOM     20  O   UNL     1     133.846 128.581 141.930  1.00  0.00    -0.502 OA
ATOM     21  H   UNL     1     134.347 128.882 142.757  1.00  0.00     0.293 HD
ENDBRANCH   2  20
BRANCH   6  22
ATOM     22  O   UNL     1     132.087 123.645 140.975  1.00  0.00    -0.507 OA
ATOM     23  H   UNL     1     131.954 122.671 140.748  1.00  0.00     0.293 HD
ENDBRANCH   6  22
BRANCH   8  24
ATOM     24  O   UNL     1     127.564 124.029 142.487  1.00  0.00    -0.508 OA
ATOM     25  H   UNL     1     127.130 124.034 143.403  1.00  0.00     0.293 HD
ENDBRANCH   8  24
TORSDOF 5
ENDMDL
MODEL 9
REMARK VINA RESULT:    -5.648      3.518      6.682
REMARK INTER + INTRA:          -6.885
REMARK INTER:                  -6.596
REMARK INTRA:                  -0.289
REMARK UNBOUND:                -0.247
REMARK SMILES O=c1c(O)c(-c2ccc(O)cc2)oc2cc(O)cc(O)c12
REMARK SMILES IDX 5 1 3 2 2 3 1 4 21 5 19 6 18 7 16 8 15 9 14 10 13 11 6 12
REMARK SMILES IDX 7 13 8 14 9 15 12 16 11 17 10 18 4 20 20 22 17 24
REMARK H PARENT 10 19 4 21 20 23 17 25
REMARK Flexibility Score: inf
ROOT
ATOM      1  C   UNL     1     135.537 132.825 141.426  1.00  0.00     0.180 A 
ATOM      2  C   UNL     1     135.290 131.462 141.662  1.00  0.00     0.208 A 
ATOM      3  C   UNL     1     135.874 130.506 140.815  1.00  0.00     0.238 A 
ATOM      4  O   UNL     1     135.606 129.291 140.999  1.00  0.00    -0.285 OA
ATOM      5  C   UNL     1     136.711 130.925 139.753  1.00  0.00     0.111 A 
ATOM      6  C   UNL     1     137.386 130.043 138.857  1.00  0.00     0.134 A 
ATOM      7  C   UNL     1     138.083 130.569 137.762  1.00  0.00     0.093 A 
ATOM      8  C   UNL     1     138.183 131.946 137.567  1.00  0.00     0.123 A 
ATOM      9  C   UNL     1     137.576 132.820 138.470  1.00  0.00     0.094 A 
ATOM     10  C   UNL     1     136.844 132.324 139.552  1.00  0.00     0.146 A 
ATOM     11  O   UNL     1     136.272 133.188 140.382  1.00  0.00    -0.452 OA
ENDROOT
BRANCH   1  12
ATOM     12  C   UNL     1     134.977 133.889 142.291  1.00  0.00     0.021 A 
ATOM     13  C   UNL     1     133.725 134.470 142.020  1.00  0.00     0.016 A 
ATOM     14  C   UNL     1     133.206 135.456 142.865  1.00  0.00     0.047 A 
ATOM     15  C   UNL     1     133.922 135.863 143.994  1.00  0.00     0.115 A 
ATOM     16  C   UNL     1     135.680 134.288 143.440  1.00  0.00     0.016 A 
ATOM     17  C   UNL     1     135.160 135.274 144.282  1.00  0.00     0.047 A 
BRANCH  15  18
ATOM     18  O   UNL     1     133.393 136.848 144.826  1.00  0.00    -0.508 OA
ATOM     19  H   UNL     1     132.837 136.612 145.639  1.00  0.00     0.293 HD
ENDBRANCH  15  18
ENDBRANCH   1  12
BRANCH   2  20
ATOM     20  O   UNL     1     134.443 131.070 142.704  1.00  0.00    -0.502 OA
ATOM     21  H   UNL     1     133.481 130.796 142.549  1.00  0.00     0.293 HD
ENDBRANCH   2  20
BRANCH   6  22
ATOM     22  O   UNL     1     137.428 128.654 139.013  1.00  0.00    -0.507 OA
ATOM     23  H   UNL     1     136.963 127.994 138.408  1.00  0.00     0.293 HD
ENDBRANCH   6  22
BRANCH   8  24
ATOM     24  O   UNL     1     138.897 132.436 136.476  1.00  0.00    -0.508 OA
ATOM     25  H   UNL     1     138.499 132.447 135.544  1.00  0.00     0.293 HD
ENDBRANCH   8  24
TORSDOF 5
ENDMDL
