MODEL 1
REMARK VINA RESULT:    -7.418      0.000      0.000
REMARK INTER + INTRA:          -8.693
REMARK INTER:                  -8.719
REMARK INTRA:                   0.026
REMARK UNBOUND:                 0.026
REMARK SMILES C=C(C)[C@@H]1CC[C@]2(CO)CC[C@@]3(C)[C@H](CC[C@@H]4[C@]5(C)CC[C@H](O)C(C)(C)[C@@H]5CC[C@@]43C)[C@H]12
REMARK SMILES IDX 4 1 5 2 6 3 7 4 32 5 14 6 15 7 16 8 17 9 18 10 20 11 21 12
REMARK SMILES IDX 22 13 24 14 27 15 28 16 29 17 30 18 12 19 11 20 10 21 13 22
REMARK SMILES IDX 31 23 25 24 26 25 19 26 2 27 3 28 1 29 8 30 9 31 23 33
REMARK H PARENT 9 32 23 34
REMARK Flexibility Score: inf
ROOT
ATOM      1  C   UNL     1     -20.605  -6.188  -8.703  1.00  0.00     0.018 C 
ATOM      2  C   UNL     1     -19.524  -5.122  -8.487  1.00  0.00     0.009 C 
ATOM      3  C   UNL     1     -20.227  -3.889  -7.905  1.00  0.00     0.010 C 
ATOM      4  C   UNL     1     -21.719  -4.256  -7.683  1.00  0.00    -0.003 C 
ATOM      5  C   UNL     1     -21.744  -5.810  -7.721  1.00  0.00     0.008 C 
ATOM      6  C   UNL     1     -21.717  -6.508  -6.300  1.00  0.00    -0.000 C 
ATOM      7  C   UNL     1     -20.361  -6.636  -5.610  1.00  0.00     0.005 C 
ATOM      8  C   UNL     1     -20.511  -7.647  -4.470  1.00  0.00     0.005 C 
ATOM      9  C   UNL     1     -21.308  -7.088  -3.265  1.00  0.00     0.002 C 
ATOM     10  C   UNL     1     -21.591  -8.139  -2.039  1.00  0.00    -0.026 C 
ATOM     11  C   UNL     1     -21.161  -9.605  -2.407  1.00  0.00     0.010 C 
ATOM     12  C   UNL     1     -22.300 -10.388  -3.043  1.00  0.00     0.033 C 
ATOM     13  C   UNL     1     -23.405 -10.707  -2.022  1.00  0.00     0.120 C 
ATOM     14  C   UNL     1     -23.621  -9.574  -0.940  1.00  0.00    -0.006 C 
ATOM     15  C   UNL     1     -23.086  -8.152  -1.448  1.00  0.00     0.003 C 
ATOM     16  C   UNL     1     -24.088  -7.494  -2.403  1.00  0.00     0.005 C 
ATOM     17  C   UNL     1     -23.663  -6.082  -2.764  1.00  0.00     0.008 C 
ATOM     18  C   UNL     1     -22.410  -5.991  -3.687  1.00  0.00    -0.024 C 
ATOM     19  C   UNL     1     -22.849  -6.015  -5.291  1.00  0.00    -0.024 C 
ATOM     20  C   UNL     1     -23.375  -4.609  -5.763  1.00  0.00     0.008 C 
ATOM     21  C   UNL     1     -22.266  -3.706  -6.337  1.00  0.00     0.010 C 
ATOM     22  C   UNL     1     -24.038  -6.998  -5.546  1.00  0.00     0.012 C 
ATOM     23  C   UNL     1     -21.792  -4.597  -3.278  1.00  0.00     0.012 C 
ATOM     24  C   UNL     1     -22.910  -9.974   0.389  1.00  0.00     0.014 C 
ATOM     25  C   UNL     1     -25.128  -9.500  -0.535  1.00  0.00     0.014 C 
ATOM     26  C   UNL     1     -20.652  -7.712  -0.865  1.00  0.00     0.012 C 
ENDROOT
BRANCH   1  27
ATOM     27  C   UNL     1     -20.142  -7.644  -8.732  1.00  0.00    -0.077 C 
ATOM     28  C   UNL     1     -21.003  -8.750  -8.160  1.00  0.00     0.039 C 
ATOM     29  C   UNL     1     -18.875  -7.926  -9.084  1.00  0.00     0.008 C 
ENDBRANCH   1  27
BRANCH   4  30
ATOM     30  C   UNL     1     -22.594  -3.645  -8.829  1.00  0.00     0.163 C 
BRANCH  30  31
ATOM     31  O   UNL     1     -23.375  -4.612  -9.475  1.00  0.00    -0.396 OA
ATOM     32  H   UNL     1     -23.314  -4.416 -10.446  1.00  0.00     0.210 HD
ENDBRANCH  30  31
ENDBRANCH   4  30
BRANCH  13  33
ATOM     33  O   UNL     1     -24.581 -10.972  -2.750  1.00  0.00    -0.393 OA
ATOM     34  H   UNL     1     -24.918 -11.859  -2.458  1.00  0.00     0.210 HD
ENDBRANCH  13  33
TORSDOF 4
ENDMDL
MODEL 2
REMARK VINA RESULT:    -6.177      1.752      7.436
REMARK INTER + INTRA:          -7.235
REMARK INTER:                  -6.656
REMARK INTRA:                  -0.579
REMARK UNBOUND:                 0.026
REMARK SMILES C=C(C)[C@@H]1CC[C@]2(CO)CC[C@@]3(C)[C@H](CC[C@@H]4[C@]5(C)CC[C@H](O)C(C)(C)[C@@H]5CC[C@@]43C)[C@H]12
REMARK SMILES IDX 4 1 5 2 6 3 7 4 32 5 14 6 15 7 16 8 17 9 18 10 20 11 21 12
REMARK SMILES IDX 22 13 24 14 27 15 28 16 29 17 30 18 12 19 11 20 10 21 13 22
REMARK SMILES IDX 31 23 25 24 26 25 19 26 2 27 3 28 1 29 8 30 9 31 23 33
REMARK H PARENT 9 32 23 34
REMARK Flexibility Score: inf
ROOT
ATOM      1  C   UNL     1     -22.344 -10.516  -1.611  1.00  0.00     0.018 C 
ATOM      2  C   UNL     1     -20.972 -10.901  -1.045  1.00  0.00     0.009 C 
ATOM      3  C   UNL     1     -20.271 -11.746  -2.116  1.00  0.00     0.010 C 
ATOM      4  C   UNL     1     -21.192 -11.782  -3.366  1.00  0.00    -0.003 C 
ATOM      5  C   UNL     1     -22.182 -10.604  -3.151  1.00  0.00     0.008 C 
ATOM      6  C   UNL     1     -21.793  -9.266  -3.902  1.00  0.00    -0.000 C 
ATOM      7  C   UNL     1     -20.737  -8.379  -3.248  1.00  0.00     0.005 C 
ATOM      8  C   UNL     1     -20.796  -7.006  -3.922  1.00  0.00     0.005 C 
ATOM      9  C   UNL     1     -20.209  -7.010  -5.356  1.00  0.00     0.002 C 
ATOM     10  C   UNL     1     -20.317  -5.598  -6.183  1.00  0.00    -0.026 C 
ATOM     11  C   UNL     1     -21.191  -4.535  -5.422  1.00  0.00     0.010 C 
ATOM     12  C   UNL     1     -22.658  -4.619  -5.816  1.00  0.00     0.033 C 
ATOM     13  C   UNL     1     -22.884  -4.135  -7.259  1.00  0.00     0.120 C 
ATOM     14  C   UNL     1     -21.694  -4.480  -8.242  1.00  0.00    -0.006 C 
ATOM     15  C   UNL     1     -20.813  -5.706  -7.708  1.00  0.00     0.003 C 
ATOM     16  C   UNL     1     -21.499  -7.046  -7.996  1.00  0.00     0.005 C 
ATOM     17  C   UNL     1     -20.601  -8.217  -7.636  1.00  0.00     0.008 C 
ATOM     18  C   UNL     1     -20.379  -8.425  -6.108  1.00  0.00    -0.024 C 
ATOM     19  C   UNL     1     -21.542  -9.427  -5.469  1.00  0.00    -0.024 C 
ATOM     20  C   UNL     1     -21.234 -10.938  -5.782  1.00  0.00     0.008 C 
ATOM     21  C   UNL     1     -20.393 -11.626  -4.689  1.00  0.00     0.010 C 
ATOM     22  C   UNL     1     -22.944  -9.160  -6.107  1.00  0.00     0.012 C 
ATOM     23  C   UNL     1     -18.950  -9.096  -6.066  1.00  0.00     0.012 C 
ATOM     24  C   UNL     1     -20.797  -3.220  -8.444  1.00  0.00     0.014 C 
ATOM     25  C   UNL     1     -22.249  -4.762  -9.675  1.00  0.00     0.014 C 
ATOM     26  C   UNL     1     -18.875  -4.999  -6.224  1.00  0.00     0.012 C 
ENDROOT
BRANCH   1  27
ATOM     27  C   UNL     1     -23.001  -9.262  -1.034  1.00  0.00    -0.077 C 
ATOM     28  C   UNL     1     -22.417  -8.557   0.171  1.00  0.00     0.039 C 
ATOM     29  C   UNL     1     -24.219  -8.895  -1.472  1.00  0.00     0.008 C 
ENDBRANCH   1  27
BRANCH   4  30
ATOM     30  C   UNL     1     -21.945 -13.154  -3.433  1.00  0.00     0.163 C 
BRANCH  30  31
ATOM     31  O   UNL     1     -23.269 -13.013  -3.868  1.00  0.00    -0.396 OA
ATOM     32  H   UNL     1     -23.644 -13.931  -3.923  1.00  0.00     0.210 HD
ENDBRANCH  30  31
ENDBRANCH   4  30
BRANCH  13  33
ATOM     33  O   UNL     1     -24.105  -4.684  -7.696  1.00  0.00    -0.393 OA
ATOM     34  H   UNL     1     -23.896  -5.350  -8.402  1.00  0.00     0.210 HD
ENDBRANCH  13  33
TORSDOF 4
ENDMDL
MODEL 3
REMARK VINA RESULT:    -6.136      1.627      7.459
REMARK INTER + INTRA:          -7.186
REMARK INTER:                  -6.679
REMARK INTRA:                  -0.507
REMARK UNBOUND:                 0.026
REMARK SMILES C=C(C)[C@@H]1CC[C@]2(CO)CC[C@@]3(C)[C@H](CC[C@@H]4[C@]5(C)CC[C@H](O)C(C)(C)[C@@H]5CC[C@@]43C)[C@H]12
REMARK SMILES IDX 4 1 5 2 6 3 7 4 32 5 14 6 15 7 16 8 17 9 18 10 20 11 21 12
REMARK SMILES IDX 22 13 24 14 27 15 28 16 29 17 30 18 12 19 11 20 10 21 13 22
REMARK SMILES IDX 31 23 25 24 26 25 19 26 2 27 3 28 1 29 8 30 9 31 23 33
REMARK H PARENT 9 32 23 34
REMARK Flexibility Score: inf
ROOT
ATOM      1  C   UNL     1     -21.334  -7.836   0.811  1.00  0.00     0.018 C 
ATOM      2  C   UNL     1     -21.090  -9.336   1.018  1.00  0.00     0.009 C 
ATOM      3  C   UNL     1     -22.364 -10.059   0.560  1.00  0.00     0.010 C 
ATOM      4  C   UNL     1     -23.333  -8.991  -0.015  1.00  0.00    -0.003 C 
ATOM      5  C   UNL     1     -22.430  -7.755  -0.282  1.00  0.00     0.008 C 
ATOM      6  C   UNL     1     -21.932  -7.609  -1.779  1.00  0.00    -0.000 C 
ATOM      7  C   UNL     1     -20.738  -8.460  -2.203  1.00  0.00     0.005 C 
ATOM      8  C   UNL     1     -20.208  -7.894  -3.523  1.00  0.00     0.005 C 
ATOM      9  C   UNL     1     -21.129  -8.207  -4.730  1.00  0.00     0.002 C 
ATOM     10  C   UNL     1     -20.678  -7.558  -6.166  1.00  0.00    -0.026 C 
ATOM     11  C   UNL     1     -19.476  -6.557  -6.011  1.00  0.00     0.010 C 
ATOM     12  C   UNL     1     -19.952  -5.131  -5.771  1.00  0.00     0.033 C 
ATOM     13  C   UNL     1     -20.606  -4.536  -7.029  1.00  0.00     0.120 C 
ATOM     14  C   UNL     1     -21.407  -5.591  -7.894  1.00  0.00    -0.006 C 
ATOM     15  C   UNL     1     -21.844  -6.865  -7.028  1.00  0.00     0.003 C 
ATOM     16  C   UNL     1     -23.081  -6.555  -6.177  1.00  0.00     0.005 C 
ATOM     17  C   UNL     1     -23.596  -7.800  -5.475  1.00  0.00     0.008 C 
ATOM     18  C   UNL     1     -22.684  -8.327  -4.327  1.00  0.00    -0.024 C 
ATOM     19  C   UNL     1     -23.091  -7.627  -2.874  1.00  0.00    -0.024 C 
ATOM     20  C   UNL     1     -24.370  -8.301  -2.251  1.00  0.00     0.008 C 
ATOM     21  C   UNL     1     -24.041  -9.476  -1.310  1.00  0.00     0.010 C 
ATOM     22  C   UNL     1     -23.472  -6.121  -3.049  1.00  0.00     0.012 C 
ATOM     23  C   UNL     1     -23.000  -9.875  -4.332  1.00  0.00     0.012 C 
ATOM     24  C   UNL     1     -20.541  -6.039  -9.111  1.00  0.00     0.014 C 
ATOM     25  C   UNL     1     -22.643  -4.908  -8.562  1.00  0.00     0.014 C 
ATOM     26  C   UNL     1     -20.128  -8.738  -7.030  1.00  0.00     0.012 C 
ENDROOT
BRANCH   1  27
ATOM     27  C   UNL     1     -20.097  -6.953   0.648  1.00  0.00    -0.077 C 
ATOM     28  C   UNL     1     -20.221  -5.502   0.236  1.00  0.00     0.039 C 
ATOM     29  C   UNL     1     -18.876  -7.517   0.674  1.00  0.00     0.008 C 
ENDBRANCH   1  27
BRANCH   4  30
ATOM     30  C   UNL     1     -24.449  -8.665   1.035  1.00  0.00     0.163 C 
BRANCH  30  31
ATOM     31  O   UNL     1     -25.566  -9.500   0.900  1.00  0.00    -0.396 OA
ATOM     32  H   UNL     1     -26.361  -8.929   1.065  1.00  0.00     0.210 HD
ENDBRANCH  30  31
ENDBRANCH   4  30
BRANCH  13  33
ATOM     33  O   UNL     1     -21.423  -3.469  -6.609  1.00  0.00    -0.393 OA
ATOM     34  H   UNL     1     -22.035  -3.821  -5.910  1.00  0.00     0.210 HD
ENDBRANCH  13  33
TORSDOF 4
ENDMDL
MODEL 4
REMARK VINA RESULT:    -6.006      3.456      7.562
REMARK INTER + INTRA:          -7.033
REMARK INTER:                  -6.541
REMARK INTRA:                  -0.492
REMARK UNBOUND:                 0.026
REMARK SMILES C=C(C)[C@@H]1CC[C@]2(CO)CC[C@@]3(C)[C@H](CC[C@@H]4[C@]5(C)CC[C@H](O)C(C)(C)[C@@H]5CC[C@@]43C)[C@H]12
REMARK SMILES IDX 4 1 5 2 6 3 7 4 32 5 14 6 15 7 16 8 17 9 18 10 20 11 21 12
REMARK SMILES IDX 22 13 24 14 27 15 28 16 29 17 30 18 12 19 11 20 10 21 13 22
REMARK SMILES IDX 31 23 25 24 26 25 19 26 2 27 3 28 1 29 8 30 9 31 23 33
REMARK H PARENT 9 32 23 34
REMARK Flexibility Score: inf
ROOT
ATOM      1  C   UNL     1     -22.010 -14.729  -3.125  1.00  0.00     0.018 C 
ATOM      2  C   UNL     1     -20.632 -15.074  -2.548  1.00  0.00     0.009 C 
ATOM      3  C   UNL     1     -19.632 -14.993  -3.709  1.00  0.00     0.010 C 
ATOM      4  C   UNL     1     -20.403 -14.501  -4.963  1.00  0.00    -0.003 C 
ATOM      5  C   UNL     1     -21.715 -13.890  -4.395  1.00  0.00     0.008 C 
ATOM      6  C   UNL     1     -21.690 -12.316  -4.218  1.00  0.00    -0.000 C 
ATOM      7  C   UNL     1     -21.000 -11.764  -2.973  1.00  0.00     0.005 C 
ATOM      8  C   UNL     1     -21.417 -10.300  -2.819  1.00  0.00     0.005 C 
ATOM      9  C   UNL     1     -20.750  -9.366  -3.860  1.00  0.00     0.002 C 
ATOM     10  C   UNL     1     -21.215  -7.795  -3.820  1.00  0.00    -0.026 C 
ATOM     11  C   UNL     1     -22.422  -7.561  -2.839  1.00  0.00     0.010 C 
ATOM     12  C   UNL     1     -23.762  -7.707  -3.544  1.00  0.00     0.033 C 
ATOM     13  C   UNL     1     -24.015  -6.548  -4.523  1.00  0.00     0.120 C 
ATOM     14  C   UNL     1     -22.706  -6.017  -5.237  1.00  0.00    -0.006 C 
ATOM     15  C   UNL     1     -21.540  -7.115  -5.240  1.00  0.00     0.003 C 
ATOM     16  C   UNL     1     -21.770  -8.160  -6.339  1.00  0.00     0.005 C 
ATOM     17  C   UNL     1     -20.592  -9.112  -6.452  1.00  0.00     0.008 C 
ATOM     18  C   UNL     1     -20.432 -10.101  -5.259  1.00  0.00    -0.024 C 
ATOM     19  C   UNL     1     -21.286 -11.502  -5.529  1.00  0.00    -0.024 C 
ATOM     20  C   UNL     1     -20.516 -12.464  -6.509  1.00  0.00     0.008 C 
ATOM     21  C   UNL     1     -19.592 -13.460  -5.782  1.00  0.00     0.010 C 
ATOM     22  C   UNL     1     -22.652 -11.216  -6.233  1.00  0.00     0.012 C 
ATOM     23  C   UNL     1     -18.875 -10.365  -5.248  1.00  0.00     0.012 C 
ATOM     24  C   UNL     1     -22.216  -4.714  -4.533  1.00  0.00     0.014 C 
ATOM     25  C   UNL     1     -23.042  -5.542  -6.686  1.00  0.00     0.014 C 
ATOM     26  C   UNL     1     -20.020  -6.996  -3.208  1.00  0.00     0.012 C 
ENDROOT
BRANCH   1  27
ATOM     27  C   UNL     1     -23.054 -14.194  -2.145  1.00  0.00    -0.077 C 
ATOM     28  C   UNL     1     -24.336 -13.559  -2.638  1.00  0.00     0.039 C 
ATOM     29  C   UNL     1     -22.746 -14.103  -0.839  1.00  0.00     0.008 C 
ENDBRANCH   1  27
BRANCH   4  30
ATOM     30  C   UNL     1     -20.704 -15.711  -5.912  1.00  0.00     0.163 C 
BRANCH  30  31
ATOM     31  O   UNL     1     -19.659 -15.952  -6.814  1.00  0.00    -0.396 OA
ATOM     32  H   UNL     1     -20.052 -16.470  -7.564  1.00  0.00     0.210 HD
ENDBRANCH  30  31
ENDBRANCH   4  30
BRANCH  13  33
ATOM     33  O   UNL     1     -24.979  -6.988  -5.450  1.00  0.00    -0.393 OA
ATOM     34  H   UNL     1     -25.680  -6.287  -5.506  1.00  0.00     0.210 HD
ENDBRANCH  13  33
TORSDOF 4
ENDMDL
MODEL 5
REMARK VINA RESULT:    -5.841      5.067      8.948
REMARK INTER + INTRA:          -6.839
REMARK INTER:                  -6.256
REMARK INTRA:                  -0.583
REMARK UNBOUND:                 0.026
REMARK SMILES C=C(C)[C@@H]1CC[C@]2(CO)CC[C@@]3(C)[C@H](CC[C@@H]4[C@]5(C)CC[C@H](O)C(C)(C)[C@@H]5CC[C@@]43C)[C@H]12
REMARK SMILES IDX 4 1 5 2 6 3 7 4 32 5 14 6 15 7 16 8 17 9 18 10 20 11 21 12
REMARK SMILES IDX 22 13 24 14 27 15 28 16 29 17 30 18 12 19 11 20 10 21 13 22
REMARK SMILES IDX 31 23 25 24 26 25 19 26 2 27 3 28 1 29 8 30 9 31 23 33
REMARK H PARENT 9 32 23 34
REMARK Flexibility Score: inf
ROOT
ATOM      1  C   UNL     1     -21.077 -17.464  -3.061  1.00  0.00     0.018 C 
ATOM      2  C   UNL     1     -19.628 -17.880  -3.338  1.00  0.00     0.009 C 
ATOM      3  C   UNL     1     -19.390 -17.686  -4.841  1.00  0.00     0.010 C 
ATOM      4  C   UNL     1     -20.675 -17.057  -5.445  1.00  0.00    -0.003 C 
ATOM      5  C   UNL     1     -21.445 -16.498  -4.217  1.00  0.00     0.008 C 
ATOM      6  C   UNL     1     -21.230 -14.952  -3.947  1.00  0.00    -0.000 C 
ATOM      7  C   UNL     1     -19.952 -14.541  -3.219  1.00  0.00     0.005 C 
ATOM      8  C   UNL     1     -20.131 -13.098  -2.743  1.00  0.00     0.005 C 
ATOM      9  C   UNL     1     -20.058 -12.065  -3.895  1.00  0.00     0.002 C 
ATOM     10  C   UNL     1     -20.330 -10.502  -3.481  1.00  0.00    -0.026 C 
ATOM     11  C   UNL     1     -20.818 -10.363  -1.992  1.00  0.00     0.010 C 
ATOM     12  C   UNL     1     -22.334 -10.422  -1.884  1.00  0.00     0.033 C 
ATOM     13  C   UNL     1     -22.992  -9.164  -2.476  1.00  0.00     0.120 C 
ATOM     14  C   UNL     1     -22.228  -8.572  -3.728  1.00  0.00    -0.006 C 
ATOM     15  C   UNL     1     -21.313  -9.674  -4.445  1.00  0.00     0.003 C 
ATOM     16  C   UNL     1     -22.154 -10.594  -5.337  1.00  0.00     0.005 C 
ATOM     17  C   UNL     1     -21.278 -11.539  -6.141  1.00  0.00     0.008 C 
ATOM     18  C   UNL     1     -20.575 -12.650  -5.305  1.00  0.00    -0.024 C 
ATOM     19  C   UNL     1     -21.530 -14.008  -5.196  1.00  0.00    -0.024 C 
ATOM     20  C   UNL     1     -21.457 -14.867  -6.514  1.00  0.00     0.008 C 
ATOM     21  C   UNL     1     -20.354 -15.942  -6.478  1.00  0.00     0.010 C 
ATOM     22  C   UNL     1     -23.040 -13.637  -5.038  1.00  0.00     0.012 C 
ATOM     23  C   UNL     1     -19.269 -12.927  -6.148  1.00  0.00     0.012 C 
ATOM     24  C   UNL     1     -21.358  -7.355  -3.286  1.00  0.00     0.014 C 
ATOM     25  C   UNL     1     -23.248  -7.943  -4.730  1.00  0.00     0.014 C 
ATOM     26  C   UNL     1     -18.944  -9.784  -3.534  1.00  0.00     0.012 C 
ENDROOT
BRANCH   1  27
ATOM     27  C   UNL     1     -21.408 -17.027  -1.634  1.00  0.00    -0.077 C 
ATOM     28  C   UNL     1     -20.339 -16.979  -0.563  1.00  0.00     0.039 C 
ATOM     29  C   UNL     1     -22.694 -16.876  -1.272  1.00  0.00     0.008 C 
ENDBRANCH   1  27
BRANCH   4  30
ATOM     30  C   UNL     1     -21.508 -18.157  -6.187  1.00  0.00     0.163 C 
BRANCH  30  31
ATOM     31  O   UNL     1     -21.253 -18.178  -7.564  1.00  0.00    -0.396 OA
ATOM     32  H   UNL     1     -21.204 -19.135  -7.824  1.00  0.00     0.210 HD
ENDBRANCH  30  31
ENDBRANCH   4  30
BRANCH  13  33
ATOM     33  O   UNL     1     -24.326  -9.495  -2.780  1.00  0.00    -0.393 OA
ATOM     34  H   UNL     1     -24.440  -9.399  -3.762  1.00  0.00     0.210 HD
ENDBRANCH  13  33
TORSDOF 4
ENDMDL
MODEL 6
REMARK VINA RESULT:    -5.786      1.895      7.931
REMARK INTER + INTRA:          -6.775
REMARK INTER:                  -6.147
REMARK INTRA:                  -0.627
REMARK UNBOUND:                 0.026
REMARK SMILES C=C(C)[C@@H]1CC[C@]2(CO)CC[C@@]3(C)[C@H](CC[C@@H]4[C@]5(C)CC[C@H](O)C(C)(C)[C@@H]5CC[C@@]43C)[C@H]12
REMARK SMILES IDX 4 1 5 2 6 3 7 4 32 5 14 6 15 7 16 8 17 9 18 10 20 11 21 12
REMARK SMILES IDX 22 13 24 14 27 15 28 16 29 17 30 18 12 19 11 20 10 21 13 22
REMARK SMILES IDX 31 23 25 24 26 25 19 26 2 27 3 28 1 29 8 30 9 31 23 33
REMARK H PARENT 9 32 23 34
REMARK Flexibility Score: inf
ROOT
ATOM      1  C   UNL     1     -24.898 -10.980   0.113  1.00  0.00     0.018 C 
ATOM      2  C   UNL     1     -25.213 -10.147   1.362  1.00  0.00     0.009 C 
ATOM      3  C   UNL     1     -23.876  -9.883   2.067  1.00  0.00     0.010 C 
ATOM      4  C   UNL     1     -22.749 -10.478   1.181  1.00  0.00    -0.003 C 
ATOM      5  C   UNL     1     -23.413 -10.673  -0.211  1.00  0.00     0.008 C 
ATOM      6  C   UNL     1     -23.138  -9.506  -1.245  1.00  0.00    -0.000 C 
ATOM      7  C   UNL     1     -23.987  -8.243  -1.117  1.00  0.00     0.005 C 
ATOM      8  C   UNL     1     -23.823  -7.437  -2.408  1.00  0.00     0.005 C 
ATOM      9  C   UNL     1     -22.440  -6.750  -2.522  1.00  0.00     0.002 C 
ATOM     10  C   UNL     1     -22.151  -5.941  -3.918  1.00  0.00    -0.026 C 
ATOM     11  C   UNL     1     -23.280  -6.182  -4.985  1.00  0.00     0.010 C 
ATOM     12  C   UNL     1     -22.974  -7.377  -5.876  1.00  0.00     0.033 C 
ATOM     13  C   UNL     1     -21.799  -7.087  -6.825  1.00  0.00     0.120 C 
ATOM     14  C   UNL     1     -20.684  -6.157  -6.196  1.00  0.00    -0.006 C 
ATOM     15  C   UNL     1     -20.714  -6.187  -4.595  1.00  0.00     0.003 C 
ATOM     16  C   UNL     1     -20.031  -7.448  -4.054  1.00  0.00     0.005 C 
ATOM     17  C   UNL     1     -19.915  -7.408  -2.540  1.00  0.00     0.008 C 
ATOM     18  C   UNL     1     -21.264  -7.562  -1.776  1.00  0.00    -0.024 C 
ATOM     19  C   UNL     1     -21.598  -9.162  -1.472  1.00  0.00    -0.024 C 
ATOM     20  C   UNL     1     -20.771  -9.697  -0.244  1.00  0.00     0.008 C 
ATOM     21  C   UNL     1     -21.510  -9.544   1.100  1.00  0.00     0.010 C 
ATOM     22  C   UNL     1     -21.178 -10.074  -2.670  1.00  0.00     0.012 C 
ATOM     23  C   UNL     1     -20.986  -6.765  -0.441  1.00  0.00     0.012 C 
ATOM     24  C   UNL     1     -20.866  -4.696  -6.711  1.00  0.00     0.014 C 
ATOM     25  C   UNL     1     -19.278  -6.561  -6.745  1.00  0.00     0.014 C 
ATOM     26  C   UNL     1     -22.224  -4.419  -3.570  1.00  0.00     0.012 C 
ENDROOT
BRANCH   1  27
ATOM     27  C   UNL     1     -25.907 -10.911  -1.034  1.00  0.00    -0.077 C 
ATOM     28  C   UNL     1     -27.146 -10.048  -0.934  1.00  0.00     0.039 C 
ATOM     29  C   UNL     1     -25.801 -11.777  -2.057  1.00  0.00     0.008 C 
ENDBRANCH   1  27
BRANCH   4  30
ATOM     30  C   UNL     1     -22.268 -11.844   1.778  1.00  0.00     0.163 C 
BRANCH  30  31
ATOM     31  O   UNL     1     -22.011 -12.798   0.784  1.00  0.00    -0.396 OA
ATOM     32  H   UNL     1     -21.593 -13.573   1.243  1.00  0.00     0.210 HD
ENDBRANCH  30  31
ENDBRANCH   4  30
BRANCH  13  33
ATOM     33  O   UNL     1     -21.279  -8.329  -7.236  1.00  0.00    -0.393 OA
ATOM     34  H   UNL     1     -20.441  -8.149  -7.738  1.00  0.00     0.210 HD
ENDBRANCH  13  33
TORSDOF 4
ENDMDL
MODEL 7
REMARK VINA RESULT:    -5.778      1.916      7.543
REMARK INTER + INTRA:          -6.765
REMARK INTER:                  -6.166
REMARK INTRA:                  -0.599
REMARK UNBOUND:                 0.026
REMARK SMILES C=C(C)[C@@H]1CC[C@]2(CO)CC[C@@]3(C)[C@H](CC[C@@H]4[C@]5(C)CC[C@H](O)C(C)(C)[C@@H]5CC[C@@]43C)[C@H]12
REMARK SMILES IDX 4 1 5 2 6 3 7 4 32 5 14 6 15 7 16 8 17 9 18 10 20 11 21 12
REMARK SMILES IDX 22 13 24 14 27 15 28 16 29 17 30 18 12 19 11 20 10 21 13 22
REMARK SMILES IDX 31 23 25 24 26 25 19 26 2 27 3 28 1 29 8 30 9 31 23 33
REMARK H PARENT 9 32 23 34
REMARK Flexibility Score: inf
ROOT
ATOM      1  C   UNL     1     -22.622  -9.801  -0.734  1.00  0.00     0.018 C 
ATOM      2  C   UNL     1     -22.852  -8.967   0.532  1.00  0.00     0.009 C 
ATOM      3  C   UNL     1     -21.486  -8.407   0.948  1.00  0.00     0.010 C 
ATOM      4  C   UNL     1     -20.453  -8.829  -0.131  1.00  0.00    -0.003 C 
ATOM      5  C   UNL     1     -21.319  -9.236  -1.356  1.00  0.00     0.008 C 
ATOM      6  C   UNL     1     -21.488  -8.106  -2.453  1.00  0.00    -0.000 C 
ATOM      7  C   UNL     1     -22.532  -7.025  -2.187  1.00  0.00     0.005 C 
ATOM      8  C   UNL     1     -22.785  -6.286  -3.503  1.00  0.00     0.005 C 
ATOM      9  C   UNL     1     -21.615  -5.353  -3.909  1.00  0.00     0.002 C 
ATOM     10  C   UNL     1     -21.768  -4.594  -5.354  1.00  0.00    -0.026 C 
ATOM     11  C   UNL     1     -23.009  -5.115  -6.166  1.00  0.00     0.010 C 
ATOM     12  C   UNL     1     -22.645  -6.283  -7.072  1.00  0.00     0.033 C 
ATOM     13  C   UNL     1     -21.757  -5.833  -8.244  1.00  0.00     0.120 C 
ATOM     14  C   UNL     1     -20.752  -4.668  -7.874  1.00  0.00    -0.006 C 
ATOM     15  C   UNL     1     -20.468  -4.602  -6.299  1.00  0.00     0.003 C 
ATOM     16  C   UNL     1     -19.455  -5.671  -5.876  1.00  0.00     0.005 C 
ATOM     17  C   UNL     1     -19.061  -5.514  -4.417  1.00  0.00     0.008 C 
ATOM     18  C   UNL     1     -20.180  -5.875  -3.395  1.00  0.00    -0.024 C 
ATOM     19  C   UNL     1     -20.120  -7.488  -2.991  1.00  0.00    -0.024 C 
ATOM     20  C   UNL     1     -18.983  -7.775  -1.942  1.00  0.00     0.008 C 
ATOM     21  C   UNL     1     -19.466  -7.682  -0.481  1.00  0.00     0.010 C 
ATOM     22  C   UNL     1     -19.763  -8.376  -4.227  1.00  0.00     0.012 C 
ATOM     23  C   UNL     1     -19.817  -4.957  -2.162  1.00  0.00     0.012 C 
ATOM     24  C   UNL     1     -21.320  -3.305  -8.377  1.00  0.00     0.014 C 
ATOM     25  C   UNL     1     -19.426  -4.828  -8.683  1.00  0.00     0.014 C 
ATOM     26  C   UNL     1     -22.078  -3.096  -5.035  1.00  0.00     0.012 C 
ENDROOT
BRANCH   1  27
ATOM     27  C   UNL     1     -23.824 -10.001  -1.656  1.00  0.00    -0.077 C 
ATOM     28  C   UNL     1     -25.200  -9.505  -1.265  1.00  0.00     0.039 C 
ATOM     29  C   UNL     1     -23.705 -10.798  -2.732  1.00  0.00     0.008 C 
ENDBRANCH   1  27
BRANCH   4  30
ATOM     30  C   UNL     1     -19.602 -10.037   0.390  1.00  0.00     0.163 C 
BRANCH  30  31
ATOM     31  O   UNL     1     -19.768 -10.250   1.765  1.00  0.00    -0.396 OA
ATOM     32  H   UNL     1     -19.614 -11.219   1.917  1.00  0.00     0.210 HD
ENDBRANCH  30  31
ENDBRANCH   4  30
BRANCH  13  33
ATOM     33  O   UNL     1     -21.087  -6.976  -8.721  1.00  0.00    -0.393 OA
ATOM     34  H   UNL     1     -21.220  -7.010  -9.704  1.00  0.00     0.210 HD
ENDBRANCH  13  33
TORSDOF 4
ENDMDL
MODEL 8
REMARK VINA RESULT:    -5.709      2.871      9.217
REMARK INTER + INTRA:          -6.685
REMARK INTER:                  -6.097
REMARK INTRA:                  -0.588
REMARK UNBOUND:                 0.026
REMARK SMILES C=C(C)[C@@H]1CC[C@]2(CO)CC[C@@]3(C)[C@H](CC[C@@H]4[C@]5(C)CC[C@H](O)C(C)(C)[C@@H]5CC[C@@]43C)[C@H]12
REMARK SMILES IDX 4 1 5 2 6 3 7 4 32 5 14 6 15 7 16 8 17 9 18 10 20 11 21 12
REMARK SMILES IDX 22 13 24 14 27 15 28 16 29 17 30 18 12 19 11 20 10 21 13 22
REMARK SMILES IDX 31 23 25 24 26 25 19 26 2 27 3 28 1 29 8 30 9 31 23 33
REMARK H PARENT 9 32 23 34
REMARK Flexibility Score: inf
ROOT
ATOM      1  C   UNL     1     -25.386 -10.106   3.327  1.00  0.00     0.018 C 
ATOM      2  C   UNL     1     -24.206 -10.433   4.249  1.00  0.00     0.009 C 
ATOM      3  C   UNL     1     -23.557 -11.711   3.703  1.00  0.00     0.010 C 
ATOM      4  C   UNL     1     -24.296 -12.094   2.393  1.00  0.00    -0.003 C 
ATOM      5  C   UNL     1     -25.048 -10.797   1.981  1.00  0.00     0.008 C 
ATOM      6  C   UNL     1     -24.303  -9.915   0.897  1.00  0.00    -0.000 C 
ATOM      7  C   UNL     1     -23.183  -9.002   1.389  1.00  0.00     0.005 C 
ATOM      8  C   UNL     1     -22.877  -7.997   0.276  1.00  0.00     0.005 C 
ATOM      9  C   UNL     1     -22.122  -8.629  -0.920  1.00  0.00     0.002 C 
ATOM     10  C   UNL     1     -21.836  -7.640  -2.195  1.00  0.00    -0.026 C 
ATOM     11  C   UNL     1     -22.568  -6.256  -2.045  1.00  0.00     0.010 C 
ATOM     12  C   UNL     1     -23.959  -6.280  -2.662  1.00  0.00     0.033 C 
ATOM     13  C   UNL     1     -23.894  -6.357  -4.197  1.00  0.00     0.120 C 
ATOM     14  C   UNL     1     -22.681  -7.213  -4.744  1.00  0.00    -0.006 C 
ATOM     15  C   UNL     1     -22.142  -8.251  -3.650  1.00  0.00     0.003 C 
ATOM     16  C   UNL     1     -23.041  -9.491  -3.575  1.00  0.00     0.005 C 
ATOM     17  C   UNL     1     -22.452 -10.548  -2.658  1.00  0.00     0.008 C 
ATOM     18  C   UNL     1     -22.476 -10.186  -1.143  1.00  0.00    -0.024 C 
ATOM     19  C   UNL     1     -23.890 -10.695  -0.431  1.00  0.00    -0.024 C 
ATOM     20  C   UNL     1     -23.854 -12.239  -0.124  1.00  0.00     0.008 C 
ATOM     21  C   UNL     1     -23.318 -12.567   1.282  1.00  0.00     0.010 C 
ATOM     22  C   UNL     1     -25.114 -10.500  -1.382  1.00  0.00     0.012 C 
ATOM     23  C   UNL     1     -21.229 -10.982  -0.588  1.00  0.00     0.012 C 
ATOM     24  C   UNL     1     -21.530  -6.263  -5.197  1.00  0.00     0.014 C 
ATOM     25  C   UNL     1     -23.091  -7.941  -6.063  1.00  0.00     0.014 C 
ATOM     26  C   UNL     1     -20.309  -7.308  -2.164  1.00  0.00     0.012 C 
ENDROOT
BRANCH   1  27
ATOM     27  C   UNL     1     -25.846  -8.649   3.285  1.00  0.00    -0.077 C 
ATOM     28  C   UNL     1     -25.195  -7.598   4.158  1.00  0.00     0.039 C 
ATOM     29  C   UNL     1     -26.970  -8.331   2.618  1.00  0.00     0.008 C 
ENDBRANCH   1  27
BRANCH   4  30
ATOM     30  C   UNL     1     -25.296 -13.268   2.669  1.00  0.00     0.163 C 
BRANCH  30  31
ATOM     31  O   UNL     1     -25.301 -13.656   4.015  1.00  0.00    -0.396 OA
ATOM     32  H   UNL     1     -24.823 -14.525   4.056  1.00  0.00     0.210 HD
ENDBRANCH  30  31
ENDBRANCH   4  30
BRANCH  13  33
ATOM     33  O   UNL     1     -25.133  -6.856  -4.642  1.00  0.00    -0.393 OA
ATOM     34  H   UNL     1     -25.720  -6.075  -4.824  1.00  0.00     0.210 HD
ENDBRANCH  13  33
TORSDOF 4
ENDMDL
MODEL 9
REMARK VINA RESULT:    -5.707      3.050      5.584
REMARK INTER + INTRA:          -6.683
REMARK INTER:                  -6.117
REMARK INTRA:                  -0.565
REMARK UNBOUND:                 0.026
REMARK SMILES C=C(C)[C@@H]1CC[C@]2(CO)CC[C@@]3(C)[C@H](CC[C@@H]4[C@]5(C)CC[C@H](O)C(C)(C)[C@@H]5CC[C@@]43C)[C@H]12
REMARK SMILES IDX 4 1 5 2 6 3 7 4 32 5 14 6 15 7 16 8 17 9 18 10 20 11 21 12
REMARK SMILES IDX 22 13 24 14 27 15 28 16 29 17 30 18 12 19 11 20 10 21 13 22
REMARK SMILES IDX 31 23 25 24 26 25 19 26 2 27 3 28 1 29 8 30 9 31 23 33
REMARK H PARENT 9 32 23 34
REMARK Flexibility Score: inf
ROOT
ATOM      1  C   UNL     1     -22.066  -6.003  -4.200  1.00  0.00     0.018 C 
ATOM      2  C   UNL     1     -23.279  -5.758  -5.106  1.00  0.00     0.009 C 
ATOM      3  C   UNL     1     -22.850  -6.133  -6.531  1.00  0.00     0.010 C 
ATOM      4  C   UNL     1     -21.406  -6.697  -6.457  1.00  0.00    -0.003 C 
ATOM      5  C   UNL     1     -21.204  -7.047  -4.956  1.00  0.00     0.008 C 
ATOM      6  C   UNL     1     -21.449  -8.569  -4.592  1.00  0.00    -0.000 C 
ATOM      7  C   UNL     1     -22.896  -9.020  -4.410  1.00  0.00     0.005 C 
ATOM      8  C   UNL     1     -22.876 -10.381  -3.710  1.00  0.00     0.005 C 
ATOM      9  C   UNL     1     -22.412 -11.532  -4.637  1.00  0.00     0.002 C 
ATOM     10  C   UNL     1     -22.276 -13.009  -3.939  1.00  0.00    -0.026 C 
ATOM     11  C   UNL     1     -22.458 -12.943  -2.378  1.00  0.00     0.010 C 
ATOM     12  C   UNL     1     -21.133 -12.729  -1.661  1.00  0.00     0.033 C 
ATOM     13  C   UNL     1     -20.235 -13.975  -1.750  1.00  0.00     0.120 C 
ATOM     14  C   UNL     1     -20.373 -14.766  -3.113  1.00  0.00    -0.006 C 
ATOM     15  C   UNL     1     -20.944 -13.838  -4.287  1.00  0.00     0.003 C 
ATOM     16  C   UNL     1     -19.843 -12.942  -4.867  1.00  0.00     0.005 C 
ATOM     17  C   UNL     1     -20.336 -12.175  -6.082  1.00  0.00     0.008 C 
ATOM     18  C   UNL     1     -21.372 -11.054  -5.772  1.00  0.00    -0.024 C 
ATOM     19  C   UNL     1     -20.610  -9.608  -5.464  1.00  0.00    -0.024 C 
ATOM     20  C   UNL     1     -20.155  -8.904  -6.796  1.00  0.00     0.008 C 
ATOM     21  C   UNL     1     -21.213  -7.941  -7.367  1.00  0.00     0.010 C 
ATOM     22  C   UNL     1     -19.294  -9.815  -4.646  1.00  0.00     0.012 C 
ATOM     23  C   UNL     1     -22.210 -10.993  -7.109  1.00  0.00     0.012 C 
ATOM     24  C   UNL     1     -21.296 -16.006  -2.910  1.00  0.00     0.014 C 
ATOM     25  C   UNL     1     -19.000 -15.398  -3.506  1.00  0.00     0.014 C 
ATOM     26  C   UNL     1     -23.479 -13.858  -4.462  1.00  0.00     0.012 C 
ENDROOT
BRANCH   1  27
ATOM     27  C   UNL     1     -22.352  -6.253  -2.719  1.00  0.00    -0.077 C 
ATOM     28  C   UNL     1     -23.762  -6.493  -2.224  1.00  0.00     0.039 C 
ATOM     29  C   UNL     1     -21.373  -6.060  -1.817  1.00  0.00     0.008 C 
ENDBRANCH   1  27
BRANCH   4  30
ATOM     30  C   UNL     1     -20.384  -5.608  -6.930  1.00  0.00     0.163 C 
BRANCH  30  31
ATOM     31  O   UNL     1     -21.014  -4.525  -7.558  1.00  0.00    -0.396 OA
ATOM     32  H   UNL     1     -20.289  -3.912  -7.849  1.00  0.00     0.210 HD
ENDBRANCH  30  31
ENDBRANCH   4  30
BRANCH  13  33
ATOM     33  O   UNL     1     -18.912 -13.553  -1.517  1.00  0.00    -0.393 OA
ATOM     34  H   UNL     1     -18.826 -13.367  -0.545  1.00  0.00     0.210 HD
ENDBRANCH  13  33
TORSDOF 4
ENDMDL
