MODEL 1
REMARK VINA RESULT:    -3.444      0.000      0.000
REMARK INTER + INTRA:          -4.085
REMARK INTER:                  -4.048
REMARK INTRA:                  -0.037
REMARK UNBOUND:                -0.037
REMARK SMILES O=C([O-])CCC(=O)[O-]
REMARK SMILES IDX 4 1 2 2 1 3 3 4 5 5 6 6 7 7 8 8
REMARK H PARENT
REMARK Flexibility Score: inf
ROOT
ATOM      1  C   UNL     1     -14.329   1.491  -9.604  1.00  0.00     0.059 C 
ENDROOT
BRANCH   1   2
ATOM      2  C   UNL     1     -14.141   0.093 -10.104  1.00  0.00     0.042 C 
ATOM      3  O   UNL     1     -15.121  -0.696 -10.165  1.00  0.00    -0.550 OA
ATOM      4  O   UNL     1     -12.874  -0.355 -10.456  1.00  0.00    -0.550 OA
ENDBRANCH   1   2
BRANCH   1   5
ATOM      5  C   UNL     1     -12.997   2.243  -9.602  1.00  0.00     0.059 C 
BRANCH   5   6
ATOM      6  C   UNL     1     -13.101   3.489  -8.781  1.00  0.00     0.042 C 
ATOM      7  O   UNL     1     -12.060   4.058  -8.360  1.00  0.00    -0.550 OA
ATOM      8  O   UNL     1     -14.348   3.995  -8.440  1.00  0.00    -0.550 OA
ENDBRANCH   5   6
ENDBRANCH   1   5
TORSDOF 3
ENDMDL
MODEL 2
REMARK VINA RESULT:    -3.419      6.907      8.765
REMARK INTER + INTRA:          -4.055
REMARK INTER:                  -3.946
REMARK INTRA:                  -0.109
REMARK UNBOUND:                -0.037
REMARK SMILES O=C([O-])CCC(=O)[O-]
REMARK SMILES IDX 4 1 2 2 1 3 3 4 5 5 6 6 7 7 8 8
REMARK H PARENT
REMARK Flexibility Score: inf
ROOT
ATOM      1  C   UNL     1      -9.578  -4.690  -8.198  1.00  0.00     0.059 C 
ENDROOT
BRANCH   1   2
ATOM      2  C   UNL     1     -10.311  -4.109  -9.365  1.00  0.00     0.042 C 
ATOM      3  O   UNL     1     -11.548  -4.305  -9.498  1.00  0.00    -0.550 OA
ATOM      4  O   UNL     1      -9.620  -3.392 -10.334  1.00  0.00    -0.550 OA
ENDBRANCH   1   2
BRANCH   1   5
ATOM      5  C   UNL     1     -10.559  -5.337  -7.218  1.00  0.00     0.059 C 
BRANCH   5   6
ATOM      6  C   UNL     1     -10.435  -6.826  -7.259  1.00  0.00     0.042 C 
ATOM      7  O   UNL     1     -10.261  -7.477  -6.195  1.00  0.00    -0.550 OA
ATOM      8  O   UNL     1     -10.462  -7.493  -8.477  1.00  0.00    -0.550 OA
ENDBRANCH   5   6
ENDBRANCH   1   5
TORSDOF 3
ENDMDL
MODEL 3
REMARK VINA RESULT:    -3.380      7.033      8.170
REMARK INTER + INTRA:          -4.010
REMARK INTER:                  -3.914
REMARK INTRA:                  -0.096
REMARK UNBOUND:                -0.037
REMARK SMILES O=C([O-])CCC(=O)[O-]
REMARK SMILES IDX 4 1 2 2 1 3 3 4 5 5 6 6 7 7 8 8
REMARK H PARENT
REMARK Flexibility Score: inf
ROOT
ATOM      1  C   UNL     1     -10.268  -4.490  -6.969  1.00  0.00     0.059 C 
ENDROOT
BRANCH   1   2
ATOM      2  C   UNL     1     -10.773  -5.784  -6.414  1.00  0.00     0.042 C 
ATOM      3  O   UNL     1     -10.356  -6.879  -6.879  1.00  0.00    -0.550 OA
ATOM      4  O   UNL     1     -11.741  -5.784  -5.418  1.00  0.00    -0.550 OA
ENDBRANCH   1   2
BRANCH   1   5
ATOM      5  C   UNL     1      -9.476  -4.732  -8.256  1.00  0.00     0.059 C 
BRANCH   5   6
ATOM      6  C   UNL     1     -10.221  -4.197  -9.437  1.00  0.00     0.042 C 
ATOM      7  O   UNL     1     -11.451  -4.433  -9.569  1.00  0.00    -0.550 OA
ATOM      8  O   UNL     1      -9.548  -3.480 -10.418  1.00  0.00    -0.550 OA
ENDBRANCH   5   6
ENDBRANCH   1   5
TORSDOF 3
ENDMDL
MODEL 4
REMARK VINA RESULT:    -3.377     16.112     17.270
REMARK INTER + INTRA:          -4.007
REMARK INTER:                  -3.828
REMARK INTRA:                  -0.179
REMARK UNBOUND:                -0.037
REMARK SMILES O=C([O-])CCC(=O)[O-]
REMARK SMILES IDX 4 1 2 2 1 3 3 4 5 5 6 6 7 7 8 8
REMARK H PARENT
REMARK Flexibility Score: inf
ROOT
ATOM      1  C   UNL     1     -11.377   3.058   6.997  1.00  0.00     0.059 C 
ENDROOT
BRANCH   1   2
ATOM      2  C   UNL     1     -11.915   3.969   5.939  1.00  0.00     0.042 C 
ATOM      3  O   UNL     1     -11.132   4.525   5.122  1.00  0.00    -0.550 OA
ATOM      4  O   UNL     1     -13.275   4.244   5.883  1.00  0.00    -0.550 OA
ENDBRANCH   1   2
BRANCH   1   5
ATOM      5  C   UNL     1     -11.914   3.459   8.372  1.00  0.00     0.059 C 
BRANCH   5   6
ATOM      6  C   UNL     1     -11.352   4.781   8.788  1.00  0.00     0.042 C 
ATOM      7  O   UNL     1     -10.127   4.893   9.054  1.00  0.00    -0.550 OA
ATOM      8  O   UNL     1     -12.191   5.879   8.931  1.00  0.00    -0.550 OA
ENDBRANCH   5   6
ENDBRANCH   1   5
TORSDOF 3
ENDMDL
MODEL 5
REMARK VINA RESULT:    -3.377      7.155      8.261
REMARK INTER + INTRA:          -4.006
REMARK INTER:                  -3.921
REMARK INTRA:                  -0.085
REMARK UNBOUND:                -0.037
REMARK SMILES O=C([O-])CCC(=O)[O-]
REMARK SMILES IDX 4 1 2 2 1 3 3 4 5 5 6 6 7 7 8 8
REMARK H PARENT
REMARK Flexibility Score: inf
ROOT
ATOM      1  C   UNL     1     -10.706  -5.285  -7.495  1.00  0.00     0.059 C 
ENDROOT
BRANCH   1   2
ATOM      2  C   UNL     1     -10.474  -6.762  -7.436  1.00  0.00     0.042 C 
ATOM      3  O   UNL     1     -10.255  -7.326  -6.331  1.00  0.00    -0.550 OA
ATOM      4  O   UNL     1     -10.449  -7.509  -8.607  1.00  0.00    -0.550 OA
ENDBRANCH   1   2
BRANCH   1   5
ATOM      5  C   UNL     1     -10.757  -4.808  -8.947  1.00  0.00     0.059 C 
BRANCH   5   6
ATOM      6  C   UNL     1      -9.617  -3.883  -9.234  1.00  0.00     0.042 C 
ATOM      7  O   UNL     1      -8.800  -3.583  -8.324  1.00  0.00    -0.550 OA
ATOM      8  O   UNL     1      -9.484  -3.313 -10.494  1.00  0.00    -0.550 OA
ENDBRANCH   5   6
ENDBRANCH   1   5
TORSDOF 3
ENDMDL
MODEL 6
REMARK VINA RESULT:    -3.364     16.115     17.497
REMARK INTER + INTRA:          -3.990
REMARK INTER:                  -3.817
REMARK INTRA:                  -0.173
REMARK UNBOUND:                -0.037
REMARK SMILES O=C([O-])CCC(=O)[O-]
REMARK SMILES IDX 4 1 2 2 1 3 3 4 5 5 6 6 7 7 8 8
REMARK H PARENT
REMARK Flexibility Score: inf
ROOT
ATOM      1  C   UNL     1     -11.919   3.505   8.403  1.00  0.00     0.059 C 
ENDROOT
BRANCH   1   2
ATOM      2  C   UNL     1     -11.340   4.833   8.777  1.00  0.00     0.042 C 
ATOM      3  O   UNL     1     -10.104   4.948   8.991  1.00  0.00    -0.550 OA
ATOM      4  O   UNL     1     -12.171   5.934   8.936  1.00  0.00    -0.550 OA
ENDBRANCH   1   2
BRANCH   1   5
ATOM      5  C   UNL     1     -11.377   3.047   7.048  1.00  0.00     0.059 C 
BRANCH   5   6
ATOM      6  C   UNL     1     -11.914   3.911   5.951  1.00  0.00     0.042 C 
ATOM      7  O   UNL     1     -11.138   4.384   5.080  1.00  0.00    -0.550 OA
ATOM      8  O   UNL     1     -13.265   4.235   5.919  1.00  0.00    -0.550 OA
ENDBRANCH   5   6
ENDBRANCH   1   5
TORSDOF 3
ENDMDL
MODEL 7
REMARK VINA RESULT:    -3.341     15.776     17.082
REMARK INTER + INTRA:          -3.964
REMARK INTER:                  -3.776
REMARK INTRA:                  -0.188
REMARK UNBOUND:                -0.037
REMARK SMILES O=C([O-])CCC(=O)[O-]
REMARK SMILES IDX 4 1 2 2 1 3 3 4 5 5 6 6 7 7 8 8
REMARK H PARENT
REMARK Flexibility Score: inf
ROOT
ATOM      1  C   UNL     1     -11.242   3.066   7.176  1.00  0.00     0.059 C 
ENDROOT
BRANCH   1   2
ATOM      2  C   UNL     1     -11.357   3.869   8.433  1.00  0.00     0.042 C 
ATOM      3  O   UNL     1     -12.473   3.997   9.004  1.00  0.00    -0.550 OA
ATOM      4  O   UNL     1     -10.242   4.519   8.948  1.00  0.00    -0.550 OA
ENDBRANCH   1   2
BRANCH   1   5
ATOM      5  C   UNL     1     -12.080   3.694   6.061  1.00  0.00     0.059 C 
BRANCH   5   6
ATOM      6  C   UNL     1     -11.539   5.039   5.694  1.00  0.00     0.042 C 
ATOM      7  O   UNL     1     -12.288   6.051   5.720  1.00  0.00    -0.550 OA
ATOM      8  O   UNL     1     -10.222   5.168   5.276  1.00  0.00    -0.550 OA
ENDBRANCH   5   6
ENDBRANCH   1   5
TORSDOF 3
ENDMDL
MODEL 8
REMARK VINA RESULT:    -3.321      7.230      8.917
REMARK INTER + INTRA:          -3.941
REMARK INTER:                  -3.896
REMARK INTRA:                  -0.044
REMARK UNBOUND:                -0.037
REMARK SMILES O=C([O-])CCC(=O)[O-]
REMARK SMILES IDX 4 1 2 2 1 3 3 4 5 5 6 6 7 7 8 8
REMARK H PARENT
REMARK Flexibility Score: inf
ROOT
ATOM      1  C   UNL     1      -9.847  -5.224  -7.690  1.00  0.00     0.059 C 
ENDROOT
BRANCH   1   2
ATOM      2  C   UNL     1      -9.508  -3.831  -8.118  1.00  0.00     0.042 C 
ATOM      3  O   UNL     1      -9.641  -2.870  -7.315  1.00  0.00    -0.550 OA
ATOM      4  O   UNL     1      -9.091  -3.586  -9.421  1.00  0.00    -0.550 OA
ENDBRANCH   1   2
BRANCH   1   5
ATOM      5  C   UNL     1     -10.888  -5.200  -6.569  1.00  0.00     0.059 C 
BRANCH   5   6
ATOM      6  C   UNL     1     -10.917  -6.514  -5.854  1.00  0.00     0.042 C 
ATOM      7  O   UNL     1     -10.243  -7.485  -6.286  1.00  0.00    -0.550 OA
ATOM      8  O   UNL     1     -11.726  -6.680  -4.737  1.00  0.00    -0.550 OA
ENDBRANCH   5   6
ENDBRANCH   1   5
TORSDOF 3
ENDMDL
MODEL 9
REMARK VINA RESULT:    -3.313     16.229     17.659
REMARK INTER + INTRA:          -3.931
REMARK INTER:                  -3.773
REMARK INTRA:                  -0.158
REMARK UNBOUND:                -0.037
REMARK SMILES O=C([O-])CCC(=O)[O-]
REMARK SMILES IDX 4 1 2 2 1 3 3 4 5 5 6 6 7 7 8 8
REMARK H PARENT
REMARK Flexibility Score: inf
ROOT
ATOM      1  C   UNL     1      -9.863   5.424   7.149  1.00  0.00     0.059 C 
ENDROOT
BRANCH   1   2
ATOM      2  C   UNL     1     -10.989   6.075   6.410  1.00  0.00     0.042 C 
ATOM      3  O   UNL     1     -11.466   7.168   6.816  1.00  0.00    -0.550 OA
ATOM      4  O   UNL     1     -11.545   5.453   5.299  1.00  0.00    -0.550 OA
ENDBRANCH   1   2
BRANCH   1   5
ATOM      5  C   UNL     1     -10.328   4.958   8.530  1.00  0.00     0.059 C 
BRANCH   5   6
ATOM      6  C   UNL     1     -11.420   3.944   8.400  1.00  0.00     0.042 C 
ATOM      7  O   UNL     1     -12.486   4.073   9.057  1.00  0.00    -0.550 OA
ATOM      8  O   UNL     1     -11.241   2.830   7.590  1.00  0.00    -0.550 OA
ENDBRANCH   5   6
ENDBRANCH   1   5
TORSDOF 3
ENDMDL
