MODEL 1
REMARK VINA RESULT:    -5.723      0.000      0.000
REMARK INTER + INTRA:          -8.591
REMARK INTER:                  -7.730
REMARK INTRA:                  -0.861
REMARK UNBOUND:                -0.861
REMARK SMILES CC(=O)CCC=C(C)CCC=C(C)C
REMARK SMILES IDX 7 1 6 2 8 3 9 4 10 5 11 6 13 7 12 8 14 9 5 10 4 11 2 12 3 13
REMARK SMILES IDX 1 14
REMARK H PARENT
REMARK Flexibility Score: inf
ROOT
ATOM      1  C   UNL     1       6.592  20.265   5.458  1.00  0.00    -0.077 C 
ATOM      2  C   UNL     1       6.412  20.937   4.298  1.00  0.00    -0.028 C 
ATOM      3  C   UNL     1       6.129  18.837   5.633  1.00  0.00     0.039 C 
ENDROOT
BRANCH   1   4
ATOM      4  C   UNL     1       7.269  20.967   6.615  1.00  0.00     0.034 C 
BRANCH   4   5
ATOM      5  C   UNL     1       6.265  21.278   7.729  1.00  0.00     0.032 C 
BRANCH   5   6
ATOM      6  C   UNL     1       5.272  22.320   7.281  1.00  0.00    -0.028 C 
ATOM      7  C   UNL     1       3.309  20.784   7.525  1.00  0.00     0.039 C 
ATOM      8  C   UNL     1       3.943  22.106   7.160  1.00  0.00    -0.080 C 
ATOM      9  C   UNL     1       3.076  23.233   6.663  1.00  0.00     0.039 C 
ENDBRANCH   5   6
ENDBRANCH   4   5
ENDBRANCH   1   4
BRANCH   2  10
ATOM     10  C   UNL     1       5.789  20.348   3.057  1.00  0.00     0.035 C 
BRANCH  10  11
ATOM     11  C   UNL     1       4.766  21.313   2.452  1.00  0.00     0.079 C 
BRANCH  11  12
ATOM     12  C   UNL     1       4.657  21.109   0.964  1.00  0.00     0.130 C 
ATOM     13  O   UNL     1       4.724  22.074   0.218  1.00  0.00    -0.300 OA
ATOM     14  C   UNL     1       4.455  19.743   0.375  1.00  0.00     0.087 C 
ENDBRANCH  11  12
ENDBRANCH  10  11
ENDBRANCH   2  10
TORSDOF 6
ENDMDL
MODEL 2
REMARK VINA RESULT:    -5.605      1.260      2.108
REMARK INTER + INTRA:          -8.433
REMARK INTER:                  -7.502
REMARK INTRA:                  -0.931
REMARK UNBOUND:                -0.861
REMARK SMILES CC(=O)CCC=C(C)CCC=C(C)C
REMARK SMILES IDX 7 1 6 2 8 3 9 4 10 5 11 6 13 7 12 8 14 9 5 10 4 11 2 12 3 13
REMARK SMILES IDX 1 14
REMARK H PARENT
REMARK Flexibility Score: inf
ROOT
ATOM      1  C   UNL     1       6.588  19.939   5.526  1.00  0.00    -0.077 C 
ATOM      2  C   UNL     1       6.244  19.923   4.218  1.00  0.00    -0.028 C 
ATOM      3  C   UNL     1       6.908  21.226   6.252  1.00  0.00     0.039 C 
ENDROOT
BRANCH   1   4
ATOM      4  C   UNL     1       6.663  18.629   6.281  1.00  0.00     0.034 C 
BRANCH   4   5
ATOM      5  C   UNL     1       5.605  18.574   7.387  1.00  0.00     0.032 C 
BRANCH   5   6
ATOM      6  C   UNL     1       4.215  18.578   6.800  1.00  0.00    -0.028 C 
ATOM      7  C   UNL     1       3.587  20.740   7.900  1.00  0.00     0.039 C 
ATOM      8  C   UNL     1       3.289  19.532   7.042  1.00  0.00    -0.080 C 
ATOM      9  C   UNL     1       1.926  19.385   6.415  1.00  0.00     0.039 C 
ENDBRANCH   5   6
ENDBRANCH   4   5
ENDBRANCH   1   4
BRANCH   2  10
ATOM     10  C   UNL     1       6.093  21.154   3.359  1.00  0.00     0.035 C 
BRANCH  10  11
ATOM     11  C   UNL     1       4.667  21.261   2.810  1.00  0.00     0.079 C 
BRANCH  11  12
ATOM     12  C   UNL     1       4.681  21.328   1.306  1.00  0.00     0.130 C 
ATOM     13  O   UNL     1       4.734  22.416   0.752  1.00  0.00    -0.300 OA
ATOM     14  C   UNL     1       4.619  20.085   0.467  1.00  0.00     0.087 C 
ENDBRANCH  11  12
ENDBRANCH  10  11
ENDBRANCH   2  10
TORSDOF 6
ENDMDL
MODEL 3
REMARK VINA RESULT:    -5.382      2.544      5.647
REMARK INTER + INTRA:          -8.131
REMARK INTER:                  -7.307
REMARK INTRA:                  -0.824
REMARK UNBOUND:                -0.861
REMARK SMILES CC(=O)CCC=C(C)CCC=C(C)C
REMARK SMILES IDX 7 1 6 2 8 3 9 4 10 5 11 6 13 7 12 8 14 9 5 10 4 11 2 12 3 13
REMARK SMILES IDX 1 14
REMARK H PARENT
REMARK Flexibility Score: inf
ROOT
ATOM      1  C   UNL     1       5.215  21.480   4.716  1.00  0.00    -0.077 C 
ATOM      2  C   UNL     1       5.413  21.762   6.024  1.00  0.00    -0.028 C 
ATOM      3  C   UNL     1       6.233  20.714   3.901  1.00  0.00     0.039 C 
ENDROOT
BRANCH   1   4
ATOM      4  C   UNL     1       3.941  21.952   4.049  1.00  0.00     0.034 C 
BRANCH   4   5
ATOM      5  C   UNL     1       4.083  21.930   2.523  1.00  0.00     0.032 C 
BRANCH   5   6
ATOM      6  C   UNL     1       3.045  21.030   1.901  1.00  0.00    -0.028 C 
ATOM      7  C   UNL     1       4.707  19.862   0.436  1.00  0.00     0.039 C 
ATOM      8  C   UNL     1       3.306  20.113   0.944  1.00  0.00    -0.080 C 
ATOM      9  C   UNL     1       2.160  19.309   0.387  1.00  0.00     0.039 C 
ENDBRANCH   5   6
ENDBRANCH   4   5
ENDBRANCH   1   4
BRANCH   2  10
ATOM     10  C   UNL     1       6.615  21.320   6.821  1.00  0.00     0.035 C 
BRANCH  10  11
ATOM     11  C   UNL     1       6.245  20.179   7.773  1.00  0.00     0.079 C 
BRANCH  11  12
ATOM     12  C   UNL     1       6.010  18.903   7.007  1.00  0.00     0.130 C 
ATOM     13  O   UNL     1       6.962  18.300   6.536  1.00  0.00    -0.300 OA
ATOM     14  C   UNL     1       4.626  18.361   6.798  1.00  0.00     0.087 C 
ENDBRANCH  11  12
ENDBRANCH  10  11
ENDBRANCH   2  10
TORSDOF 6
ENDMDL
MODEL 4
REMARK VINA RESULT:    -5.349      2.190      4.841
REMARK INTER + INTRA:          -8.086
REMARK INTER:                  -6.831
REMARK INTRA:                  -1.255
REMARK UNBOUND:                -0.861
REMARK SMILES CC(=O)CCC=C(C)CCC=C(C)C
REMARK SMILES IDX 7 1 6 2 8 3 9 4 10 5 11 6 13 7 12 8 14 9 5 10 4 11 2 12 3 13
REMARK SMILES IDX 1 14
REMARK H PARENT
REMARK Flexibility Score: inf
ROOT
ATOM      1  C   UNL     1       3.880  22.092   7.148  1.00  0.00    -0.077 C 
ATOM      2  C   UNL     1       5.196  22.385   7.036  1.00  0.00    -0.028 C 
ATOM      3  C   UNL     1       3.399  20.792   7.749  1.00  0.00     0.039 C 
ENDROOT
BRANCH   1   4
ATOM      4  C   UNL     1       2.862  23.093   6.647  1.00  0.00     0.034 C 
BRANCH   4   5
ATOM      5  C   UNL     1       3.130  23.461   5.183  1.00  0.00     0.032 C 
BRANCH   5   6
ATOM      6  C   UNL     1       2.381  22.539   4.254  1.00  0.00    -0.028 C 
ATOM      7  C   UNL     1       4.448  21.312   3.550  1.00  0.00     0.039 C 
ATOM      8  C   UNL     1       2.963  21.585   3.494  1.00  0.00    -0.080 C 
ATOM      9  C   UNL     1       2.091  20.762   2.581  1.00  0.00     0.039 C 
ENDBRANCH   5   6
ENDBRANCH   4   5
ENDBRANCH   1   4
BRANCH   2  10
ATOM     10  C   UNL     1       6.313  21.499   7.528  1.00  0.00     0.035 C 
BRANCH  10  11
ATOM     11  C   UNL     1       6.996  20.785   6.357  1.00  0.00     0.079 C 
BRANCH  11  12
ATOM     12  C   UNL     1       6.527  19.357   6.259  1.00  0.00     0.130 C 
ATOM     13  O   UNL     1       6.374  18.849   5.159  1.00  0.00    -0.300 OA
ATOM     14  C   UNL     1       6.230  18.546   7.486  1.00  0.00     0.087 C 
ENDBRANCH  11  12
ENDBRANCH  10  11
ENDBRANCH   2  10
TORSDOF 6
ENDMDL
MODEL 5
REMARK VINA RESULT:    -5.283      3.208      5.015
REMARK INTER + INTRA:          -7.998
REMARK INTER:                  -7.313
REMARK INTRA:                  -0.685
REMARK UNBOUND:                -0.861
REMARK SMILES CC(=O)CCC=C(C)CCC=C(C)C
REMARK SMILES IDX 7 1 6 2 8 3 9 4 10 5 11 6 13 7 12 8 14 9 5 10 4 11 2 12 3 13
REMARK SMILES IDX 1 14
REMARK H PARENT
REMARK Flexibility Score: inf
ROOT
ATOM      1  C   UNL     1       3.824  22.106   7.089  1.00  0.00    -0.077 C 
ATOM      2  C   UNL     1       5.136  22.420   6.996  1.00  0.00    -0.028 C 
ATOM      3  C   UNL     1       3.350  20.849   7.781  1.00  0.00     0.039 C 
ENDROOT
BRANCH   1   4
ATOM      4  C   UNL     1       2.802  23.038   6.473  1.00  0.00     0.034 C 
BRANCH   4   5
ATOM      5  C   UNL     1       3.472  24.310   5.943  1.00  0.00     0.032 C 
BRANCH   5   6
ATOM      6  C   UNL     1       3.382  25.425   6.955  1.00  0.00    -0.028 C 
ATOM      7  C   UNL     1       2.767  27.145   5.240  1.00  0.00     0.039 C 
ATOM      8  C   UNL     1       3.091  26.709   6.651  1.00  0.00    -0.080 C 
ATOM      9  C   UNL     1       3.073  27.724   7.764  1.00  0.00     0.039 C 
ENDBRANCH   5   6
ENDBRANCH   4   5
ENDBRANCH   1   4
BRANCH   2  10
ATOM     10  C   UNL     1       6.254  21.604   7.596  1.00  0.00     0.035 C 
BRANCH  10  11
ATOM     11  C   UNL     1       7.074  20.917   6.500  1.00  0.00     0.079 C 
BRANCH  11  12
ATOM     12  C   UNL     1       6.518  19.551   6.198  1.00  0.00     0.130 C 
ATOM     13  O   UNL     1       6.235  19.257   5.046  1.00  0.00    -0.300 OA
ATOM     14  C   UNL     1       6.291  18.541   7.285  1.00  0.00     0.087 C 
ENDBRANCH  11  12
ENDBRANCH  10  11
ENDBRANCH   2  10
TORSDOF 6
ENDMDL
MODEL 6
REMARK VINA RESULT:    -5.270      2.090      5.367
REMARK INTER + INTRA:          -7.980
REMARK INTER:                  -7.336
REMARK INTRA:                  -0.644
REMARK UNBOUND:                -0.861
REMARK SMILES CC(=O)CCC=C(C)CCC=C(C)C
REMARK SMILES IDX 7 1 6 2 8 3 9 4 10 5 11 6 13 7 12 8 14 9 5 10 4 11 2 12 3 13
REMARK SMILES IDX 1 14
REMARK H PARENT
REMARK Flexibility Score: inf
ROOT
ATOM      1  C   UNL     1       6.442  20.615   5.347  1.00  0.00    -0.077 C 
ATOM      2  C   UNL     1       5.996  19.345   5.475  1.00  0.00    -0.028 C 
ATOM      3  C   UNL     1       6.693  21.498   6.548  1.00  0.00     0.039 C 
ENDROOT
BRANCH   1   4
ATOM      4  C   UNL     1       6.688  21.170   3.961  1.00  0.00     0.034 C 
BRANCH   4   5
ATOM      5  C   UNL     1       5.738  20.534   2.941  1.00  0.00     0.032 C 
BRANCH   5   6
ATOM      6  C   UNL     1       5.212  21.569   1.979  1.00  0.00    -0.028 C 
ATOM      7  C   UNL     1       4.562  19.870   0.257  1.00  0.00     0.039 C 
ATOM      8  C   UNL     1       4.704  21.289   0.759  1.00  0.00    -0.080 C 
ATOM      9  C   UNL     1       4.250  22.432  -0.111  1.00  0.00     0.039 C 
ENDBRANCH   5   6
ENDBRANCH   4   5
ENDBRANCH   1   4
BRANCH   2  10
ATOM     10  C   UNL     1       5.748  18.655   6.793  1.00  0.00     0.035 C 
BRANCH  10  11
ATOM     11  C   UNL     1       4.270  18.281   6.940  1.00  0.00     0.079 C 
BRANCH  11  12
ATOM     12  C   UNL     1       3.399  19.505   6.838  1.00  0.00     0.130 C 
ATOM     13  O   UNL     1       2.645  19.630   5.885  1.00  0.00    -0.300 OA
ATOM     14  C   UNL     1       3.445  20.586   7.879  1.00  0.00     0.087 C 
ENDBRANCH  11  12
ENDBRANCH  10  11
ENDBRANCH   2  10
TORSDOF 6
ENDMDL
MODEL 7
REMARK VINA RESULT:    -5.243      1.885      4.585
REMARK INTER + INTRA:          -7.944
REMARK INTER:                  -6.767
REMARK INTRA:                  -1.177
REMARK UNBOUND:                -0.861
REMARK SMILES CC(=O)CCC=C(C)CCC=C(C)C
REMARK SMILES IDX 7 1 6 2 8 3 9 4 10 5 11 6 13 7 12 8 14 9 5 10 4 11 2 12 3 13
REMARK SMILES IDX 1 14
REMARK H PARENT
REMARK Flexibility Score: inf
ROOT
ATOM      1  C   UNL     1       5.237  19.874   7.618  1.00  0.00    -0.077 C 
ATOM      2  C   UNL     1       3.901  19.978   7.433  1.00  0.00    -0.028 C 
ATOM      3  C   UNL     1       6.068  21.037   8.111  1.00  0.00     0.039 C 
ENDROOT
BRANCH   1   4
ATOM      4  C   UNL     1       5.918  18.558   7.313  1.00  0.00     0.034 C 
BRANCH   4   5
ATOM      5  C   UNL     1       6.894  18.706   6.140  1.00  0.00     0.032 C 
BRANCH   5   6
ATOM      6  C   UNL     1       6.160  19.075   4.875  1.00  0.00    -0.028 C 
ATOM      7  C   UNL     1       7.104  21.394   4.816  1.00  0.00     0.039 C 
ATOM      8  C   UNL     1       6.224  20.288   4.282  1.00  0.00    -0.080 C 
ATOM      9  C   UNL     1       5.404  20.524   3.040  1.00  0.00     0.039 C 
ENDBRANCH   5   6
ENDBRANCH   4   5
ENDBRANCH   1   4
BRANCH   2  10
ATOM     10  C   UNL     1       3.091  21.215   7.733  1.00  0.00     0.035 C 
BRANCH  10  11
ATOM     11  C   UNL     1       2.448  21.767   6.457  1.00  0.00     0.079 C 
BRANCH  11  12
ATOM     12  C   UNL     1       3.297  22.861   5.865  1.00  0.00     0.130 C 
ATOM     13  O   UNL     1       3.408  22.946   4.651  1.00  0.00    -0.300 OA
ATOM     14  C   UNL     1       4.022  23.845   6.736  1.00  0.00     0.087 C 
ENDBRANCH  11  12
ENDBRANCH  10  11
ENDBRANCH   2  10
TORSDOF 6
ENDMDL
MODEL 8
REMARK VINA RESULT:    -5.136      2.268      4.852
REMARK INTER + INTRA:          -7.799
REMARK INTER:                  -6.478
REMARK INTRA:                  -1.320
REMARK UNBOUND:                -0.861
REMARK SMILES CC(=O)CCC=C(C)CCC=C(C)C
REMARK SMILES IDX 7 1 6 2 8 3 9 4 10 5 11 6 13 7 12 8 14 9 5 10 4 11 2 12 3 13
REMARK SMILES IDX 1 14
REMARK H PARENT
REMARK Flexibility Score: inf
ROOT
ATOM      1  C   UNL     1       3.300  19.389   6.933  1.00  0.00    -0.077 C 
ATOM      2  C   UNL     1       4.390  18.619   6.713  1.00  0.00    -0.028 C 
ATOM      3  C   UNL     1       3.302  20.502   7.956  1.00  0.00     0.039 C 
ENDROOT
BRANCH   1   4
ATOM      4  C   UNL     1       2.040  19.119   6.139  1.00  0.00     0.034 C 
BRANCH   4   5
ATOM      5  C   UNL     1       1.628  20.355   5.332  1.00  0.00     0.032 C 
BRANCH   5   6
ATOM      6  C   UNL     1       2.531  20.542   4.140  1.00  0.00    -0.028 C 
ATOM      7  C   UNL     1       3.544  22.649   5.038  1.00  0.00     0.039 C 
ATOM      8  C   UNL     1       3.380  21.582   3.981  1.00  0.00    -0.080 C 
ATOM      9  C   UNL     1       4.195  21.657   2.717  1.00  0.00     0.039 C 
ENDBRANCH   5   6
ENDBRANCH   4   5
ENDBRANCH   1   4
BRANCH   2  10
ATOM     10  C   UNL     1       5.719  18.803   7.403  1.00  0.00     0.035 C 
BRANCH  10  11
ATOM     11  C   UNL     1       6.785  19.280   6.412  1.00  0.00     0.079 C 
BRANCH  11  12
ATOM     12  C   UNL     1       6.732  20.777   6.254  1.00  0.00     0.130 C 
ATOM     13  O   UNL     1       6.832  21.269   5.141  1.00  0.00    -0.300 OA
ATOM     14  C   UNL     1       6.571  21.682   7.441  1.00  0.00     0.087 C 
ENDBRANCH  11  12
ENDBRANCH  10  11
ENDBRANCH   2  10
TORSDOF 6
ENDMDL
MODEL 9
REMARK VINA RESULT:    -5.104      1.271      3.236
REMARK INTER + INTRA:          -7.756
REMARK INTER:                  -6.870
REMARK INTRA:                  -0.886
REMARK UNBOUND:                -0.861
REMARK SMILES CC(=O)CCC=C(C)CCC=C(C)C
REMARK SMILES IDX 7 1 6 2 8 3 9 4 10 5 11 6 13 7 12 8 14 9 5 10 4 11 2 12 3 13
REMARK SMILES IDX 1 14
REMARK H PARENT
REMARK Flexibility Score: inf
ROOT
ATOM      1  C   UNL     1       3.121  21.890   5.440  1.00  0.00    -0.077 C 
ATOM      2  C   UNL     1       3.316  21.287   4.246  1.00  0.00    -0.028 C 
ATOM      3  C   UNL     1       3.576  23.308   5.703  1.00  0.00     0.039 C 
ENDROOT
BRANCH   1   4
ATOM      4  C   UNL     1       2.435  21.119   6.547  1.00  0.00     0.034 C 
BRANCH   4   5
ATOM      5  C   UNL     1       3.375  20.925   7.742  1.00  0.00     0.032 C 
BRANCH   5   6
ATOM      6  C   UNL     1       4.316  19.771   7.500  1.00  0.00    -0.028 C 
ATOM      7  C   UNL     1       6.358  21.221   7.550  1.00  0.00     0.039 C 
ATOM      8  C   UNL     1       5.657  19.892   7.387  1.00  0.00    -0.080 C 
ATOM      9  C   UNL     1       6.469  18.654   7.108  1.00  0.00     0.039 C 
ENDBRANCH   5   6
ENDBRANCH   4   5
ENDBRANCH   1   4
BRANCH   2  10
ATOM     10  C   UNL     1       3.950  21.949   3.047  1.00  0.00     0.035 C 
BRANCH  10  11
ATOM     11  C   UNL     1       4.930  20.997   2.356  1.00  0.00     0.079 C 
BRANCH  11  12
ATOM     12  C   UNL     1       4.621  20.892   0.886  1.00  0.00     0.130 C 
ATOM     13  O   UNL     1       4.749  21.875   0.172  1.00  0.00    -0.300 OA
ATOM     14  C   UNL     1       4.145  19.605   0.277  1.00  0.00     0.087 C 
ENDBRANCH  11  12
ENDBRANCH  10  11
ENDBRANCH   2  10
TORSDOF 6
ENDMDL
