MODEL 1
REMARK VINA RESULT:    -2.702      0.000      0.000
REMARK INTER + INTRA:          -3.045
REMARK INTER:                  -3.018
REMARK INTRA:                  -0.027
REMARK UNBOUND:                -0.027
REMARK SMILES CCCC(=O)[O-]
REMARK SMILES IDX 3 1 4 2 5 3 6 4 2 5 1 6
REMARK H PARENT
REMARK Flexibility Score: inf
ROOT
ATOM      1  C   UNL     1      25.472   8.235  26.376  1.00  0.00     0.052 C 
ENDROOT
BRANCH   1   2
ATOM      2  C   UNL     1      26.655   7.614  27.054  1.00  0.00     0.041 C 
ATOM      3  O   UNL     1      27.630   7.202  26.374  1.00  0.00    -0.550 OA
ATOM      4  O   UNL     1      26.664   7.460  28.435  1.00  0.00    -0.550 OA
ENDBRANCH   1   2
BRANCH   1   5
ATOM      5  C   UNL     1      25.134   9.610  26.966  1.00  0.00     0.003 C 
ATOM      6  C   UNL     1      23.663   9.730  27.360  1.00  0.00     0.004 C 
ENDBRANCH   1   5
TORSDOF 2
ENDMDL
MODEL 2
REMARK VINA RESULT:    -2.699      0.183      1.334
REMARK INTER + INTRA:          -3.042
REMARK INTER:                  -3.012
REMARK INTRA:                  -0.030
REMARK UNBOUND:                -0.027
REMARK SMILES CCCC(=O)[O-]
REMARK SMILES IDX 3 1 4 2 5 3 6 4 2 5 1 6
REMARK H PARENT
REMARK Flexibility Score: inf
ROOT
ATOM      1  C   UNL     1      25.343   8.303  26.466  1.00  0.00     0.052 C 
ENDROOT
BRANCH   1   2
ATOM      2  C   UNL     1      26.514   7.666  27.149  1.00  0.00     0.041 C 
ATOM      3  O   UNL     1      26.529   7.547  28.401  1.00  0.00    -0.550 OA
ATOM      4  O   UNL     1      27.604   7.236  26.403  1.00  0.00    -0.550 OA
ENDBRANCH   1   2
BRANCH   1   5
ATOM      5  C   UNL     1      24.950   9.630  27.128  1.00  0.00     0.003 C 
ATOM      6  C   UNL     1      23.457   9.701  27.448  1.00  0.00     0.004 C 
ENDBRANCH   1   5
TORSDOF 2
ENDMDL
MODEL 3
REMARK VINA RESULT:    -2.657      2.439      3.476
REMARK INTER + INTRA:          -2.994
REMARK INTER:                  -2.956
REMARK INTRA:                  -0.038
REMARK UNBOUND:                -0.027
REMARK SMILES CCCC(=O)[O-]
REMARK SMILES IDX 3 1 4 2 5 3 6 4 2 5 1 6
REMARK H PARENT
REMARK Flexibility Score: inf
ROOT
ATOM      1  C   UNL     1      26.011   7.819  28.600  1.00  0.00     0.052 C 
ENDROOT
BRANCH   1   2
ATOM      2  C   UNL     1      25.348   9.153  28.758  1.00  0.00     0.041 C 
ATOM      3  O   UNL     1      25.002   9.557  29.898  1.00  0.00    -0.550 OA
ATOM      4  O   UNL     1      25.083   9.934  27.640  1.00  0.00    -0.550 OA
ENDBRANCH   1   2
BRANCH   1   5
ATOM      5  C   UNL     1      25.934   7.311  27.155  1.00  0.00     0.003 C 
ATOM      6  C   UNL     1      27.302   7.278  26.474  1.00  0.00     0.004 C 
ENDBRANCH   1   5
TORSDOF 2
ENDMDL
MODEL 4
REMARK VINA RESULT:    -2.555      2.505      3.539
REMARK INTER + INTRA:          -2.881
REMARK INTER:                  -2.843
REMARK INTRA:                  -0.038
REMARK UNBOUND:                -0.027
REMARK SMILES CCCC(=O)[O-]
REMARK SMILES IDX 3 1 4 2 5 3 6 4 2 5 1 6
REMARK H PARENT
REMARK Flexibility Score: inf
ROOT
ATOM      1  C   UNL     1      25.243   8.934  27.178  1.00  0.00     0.052 C 
ENDROOT
BRANCH   1   2
ATOM      2  C   UNL     1      23.766   8.854  27.411  1.00  0.00     0.041 C 
ATOM      3  O   UNL     1      23.055   9.889  27.332  1.00  0.00    -0.550 OA
ATOM      4  O   UNL     1      23.181   7.640  27.750  1.00  0.00    -0.550 OA
ENDBRANCH   1   2
BRANCH   1   5
ATOM      5  C   UNL     1      26.009   7.900  28.012  1.00  0.00     0.003 C 
ATOM      6  C   UNL     1      26.647   6.812  27.148  1.00  0.00     0.004 C 
ENDBRANCH   1   5
TORSDOF 2
ENDMDL
MODEL 5
REMARK VINA RESULT:    -2.553      2.331      2.686
REMARK INTER + INTRA:          -2.879
REMARK INTER:                  -2.813
REMARK INTRA:                  -0.066
REMARK UNBOUND:                -0.027
REMARK SMILES CCCC(=O)[O-]
REMARK SMILES IDX 3 1 4 2 5 3 6 4 2 5 1 6
REMARK H PARENT
REMARK Flexibility Score: inf
ROOT
ATOM      1  C   UNL     1      23.483   9.097  27.376  1.00  0.00     0.052 C 
ENDROOT
BRANCH   1   2
ATOM      2  C   UNL     1      23.838   7.705  26.949  1.00  0.00     0.041 C 
ATOM      3  O   UNL     1      24.724   7.517  26.076  1.00  0.00    -0.550 OA
ATOM      4  O   UNL     1      23.167   6.618  27.493  1.00  0.00    -0.550 OA
ENDBRANCH   1   2
BRANCH   1   5
ATOM      5  C   UNL     1      24.704   9.860  27.903  1.00  0.00     0.003 C 
ATOM      6  C   UNL     1      25.185   9.329  29.253  1.00  0.00     0.004 C 
ENDBRANCH   1   5
TORSDOF 2
ENDMDL
MODEL 6
REMARK VINA RESULT:    -2.499      2.372      2.955
REMARK INTER + INTRA:          -2.819
REMARK INTER:                  -2.789
REMARK INTRA:                  -0.030
REMARK UNBOUND:                -0.027
REMARK SMILES CCCC(=O)[O-]
REMARK SMILES IDX 3 1 4 2 5 3 6 4 2 5 1 6
REMARK H PARENT
REMARK Flexibility Score: inf
ROOT
ATOM      1  C   UNL     1      23.458   8.756  27.722  1.00  0.00     0.052 C 
ENDROOT
BRANCH   1   2
ATOM      2  C   UNL     1      24.743   9.507  27.892  1.00  0.00     0.041 C 
ATOM      3  O   UNL     1      25.251  10.123  26.919  1.00  0.00    -0.550 OA
ATOM      4  O   UNL     1      25.396   9.499  29.118  1.00  0.00    -0.550 OA
ENDBRANCH   1   2
BRANCH   1   5
ATOM      5  C   UNL     1      23.700   7.255  27.514  1.00  0.00     0.003 C 
ATOM      6  C   UNL     1      24.187   6.933  26.102  1.00  0.00     0.004 C 
ENDBRANCH   1   5
TORSDOF 2
ENDMDL
MODEL 7
REMARK VINA RESULT:    -2.484      2.116      3.175
REMARK INTER + INTRA:          -2.801
REMARK INTER:                  -2.736
REMARK INTRA:                  -0.065
REMARK UNBOUND:                -0.027
REMARK SMILES CCCC(=O)[O-]
REMARK SMILES IDX 3 1 4 2 5 3 6 4 2 5 1 6
REMARK H PARENT
REMARK Flexibility Score: inf
ROOT
ATOM      1  C   UNL     1      25.222   7.926  26.256  1.00  0.00     0.052 C 
ENDROOT
BRANCH   1   2
ATOM      2  C   UNL     1      25.588   9.375  26.357  1.00  0.00     0.041 C 
ATOM      3  O   UNL     1      24.995  10.123  27.177  1.00  0.00    -0.550 OA
ATOM      4  O   UNL     1      26.562   9.906  25.521  1.00  0.00    -0.550 OA
ENDBRANCH   1   2
BRANCH   1   5
ATOM      5  C   UNL     1      26.381   7.015  26.680  1.00  0.00     0.003 C 
ATOM      6  C   UNL     1      26.797   7.241  28.133  1.00  0.00     0.004 C 
ENDBRANCH   1   5
TORSDOF 2
ENDMDL
MODEL 8
REMARK VINA RESULT:    -2.465      2.305      2.934
REMARK INTER + INTRA:          -2.780
REMARK INTER:                  -2.708
REMARK INTRA:                  -0.072
REMARK UNBOUND:                -0.027
REMARK SMILES CCCC(=O)[O-]
REMARK SMILES IDX 3 1 4 2 5 3 6 4 2 5 1 6
REMARK H PARENT
REMARK Flexibility Score: inf
ROOT
ATOM      1  C   UNL     1      24.018   9.616  27.432  1.00  0.00     0.052 C 
ENDROOT
BRANCH   1   2
ATOM      2  C   UNL     1      24.333   8.856  28.684  1.00  0.00     0.041 C 
ATOM      3  O   UNL     1      23.818   7.726  28.885  1.00  0.00    -0.550 OA
ATOM      4  O   UNL     1      25.170   9.412  29.644  1.00  0.00    -0.550 OA
ENDBRANCH   1   2
BRANCH   1   5
ATOM      5  C   UNL     1      25.285   9.943  26.630  1.00  0.00     0.003 C 
ATOM      6  C   UNL     1      26.021   8.686  26.167  1.00  0.00     0.004 C 
ENDBRANCH   1   5
TORSDOF 2
ENDMDL
