MODEL 1
REMARK VINA RESULT:    -1.876      0.000      0.000
REMARK INTER + INTRA:          -1.406
REMARK INTER:                  -2.754
REMARK INTRA:                   1.348
REMARK UNBOUND:                 1.348
REMARK SMILES C=C1CC=CC(C)(C)CC=C(C)CCC1
REMARK SMILES IDX 2 1 1 2 15 3 14 4 13 5 11 6 12 7 10 8 3 10 4 11 5 12 6 13
REMARK SMILES IDX 7 14 8 15 9 16
REMARK H PARENT
REMARK Flexibility Score: 60.00
ROOT
ATOM      1  C   UNL     1       3.689   9.921  11.814  1.00  0.00    -0.074 C 
ATOM      2  C   UNL     1       3.445  11.136  11.299  1.00  0.00     0.008 C 
ENDROOT
BRANCH   1   3
ATOM      3  C   UNL     1       3.134   9.565  13.181  1.00  0.00     0.031 C 
BRANCH   3   4
ATOM      4  C   UNL     1       4.214   9.725  14.264  1.00  0.00     0.009 C 
BRANCH   4   5
ATOM      5  C   UNL     1       4.697   8.371  14.816  1.00  0.00     0.030 C 
BRANCH   5   6
ATOM      6  C   UNL     1       6.213   8.321  14.858  1.00  0.00    -0.077 C 
ATOM      7  C   UNL     1       6.957   9.565  15.274  1.00  0.00     0.039 C 
ATOM      8  C   UNL     1       6.935   7.203  14.599  1.00  0.00    -0.027 CG0
ATOM      9  G   UNL     1       6.401   5.859  14.129  1.00  0.00     0.000 G0
ENDBRANCH   5   6
ENDBRANCH   4   5
ENDBRANCH   3   4
ENDBRANCH   1   3
BRANCH   1  10
ATOM     10  C   UNL     1       4.473   8.919  10.979  1.00  0.00     0.057 C 
BRANCH  10  11
ATOM     11  C   UNL     1       4.667   7.590  11.666  1.00  0.00    -0.026 C 
ATOM     12  C   UNL     1       5.887   7.140  12.018  1.00  0.00    -0.024 C 
BRANCH  12  13
ATOM     13  C   UNL     1       6.121   5.752  12.605  1.00  0.00    -0.014 C 
ATOM     14  C   UNL     1       4.871   4.879  12.346  1.00  0.00     0.016 C 
ATOM     15  C   UNL     1       7.314   5.076  11.887  1.00  0.00     0.016 C 
BRANCH  13  16
ATOM     16  C   UNL     1       6.436   5.850  14.132  1.00  0.00     0.038 CG0
ATOM     17  G   UNL     1       6.937   7.210  14.590  1.00  0.00     0.000 G0
ENDBRANCH  13  16
ENDBRANCH  12  13
ENDBRANCH  10  11
ENDBRANCH   1  10
TORSDOF 0
ENDMDL
MODEL 2
REMARK VINA RESULT:    -0.972      1.118      1.535
REMARK INTER + INTRA:          -0.079
REMARK INTER:                  -2.028
REMARK INTRA:                   1.949
REMARK UNBOUND:                 1.348
REMARK SMILES C=C1CC=CC(C)(C)CC=C(C)CCC1
REMARK SMILES IDX 2 1 1 2 15 3 14 4 13 5 11 6 12 7 10 8 3 10 4 11 5 12 6 13
REMARK SMILES IDX 7 14 8 15 9 16
REMARK H PARENT
REMARK Flexibility Score: 60.00
ROOT
ATOM      1  C   UNL     1       3.259  10.416  11.526  1.00  0.00    -0.074 C 
ATOM      2  C   UNL     1       3.463  11.618  10.966  1.00  0.00     0.008 C 
ENDROOT
BRANCH   1   3
ATOM      3  C   UNL     1       2.366  10.306  12.749  1.00  0.00     0.031 C 
BRANCH   3   4
ATOM      4  C   UNL     1       3.165  10.589  14.032  1.00  0.00     0.009 C 
BRANCH   4   5
ATOM      5  C   UNL     1       4.546   9.907  14.026  1.00  0.00     0.030 C 
BRANCH   5   6
ATOM      6  C   UNL     1       4.563   8.726  14.978  1.00  0.00    -0.077 C 
ATOM      7  C   UNL     1       3.525   8.673  16.069  1.00  0.00     0.039 C 
ATOM      8  C   UNL     1       5.423   7.683  14.865  1.00  0.00    -0.027 CG0
ATOM      9  G   UNL     1       6.566   7.545  13.872  1.00  0.00     0.000 G0
ENDBRANCH   5   6
ENDBRANCH   4   5
ENDBRANCH   3   4
ENDBRANCH   1   3
BRANCH   1  10
ATOM     10  C   UNL     1       3.889   9.192  10.878  1.00  0.00     0.057 C 
BRANCH  10  11
ATOM     11  C   UNL     1       4.994   8.581  11.704  1.00  0.00    -0.026 C 
ATOM     12  C   UNL     1       5.224   7.254  11.718  1.00  0.00    -0.024 C 
BRANCH  12  13
ATOM     13  C   UNL     1       6.254   6.600  12.633  1.00  0.00    -0.014 C 
ATOM     14  C   UNL     1       5.716   5.226  13.095  1.00  0.00     0.016 C 
ATOM     15  C   UNL     1       7.562   6.344  11.846  1.00  0.00     0.016 C 
BRANCH  13  16
ATOM     16  C   UNL     1       6.567   7.524  13.853  1.00  0.00     0.038 CG0
ATOM     17  G   UNL     1       5.423   7.677  14.843  1.00  0.00     0.000 G0
ENDBRANCH  13  16
ENDBRANCH  12  13
ENDBRANCH  10  11
ENDBRANCH   1  10
TORSDOF 0
ENDMDL
MODEL 3
REMARK VINA RESULT:     0.245      1.972      4.669
REMARK INTER + INTRA:           1.707
REMARK INTER:                  -1.637
REMARK INTRA:                   3.344
REMARK UNBOUND:                 1.348
REMARK SMILES C=C1CC=CC(C)(C)CC=C(C)CCC1
REMARK SMILES IDX 2 1 1 2 15 3 14 4 13 5 11 6 12 7 10 8 3 10 4 11 5 12 6 13
REMARK SMILES IDX 7 14 8 15 9 16
REMARK H PARENT
REMARK Flexibility Score: 60.00
ROOT
ATOM      1  C   UNL     1       5.833   6.632  11.729  1.00  0.00    -0.074 C 
ATOM      2  C   UNL     1       7.142   6.417  11.932  1.00  0.00     0.008 C 
ENDROOT
BRANCH   1   3
ATOM      3  C   UNL     1       4.816   5.714  12.384  1.00  0.00     0.031 C 
BRANCH   3   4
ATOM      4  C   UNL     1       4.510   6.179  13.818  1.00  0.00     0.009 C 
BRANCH   4   5
ATOM      5  C   UNL     1       3.562   7.391  13.853  1.00  0.00     0.030 C 
BRANCH   5   6
ATOM      6  C   UNL     1       4.308   8.641  14.282  1.00  0.00    -0.077 C 
ATOM      7  C   UNL     1       5.577   8.476  15.079  1.00  0.00     0.039 C 
ATOM      8  C   UNL     1       3.929   9.897  13.938  1.00  0.00    -0.027 CG0
ATOM      9  G   UNL     1       2.675  10.297  13.178  1.00  0.00     0.000 G0
ENDBRANCH   5   6
ENDBRANCH   4   5
ENDBRANCH   3   4
ENDBRANCH   1   3
BRANCH   1  10
ATOM     10  C   UNL     1       5.412   7.827  10.888  1.00  0.00     0.057 C 
BRANCH  10  11
ATOM     11  C   UNL     1       4.399   8.713  11.572  1.00  0.00    -0.026 C 
ATOM     12  C   UNL     1       3.891   9.809  10.976  1.00  0.00    -0.024 C 
BRANCH  12  13
ATOM     13  C   UNL     1       2.959  10.783  11.688  1.00  0.00    -0.014 C 
ATOM     14  C   UNL     1       3.595  12.193  11.670  1.00  0.00     0.016 C 
ATOM     15  C   UNL     1       1.616  10.872  10.924  1.00  0.00     0.016 C 
BRANCH  13  16
ATOM     16  C   UNL     1       2.683  10.306  13.150  1.00  0.00     0.038 CG0
ATOM     17  G   UNL     1       3.923   9.905  13.931  1.00  0.00     0.000 G0
ENDBRANCH  13  16
ENDBRANCH  12  13
ENDBRANCH  10  11
ENDBRANCH   1  10
TORSDOF 0
ENDMDL
MODEL 4
REMARK VINA RESULT:     0.572      1.882      4.901
REMARK INTER + INTRA:           2.188
REMARK INTER:                  -0.173
REMARK INTRA:                   2.361
REMARK UNBOUND:                 1.348
REMARK SMILES C=C1CC=CC(C)(C)CC=C(C)CCC1
REMARK SMILES IDX 2 1 1 2 15 3 14 4 13 5 11 6 12 7 10 8 3 10 4 11 5 12 6 13
REMARK SMILES IDX 7 14 8 15 9 16
REMARK H PARENT
REMARK Flexibility Score: 60.00
ROOT
ATOM      1  C   UNL     1       7.018   7.100  14.305  1.00  0.00    -0.074 C 
ATOM      2  C   UNL     1       8.161   7.347  13.648  1.00  0.00     0.008 C 
ENDROOT
BRANCH   1   3
ATOM      3  C   UNL     1       6.439   5.697  14.293  1.00  0.00     0.031 C 
BRANCH   3   4
ATOM      4  C   UNL     1       5.751   5.404  12.950  1.00  0.00     0.009 C 
BRANCH   4   5
ATOM      5  C   UNL     1       4.648   6.427  12.619  1.00  0.00     0.030 C 
BRANCH   5   6
ATOM      6  C   UNL     1       5.143   7.435  11.599  1.00  0.00    -0.077 C 
ATOM      7  C   UNL     1       6.441   7.152  10.887  1.00  0.00     0.039 C 
ATOM      8  C   UNL     1       4.453   8.548  11.248  1.00  0.00    -0.027 CG0
ATOM      9  G   UNL     1       3.152   9.047  11.857  1.00  0.00     0.000 G0
ENDBRANCH   5   6
ENDBRANCH   4   5
ENDBRANCH   3   4
ENDBRANCH   1   3
BRANCH   1  10
ATOM     10  C   UNL     1       6.367   8.231  15.088  1.00  0.00     0.057 C 
BRANCH  10  11
ATOM     11  C   UNL     1       5.499   9.125  14.237  1.00  0.00    -0.026 C 
ATOM     12  C   UNL     1       4.161   8.975  14.179  1.00  0.00    -0.024 C 
BRANCH  12  13
ATOM     13  C   UNL     1       3.276   9.786  13.239  1.00  0.00    -0.014 C 
ATOM     14  C   UNL     1       1.897   9.998  13.904  1.00  0.00     0.016 C 
ATOM     15  C   UNL     1       3.900  11.183  13.010  1.00  0.00     0.016 C 
BRANCH  13  16
ATOM     16  C   UNL     1       3.133   9.061  11.862  1.00  0.00     0.038 CG0
ATOM     17  G   UNL     1       4.442   8.571  11.264  1.00  0.00     0.000 G0
ENDBRANCH  13  16
ENDBRANCH  12  13
ENDBRANCH  10  11
ENDBRANCH   1  10
TORSDOF 0
ENDMDL
