MODEL 1
REMARK VINA RESULT:    -4.345      0.000      0.000
REMARK INTER + INTRA:          -9.022
REMARK INTER:                  -7.648
REMARK INTRA:                  -1.375
REMARK UNBOUND:                -1.375
REMARK SMILES CCCCCCCCCCCCCCC(=O)[O-]
REMARK SMILES IDX 9 1 10 2 11 3 12 4 13 5 14 6 15 7 16 8 17 9 8 10 7 11 6 12
REMARK SMILES IDX 5 13 4 14 3 15 2 16 1 17
REMARK H PARENT
REMARK Flexibility Score: inf
ROOT
ATOM      1  C   UNL     1      35.241  10.275  45.230  1.00  0.00     0.000 C 
ENDROOT
BRANCH   1   2
ATOM      2  C   UNL     1      34.146  10.338  44.151  1.00  0.00     0.000 C 
BRANCH   2   3
ATOM      3  C   UNL     1      33.676   8.965  43.631  1.00  0.00     0.000 C 
BRANCH   3   4
ATOM      4  C   UNL     1      34.440   7.776  44.254  1.00  0.00     0.000 C 
BRANCH   4   5
ATOM      5  C   UNL     1      33.487   6.690  44.778  1.00  0.00     0.006 C 
BRANCH   5   6
ATOM      6  C   UNL     1      33.867   6.212  46.183  1.00  0.00     0.053 C 
BRANCH   6   7
ATOM      7  C   UNL     1      34.834   5.067  46.132  1.00  0.00     0.041 C 
ATOM      8  O   UNL     1      34.974   4.401  45.073  1.00  0.00    -0.550 OA
ATOM      9  O   UNL     1      35.564   4.722  47.263  1.00  0.00    -0.550 OA
ENDBRANCH   6   7
ENDBRANCH   5   6
ENDBRANCH   4   5
ENDBRANCH   3   4
ENDBRANCH   2   3
ENDBRANCH   1   2
BRANCH   1  10
ATOM     10  C   UNL     1      35.181  11.466  46.205  1.00  0.00     0.000 C 
BRANCH  10  11
ATOM     11  C   UNL     1      34.688  11.057  47.606  1.00  0.00    -0.000 C 
BRANCH  11  12
ATOM     12  C   UNL     1      34.001   9.680  47.667  1.00  0.00    -0.000 C 
BRANCH  12  13
ATOM     13  C   UNL     1      32.587   9.685  48.282  1.00  0.00    -0.000 C 
BRANCH  13  14
ATOM     14  C   UNL     1      31.903   8.301  48.282  1.00  0.00    -0.000 C 
BRANCH  14  15
ATOM     15  C   UNL     1      30.465   8.368  48.826  1.00  0.00    -0.000 C 
BRANCH  15  16
ATOM     16  C   UNL     1      29.726   7.026  48.708  1.00  0.00    -0.003 C 
ATOM     17  C   UNL     1      30.534   5.972  47.951  1.00  0.00     0.004 C 
ENDBRANCH  15  16
ENDBRANCH  14  15
ENDBRANCH  13  14
ENDBRANCH  12  13
ENDBRANCH  11  12
ENDBRANCH  10  11
ENDBRANCH   1  10
TORSDOF 13
ENDMDL
MODEL 2
REMARK VINA RESULT:    -4.294      1.160      4.531
REMARK INTER + INTRA:          -8.932
REMARK INTER:                  -7.731
REMARK INTRA:                  -1.202
REMARK UNBOUND:                -1.375
REMARK SMILES CCCCCCCCCCCCCCC(=O)[O-]
REMARK SMILES IDX 9 1 10 2 11 3 12 4 13 5 14 6 15 7 16 8 17 9 8 10 7 11 6 12
REMARK SMILES IDX 5 13 4 14 3 15 2 16 1 17
REMARK H PARENT
REMARK Flexibility Score: inf
ROOT
ATOM      1  C   UNL     1      30.961   8.011  49.125  1.00  0.00     0.000 C 
ENDROOT
BRANCH   1   2
ATOM      2  C   UNL     1      30.376   6.962  48.165  1.00  0.00     0.000 C 
BRANCH   2   3
ATOM      3  C   UNL     1      31.401   6.318  47.211  1.00  0.00     0.000 C 
BRANCH   3   4
ATOM      4  C   UNL     1      32.352   5.323  47.911  1.00  0.00     0.000 C 
BRANCH   4   5
ATOM      5  C   UNL     1      33.799   5.840  47.953  1.00  0.00     0.006 C 
BRANCH   5   6
ATOM      6  C   UNL     1      34.786   4.863  47.307  1.00  0.00     0.053 C 
BRANCH   6   7
ATOM      7  C   UNL     1      34.782   4.984  45.813  1.00  0.00     0.041 C 
ATOM      8  O   UNL     1      35.233   4.049  45.099  1.00  0.00    -0.550 OA
ATOM      9  O   UNL     1      34.302   6.140  45.210  1.00  0.00    -0.550 OA
ENDBRANCH   6   7
ENDBRANCH   5   6
ENDBRANCH   4   5
ENDBRANCH   3   4
ENDBRANCH   2   3
ENDBRANCH   1   2
BRANCH   1  10
ATOM     10  C   UNL     1      31.333   9.325  48.413  1.00  0.00     0.000 C 
BRANCH  10  11
ATOM     11  C   UNL     1      32.763   9.790  48.744  1.00  0.00    -0.000 C 
BRANCH  11  12
ATOM     12  C   UNL     1      33.798   9.526  47.634  1.00  0.00    -0.000 C 
BRANCH  12  13
ATOM     13  C   UNL     1      35.003  10.488  47.624  1.00  0.00    -0.000 C 
BRANCH  13  14
ATOM     14  C   UNL     1      35.245  11.168  46.260  1.00  0.00    -0.000 C 
BRANCH  14  15
ATOM     15  C   UNL     1      35.157  10.170  45.092  1.00  0.00    -0.000 C 
BRANCH  15  16
ATOM     16  C   UNL     1      34.029  10.513  44.106  1.00  0.00    -0.003 C 
ATOM     17  C   UNL     1      33.707   9.360  43.155  1.00  0.00     0.004 C 
ENDBRANCH  15  16
ENDBRANCH  14  15
ENDBRANCH  13  14
ENDBRANCH  12  13
ENDBRANCH  11  12
ENDBRANCH  10  11
ENDBRANCH   1  10
TORSDOF 13
ENDMDL
MODEL 3
REMARK VINA RESULT:    -4.285      2.697      6.024
REMARK INTER + INTRA:          -8.916
REMARK INTER:                  -7.240
REMARK INTRA:                  -1.675
REMARK UNBOUND:                -1.375
REMARK SMILES CCCCCCCCCCCCCCC(=O)[O-]
REMARK SMILES IDX 9 1 10 2 11 3 12 4 13 5 14 6 15 7 16 8 17 9 8 10 7 11 6 12
REMARK SMILES IDX 5 13 4 14 3 15 2 16 1 17
REMARK H PARENT
REMARK Flexibility Score: inf
ROOT
ATOM      1  C   UNL     1      31.005   6.778  47.476  1.00  0.00     0.000 C 
ENDROOT
BRANCH   1   2
ATOM      2  C   UNL     1      30.355   7.469  48.687  1.00  0.00     0.000 C 
BRANCH   2   3
ATOM      3  C   UNL     1      30.843   8.907  48.946  1.00  0.00     0.000 C 
BRANCH   3   4
ATOM      4  C   UNL     1      32.375   9.019  49.101  1.00  0.00     0.000 C 
BRANCH   4   5
ATOM      5  C   UNL     1      32.963  10.139  48.228  1.00  0.00     0.006 C 
BRANCH   5   6
ATOM      6  C   UNL     1      34.495  10.122  48.212  1.00  0.00     0.053 C 
BRANCH   6   7
ATOM      7  C   UNL     1      35.054  11.399  47.661  1.00  0.00     0.041 C 
ATOM      8  O   UNL     1      35.606  11.415  46.530  1.00  0.00    -0.550 OA
ATOM      9  O   UNL     1      34.988  12.567  48.410  1.00  0.00    -0.550 OA
ENDBRANCH   6   7
ENDBRANCH   5   6
ENDBRANCH   4   5
ENDBRANCH   3   4
ENDBRANCH   2   3
ENDBRANCH   1   2
BRANCH   1  10
ATOM     10  C   UNL     1      31.574   5.389  47.820  1.00  0.00     0.000 C 
BRANCH  10  11
ATOM     11  C   UNL     1      33.099   5.414  48.035  1.00  0.00    -0.000 C 
BRANCH  11  12
ATOM     12  C   UNL     1      33.859   6.398  47.126  1.00  0.00    -0.000 C 
BRANCH  12  13
ATOM     13  C   UNL     1      34.128   5.889  45.696  1.00  0.00    -0.000 C 
BRANCH  13  14
ATOM     14  C   UNL     1      33.850   6.937  44.598  1.00  0.00    -0.000 C 
BRANCH  14  15
ATOM     15  C   UNL     1      34.192   8.364  45.062  1.00  0.00    -0.000 C 
BRANCH  15  16
ATOM     16  C   UNL     1      34.758   9.234  43.929  1.00  0.00    -0.003 C 
ATOM     17  C   UNL     1      33.834  10.395  43.558  1.00  0.00     0.004 C 
ENDBRANCH  15  16
ENDBRANCH  14  15
ENDBRANCH  13  14
ENDBRANCH  12  13
ENDBRANCH  11  12
ENDBRANCH  10  11
ENDBRANCH   1  10
TORSDOF 13
ENDMDL
MODEL 4
REMARK VINA RESULT:    -4.215      1.207      4.908
REMARK INTER + INTRA:          -8.792
REMARK INTER:                  -7.536
REMARK INTRA:                  -1.256
REMARK UNBOUND:                -1.375
REMARK SMILES CCCCCCCCCCCCCCC(=O)[O-]
REMARK SMILES IDX 9 1 10 2 11 3 12 4 13 5 14 6 15 7 16 8 17 9 8 10 7 11 6 12
REMARK SMILES IDX 5 13 4 14 3 15 2 16 1 17
REMARK H PARENT
REMARK Flexibility Score: inf
ROOT
ATOM      1  C   UNL     1      31.649   8.474  49.085  1.00  0.00     0.000 C 
ENDROOT
BRANCH   1   2
ATOM      2  C   UNL     1      30.447   7.614  48.659  1.00  0.00     0.000 C 
BRANCH   2   3
ATOM      3  C   UNL     1      30.816   6.239  48.070  1.00  0.00     0.000 C 
BRANCH   3   4
ATOM      4  C   UNL     1      31.744   6.325  46.839  1.00  0.00     0.000 C 
BRANCH   4   5
ATOM      5  C   UNL     1      33.202   5.986  47.191  1.00  0.00     0.006 C 
BRANCH   5   6
ATOM      6  C   UNL     1      34.100   5.919  45.951  1.00  0.00     0.053 C 
BRANCH   6   7
ATOM      7  C   UNL     1      35.069   4.779  46.035  1.00  0.00     0.041 C 
ATOM      8  O   UNL     1      35.252   4.027  45.041  1.00  0.00    -0.550 OA
ATOM      9  O   UNL     1      35.752   4.532  47.219  1.00  0.00    -0.550 OA
ENDBRANCH   6   7
ENDBRANCH   5   6
ENDBRANCH   4   5
ENDBRANCH   3   4
ENDBRANCH   2   3
ENDBRANCH   1   2
BRANCH   1  10
ATOM     10  C   UNL     1      31.708   9.820  48.341  1.00  0.00     0.000 C 
BRANCH  10  11
ATOM     11  C   UNL     1      33.108  10.461  48.392  1.00  0.00    -0.000 C 
BRANCH  11  12
ATOM     12  C   UNL     1      34.198   9.683  47.630  1.00  0.00    -0.000 C 
BRANCH  12  13
ATOM     13  C   UNL     1      34.029   9.657  46.098  1.00  0.00    -0.000 C 
BRANCH  13  14
ATOM     14  C   UNL     1      35.133  10.421  45.337  1.00  0.00    -0.000 C 
BRANCH  14  15
ATOM     15  C   UNL     1      36.078  11.174  46.289  1.00  0.00    -0.000 C 
BRANCH  15  16
ATOM     16  C   UNL     1      35.859  12.694  46.262  1.00  0.00    -0.003 C 
ATOM     17  C   UNL     1      37.146  13.470  45.979  1.00  0.00     0.004 C 
ENDBRANCH  15  16
ENDBRANCH  14  15
ENDBRANCH  13  14
ENDBRANCH  12  13
ENDBRANCH  11  12
ENDBRANCH  10  11
ENDBRANCH   1  10
TORSDOF 13
ENDMDL
MODEL 5
REMARK VINA RESULT:    -4.169      1.120      4.162
REMARK INTER + INTRA:          -8.713
REMARK INTER:                  -7.164
REMARK INTRA:                  -1.549
REMARK UNBOUND:                -1.375
REMARK SMILES CCCCCCCCCCCCCCC(=O)[O-]
REMARK SMILES IDX 9 1 10 2 11 3 12 4 13 5 14 6 15 7 16 8 17 9 8 10 7 11 6 12
REMARK SMILES IDX 5 13 4 14 3 15 2 16 1 17
REMARK H PARENT
REMARK Flexibility Score: inf
ROOT
ATOM      1  C   UNL     1      32.468   9.610  47.918  1.00  0.00     0.000 C 
ENDROOT
BRANCH   1   2
ATOM      2  C   UNL     1      31.271   8.924  48.599  1.00  0.00     0.000 C 
BRANCH   2   3
ATOM      3  C   UNL     1      31.485   7.434  48.928  1.00  0.00     0.000 C 
BRANCH   3   4
ATOM      4  C   UNL     1      31.194   6.492  47.740  1.00  0.00     0.000 C 
BRANCH   4   5
ATOM      5  C   UNL     1      32.249   5.382  47.612  1.00  0.00     0.006 C 
BRANCH   5   6
ATOM      6  C   UNL     1      33.648   5.860  48.016  1.00  0.00     0.053 C 
BRANCH   6   7
ATOM      7  C   UNL     1      34.707   4.888  47.587  1.00  0.00     0.041 C 
ATOM      8  O   UNL     1      34.697   4.413  46.421  1.00  0.00    -0.550 OA
ATOM      9  O   UNL     1      35.689   4.488  48.485  1.00  0.00    -0.550 OA
ENDBRANCH   6   7
ENDBRANCH   5   6
ENDBRANCH   4   5
ENDBRANCH   3   4
ENDBRANCH   2   3
ENDBRANCH   1   2
BRANCH   1  10
ATOM     10  C   UNL     1      33.765   9.488  48.737  1.00  0.00     0.000 C 
BRANCH  10  11
ATOM     11  C   UNL     1      34.493  10.837  48.894  1.00  0.00    -0.000 C 
BRANCH  11  12
ATOM     12  C   UNL     1      35.668  11.049  47.920  1.00  0.00    -0.000 C 
BRANCH  12  13
ATOM     13  C   UNL     1      35.273  11.592  46.532  1.00  0.00    -0.000 C 
BRANCH  13  14
ATOM     14  C   UNL     1      35.575  10.619  45.373  1.00  0.00    -0.000 C 
BRANCH  14  15
ATOM     15  C   UNL     1      34.292  10.141  44.670  1.00  0.00    -0.000 C 
BRANCH  15  16
ATOM     16  C   UNL     1      34.484   8.809  43.930  1.00  0.00    -0.003 C 
ATOM     17  C   UNL     1      34.083   7.601  44.776  1.00  0.00     0.004 C 
ENDBRANCH  15  16
ENDBRANCH  14  15
ENDBRANCH  13  14
ENDBRANCH  12  13
ENDBRANCH  11  12
ENDBRANCH  10  11
ENDBRANCH   1  10
TORSDOF 13
ENDMDL
MODEL 6
REMARK VINA RESULT:    -4.149      2.109      4.926
REMARK INTER + INTRA:          -8.677
REMARK INTER:                  -7.681
REMARK INTRA:                  -0.996
REMARK UNBOUND:                -1.375
REMARK SMILES CCCCCCCCCCCCCCC(=O)[O-]
REMARK SMILES IDX 9 1 10 2 11 3 12 4 13 5 14 6 15 7 16 8 17 9 8 10 7 11 6 12
REMARK SMILES IDX 5 13 4 14 3 15 2 16 1 17
REMARK H PARENT
REMARK Flexibility Score: inf
ROOT
ATOM      1  C   UNL     1      32.004   9.926  48.224  1.00  0.00     0.000 C 
ENDROOT
BRANCH   1   2
ATOM      2  C   UNL     1      33.152  10.774  48.796  1.00  0.00     0.000 C 
BRANCH   2   3
ATOM      3  C   UNL     1      34.540  10.465  48.201  1.00  0.00     0.000 C 
BRANCH   3   4
ATOM      4  C   UNL     1      35.080  11.584  47.285  1.00  0.00     0.000 C 
BRANCH   4   5
ATOM      5  C   UNL     1      35.335  11.084  45.853  1.00  0.00     0.006 C 
BRANCH   5   6
ATOM      6  C   UNL     1      34.722   9.702  45.602  1.00  0.00     0.053 C 
BRANCH   6   7
ATOM      7  C   UNL     1      34.247   9.560  44.187  1.00  0.00     0.041 C 
ATOM      8  O   UNL     1      33.949  10.581  43.512  1.00  0.00    -0.550 OA
ATOM      9  O   UNL     1      34.110   8.298  43.623  1.00  0.00    -0.550 OA
ENDBRANCH   6   7
ENDBRANCH   5   6
ENDBRANCH   4   5
ENDBRANCH   3   4
ENDBRANCH   2   3
ENDBRANCH   1   2
BRANCH   1  10
ATOM     10  C   UNL     1      31.740   8.652  49.048  1.00  0.00     0.000 C 
BRANCH  10  11
ATOM     11  C   UNL     1      30.360   8.035  48.754  1.00  0.00    -0.000 C 
BRANCH  11  12
ATOM     12  C   UNL     1      30.397   6.557  48.319  1.00  0.00    -0.000 C 
BRANCH  12  13
ATOM     13  C   UNL     1      31.457   6.219  47.254  1.00  0.00    -0.000 C 
BRANCH  13  14
ATOM     14  C   UNL     1      32.631   5.371  47.789  1.00  0.00    -0.000 C 
BRANCH  14  15
ATOM     15  C   UNL     1      33.987   5.848  47.240  1.00  0.00    -0.000 C 
BRANCH  15  16
ATOM     16  C   UNL     1      34.992   4.699  47.069  1.00  0.00    -0.003 C 
ATOM     17  C   UNL     1      35.186   4.297  45.607  1.00  0.00     0.004 C 
ENDBRANCH  15  16
ENDBRANCH  14  15
ENDBRANCH  13  14
ENDBRANCH  12  13
ENDBRANCH  11  12
ENDBRANCH  10  11
ENDBRANCH   1  10
TORSDOF 13
ENDMDL
MODEL 7
REMARK VINA RESULT:    -4.148     16.985     18.564
REMARK INTER + INTRA:          -8.676
REMARK INTER:                  -6.916
REMARK INTRA:                  -1.760
REMARK UNBOUND:                -1.375
REMARK SMILES CCCCCCCCCCCCCCC(=O)[O-]
REMARK SMILES IDX 9 1 10 2 11 3 12 4 13 5 14 6 15 7 16 8 17 9 8 10 7 11 6 12
REMARK SMILES IDX 5 13 4 14 3 15 2 16 1 17
REMARK H PARENT
REMARK Flexibility Score: inf
ROOT
ATOM      1  C   UNL     1      19.778   8.945  36.750  1.00  0.00     0.000 C 
ENDROOT
BRANCH   1   2
ATOM      2  C   UNL     1      19.166   7.577  37.096  1.00  0.00     0.000 C 
BRANCH   2   3
ATOM      3  C   UNL     1      19.444   6.468  36.062  1.00  0.00     0.000 C 
BRANCH   3   4
ATOM      4  C   UNL     1      18.174   5.967  35.341  1.00  0.00     0.000 C 
BRANCH   4   5
ATOM      5  C   UNL     1      18.346   5.953  33.813  1.00  0.00     0.006 C 
BRANCH   5   6
ATOM      6  C   UNL     1      19.787   6.250  33.387  1.00  0.00     0.053 C 
BRANCH   6   7
ATOM      7  C   UNL     1      19.860   6.674  31.951  1.00  0.00     0.041 C 
ATOM      8  O   UNL     1      19.883   7.897  31.651  1.00  0.00    -0.550 OA
ATOM      9  O   UNL     1      19.878   5.718  30.943  1.00  0.00    -0.550 OA
ENDBRANCH   6   7
ENDBRANCH   5   6
ENDBRANCH   4   5
ENDBRANCH   3   4
ENDBRANCH   2   3
ENDBRANCH   1   2
BRANCH   1  10
ATOM     10  C   UNL     1      19.535   9.350  35.284  1.00  0.00     0.000 C 
BRANCH  10  11
ATOM     11  C   UNL     1      20.843   9.661  34.534  1.00  0.00    -0.000 C 
BRANCH  11  12
ATOM     12  C   UNL     1      22.021  10.068  35.440  1.00  0.00    -0.000 C 
BRANCH  12  13
ATOM     13  C   UNL     1      22.525  11.512  35.242  1.00  0.00    -0.000 C 
BRANCH  13  14
ATOM     14  C   UNL     1      21.517  12.591  35.691  1.00  0.00    -0.000 C 
BRANCH  14  15
ATOM     15  C   UNL     1      20.753  13.198  34.501  1.00  0.00    -0.000 C 
BRANCH  15  16
ATOM     16  C   UNL     1      19.230  13.173  34.702  1.00  0.00    -0.003 C 
ATOM     17  C   UNL     1      18.831  12.932  36.158  1.00  0.00     0.004 C 
ENDBRANCH  15  16
ENDBRANCH  14  15
ENDBRANCH  13  14
ENDBRANCH  12  13
ENDBRANCH  11  12
ENDBRANCH  10  11
ENDBRANCH   1  10
TORSDOF 13
ENDMDL
MODEL 8
REMARK VINA RESULT:    -4.118     17.146     18.601
REMARK INTER + INTRA:          -8.623
REMARK INTER:                  -6.659
REMARK INTRA:                  -1.964
REMARK UNBOUND:                -1.375
REMARK SMILES CCCCCCCCCCCCCCC(=O)[O-]
REMARK SMILES IDX 9 1 10 2 11 3 12 4 13 5 14 6 15 7 16 8 17 9 8 10 7 11 6 12
REMARK SMILES IDX 5 13 4 14 3 15 2 16 1 17
REMARK H PARENT
REMARK Flexibility Score: inf
ROOT
ATOM      1  C   UNL     1      21.098   9.505  35.643  1.00  0.00     0.000 C 
ENDROOT
BRANCH   1   2
ATOM      2  C   UNL     1      19.653   9.070  35.945  1.00  0.00     0.000 C 
BRANCH   2   3
ATOM      3  C   UNL     1      19.530   7.857  36.887  1.00  0.00     0.000 C 
BRANCH   3   4
ATOM      4  C   UNL     1      18.741   6.679  36.275  1.00  0.00     0.000 C 
BRANCH   4   5
ATOM      5  C   UNL     1      18.151   7.033  34.900  1.00  0.00     0.006 C 
BRANCH   5   6
ATOM      6  C   UNL     1      18.593   6.054  33.807  1.00  0.00     0.053 C 
BRANCH   6   7
ATOM      7  C   UNL     1      19.759   6.586  33.031  1.00  0.00     0.041 C 
ATOM      8  O   UNL     1      19.653   7.659  32.380  1.00  0.00    -0.550 OA
ATOM      9  O   UNL     1      20.957   5.882  33.006  1.00  0.00    -0.550 OA
ENDBRANCH   6   7
ENDBRANCH   5   6
ENDBRANCH   4   5
ENDBRANCH   3   4
ENDBRANCH   2   3
ENDBRANCH   1   2
BRANCH   1  10
ATOM     10  C   UNL     1      21.247  10.136  34.247  1.00  0.00     0.000 C 
BRANCH  10  11
ATOM     11  C   UNL     1      22.053  11.448  34.276  1.00  0.00    -0.000 C 
BRANCH  11  12
ATOM     12  C   UNL     1      21.696  12.394  35.439  1.00  0.00    -0.000 C 
BRANCH  12  13
ATOM     13  C   UNL     1      20.467  13.292  35.194  1.00  0.00    -0.000 C 
BRANCH  13  14
ATOM     14  C   UNL     1      19.221  12.876  36.004  1.00  0.00    -0.000 C 
BRANCH  14  15
ATOM     15  C   UNL     1      18.049  12.469  35.094  1.00  0.00    -0.000 C 
BRANCH  15  16
ATOM     16  C   UNL     1      18.404  12.547  33.602  1.00  0.00    -0.003 C 
ATOM     17  C   UNL     1      18.043  11.271  32.841  1.00  0.00     0.004 C 
ENDBRANCH  15  16
ENDBRANCH  14  15
ENDBRANCH  13  14
ENDBRANCH  12  13
ENDBRANCH  11  12
ENDBRANCH  10  11
ENDBRANCH   1  10
TORSDOF 13
ENDMDL
MODEL 9
REMARK VINA RESULT:    -3.986     17.496     19.082
REMARK INTER + INTRA:          -8.389
REMARK INTER:                  -6.848
REMARK INTRA:                  -1.542
REMARK UNBOUND:                -1.375
REMARK SMILES CCCCCCCCCCCCCCC(=O)[O-]
REMARK SMILES IDX 9 1 10 2 11 3 12 4 13 5 14 6 15 7 16 8 17 9 8 10 7 11 6 12
REMARK SMILES IDX 5 13 4 14 3 15 2 16 1 17
REMARK H PARENT
REMARK Flexibility Score: inf
ROOT
ATOM      1  C   UNL     1      22.221  11.428  35.205  1.00  0.00     0.000 C 
ENDROOT
BRANCH   1   2
ATOM      2  C   UNL     1      21.258  12.529  35.681  1.00  0.00     0.000 C 
BRANCH   2   3
ATOM      3  C   UNL     1      20.832  13.528  34.588  1.00  0.00     0.000 C 
BRANCH   3   4
ATOM      4  C   UNL     1      19.885  12.918  33.531  1.00  0.00     0.000 C 
BRANCH   4   5
ATOM      5  C   UNL     1      20.534  12.861  32.139  1.00  0.00     0.006 C 
BRANCH   5   6
ATOM      6  C   UNL     1      21.557  13.982  31.927  1.00  0.00     0.053 C 
BRANCH   6   7
ATOM      7  C   UNL     1      21.293  14.736  30.659  1.00  0.00     0.041 C 
ATOM      8  O   UNL     1      21.102  15.980  30.688  1.00  0.00    -0.550 OA
ATOM      9  O   UNL     1      21.232  14.059  29.447  1.00  0.00    -0.550 OA
ENDBRANCH   6   7
ENDBRANCH   5   6
ENDBRANCH   4   5
ENDBRANCH   3   4
ENDBRANCH   2   3
ENDBRANCH   1   2
BRANCH   1  10
ATOM     10  C   UNL     1      21.776  10.021  35.643  1.00  0.00     0.000 C 
BRANCH  10  11
ATOM     11  C   UNL     1      20.249   9.914  35.822  1.00  0.00    -0.000 C 
BRANCH  11  12
ATOM     12  C   UNL     1      19.493   9.398  34.583  1.00  0.00    -0.000 C 
BRANCH  12  13
ATOM     13  C   UNL     1      20.210   8.280  33.801  1.00  0.00    -0.000 C 
BRANCH  13  14
ATOM     14  C   UNL     1      19.884   6.859  34.308  1.00  0.00    -0.000 C 
BRANCH  14  15
ATOM     15  C   UNL     1      18.400   6.705  34.686  1.00  0.00    -0.000 C 
BRANCH  15  16
ATOM     16  C   UNL     1      18.207   6.130  36.098  1.00  0.00    -0.003 C 
ATOM     17  C   UNL     1      19.409   6.384  37.008  1.00  0.00     0.004 C 
ENDBRANCH  15  16
ENDBRANCH  14  15
ENDBRANCH  13  14
ENDBRANCH  12  13
ENDBRANCH  11  12
ENDBRANCH  10  11
ENDBRANCH   1  10
TORSDOF 13
ENDMDL
