MODEL 1
REMARK VINA RESULT:    -3.564      0.000      0.000
REMARK INTER + INTRA:          -6.766
REMARK INTER:                  -5.647
REMARK INTRA:                  -1.120
REMARK UNBOUND:                -1.120
REMARK SMILES CCCCCCCCCCCC(=O)[O-]
REMARK SMILES IDX 7 1 8 2 9 3 10 4 11 5 12 6 13 7 14 8 6 9 5 10 4 11 3 12 2 13
REMARK SMILES IDX 1 14
REMARK H PARENT
REMARK Flexibility Score: inf
ROOT
ATOM      1  C   UNL     1      -7.036  20.632 -12.881  1.00  0.00     0.000 C 
ENDROOT
BRANCH   1   2
ATOM      2  C   UNL     1      -6.516  21.984 -13.405  1.00  0.00     0.000 C 
BRANCH   2   3
ATOM      3  C   UNL     1      -5.098  22.362 -12.938  1.00  0.00     0.000 C 
BRANCH   3   4
ATOM      4  C   UNL     1      -5.096  23.456 -11.857  1.00  0.00     0.006 C 
BRANCH   4   5
ATOM      5  C   UNL     1      -6.447  24.176 -11.758  1.00  0.00     0.053 C 
BRANCH   5   6
ATOM      6  C   UNL     1      -6.832  24.451 -10.337  1.00  0.00     0.041 C 
ATOM      7  O   UNL     1      -6.095  24.061  -9.395  1.00  0.00    -0.550 OA
ATOM      8  O   UNL     1      -7.992  25.163 -10.054  1.00  0.00    -0.550 OA
ENDBRANCH   5   6
ENDBRANCH   4   5
ENDBRANCH   3   4
ENDBRANCH   2   3
ENDBRANCH   1   2
BRANCH   1   9
ATOM      9  C   UNL     1      -8.057  20.783 -11.744  1.00  0.00     0.000 C 
BRANCH   9  10
ATOM     10  C   UNL     1      -7.370  20.687 -10.374  1.00  0.00    -0.000 C 
BRANCH  10  11
ATOM     11  C   UNL     1      -6.139  19.763 -10.382  1.00  0.00    -0.000 C 
BRANCH  11  12
ATOM     12  C   UNL     1      -5.955  18.914  -9.111  1.00  0.00    -0.000 C 
BRANCH  12  13
ATOM     13  C   UNL     1      -7.275  18.331  -8.585  1.00  0.00    -0.003 C 
ATOM     14  C   UNL     1      -7.625  18.909  -7.217  1.00  0.00     0.004 C 
ENDBRANCH  12  13
ENDBRANCH  11  12
ENDBRANCH  10  11
ENDBRANCH   9  10
ENDBRANCH   1   9
TORSDOF 10
ENDMDL
MODEL 2
REMARK VINA RESULT:    -3.457      2.027      2.812
REMARK INTER + INTRA:          -6.598
REMARK INTER:                  -5.924
REMARK INTRA:                  -0.674
REMARK UNBOUND:                -1.120
REMARK SMILES CCCCCCCCCCCC(=O)[O-]
REMARK SMILES IDX 7 1 8 2 9 3 10 4 11 5 12 6 13 7 14 8 6 9 5 10 4 11 3 12 2 13
REMARK SMILES IDX 1 14
REMARK H PARENT
REMARK Flexibility Score: inf
ROOT
ATOM      1  C   UNL     1      -6.122  23.346 -10.001  1.00  0.00     0.000 C 
ENDROOT
BRANCH   1   2
ATOM      2  C   UNL     1      -5.373  24.649 -10.339  1.00  0.00     0.000 C 
BRANCH   2   3
ATOM      3  C   UNL     1      -4.362  24.538 -11.495  1.00  0.00     0.000 C 
BRANCH   3   4
ATOM      4  C   UNL     1      -4.719  25.436 -12.691  1.00  0.00     0.006 C 
BRANCH   4   5
ATOM      5  C   UNL     1      -5.802  26.465 -12.340  1.00  0.00     0.053 C 
BRANCH   5   6
ATOM      6  C   UNL     1      -7.070  26.222 -13.098  1.00  0.00     0.041 C 
ATOM      7  O   UNL     1      -7.867  25.321 -12.727  1.00  0.00    -0.550 OA
ATOM      8  O   UNL     1      -7.387  27.010 -14.198  1.00  0.00    -0.550 OA
ENDBRANCH   5   6
ENDBRANCH   4   5
ENDBRANCH   3   4
ENDBRANCH   2   3
ENDBRANCH   1   2
BRANCH   1   9
ATOM      9  C   UNL     1      -6.249  22.399 -11.202  1.00  0.00     0.000 C 
BRANCH   9  10
ATOM     10  C   UNL     1      -5.793  20.980 -10.832  1.00  0.00    -0.000 C 
BRANCH  10  11
ATOM     11  C   UNL     1      -6.492  20.434  -9.573  1.00  0.00    -0.000 C 
BRANCH  11  12
ATOM     12  C   UNL     1      -6.163  18.969  -9.232  1.00  0.00    -0.000 C 
BRANCH  12  13
ATOM     13  C   UNL     1      -7.134  18.361  -8.209  1.00  0.00    -0.003 C 
ATOM     14  C   UNL     1      -7.662  19.426  -7.252  1.00  0.00     0.004 C 
ENDBRANCH  12  13
ENDBRANCH  11  12
ENDBRANCH  10  11
ENDBRANCH   9  10
ENDBRANCH   1   9
TORSDOF 10
ENDMDL
MODEL 3
REMARK VINA RESULT:    -3.435      1.511      2.069
REMARK INTER + INTRA:          -6.563
REMARK INTER:                  -5.748
REMARK INTRA:                  -0.815
REMARK UNBOUND:                -1.120
REMARK SMILES CCCCCCCCCCCC(=O)[O-]
REMARK SMILES IDX 7 1 8 2 9 3 10 4 11 5 12 6 13 7 14 8 6 9 5 10 4 11 3 12 2 13
REMARK SMILES IDX 1 14
REMARK H PARENT
REMARK Flexibility Score: inf
ROOT
ATOM      1  C   UNL     1      -8.429  21.108 -12.574  1.00  0.00     0.000 C 
ENDROOT
BRANCH   1   2
ATOM      2  C   UNL     1      -8.954  22.528 -12.856  1.00  0.00     0.000 C 
BRANCH   2   3
ATOM      3  C   UNL     1      -9.046  23.446 -11.622  1.00  0.00     0.000 C 
BRANCH   3   4
ATOM      4  C   UNL     1      -8.130  24.677 -11.723  1.00  0.00     0.006 C 
BRANCH   4   5
ATOM      5  C   UNL     1      -6.665  24.335 -11.419  1.00  0.00     0.053 C 
BRANCH   5   6
ATOM      6  C   UNL     1      -6.022  25.363 -10.540  1.00  0.00     0.041 C 
ATOM      7  O   UNL     1      -6.150  26.588 -10.799  1.00  0.00    -0.550 OA
ATOM      8  O   UNL     1      -5.304  24.968  -9.417  1.00  0.00    -0.550 OA
ENDBRANCH   5   6
ENDBRANCH   4   5
ENDBRANCH   3   4
ENDBRANCH   2   3
ENDBRANCH   1   2
BRANCH   1   9
ATOM      9  C   UNL     1      -8.224  20.831 -11.077  1.00  0.00     0.000 C 
BRANCH   9  10
ATOM     10  C   UNL     1      -6.735  20.642 -10.753  1.00  0.00    -0.000 C 
BRANCH  10  11
ATOM     11  C   UNL     1      -6.474  20.373  -9.260  1.00  0.00    -0.000 C 
BRANCH  11  12
ATOM     12  C   UNL     1      -6.110  18.918  -8.915  1.00  0.00    -0.000 C 
BRANCH  12  13
ATOM     13  C   UNL     1      -6.858  18.390  -7.683  1.00  0.00    -0.003 C 
ATOM     14  C   UNL     1      -7.822  19.438  -7.134  1.00  0.00     0.004 C 
ENDBRANCH  12  13
ENDBRANCH  11  12
ENDBRANCH  10  11
ENDBRANCH   9  10
ENDBRANCH   1   9
TORSDOF 10
ENDMDL
MODEL 4
REMARK VINA RESULT:    -3.433      1.838      2.204
REMARK INTER + INTRA:          -6.559
REMARK INTER:                  -5.788
REMARK INTRA:                  -0.772
REMARK UNBOUND:                -1.120
REMARK SMILES CCCCCCCCCCCC(=O)[O-]
REMARK SMILES IDX 7 1 8 2 9 3 10 4 11 5 12 6 13 7 14 8 6 9 5 10 4 11 3 12 2 13
REMARK SMILES IDX 1 14
REMARK H PARENT
REMARK Flexibility Score: inf
ROOT
ATOM      1  C   UNL     1      -5.665  20.677 -13.134  1.00  0.00     0.000 C 
ENDROOT
BRANCH   1   2
ATOM      2  C   UNL     1      -5.371  22.186 -13.230  1.00  0.00     0.000 C 
BRANCH   2   3
ATOM      3  C   UNL     1      -4.504  22.755 -12.091  1.00  0.00     0.000 C 
BRANCH   3   4
ATOM      4  C   UNL     1      -5.148  23.966 -11.395  1.00  0.00     0.006 C 
BRANCH   4   5
ATOM      5  C   UNL     1      -6.278  24.581 -12.232  1.00  0.00     0.053 C 
BRANCH   5   6
ATOM      6  C   UNL     1      -5.869  25.882 -12.853  1.00  0.00     0.041 C 
ATOM      7  O   UNL     1      -6.742  26.681 -13.280  1.00  0.00    -0.550 OA
ATOM      8  O   UNL     1      -4.524  26.223 -12.933  1.00  0.00    -0.550 OA
ENDBRANCH   5   6
ENDBRANCH   4   5
ENDBRANCH   3   4
ENDBRANCH   2   3
ENDBRANCH   1   2
BRANCH   1   9
ATOM      9  C   UNL     1      -5.798  20.183 -11.686  1.00  0.00     0.000 C 
BRANCH   9  10
ATOM     10  C   UNL     1      -7.191  20.502 -11.124  1.00  0.00    -0.000 C 
BRANCH  10  11
ATOM     11  C   UNL     1      -7.328  20.160  -9.629  1.00  0.00    -0.000 C 
BRANCH  11  12
ATOM     12  C   UNL     1      -6.457  18.986  -9.148  1.00  0.00    -0.000 C 
BRANCH  12  13
ATOM     13  C   UNL     1      -6.944  18.383  -7.822  1.00  0.00    -0.003 C 
ATOM     14  C   UNL     1      -7.878  19.344  -7.092  1.00  0.00     0.004 C 
ENDBRANCH  12  13
ENDBRANCH  11  12
ENDBRANCH  10  11
ENDBRANCH   9  10
ENDBRANCH   1   9
TORSDOF 10
ENDMDL
MODEL 5
REMARK VINA RESULT:    -3.395      2.877      6.204
REMARK INTER + INTRA:          -6.499
REMARK INTER:                  -5.871
REMARK INTRA:                  -0.629
REMARK UNBOUND:                -1.120
REMARK SMILES CCCCCCCCCCCC(=O)[O-]
REMARK SMILES IDX 7 1 8 2 9 3 10 4 11 5 12 6 13 7 14 8 6 9 5 10 4 11 3 12 2 13
REMARK SMILES IDX 1 14
REMARK H PARENT
REMARK Flexibility Score: inf
ROOT
ATOM      1  C   UNL     1      -4.229  23.170 -12.040  1.00  0.00     0.000 C 
ENDROOT
BRANCH   1   2
ATOM      2  C   UNL     1      -5.191  21.993 -11.792  1.00  0.00     0.000 C 
BRANCH   2   3
ATOM      3  C   UNL     1      -6.181  22.194 -10.629  1.00  0.00     0.000 C 
BRANCH   3   4
ATOM      4  C   UNL     1      -6.927  20.904 -10.248  1.00  0.00     0.006 C 
BRANCH   4   5
ATOM      5  C   UNL     1      -6.196  20.116  -9.152  1.00  0.00     0.053 C 
BRANCH   5   6
ATOM      6  C   UNL     1      -7.124  19.207  -8.405  1.00  0.00     0.041 C 
ATOM      7  O   UNL     1      -7.354  18.047  -8.834  1.00  0.00    -0.550 OA
ATOM      8  O   UNL     1      -7.710  19.631  -7.219  1.00  0.00    -0.550 OA
ENDBRANCH   5   6
ENDBRANCH   4   5
ENDBRANCH   3   4
ENDBRANCH   2   3
ENDBRANCH   1   2
BRANCH   1   9
ATOM      9  C   UNL     1      -4.671  24.070 -13.203  1.00  0.00     0.000 C 
BRANCH   9  10
ATOM     10  C   UNL     1      -4.164  25.507 -13.008  1.00  0.00    -0.000 C 
BRANCH  10  11
ATOM     11  C   UNL     1      -5.304  26.535 -12.890  1.00  0.00    -0.000 C 
BRANCH  11  12
ATOM     12  C   UNL     1      -6.535  26.053 -12.101  1.00  0.00    -0.000 C 
BRANCH  12  13
ATOM     13  C   UNL     1      -7.816  26.028 -12.947  1.00  0.00    -0.003 C 
ATOM     14  C   UNL     1      -7.672  26.906 -14.188  1.00  0.00     0.004 C 
ENDBRANCH  12  13
ENDBRANCH  11  12
ENDBRANCH  10  11
ENDBRANCH   9  10
ENDBRANCH   1   9
TORSDOF 10
ENDMDL
MODEL 6
REMARK VINA RESULT:    -3.373      5.178      6.903
REMARK INTER + INTRA:          -6.464
REMARK INTER:                  -5.293
REMARK INTRA:                  -1.172
REMARK UNBOUND:                -1.120
REMARK SMILES CCCCCCCCCCCC(=O)[O-]
REMARK SMILES IDX 7 1 8 2 9 3 10 4 11 5 12 6 13 7 14 8 6 9 5 10 4 11 3 12 2 13
REMARK SMILES IDX 1 14
REMARK H PARENT
REMARK Flexibility Score: inf
ROOT
ATOM      1  C   UNL     1      -7.783  25.847 -10.484  1.00  0.00     0.000 C 
ENDROOT
BRANCH   1   2
ATOM      2  C   UNL     1      -6.650  26.503  -9.672  1.00  0.00     0.000 C 
BRANCH   2   3
ATOM      3  C   UNL     1      -6.463  28.012  -9.918  1.00  0.00     0.000 C 
BRANCH   3   4
ATOM      4  C   UNL     1      -6.632  28.853  -8.641  1.00  0.00     0.006 C 
BRANCH   4   5
ATOM      5  C   UNL     1      -6.383  30.346  -8.894  1.00  0.00     0.053 C 
BRANCH   5   6
ATOM      6  C   UNL     1      -4.995  30.754  -8.506  1.00  0.00     0.041 C 
ATOM      7  O   UNL     1      -4.125  30.959  -9.392  1.00  0.00    -0.550 OA
ATOM      8  O   UNL     1      -4.671  30.938  -7.167  1.00  0.00    -0.550 OA
ENDBRANCH   5   6
ENDBRANCH   4   5
ENDBRANCH   3   4
ENDBRANCH   2   3
ENDBRANCH   1   2
BRANCH   1   9
ATOM      9  C   UNL     1      -8.101  26.597 -11.785  1.00  0.00     0.000 C 
BRANCH   9  10
ATOM     10  C   UNL     1      -7.354  25.976 -12.974  1.00  0.00    -0.000 C 
BRANCH  10  11
ATOM     11  C   UNL     1      -6.115  26.787 -13.395  1.00  0.00    -0.000 C 
BRANCH  11  12
ATOM     12  C   UNL     1      -4.765  26.167 -12.989  1.00  0.00    -0.000 C 
BRANCH  12  13
ATOM     13  C   UNL     1      -4.878  24.684 -12.609  1.00  0.00    -0.003 C 
ATOM     14  C   UNL     1      -4.098  24.383 -11.332  1.00  0.00     0.004 C 
ENDBRANCH  12  13
ENDBRANCH  11  12
ENDBRANCH  10  11
ENDBRANCH   9  10
ENDBRANCH   1   9
TORSDOF 10
ENDMDL
MODEL 7
REMARK VINA RESULT:    -3.359      2.695      6.070
REMARK INTER + INTRA:          -6.442
REMARK INTER:                  -5.441
REMARK INTRA:                  -1.001
REMARK UNBOUND:                -1.120
REMARK SMILES CCCCCCCCCCCC(=O)[O-]
REMARK SMILES IDX 7 1 8 2 9 3 10 4 11 5 12 6 13 7 14 8 6 9 5 10 4 11 3 12 2 13
REMARK SMILES IDX 1 14
REMARK H PARENT
REMARK Flexibility Score: inf
ROOT
ATOM      1  C   UNL     1      -8.202  24.093 -11.431  1.00  0.00     0.000 C 
ENDROOT
BRANCH   1   2
ATOM      2  C   UNL     1      -6.884  23.945 -10.648  1.00  0.00     0.000 C 
BRANCH   2   3
ATOM      3  C   UNL     1      -6.078  22.670 -10.963  1.00  0.00     0.000 C 
BRANCH   3   4
ATOM      4  C   UNL     1      -6.955  21.409 -11.026  1.00  0.00     0.006 C 
BRANCH   4   5
ATOM      5  C   UNL     1      -6.153  20.131 -10.743  1.00  0.00     0.053 C 
BRANCH   5   6
ATOM      6  C   UNL     1      -6.430  19.590  -9.374  1.00  0.00     0.041 C 
ATOM      7  O   UNL     1      -7.495  19.894  -8.776  1.00  0.00    -0.550 OA
ATOM      8  O   UNL     1      -5.525  18.726  -8.770  1.00  0.00    -0.550 OA
ENDBRANCH   5   6
ENDBRANCH   4   5
ENDBRANCH   3   4
ENDBRANCH   2   3
ENDBRANCH   1   2
BRANCH   1   9
ATOM      9  C   UNL     1      -7.991  24.574 -12.874  1.00  0.00     0.000 C 
BRANCH   9  10
ATOM     10  C   UNL     1      -7.852  26.102 -12.928  1.00  0.00    -0.000 C 
BRANCH  10  11
ATOM     11  C   UNL     1      -6.548  26.563 -13.606  1.00  0.00    -0.000 C 
BRANCH  11  12
ATOM     12  C   UNL     1      -5.339  26.697 -12.663  1.00  0.00    -0.000 C 
BRANCH  12  13
ATOM     13  C   UNL     1      -4.270  25.621 -12.904  1.00  0.00    -0.003 C 
ATOM     14  C   UNL     1      -4.264  25.169 -14.362  1.00  0.00     0.004 C 
ENDBRANCH  12  13
ENDBRANCH  11  12
ENDBRANCH  10  11
ENDBRANCH   9  10
ENDBRANCH   1   9
TORSDOF 10
ENDMDL
MODEL 8
REMARK VINA RESULT:    -3.356      2.558      5.798
REMARK INTER + INTRA:          -6.437
REMARK INTER:                  -5.038
REMARK INTRA:                  -1.400
REMARK UNBOUND:                -1.120
REMARK SMILES CCCCCCCCCCCC(=O)[O-]
REMARK SMILES IDX 7 1 8 2 9 3 10 4 11 5 12 6 13 7 14 8 6 9 5 10 4 11 3 12 2 13
REMARK SMILES IDX 1 14
REMARK H PARENT
REMARK Flexibility Score: inf
ROOT
ATOM      1  C   UNL     1      -3.878  25.109 -12.613  1.00  0.00     0.000 C 
ENDROOT
BRANCH   1   2
ATOM      2  C   UNL     1      -4.436  23.843 -11.937  1.00  0.00     0.000 C 
BRANCH   2   3
ATOM      3  C   UNL     1      -5.517  23.097 -12.742  1.00  0.00     0.000 C 
BRANCH   3   4
ATOM      4  C   UNL     1      -6.767  22.772 -11.907  1.00  0.00     0.006 C 
BRANCH   4   5
ATOM      5  C   UNL     1      -6.430  22.525 -10.431  1.00  0.00     0.053 C 
BRANCH   5   6
ATOM      6  C   UNL     1      -6.797  21.139  -9.997  1.00  0.00     0.041 C 
ATOM      7  O   UNL     1      -7.477  20.398 -10.754  1.00  0.00    -0.550 OA
ATOM      8  O   UNL     1      -6.361  20.655  -8.770  1.00  0.00    -0.550 OA
ENDBRANCH   5   6
ENDBRANCH   4   5
ENDBRANCH   3   4
ENDBRANCH   2   3
ENDBRANCH   1   2
BRANCH   1   9
ATOM      9  C   UNL     1      -4.765  25.618 -13.759  1.00  0.00     0.000 C 
BRANCH   9  10
ATOM     10  C   UNL     1      -5.637  26.794 -13.297  1.00  0.00    -0.000 C 
BRANCH  10  11
ATOM     11  C   UNL     1      -7.129  26.429 -13.186  1.00  0.00    -0.000 C 
BRANCH  11  12
ATOM     12  C   UNL     1      -7.767  26.714 -11.814  1.00  0.00    -0.000 C 
BRANCH  12  13
ATOM     13  C   UNL     1      -6.797  26.492 -10.645  1.00  0.00    -0.003 C 
ATOM     14  C   UNL     1      -6.622  27.769  -9.827  1.00  0.00     0.004 C 
ENDBRANCH  12  13
ENDBRANCH  11  12
ENDBRANCH  10  11
ENDBRANCH   9  10
ENDBRANCH   1   9
TORSDOF 10
ENDMDL
MODEL 9
REMARK VINA RESULT:    -3.346      2.577      5.676
REMARK INTER + INTRA:          -6.421
REMARK INTER:                  -5.490
REMARK INTRA:                  -0.931
REMARK UNBOUND:                -1.120
REMARK SMILES CCCCCCCCCCCC(=O)[O-]
REMARK SMILES IDX 7 1 8 2 9 3 10 4 11 5 12 6 13 7 14 8 6 9 5 10 4 11 3 12 2 13
REMARK SMILES IDX 1 14
REMARK H PARENT
REMARK Flexibility Score: inf
ROOT
ATOM      1  C   UNL     1      -4.412  23.053 -13.113  1.00  0.00     0.000 C 
ENDROOT
BRANCH   1   2
ATOM      2  C   UNL     1      -5.686  22.717 -12.316  1.00  0.00     0.000 C 
BRANCH   2   3
ATOM      3  C   UNL     1      -5.593  21.454 -11.440  1.00  0.00     0.000 C 
BRANCH   3   4
ATOM      4  C   UNL     1      -6.442  21.548 -10.161  1.00  0.00     0.006 C 
BRANCH   4   5
ATOM      5  C   UNL     1      -7.336  20.315  -9.967  1.00  0.00     0.053 C 
BRANCH   5   6
ATOM      6  C   UNL     1      -6.947  19.529  -8.753  1.00  0.00     0.041 C 
ATOM      7  O   UNL     1      -7.688  19.529  -7.736  1.00  0.00    -0.550 OA
ATOM      8  O   UNL     1      -5.781  18.774  -8.756  1.00  0.00    -0.550 OA
ENDBRANCH   5   6
ENDBRANCH   4   5
ENDBRANCH   3   4
ENDBRANCH   2   3
ENDBRANCH   1   2
BRANCH   1   9
ATOM      9  C   UNL     1      -4.518  24.377 -13.884  1.00  0.00     0.000 C 
BRANCH   9  10
ATOM     10  C   UNL     1      -4.222  25.571 -12.966  1.00  0.00    -0.000 C 
BRANCH  10  11
ATOM     11  C   UNL     1      -5.310  26.660 -13.027  1.00  0.00    -0.000 C 
BRANCH  11  12
ATOM     12  C   UNL     1      -6.544  26.396 -12.146  1.00  0.00    -0.000 C 
BRANCH  12  13
ATOM     13  C   UNL     1      -6.184  26.118 -10.680  1.00  0.00    -0.003 C 
ATOM     14  C   UNL     1      -7.227  25.221 -10.018  1.00  0.00     0.004 C 
ENDBRANCH  12  13
ENDBRANCH  11  12
ENDBRANCH  10  11
ENDBRANCH   9  10
ENDBRANCH   1   9
TORSDOF 10
ENDMDL
