MODEL 1
REMARK VINA RESULT:    -3.602      0.000      0.000
REMARK INTER + INTRA:          -7.211
REMARK INTER:                  -6.129
REMARK INTRA:                  -1.083
REMARK UNBOUND:                -1.083
REMARK SMILES CCCCCCCCCCCCCC(=O)[O-]
REMARK SMILES IDX 8 1 9 2 10 3 11 4 12 5 13 6 14 7 15 8 16 9 7 10 6 11 5 12
REMARK SMILES IDX 4 13 3 14 2 15 1 16
REMARK H PARENT
REMARK Flexibility Score: inf
ROOT
ATOM      1  C   UNL     1      -6.913   6.692  -3.215  1.00  0.00     0.000 C 
ENDROOT
BRANCH   1   2
ATOM      2  C   UNL     1      -5.486   6.973  -3.712  1.00  0.00     0.000 C 
BRANCH   2   3
ATOM      3  C   UNL     1      -4.482   5.901  -3.254  1.00  0.00     0.000 C 
BRANCH   3   4
ATOM      4  C   UNL     1      -4.689   5.470  -1.790  1.00  0.00     0.000 C 
BRANCH   4   5
ATOM      5  C   UNL     1      -3.632   5.995  -0.801  1.00  0.00     0.006 C 
BRANCH   5   6
ATOM      6  C   UNL     1      -2.348   5.157  -0.797  1.00  0.00     0.053 C 
BRANCH   6   7
ATOM      7  C   UNL     1      -1.195   5.965  -1.302  1.00  0.00     0.041 C 
ATOM      8  O   UNL     1      -0.365   6.460  -0.494  1.00  0.00    -0.550 OA
ATOM      9  O   UNL     1      -1.064   6.214  -2.662  1.00  0.00    -0.550 OA
ENDBRANCH   6   7
ENDBRANCH   5   6
ENDBRANCH   4   5
ENDBRANCH   3   4
ENDBRANCH   2   3
ENDBRANCH   1   2
BRANCH   1  10
ATOM     10  C   UNL     1      -7.874   6.332  -4.361  1.00  0.00     0.000 C 
BRANCH  10  11
ATOM     11  C   UNL     1      -7.169   6.232  -5.726  1.00  0.00    -0.000 C 
BRANCH  11  12
ATOM     12  C   UNL     1      -7.233   4.846  -6.393  1.00  0.00    -0.000 C 
BRANCH  12  13
ATOM     13  C   UNL     1      -5.946   4.028  -6.203  1.00  0.00    -0.000 C 
BRANCH  13  14
ATOM     14  C   UNL     1      -4.886   4.423  -7.239  1.00  0.00    -0.000 C 
BRANCH  14  15
ATOM     15  C   UNL     1      -5.408   4.217  -8.665  1.00  0.00    -0.003 C 
ATOM     16  C   UNL     1      -4.316   4.485  -9.696  1.00  0.00     0.004 C 
ENDBRANCH  14  15
ENDBRANCH  13  14
ENDBRANCH  12  13
ENDBRANCH  11  12
ENDBRANCH  10  11
ENDBRANCH   1  10
TORSDOF 12
ENDMDL
MODEL 2
REMARK VINA RESULT:    -3.589      1.336      2.576
REMARK INTER + INTRA:          -7.189
REMARK INTER:                  -6.105
REMARK INTRA:                  -1.083
REMARK UNBOUND:                -1.083
REMARK SMILES CCCCCCCCCCCCCC(=O)[O-]
REMARK SMILES IDX 8 1 9 2 10 3 11 4 12 5 13 6 14 7 15 8 16 9 7 10 6 11 5 12
REMARK SMILES IDX 4 13 3 14 2 15 1 16
REMARK H PARENT
REMARK Flexibility Score: inf
ROOT
ATOM      1  C   UNL     1      -5.028   5.611  -4.182  1.00  0.00     0.000 C 
ENDROOT
BRANCH   1   2
ATOM      2  C   UNL     1      -5.655   6.531  -3.121  1.00  0.00     0.000 C 
BRANCH   2   3
ATOM      3  C   UNL     1      -5.469   5.992  -1.692  1.00  0.00     0.000 C 
BRANCH   3   4
ATOM      4  C   UNL     1      -4.221   6.562  -0.993  1.00  0.00     0.000 C 
BRANCH   4   5
ATOM      5  C   UNL     1      -3.070   5.558  -0.795  1.00  0.00     0.006 C 
BRANCH   5   6
ATOM      6  C   UNL     1      -1.852   6.174  -0.096  1.00  0.00     0.053 C 
BRANCH   6   7
ATOM      7  C   UNL     1      -0.742   6.392  -1.075  1.00  0.00     0.041 C 
ATOM      8  O   UNL     1      -0.921   6.154  -2.298  1.00  0.00    -0.550 OA
ATOM      9  O   UNL     1       0.505   6.810  -0.629  1.00  0.00    -0.550 OA
ENDBRANCH   6   7
ENDBRANCH   5   6
ENDBRANCH   4   5
ENDBRANCH   3   4
ENDBRANCH   2   3
ENDBRANCH   1   2
BRANCH   1  10
ATOM     10  C   UNL     1      -4.492   6.392  -5.394  1.00  0.00     0.000 C 
BRANCH  10  11
ATOM     11  C   UNL     1      -4.698   5.647  -6.726  1.00  0.00    -0.000 C 
BRANCH  11  12
ATOM     12  C   UNL     1      -5.392   4.278  -6.607  1.00  0.00    -0.000 C 
BRANCH  12  13
ATOM     13  C   UNL     1      -6.568   4.115  -7.581  1.00  0.00    -0.000 C 
BRANCH  13  14
ATOM     14  C   UNL     1      -7.876   3.853  -6.824  1.00  0.00    -0.000 C 
BRANCH  14  15
ATOM     15  C   UNL     1      -8.239   5.042  -5.927  1.00  0.00    -0.003 C 
ATOM     16  C   UNL     1      -8.509   6.295  -6.755  1.00  0.00     0.004 C 
ENDBRANCH  14  15
ENDBRANCH  13  14
ENDBRANCH  12  13
ENDBRANCH  11  12
ENDBRANCH  10  11
ENDBRANCH   1  10
TORSDOF 12
ENDMDL
MODEL 3
REMARK VINA RESULT:    -3.573      3.844      6.698
REMARK INTER + INTRA:          -7.162
REMARK INTER:                  -6.127
REMARK INTRA:                  -1.035
REMARK UNBOUND:                -1.083
REMARK SMILES CCCCCCCCCCCCCC(=O)[O-]
REMARK SMILES IDX 8 1 9 2 10 3 11 4 12 5 13 6 14 7 15 8 16 9 7 10 6 11 5 12
REMARK SMILES IDX 4 13 3 14 2 15 1 16
REMARK H PARENT
REMARK Flexibility Score: inf
ROOT
ATOM      1  C   UNL     1      -5.953   7.045  -3.334  1.00  0.00     0.000 C 
ENDROOT
BRANCH   1   2
ATOM      2  C   UNL     1      -4.993   5.982  -3.895  1.00  0.00     0.000 C 
BRANCH   2   3
ATOM      3  C   UNL     1      -4.349   6.414  -5.224  1.00  0.00     0.000 C 
BRANCH   3   4
ATOM      4  C   UNL     1      -4.992   5.740  -6.449  1.00  0.00     0.000 C 
BRANCH   4   5
ATOM      5  C   UNL     1      -5.806   4.470  -6.142  1.00  0.00     0.006 C 
BRANCH   5   6
ATOM      6  C   UNL     1      -7.308   4.644  -6.405  1.00  0.00     0.053 C 
BRANCH   6   7
ATOM      7  C   UNL     1      -7.786   3.626  -7.392  1.00  0.00     0.041 C 
ATOM      8  O   UNL     1      -8.702   2.821  -7.078  1.00  0.00    -0.550 OA
ATOM      9  O   UNL     1      -7.187   3.536  -8.641  1.00  0.00    -0.550 OA
ENDBRANCH   6   7
ENDBRANCH   5   6
ENDBRANCH   4   5
ENDBRANCH   3   4
ENDBRANCH   2   3
ENDBRANCH   1   2
BRANCH   1  10
ATOM     10  C   UNL     1      -6.647   6.585  -2.040  1.00  0.00     0.000 C 
BRANCH  10  11
ATOM     11  C   UNL     1      -5.826   6.897  -0.776  1.00  0.00    -0.000 C 
BRANCH  11  12
ATOM     12  C   UNL     1      -4.763   5.845  -0.412  1.00  0.00    -0.000 C 
BRANCH  12  13
ATOM     13  C   UNL     1      -3.326   6.361  -0.580  1.00  0.00    -0.000 C 
BRANCH  13  14
ATOM     14  C   UNL     1      -2.321   5.202  -0.574  1.00  0.00    -0.000 C 
BRANCH  14  15
ATOM     15  C   UNL     1      -1.153   5.482  -1.526  1.00  0.00    -0.003 C 
ATOM     16  C   UNL     1      -1.542   6.505  -2.590  1.00  0.00     0.004 C 
ENDBRANCH  14  15
ENDBRANCH  13  14
ENDBRANCH  12  13
ENDBRANCH  11  12
ENDBRANCH  10  11
ENDBRANCH   1  10
TORSDOF 12
ENDMDL
MODEL 4
REMARK VINA RESULT:    -3.570     12.651     14.053
REMARK INTER + INTRA:          -7.158
REMARK INTER:                  -6.279
REMARK INTRA:                  -0.880
REMARK UNBOUND:                -1.083
REMARK SMILES CCCCCCCCCCCCCC(=O)[O-]
REMARK SMILES IDX 8 1 9 2 10 3 11 4 12 5 13 6 14 7 15 8 16 9 7 10 6 11 5 12
REMARK SMILES IDX 4 13 3 14 2 15 1 16
REMARK H PARENT
REMARK Flexibility Score: inf
ROOT
ATOM      1  C   UNL     1      -9.223  -5.855  -4.685  1.00  0.00     0.000 C 
ENDROOT
BRANCH   1   2
ATOM      2  C   UNL     1      -9.701  -7.117  -3.948  1.00  0.00     0.000 C 
BRANCH   2   3
ATOM      3  C   UNL     1      -9.737  -8.354  -4.862  1.00  0.00     0.000 C 
BRANCH   3   4
ATOM      4  C   UNL     1      -9.040  -9.579  -4.243  1.00  0.00     0.000 C 
BRANCH   4   5
ATOM      5  C   UNL     1      -9.626 -10.051  -2.899  1.00  0.00     0.006 C 
BRANCH   5   6
ATOM      6  C   UNL     1      -9.264 -11.504  -2.566  1.00  0.00     0.053 C 
BRANCH   6   7
ATOM      7  C   UNL     1      -8.327 -11.554  -1.400  1.00  0.00     0.041 C 
ATOM      8  O   UNL     1      -8.412 -10.697  -0.481  1.00  0.00    -0.550 OA
ATOM      9  O   UNL     1      -7.328 -12.517  -1.353  1.00  0.00    -0.550 OA
ENDBRANCH   6   7
ENDBRANCH   5   6
ENDBRANCH   4   5
ENDBRANCH   3   4
ENDBRANCH   2   3
ENDBRANCH   1   2
BRANCH   1  10
ATOM     10  C   UNL     1      -7.917  -5.292  -4.097  1.00  0.00     0.000 C 
BRANCH  10  11
ATOM     11  C   UNL     1      -7.978  -3.773  -3.849  1.00  0.00    -0.000 C 
BRANCH  11  12
ATOM     12  C   UNL     1      -9.396  -3.193  -3.698  1.00  0.00    -0.000 C 
BRANCH  12  13
ATOM     13  C   UNL     1      -9.735  -2.150  -4.773  1.00  0.00    -0.000 C 
BRANCH  13  14
ATOM     14  C   UNL     1      -8.571  -1.975  -5.756  1.00  0.00    -0.000 C 
BRANCH  14  15
ATOM     15  C   UNL     1      -8.921  -2.553  -7.132  1.00  0.00    -0.003 C 
ATOM     16  C   UNL     1      -7.669  -3.021  -7.868  1.00  0.00     0.004 C 
ENDBRANCH  14  15
ENDBRANCH  13  14
ENDBRANCH  12  13
ENDBRANCH  11  12
ENDBRANCH  10  11
ENDBRANCH   1  10
TORSDOF 12
ENDMDL
MODEL 5
REMARK VINA RESULT:    -3.478     14.360     16.974
REMARK INTER + INTRA:          -7.001
REMARK INTER:                  -5.867
REMARK INTRA:                  -1.134
REMARK UNBOUND:                -1.083
REMARK SMILES CCCCCCCCCCCCCC(=O)[O-]
REMARK SMILES IDX 8 1 9 2 10 3 11 4 12 5 13 6 14 7 15 8 16 9 7 10 6 11 5 12
REMARK SMILES IDX 4 13 3 14 2 15 1 16
REMARK H PARENT
REMARK Flexibility Score: inf
ROOT
ATOM      1  C   UNL     1       8.243  -1.662   6.749  1.00  0.00     0.000 C 
ENDROOT
BRANCH   1   2
ATOM      2  C   UNL     1       9.275  -1.212   5.702  1.00  0.00     0.000 C 
BRANCH   2   3
ATOM      3  C   UNL     1       8.619  -0.742   4.392  1.00  0.00     0.000 C 
BRANCH   3   4
ATOM      4  C   UNL     1       8.748   0.775   4.166  1.00  0.00     0.000 C 
BRANCH   4   5
ATOM      5  C   UNL     1       7.758   1.639   4.969  1.00  0.00     0.006 C 
BRANCH   5   6
ATOM      6  C   UNL     1       6.613   2.191   4.110  1.00  0.00     0.053 C 
BRANCH   6   7
ATOM      7  C   UNL     1       6.435   3.656   4.355  1.00  0.00     0.041 C 
ATOM      8  O   UNL     1       6.807   4.166   5.445  1.00  0.00    -0.550 OA
ATOM      9  O   UNL     1       5.816   4.450   3.399  1.00  0.00    -0.550 OA
ENDBRANCH   6   7
ENDBRANCH   5   6
ENDBRANCH   4   5
ENDBRANCH   3   4
ENDBRANCH   2   3
ENDBRANCH   1   2
BRANCH   1  10
ATOM     10  C   UNL     1       7.971  -0.580   7.809  1.00  0.00     0.000 C 
BRANCH  10  11
ATOM     11  C   UNL     1       6.747  -0.896   8.687  1.00  0.00    -0.000 C 
BRANCH  11  12
ATOM     12  C   UNL     1       5.873   0.318   9.050  1.00  0.00    -0.000 C 
BRANCH  12  13
ATOM     13  C   UNL     1       5.993   1.467   8.037  1.00  0.00    -0.000 C 
BRANCH  13  14
ATOM     14  C   UNL     1       4.671   2.238   7.922  1.00  0.00    -0.000 C 
BRANCH  14  15
ATOM     15  C   UNL     1       3.547   1.517   8.675  1.00  0.00    -0.003 C 
ATOM     16  C   UNL     1       2.357   1.245   7.760  1.00  0.00     0.004 C 
ENDBRANCH  14  15
ENDBRANCH  13  14
ENDBRANCH  12  13
ENDBRANCH  11  12
ENDBRANCH  10  11
ENDBRANCH   1  10
TORSDOF 12
ENDMDL
MODEL 6
REMARK VINA RESULT:    -3.461      2.884      6.810
REMARK INTER + INTRA:          -6.972
REMARK INTER:                  -6.130
REMARK INTRA:                  -0.842
REMARK UNBOUND:                -1.083
REMARK SMILES CCCCCCCCCCCCCC(=O)[O-]
REMARK SMILES IDX 8 1 9 2 10 3 11 4 12 5 13 6 14 7 15 8 16 9 7 10 6 11 5 12
REMARK SMILES IDX 4 13 3 14 2 15 1 16
REMARK H PARENT
REMARK Flexibility Score: inf
ROOT
ATOM      1  C   UNL     1      -5.671   4.937  -5.568  1.00  0.00     0.000 C 
ENDROOT
BRANCH   1   2
ATOM      2  C   UNL     1      -5.465   4.032  -6.793  1.00  0.00     0.000 C 
BRANCH   2   3
ATOM      3  C   UNL     1      -6.619   4.139  -7.805  1.00  0.00     0.000 C 
BRANCH   3   4
ATOM      4  C   UNL     1      -6.154   3.990  -9.265  1.00  0.00     0.000 C 
BRANCH   4   5
ATOM      5  C   UNL     1      -4.988   4.908  -9.673  1.00  0.00     0.006 C 
BRANCH   5   6
ATOM      6  C   UNL     1      -3.735   4.131 -10.097  1.00  0.00     0.053 C 
BRANCH   6   7
ATOM      7  C   UNL     1      -2.586   4.461  -9.198  1.00  0.00     0.041 C 
ATOM      8  O   UNL     1      -1.631   3.651  -9.066  1.00  0.00    -0.550 OA
ATOM      9  O   UNL     1      -2.593   5.642  -8.468  1.00  0.00    -0.550 OA
ENDBRANCH   6   7
ENDBRANCH   5   6
ENDBRANCH   4   5
ENDBRANCH   3   4
ENDBRANCH   2   3
ENDBRANCH   1   2
BRANCH   1  10
ATOM     10  C   UNL     1      -4.722   6.148  -5.565  1.00  0.00     0.000 C 
BRANCH  10  11
ATOM     11  C   UNL     1      -4.350   6.615  -4.146  1.00  0.00    -0.000 C 
BRANCH  11  12
ATOM     12  C   UNL     1      -4.957   5.778  -3.004  1.00  0.00    -0.000 C 
BRANCH  12  13
ATOM     13  C   UNL     1      -4.012   5.630  -1.802  1.00  0.00    -0.000 C 
BRANCH  13  14
ATOM     14  C   UNL     1      -2.568   5.972  -2.192  1.00  0.00    -0.000 C 
BRANCH  14  15
ATOM     15  C   UNL     1      -1.581   5.496  -1.120  1.00  0.00    -0.003 C 
ATOM     16  C   UNL     1      -0.471   6.519  -0.900  1.00  0.00     0.004 C 
ENDBRANCH  14  15
ENDBRANCH  13  14
ENDBRANCH  12  13
ENDBRANCH  11  12
ENDBRANCH  10  11
ENDBRANCH   1  10
TORSDOF 12
ENDMDL
MODEL 7
REMARK VINA RESULT:    -3.451     14.401     16.318
REMARK INTER + INTRA:          -6.955
REMARK INTER:                  -6.036
REMARK INTRA:                  -0.919
REMARK UNBOUND:                -1.083
REMARK SMILES CCCCCCCCCCCCCC(=O)[O-]
REMARK SMILES IDX 8 1 9 2 10 3 11 4 12 5 13 6 14 7 15 8 16 9 7 10 6 11 5 12
REMARK SMILES IDX 4 13 3 14 2 15 1 16
REMARK H PARENT
REMARK Flexibility Score: inf
ROOT
ATOM      1  C   UNL     1       4.747  -9.004  -8.889  1.00  0.00     0.000 C 
ENDROOT
BRANCH   1   2
ATOM      2  C   UNL     1       5.968  -8.271  -8.312  1.00  0.00     0.000 C 
BRANCH   2   3
ATOM      3  C   UNL     1       6.248  -6.939  -9.029  1.00  0.00     0.000 C 
BRANCH   3   4
ATOM      4  C   UNL     1       7.534  -6.972  -9.876  1.00  0.00     0.000 C 
BRANCH   4   5
ATOM      5  C   UNL     1       8.628  -5.982  -9.438  1.00  0.00     0.006 C 
BRANCH   5   6
ATOM      6  C   UNL     1       8.309  -4.531  -9.820  1.00  0.00     0.053 C 
BRANCH   6   7
ATOM      7  C   UNL     1       8.828  -3.590  -8.780  1.00  0.00     0.041 C 
ATOM      8  O   UNL     1       8.771  -2.346  -8.965  1.00  0.00    -0.550 OA
ATOM      9  O   UNL     1       9.420  -4.089  -7.627  1.00  0.00    -0.550 OA
ENDBRANCH   6   7
ENDBRANCH   5   6
ENDBRANCH   4   5
ENDBRANCH   3   4
ENDBRANCH   2   3
ENDBRANCH   1   2
BRANCH   1  10
ATOM     10  C   UNL     1       3.431  -8.574  -8.217  1.00  0.00     0.000 C 
BRANCH  10  11
ATOM     11  C   UNL     1       2.414  -7.986  -9.212  1.00  0.00    -0.000 C 
BRANCH  11  12
ATOM     12  C   UNL     1       2.602  -6.491  -9.529  1.00  0.00    -0.000 C 
BRANCH  12  13
ATOM     13  C   UNL     1       2.757  -5.626  -8.269  1.00  0.00    -0.000 C 
BRANCH  13  14
ATOM     14  C   UNL     1       1.796  -4.431  -8.301  1.00  0.00    -0.000 C 
BRANCH  14  15
ATOM     15  C   UNL     1       1.253  -4.200  -9.716  1.00  0.00    -0.003 C 
ATOM     16  C   UNL     1       0.967  -2.721  -9.962  1.00  0.00     0.004 C 
ENDBRANCH  14  15
ENDBRANCH  13  14
ENDBRANCH  12  13
ENDBRANCH  11  12
ENDBRANCH  10  11
ENDBRANCH   1  10
TORSDOF 12
ENDMDL
MODEL 8
REMARK VINA RESULT:    -3.427     13.916     16.918
REMARK INTER + INTRA:          -6.915
REMARK INTER:                  -5.214
REMARK INTRA:                  -1.701
REMARK UNBOUND:                -1.083
REMARK SMILES CCCCCCCCCCCCCC(=O)[O-]
REMARK SMILES IDX 8 1 9 2 10 3 11 4 12 5 13 6 14 7 15 8 16 9 7 10 6 11 5 12
REMARK SMILES IDX 4 13 3 14 2 15 1 16
REMARK H PARENT
REMARK Flexibility Score: inf
ROOT
ATOM      1  C   UNL     1       4.154   1.426   8.547  1.00  0.00     0.000 C 
ENDROOT
BRANCH   1   2
ATOM      2  C   UNL     1       4.526   2.912   8.672  1.00  0.00     0.000 C 
BRANCH   2   3
ATOM      3  C   UNL     1       5.674   3.312   7.729  1.00  0.00     0.000 C 
BRANCH   3   4
ATOM      4  C   UNL     1       5.943   2.265   6.633  1.00  0.00     0.000 C 
BRANCH   4   5
ATOM      5  C   UNL     1       7.257   2.461   5.854  1.00  0.00     0.006 C 
BRANCH   5   6
ATOM      6  C   UNL     1       7.148   2.045   4.382  1.00  0.00     0.053 C 
BRANCH   6   7
ATOM      7  C   UNL     1       5.952   2.681   3.747  1.00  0.00     0.041 C 
ATOM      8  O   UNL     1       4.972   1.974   3.391  1.00  0.00    -0.550 OA
ATOM      9  O   UNL     1       5.939   4.048   3.503  1.00  0.00    -0.550 OA
ENDBRANCH   6   7
ENDBRANCH   5   6
ENDBRANCH   4   5
ENDBRANCH   3   4
ENDBRANCH   2   3
ENDBRANCH   1   2
BRANCH   1  10
ATOM     10  C   UNL     1       4.535   0.618   9.801  1.00  0.00     0.000 C 
BRANCH  10  11
ATOM     11  C   UNL     1       5.727  -0.327   9.565  1.00  0.00    -0.000 C 
BRANCH  11  12
ATOM     12  C   UNL     1       7.115   0.321   9.726  1.00  0.00    -0.000 C 
BRANCH  12  13
ATOM     13  C   UNL     1       8.076  -0.028   8.580  1.00  0.00    -0.000 C 
BRANCH  13  14
ATOM     14  C   UNL     1       7.477  -1.108   7.670  1.00  0.00    -0.000 C 
BRANCH  14  15
ATOM     15  C   UNL     1       8.561  -1.760   6.803  1.00  0.00    -0.003 C 
ATOM     16  C   UNL     1       8.634  -1.105   5.427  1.00  0.00     0.004 C 
ENDBRANCH  14  15
ENDBRANCH  13  14
ENDBRANCH  12  13
ENDBRANCH  11  12
ENDBRANCH  10  11
ENDBRANCH   1  10
TORSDOF 12
ENDMDL
MODEL 9
REMARK VINA RESULT:    -3.378      2.676      5.955
REMARK INTER + INTRA:          -6.831
REMARK INTER:                  -5.608
REMARK INTRA:                  -1.223
REMARK UNBOUND:                -1.083
REMARK SMILES CCCCCCCCCCCCCC(=O)[O-]
REMARK SMILES IDX 8 1 9 2 10 3 11 4 12 5 13 6 14 7 15 8 16 9 7 10 6 11 5 12
REMARK SMILES IDX 4 13 3 14 2 15 1 16
REMARK H PARENT
REMARK Flexibility Score: inf
ROOT
ATOM      1  C   UNL     1      -7.954   7.085  -3.125  1.00  0.00     0.000 C 
ENDROOT
BRANCH   1   2
ATOM      2  C   UNL     1      -8.759   6.156  -4.047  1.00  0.00     0.000 C 
BRANCH   2   3
ATOM      3  C   UNL     1      -8.029   5.860  -5.369  1.00  0.00     0.000 C 
BRANCH   3   4
ATOM      4  C   UNL     1      -6.520   6.157  -5.300  1.00  0.00     0.000 C 
BRANCH   4   5
ATOM      5  C   UNL     1      -5.606   4.934  -5.497  1.00  0.00     0.006 C 
BRANCH   5   6
ATOM      6  C   UNL     1      -5.861   4.203  -6.822  1.00  0.00     0.053 C 
BRANCH   6   7
ATOM      7  C   UNL     1      -4.831   4.587  -7.836  1.00  0.00     0.041 C 
ATOM      8  O   UNL     1      -3.875   5.341  -7.515  1.00  0.00    -0.550 OA
ATOM      9  O   UNL     1      -4.953   4.151  -9.149  1.00  0.00    -0.550 OA
ENDBRANCH   6   7
ENDBRANCH   5   6
ENDBRANCH   4   5
ENDBRANCH   3   4
ENDBRANCH   2   3
ENDBRANCH   1   2
BRANCH   1  10
ATOM     10  C   UNL     1      -8.096   6.709  -1.640  1.00  0.00     0.000 C 
BRANCH  10  11
ATOM     11  C   UNL     1      -6.742   6.617  -0.913  1.00  0.00    -0.000 C 
BRANCH  11  12
ATOM     12  C   UNL     1      -5.508   6.870  -1.798  1.00  0.00    -0.000 C 
BRANCH  12  13
ATOM     13  C   UNL     1      -4.513   5.700  -1.787  1.00  0.00    -0.000 C 
BRANCH  13  14
ATOM     14  C   UNL     1      -3.242   6.052  -2.572  1.00  0.00    -0.000 C 
BRANCH  14  15
ATOM     15  C   UNL     1      -2.014   6.060  -1.654  1.00  0.00    -0.003 C 
ATOM     16  C   UNL     1      -2.106   4.958  -0.602  1.00  0.00     0.004 C 
ENDBRANCH  14  15
ENDBRANCH  13  14
ENDBRANCH  12  13
ENDBRANCH  11  12
ENDBRANCH  10  11
ENDBRANCH   1  10
TORSDOF 12
ENDMDL
