MODEL 1
REMARK VINA RESULT:    -4.115      0.000      0.000
REMARK INTER + INTRA:          -5.216
REMARK INTER:                  -5.077
REMARK INTRA:                  -0.139
REMARK UNBOUND:                -0.139
REMARK SMILES CCCCCC(=O)[O-]
REMARK SMILES IDX 4 1 5 2 6 3 7 4 8 5 3 6 2 7 1 8
REMARK H PARENT
REMARK Flexibility Score: inf
ROOT
ATOM      1  C   UNL     1       1.121  21.729 -19.091  1.00  0.00     0.006 C 
ENDROOT
BRANCH   1   2
ATOM      2  C   UNL     1       1.446  21.753 -17.595  1.00  0.00     0.053 C 
BRANCH   2   3
ATOM      3  C   UNL     1       2.698  22.532 -17.343  1.00  0.00     0.041 C 
ATOM      4  O   UNL     1       2.949  23.566 -18.017  1.00  0.00    -0.550 OA
ATOM      5  O   UNL     1       3.613  22.089 -16.396  1.00  0.00    -0.550 OA
ENDBRANCH   2   3
ENDBRANCH   1   2
BRANCH   1   6
ATOM      6  C   UNL     1       1.675  20.458 -19.752  1.00  0.00     0.000 C 
BRANCH   6   7
ATOM      7  C   UNL     1       2.917  20.734 -20.614  1.00  0.00    -0.003 C 
ATOM      8  C   UNL     1       3.603  19.453 -21.090  1.00  0.00     0.004 C 
ENDBRANCH   6   7
ENDBRANCH   1   6
TORSDOF 4
ENDMDL
MODEL 2
REMARK VINA RESULT:    -4.099      2.394      3.827
REMARK INTER + INTRA:          -5.197
REMARK INTER:                  -5.037
REMARK INTRA:                  -0.160
REMARK UNBOUND:                -0.139
REMARK SMILES CCCCCC(=O)[O-]
REMARK SMILES IDX 4 1 5 2 6 3 7 4 8 5 3 6 2 7 1 8
REMARK H PARENT
REMARK Flexibility Score: inf
ROOT
ATOM      1  C   UNL     1       1.584  22.524 -19.150  1.00  0.00     0.006 C 
ENDROOT
BRANCH   1   2
ATOM      2  C   UNL     1       1.366  21.032 -19.422  1.00  0.00     0.053 C 
BRANCH   2   3
ATOM      3  C   UNL     1       2.445  20.498 -20.309  1.00  0.00     0.041 C 
ATOM      4  O   UNL     1       3.245  21.286 -20.880  1.00  0.00    -0.550 OA
ATOM      5  O   UNL     1       2.539  19.132 -20.544  1.00  0.00    -0.550 OA
ENDBRANCH   2   3
ENDBRANCH   1   2
BRANCH   1   6
ATOM      6  C   UNL     1       1.796  22.784 -17.652  1.00  0.00     0.000 C 
BRANCH   6   7
ATOM      7  C   UNL     1       3.252  22.563 -17.214  1.00  0.00    -0.003 C 
ATOM      8  C   UNL     1       3.363  21.944 -15.820  1.00  0.00     0.004 C 
ENDBRANCH   6   7
ENDBRANCH   1   6
TORSDOF 4
ENDMDL
MODEL 3
REMARK VINA RESULT:    -3.791     12.735     14.023
REMARK INTER + INTRA:          -4.816
REMARK INTER:                  -4.655
REMARK INTRA:                  -0.161
REMARK UNBOUND:                -0.139
REMARK SMILES CCCCCC(=O)[O-]
REMARK SMILES IDX 4 1 5 2 6 3 7 4 8 5 3 6 2 7 1 8
REMARK H PARENT
REMARK Flexibility Score: inf
ROOT
ATOM      1  C   UNL     1      -6.293  31.586 -16.867  1.00  0.00     0.006 C 
ENDROOT
BRANCH   1   2
ATOM      2  C   UNL     1      -4.801  31.931 -16.879  1.00  0.00     0.053 C 
BRANCH   2   3
ATOM      3  C   UNL     1      -4.237  31.767 -18.254  1.00  0.00     0.041 C 
ATOM      4  O   UNL     1      -4.910  31.197 -19.153  1.00  0.00    -0.550 OA
ATOM      5  O   UNL     1      -2.947  32.201 -18.533  1.00  0.00    -0.550 OA
ENDBRANCH   2   3
ENDBRANCH   1   2
BRANCH   1   6
ATOM      6  C   UNL     1      -7.083  32.597 -16.022  1.00  0.00     0.000 C 
BRANCH   6   7
ATOM      7  C   UNL     1      -8.230  33.253 -16.806  1.00  0.00    -0.003 C 
ATOM      8  C   UNL     1      -7.942  33.351 -18.304  1.00  0.00     0.004 C 
ENDBRANCH   6   7
ENDBRANCH   1   6
TORSDOF 4
ENDMDL
MODEL 4
REMARK VINA RESULT:    -3.777      9.409     10.190
REMARK INTER + INTRA:          -4.799
REMARK INTER:                  -4.652
REMARK INTRA:                  -0.147
REMARK UNBOUND:                -0.139
REMARK SMILES CCCCCC(=O)[O-]
REMARK SMILES IDX 4 1 5 2 6 3 7 4 8 5 3 6 2 7 1 8
REMARK H PARENT
REMARK Flexibility Score: inf
ROOT
ATOM      1  C   UNL     1       8.924  24.574 -12.393  1.00  0.00     0.006 C 
ENDROOT
BRANCH   1   2
ATOM      2  C   UNL     1       8.978  24.337 -10.881  1.00  0.00     0.053 C 
BRANCH   2   3
ATOM      3  C   UNL     1       7.764  23.594 -10.424  1.00  0.00     0.041 C 
ATOM      4  O   UNL     1       6.685  23.682 -11.067  1.00  0.00    -0.550 OA
ATOM      5  O   UNL     1       7.809  22.839  -9.258  1.00  0.00    -0.550 OA
ENDBRANCH   2   3
ENDBRANCH   1   2
BRANCH   1   6
ATOM      6  C   UNL     1       8.926  26.076 -12.714  1.00  0.00     0.000 C 
BRANCH   6   7
ATOM      7  C   UNL     1       7.516  26.626 -12.978  1.00  0.00    -0.003 C 
ATOM      8  C   UNL     1       7.490  28.149 -13.105  1.00  0.00     0.004 C 
ENDBRANCH   6   7
ENDBRANCH   1   6
TORSDOF 4
ENDMDL
MODEL 5
REMARK VINA RESULT:    -3.761     12.472     13.813
REMARK INTER + INTRA:          -4.780
REMARK INTER:                  -4.625
REMARK INTRA:                  -0.155
REMARK UNBOUND:                -0.139
REMARK SMILES CCCCCC(=O)[O-]
REMARK SMILES IDX 4 1 5 2 6 3 7 4 8 5 3 6 2 7 1 8
REMARK H PARENT
REMARK Flexibility Score: inf
ROOT
ATOM      1  C   UNL     1      -6.024  31.816 -18.457  1.00  0.00     0.006 C 
ENDROOT
BRANCH   1   2
ATOM      2  C   UNL     1      -4.654  31.412 -19.008  1.00  0.00     0.053 C 
BRANCH   2   3
ATOM      3  C   UNL     1      -3.641  32.475 -18.723  1.00  0.00     0.041 C 
ATOM      4  O   UNL     1      -2.519  32.170 -18.239  1.00  0.00    -0.550 OA
ATOM      5  O   UNL     1      -3.954  33.811 -18.947  1.00  0.00    -0.550 OA
ENDBRANCH   2   3
ENDBRANCH   1   2
BRANCH   1   6
ATOM      6  C   UNL     1      -6.052  31.716 -16.925  1.00  0.00     0.000 C 
BRANCH   6   7
ATOM      7  C   UNL     1      -7.200  32.523 -16.300  1.00  0.00    -0.003 C 
ATOM      8  C   UNL     1      -8.038  33.263 -17.344  1.00  0.00     0.004 C 
ENDBRANCH   6   7
ENDBRANCH   1   6
TORSDOF 4
ENDMDL
MODEL 6
REMARK VINA RESULT:    -3.726      8.987      9.860
REMARK INTER + INTRA:          -4.736
REMARK INTER:                  -4.678
REMARK INTRA:                  -0.058
REMARK UNBOUND:                -0.139
REMARK SMILES CCCCCC(=O)[O-]
REMARK SMILES IDX 4 1 5 2 6 3 7 4 8 5 3 6 2 7 1 8
REMARK H PARENT
REMARK Flexibility Score: inf
ROOT
ATOM      1  C   UNL     1       8.255  25.768 -12.673  1.00  0.00     0.006 C 
ENDROOT
BRANCH   1   2
ATOM      2  C   UNL     1       6.913  26.380 -13.082  1.00  0.00     0.053 C 
BRANCH   2   3
ATOM      3  C   UNL     1       7.086  27.816 -13.463  1.00  0.00     0.041 C 
ATOM      4  O   UNL     1       6.495  28.281 -14.473  1.00  0.00    -0.550 OA
ATOM      5  O   UNL     1       7.939  28.631 -12.730  1.00  0.00    -0.550 OA
ENDBRANCH   2   3
ENDBRANCH   1   2
BRANCH   1   6
ATOM      6  C   UNL     1       8.069  24.338 -12.145  1.00  0.00     0.000 C 
BRANCH   6   7
ATOM      7  C   UNL     1       8.672  24.141 -10.746  1.00  0.00    -0.003 C 
ATOM      8  C   UNL     1       7.893  23.133  -9.902  1.00  0.00     0.004 C 
ENDBRANCH   6   7
ENDBRANCH   1   6
TORSDOF 4
ENDMDL
MODEL 7
REMARK VINA RESULT:    -3.703     13.369     14.429
REMARK INTER + INTRA:          -4.707
REMARK INTER:                  -4.498
REMARK INTRA:                  -0.209
REMARK UNBOUND:                -0.139
REMARK SMILES CCCCCC(=O)[O-]
REMARK SMILES IDX 4 1 5 2 6 3 7 4 8 5 3 6 2 7 1 8
REMARK H PARENT
REMARK Flexibility Score: inf
ROOT
ATOM      1  C   UNL     1      -5.554  32.668 -16.613  1.00  0.00     0.006 C 
ENDROOT
BRANCH   1   2
ATOM      2  C   UNL     1      -6.940  32.097 -16.303  1.00  0.00     0.053 C 
BRANCH   2   3
ATOM      3  C   UNL     1      -8.008  32.972 -16.879  1.00  0.00     0.041 C 
ATOM      4  O   UNL     1      -8.966  33.361 -16.162  1.00  0.00    -0.550 OA
ATOM      5  O   UNL     1      -7.969  33.321 -18.224  1.00  0.00    -0.550 OA
ENDBRANCH   2   3
ENDBRANCH   1   2
BRANCH   1   6
ATOM      6  C   UNL     1      -4.619  31.576 -17.153  1.00  0.00     0.000 C 
BRANCH   6   7
ATOM      7  C   UNL     1      -4.807  31.329 -18.658  1.00  0.00    -0.003 C 
ATOM      8  C   UNL     1      -4.567  32.584 -19.498  1.00  0.00     0.004 C 
ENDBRANCH   6   7
ENDBRANCH   1   6
TORSDOF 4
ENDMDL
MODEL 8
REMARK VINA RESULT:    -3.700     12.991     13.837
REMARK INTER + INTRA:          -4.705
REMARK INTER:                  -4.590
REMARK INTRA:                  -0.114
REMARK UNBOUND:                -0.139
REMARK SMILES CCCCCC(=O)[O-]
REMARK SMILES IDX 4 1 5 2 6 3 7 4 8 5 3 6 2 7 1 8
REMARK H PARENT
REMARK Flexibility Score: inf
ROOT
ATOM      1  C   UNL     1      -6.062  31.892 -18.480  1.00  0.00     0.006 C 
ENDROOT
BRANCH   1   2
ATOM      2  C   UNL     1      -6.083  31.850 -16.950  1.00  0.00     0.053 C 
BRANCH   2   3
ATOM      3  C   UNL     1      -7.352  32.445 -16.427  1.00  0.00     0.041 C 
ATOM      4  O   UNL     1      -8.063  33.174 -17.166  1.00  0.00    -0.550 OA
ATOM      5  O   UNL     1      -7.726  32.232 -15.105  1.00  0.00    -0.550 OA
ENDBRANCH   2   3
ENDBRANCH   1   2
BRANCH   1   6
ATOM      6  C   UNL     1      -4.647  31.632 -19.018  1.00  0.00     0.000 C 
BRANCH   6   7
ATOM      7  C   UNL     1      -3.676  32.780 -18.705  1.00  0.00    -0.003 C 
ATOM      8  C   UNL     1      -2.449  32.319 -17.918  1.00  0.00     0.004 C 
ENDBRANCH   6   7
ENDBRANCH   1   6
TORSDOF 4
ENDMDL
MODEL 9
REMARK VINA RESULT:    -3.650      9.014     10.120
REMARK INTER + INTRA:          -4.643
REMARK INTER:                  -4.534
REMARK INTRA:                  -0.108
REMARK UNBOUND:                -0.139
REMARK SMILES CCCCCC(=O)[O-]
REMARK SMILES IDX 4 1 5 2 6 3 7 4 8 5 3 6 2 7 1 8
REMARK H PARENT
REMARK Flexibility Score: inf
ROOT
ATOM      1  C   UNL     1       7.193  26.148 -13.050  1.00  0.00     0.006 C 
ENDROOT
BRANCH   1   2
ATOM      2  C   UNL     1       8.632  25.828 -12.634  1.00  0.00     0.053 C 
BRANCH   2   3
ATOM      3  C   UNL     1       8.935  24.382 -12.866  1.00  0.00     0.041 C 
ATOM      4  O   UNL     1       9.342  23.992 -13.992  1.00  0.00    -0.550 OA
ATOM      5  O   UNL     1       8.722  23.456 -11.853  1.00  0.00    -0.550 OA
ENDBRANCH   2   3
ENDBRANCH   1   2
BRANCH   1   6
ATOM      6  C   UNL     1       7.031  27.643 -13.361  1.00  0.00     0.000 C 
BRANCH   6   7
ATOM      7  C   UNL     1       8.297  28.453 -13.041  1.00  0.00    -0.003 C 
ATOM      8  C   UNL     1       8.002  29.930 -12.778  1.00  0.00     0.004 C 
ENDBRANCH   6   7
ENDBRANCH   1   6
TORSDOF 4
ENDMDL
