MODEL 1
REMARK VINA RESULT:    -3.784      0.000      0.000
REMARK INTER + INTRA:          -5.440
REMARK INTER:                  -4.890
REMARK INTRA:                  -0.550
REMARK UNBOUND:                -0.550
REMARK SMILES C=CC(=O)CCCCC
REMARK SMILES IDX 6 1 7 2 8 3 9 4 5 5 3 6 4 7 2 8 1 9
REMARK H PARENT
REMARK Flexibility Score: inf
ROOT
ATOM      1  C   UNL     1       5.481  -0.506  -0.910  1.00  0.00     0.008 C 
ENDROOT
BRANCH   1   2
ATOM      2  C   UNL     1       4.605  -0.739  -2.158  1.00  0.00     0.000 C 
BRANCH   2   3
ATOM      3  C   UNL     1       5.003  -2.011  -2.924  1.00  0.00    -0.003 C 
ATOM      4  C   UNL     1       6.516  -2.093  -3.104  1.00  0.00     0.004 C 
ENDBRANCH   2   3
ENDBRANCH   1   2
BRANCH   1   5
ATOM      5  C   UNL     1       4.739  -0.749   0.415  1.00  0.00     0.080 C 
BRANCH   5   6
ATOM      6  C   UNL     1       5.362  -1.850   1.224  1.00  0.00     0.155 C 
ATOM      7  O   UNL     1       5.297  -1.801   2.482  1.00  0.00    -0.295 OA
BRANCH   6   8
ATOM      8  C   UNL     1       6.019  -2.987   0.550  1.00  0.00     0.039 C 
ATOM      9  C   UNL     1       5.406  -4.153   0.356  1.00  0.00     0.012 C 
ENDBRANCH   6   8
ENDBRANCH   5   6
ENDBRANCH   1   5
TORSDOF 5
ENDMDL
MODEL 2
REMARK VINA RESULT:    -3.388      1.658      2.836
REMARK INTER + INTRA:          -4.929
REMARK INTER:                  -4.376
REMARK INTRA:                  -0.553
REMARK UNBOUND:                -0.550
REMARK SMILES C=CC(=O)CCCCC
REMARK SMILES IDX 6 1 7 2 8 3 9 4 5 5 3 6 4 7 2 8 1 9
REMARK H PARENT
REMARK Flexibility Score: inf
ROOT
ATOM      1  C   UNL     1       4.855  -2.063  -2.865  1.00  0.00     0.008 C 
ENDROOT
BRANCH   1   2
ATOM      2  C   UNL     1       4.288  -3.328  -2.187  1.00  0.00     0.000 C 
BRANCH   2   3
ATOM      3  C   UNL     1       5.335  -4.446  -2.065  1.00  0.00    -0.003 C 
ATOM      4  C   UNL     1       5.941  -4.482  -0.665  1.00  0.00     0.004 C 
ENDBRANCH   2   3
ENDBRANCH   1   2
BRANCH   1   5
ATOM      5  C   UNL     1       4.647  -0.780  -2.044  1.00  0.00     0.080 C 
BRANCH   5   6
ATOM      6  C   UNL     1       5.453  -0.776  -0.777  1.00  0.00     0.155 C 
ATOM      7  O   UNL     1       6.712  -0.760  -0.849  1.00  0.00    -0.295 OA
BRANCH   6   8
ATOM      8  C   UNL     1       4.776  -0.766   0.534  1.00  0.00     0.039 C 
ATOM      9  C   UNL     1       5.160  -1.546   1.543  1.00  0.00     0.012 C 
ENDBRANCH   6   8
ENDBRANCH   5   6
ENDBRANCH   1   5
TORSDOF 5
ENDMDL
MODEL 3
REMARK VINA RESULT:    -3.367      2.591      4.117
REMARK INTER + INTRA:          -4.902
REMARK INTER:                  -4.512
REMARK INTRA:                  -0.390
REMARK UNBOUND:                -0.550
REMARK SMILES C=CC(=O)CCCCC
REMARK SMILES IDX 6 1 7 2 8 3 9 4 5 5 3 6 4 7 2 8 1 9
REMARK H PARENT
REMARK Flexibility Score: inf
ROOT
ATOM      1  C   UNL     1       4.998  -0.554  -1.858  1.00  0.00     0.008 C 
ENDROOT
BRANCH   1   2
ATOM      2  C   UNL     1       4.830  -0.403  -0.332  1.00  0.00     0.000 C 
BRANCH   2   3
ATOM      3  C   UNL     1       5.200  -1.686   0.428  1.00  0.00    -0.003 C 
ATOM      4  C   UNL     1       5.184  -1.456   1.936  1.00  0.00     0.004 C 
ENDBRANCH   2   3
ENDBRANCH   1   2
BRANCH   1   5
ATOM      5  C   UNL     1       5.395  -1.974  -2.295  1.00  0.00     0.080 C 
BRANCH   5   6
ATOM      6  C   UNL     1       6.796  -2.035  -2.833  1.00  0.00     0.155 C 
ATOM      7  O   UNL     1       6.981  -1.950  -4.078  1.00  0.00    -0.295 OA
BRANCH   6   8
ATOM      8  C   UNL     1       7.941  -2.165  -1.911  1.00  0.00     0.039 C 
ATOM      9  C   UNL     1       8.824  -1.186  -1.726  1.00  0.00     0.012 C 
ENDBRANCH   6   8
ENDBRANCH   5   6
ENDBRANCH   1   5
TORSDOF 5
ENDMDL
MODEL 4
REMARK VINA RESULT:    -3.354      2.798      4.133
REMARK INTER + INTRA:          -4.884
REMARK INTER:                  -4.270
REMARK INTRA:                  -0.615
REMARK UNBOUND:                -0.550
REMARK SMILES C=CC(=O)CCCCC
REMARK SMILES IDX 6 1 7 2 8 3 9 4 5 5 3 6 4 7 2 8 1 9
REMARK H PARENT
REMARK Flexibility Score: inf
ROOT
ATOM      1  C   UNL     1       6.924  -1.201  -1.344  1.00  0.00     0.008 C 
ENDROOT
BRANCH   1   2
ATOM      2  C   UNL     1       6.016  -1.461  -0.123  1.00  0.00     0.000 C 
BRANCH   2   3
ATOM      3  C   UNL     1       4.716  -0.644  -0.176  1.00  0.00    -0.003 C 
ATOM      4  C   UNL     1       4.759   0.386  -1.300  1.00  0.00     0.004 C 
ENDBRANCH   2   3
ENDBRANCH   1   2
BRANCH   1   5
ATOM      5  C   UNL     1       7.113  -2.434  -2.242  1.00  0.00     0.080 C 
BRANCH   5   6
ATOM      6  C   UNL     1       6.358  -2.320  -3.535  1.00  0.00     0.155 C 
ATOM      7  O   UNL     1       6.984  -2.020  -4.588  1.00  0.00    -0.295 OA
BRANCH   6   8
ATOM      8  C   UNL     1       4.906  -2.583  -3.574  1.00  0.00     0.039 C 
ATOM      9  C   UNL     1       4.329  -3.515  -2.819  1.00  0.00     0.012 C 
ENDBRANCH   6   8
ENDBRANCH   5   6
ENDBRANCH   1   5
TORSDOF 5
ENDMDL
MODEL 5
REMARK VINA RESULT:    -3.325      2.350      3.401
REMARK INTER + INTRA:          -4.847
REMARK INTER:                  -4.247
REMARK INTRA:                  -0.600
REMARK UNBOUND:                -0.550
REMARK SMILES C=CC(=O)CCCCC
REMARK SMILES IDX 6 1 7 2 8 3 9 4 5 5 3 6 4 7 2 8 1 9
REMARK H PARENT
REMARK Flexibility Score: inf
ROOT
ATOM      1  C   UNL     1       5.265  -1.749  -3.026  1.00  0.00     0.008 C 
ENDROOT
BRANCH   1   2
ATOM      2  C   UNL     1       4.446  -0.821  -2.106  1.00  0.00     0.000 C 
BRANCH   2   3
ATOM      3  C   UNL     1       5.173  -0.511  -0.789  1.00  0.00    -0.003 C 
ATOM      4  C   UNL     1       6.644  -0.908  -0.867  1.00  0.00     0.004 C 
ENDBRANCH   2   3
ENDBRANCH   1   2
BRANCH   1   5
ATOM      5  C   UNL     1       4.462  -2.946  -3.562  1.00  0.00     0.080 C 
BRANCH   5   6
ATOM      6  C   UNL     1       4.232  -3.995  -2.513  1.00  0.00     0.155 C 
ATOM      7  O   UNL     1       3.111  -4.569  -2.452  1.00  0.00    -0.295 OA
BRANCH   6   8
ATOM      8  C   UNL     1       5.316  -4.366  -1.582  1.00  0.00     0.039 C 
ATOM      9  C   UNL     1       5.197  -4.246  -0.262  1.00  0.00     0.012 C 
ENDBRANCH   6   8
ENDBRANCH   5   6
ENDBRANCH   1   5
TORSDOF 5
ENDMDL
MODEL 6
REMARK VINA RESULT:    -3.308      1.711      3.531
REMARK INTER + INTRA:          -4.825
REMARK INTER:                  -4.288
REMARK INTRA:                  -0.537
REMARK UNBOUND:                -0.550
REMARK SMILES C=CC(=O)CCCCC
REMARK SMILES IDX 6 1 7 2 8 3 9 4 5 5 3 6 4 7 2 8 1 9
REMARK H PARENT
REMARK Flexibility Score: inf
ROOT
ATOM      1  C   UNL     1       5.368  -1.583   0.896  1.00  0.00     0.008 C 
ENDROOT
BRANCH   1   2
ATOM      2  C   UNL     1       5.543  -3.106   1.075  1.00  0.00     0.000 C 
BRANCH   2   3
ATOM      3  C   UNL     1       6.673  -3.673   0.203  1.00  0.00    -0.003 C 
ATOM      4  C   UNL     1       6.197  -4.881  -0.599  1.00  0.00     0.004 C 
ENDBRANCH   2   3
ENDBRANCH   1   2
BRANCH   1   5
ATOM      5  C   UNL     1       6.060  -1.030  -0.361  1.00  0.00     0.080 C 
BRANCH   5   6
ATOM      6  C   UNL     1       5.082  -0.452  -1.343  1.00  0.00     0.155 C 
ATOM      7  O   UNL     1       4.707   0.744  -1.206  1.00  0.00    -0.295 OA
BRANCH   6   8
ATOM      8  C   UNL     1       4.589  -1.269  -2.469  1.00  0.00     0.039 C 
ATOM      9  C   UNL     1       5.352  -2.168  -3.087  1.00  0.00     0.012 C 
ENDBRANCH   6   8
ENDBRANCH   5   6
ENDBRANCH   1   5
TORSDOF 5
ENDMDL
MODEL 7
REMARK VINA RESULT:    -3.279      2.067      3.677
REMARK INTER + INTRA:          -4.788
REMARK INTER:                  -4.281
REMARK INTRA:                  -0.507
REMARK UNBOUND:                -0.550
REMARK SMILES C=CC(=O)CCCCC
REMARK SMILES IDX 6 1 7 2 8 3 9 4 5 5 3 6 4 7 2 8 1 9
REMARK H PARENT
REMARK Flexibility Score: inf
ROOT
ATOM      1  C   UNL     1       5.252  -0.268  -0.962  1.00  0.00     0.008 C 
ENDROOT
BRANCH   1   2
ATOM      2  C   UNL     1       4.544  -0.793   0.305  1.00  0.00     0.000 C 
BRANCH   2   3
ATOM      3  C   UNL     1       5.493  -1.578   1.224  1.00  0.00    -0.003 C 
ATOM      4  C   UNL     1       5.658  -3.017   0.743  1.00  0.00     0.004 C 
ENDBRANCH   2   3
ENDBRANCH   1   2
BRANCH   1   5
ATOM      5  C   UNL     1       4.593  -0.734  -2.270  1.00  0.00     0.080 C 
BRANCH   5   6
ATOM      6  C   UNL     1       5.259  -1.951  -2.844  1.00  0.00     0.155 C 
ATOM      7  O   UNL     1       6.515  -1.972  -2.950  1.00  0.00    -0.295 OA
BRANCH   6   8
ATOM      8  C   UNL     1       4.451  -3.116  -3.255  1.00  0.00     0.039 C 
ATOM      9  C   UNL     1       3.915  -3.959  -2.375  1.00  0.00     0.012 C 
ENDBRANCH   6   8
ENDBRANCH   5   6
ENDBRANCH   1   5
TORSDOF 5
ENDMDL
MODEL 8
REMARK VINA RESULT:    -3.201      1.306      2.765
REMARK INTER + INTRA:          -4.687
REMARK INTER:                  -4.150
REMARK INTRA:                  -0.537
REMARK UNBOUND:                -0.550
REMARK SMILES C=CC(=O)CCCCC
REMARK SMILES IDX 6 1 7 2 8 3 9 4 5 5 3 6 4 7 2 8 1 9
REMARK H PARENT
REMARK Flexibility Score: inf
ROOT
ATOM      1  C   UNL     1       6.460  -3.942  -0.473  1.00  0.00     0.008 C 
ENDROOT
BRANCH   1   2
ATOM      2  C   UNL     1       5.642  -4.680  -1.553  1.00  0.00     0.000 C 
BRANCH   2   3
ATOM      3  C   UNL     1       4.328  -3.958  -1.889  1.00  0.00    -0.003 C 
ATOM      4  C   UNL     1       4.461  -3.145  -3.174  1.00  0.00     0.004 C 
ENDBRANCH   2   3
ENDBRANCH   1   2
BRANCH   1   5
ATOM      5  C   UNL     1       5.649  -3.608   0.790  1.00  0.00     0.080 C 
BRANCH   5   6
ATOM      6  C   UNL     1       5.571  -2.130   1.044  1.00  0.00     0.155 C 
ATOM      7  O   UNL     1       5.295  -1.719   2.204  1.00  0.00    -0.295 OA
BRANCH   6   8
ATOM      8  C   UNL     1       5.842  -1.173  -0.047  1.00  0.00     0.039 C 
ATOM      9  C   UNL     1       4.890  -0.410  -0.579  1.00  0.00     0.012 C 
ENDBRANCH   6   8
ENDBRANCH   5   6
ENDBRANCH   1   5
TORSDOF 5
ENDMDL
MODEL 9
REMARK VINA RESULT:    -3.200      1.864      2.996
REMARK INTER + INTRA:          -4.686
REMARK INTER:                  -4.104
REMARK INTRA:                  -0.582
REMARK UNBOUND:                -0.550
REMARK SMILES C=CC(=O)CCCCC
REMARK SMILES IDX 6 1 7 2 8 3 9 4 5 5 3 6 4 7 2 8 1 9
REMARK H PARENT
REMARK Flexibility Score: inf
ROOT
ATOM      1  C   UNL     1       4.613  -2.919  -1.545  1.00  0.00     0.008 C 
ENDROOT
BRANCH   1   2
ATOM      2  C   UNL     1       4.777  -1.779  -2.572  1.00  0.00     0.000 C 
BRANCH   2   3
ATOM      3  C   UNL     1       4.554  -0.393  -1.949  1.00  0.00    -0.003 C 
ATOM      4  C   UNL     1       4.797  -0.421  -0.443  1.00  0.00     0.004 C 
ENDBRANCH   2   3
ENDBRANCH   1   2
BRANCH   1   5
ATOM      5  C   UNL     1       5.817  -3.873  -1.489  1.00  0.00     0.080 C 
BRANCH   5   6
ATOM      6  C   UNL     1       6.890  -3.384  -0.559  1.00  0.00     0.155 C 
ATOM      7  O   UNL     1       6.724  -3.498   0.686  1.00  0.00    -0.295 OA
BRANCH   6   8
ATOM      8  C   UNL     1       8.134  -2.802  -1.100  1.00  0.00     0.039 C 
ATOM      9  C   UNL     1       8.246  -1.510  -1.401  1.00  0.00     0.012 C 
ENDBRANCH   6   8
ENDBRANCH   5   6
ENDBRANCH   1   5
TORSDOF 5
ENDMDL
