MODEL 1
REMARK VINA RESULT:    -3.315      0.000      0.000
REMARK INTER + INTRA:          -3.874
REMARK INTER:                  -3.800
REMARK INTRA:                  -0.074
REMARK UNBOUND:                -0.074
REMARK SMILES CC(C)[C@H]([NH3+])C(=O)[O-]
REMARK SMILES IDX 4 1 5 2 6 6 7 7 8 8 2 9 1 10 3 11
REMARK H PARENT 5 3 5 4 5 5
REMARK Flexibility Score: inf
ROOT
ATOM      1  C   UNL     1      14.417 -15.667  35.372  1.00  0.00     0.230 C 
ENDROOT
BRANCH   1   2
ATOM      2  N   UNL     1      15.830 -16.029  35.183  1.00  0.00    -0.350 N 
ATOM      3  H   UNL     1      16.383 -15.789  36.037  1.00  0.00     0.345 HD
ATOM      4  H   UNL     1      15.921 -17.061  35.037  1.00  0.00     0.345 HD
ATOM      5  H   UNL     1      16.232 -15.532  34.354  1.00  0.00     0.345 HD
ENDBRANCH   1   2
BRANCH   1   6
ATOM      6  C   UNL     1      14.199 -15.217  36.796  1.00  0.00     0.099 C 
ATOM      7  O   UNL     1      13.888 -14.023  37.047  1.00  0.00    -0.544 OA
ATOM      8  O   UNL     1      14.348 -16.120  37.841  1.00  0.00    -0.544 OA
ENDBRANCH   1   6
BRANCH   1   9
ATOM      9  C   UNL     1      13.461 -16.843  35.008  1.00  0.00     0.047 C 
ATOM     10  C   UNL     1      11.988 -16.450  35.221  1.00  0.00     0.014 C 
ATOM     11  C   UNL     1      13.653 -17.309  33.554  1.00  0.00     0.014 C 
ENDBRANCH   1   9
TORSDOF 3
ENDMDL
MODEL 2
REMARK VINA RESULT:    -3.254      9.006      9.722
REMARK INTER + INTRA:          -3.804
REMARK INTER:                  -3.904
REMARK INTRA:                   0.100
REMARK UNBOUND:                -0.074
REMARK SMILES CC(C)[C@H]([NH3+])C(=O)[O-]
REMARK SMILES IDX 4 1 5 2 6 6 7 7 8 8 2 9 1 10 3 11
REMARK H PARENT 5 3 5 4 5 5
REMARK Flexibility Score: inf
ROOT
ATOM      1  C   UNL     1      11.539 -25.289  36.281  1.00  0.00     0.230 C 
ENDROOT
BRANCH   1   2
ATOM      2  N   UNL     1      11.736 -25.432  34.830  1.00  0.00    -0.350 N 
ATOM      3  H   UNL     1      10.936 -25.003  34.312  1.00  0.00     0.345 HD
ATOM      4  H   UNL     1      12.603 -24.926  34.532  1.00  0.00     0.345 HD
ATOM      5  H   UNL     1      11.824 -26.441  34.566  1.00  0.00     0.345 HD
ENDBRANCH   1   2
BRANCH   1   6
ATOM      6  C   UNL     1      10.062 -25.280  36.589  1.00  0.00     0.099 C 
ATOM      7  O   UNL     1       9.651 -25.553  37.748  1.00  0.00    -0.544 OA
ATOM      8  O   UNL     1       9.145 -24.976  35.592  1.00  0.00    -0.544 OA
ENDBRANCH   1   6
BRANCH   1   9
ATOM      9  C   UNL     1      12.232 -24.009  36.838  1.00  0.00     0.047 C 
ATOM     10  C   UNL     1      11.382 -22.754  36.569  1.00  0.00     0.014 C 
ATOM     11  C   UNL     1      12.506 -24.116  38.348  1.00  0.00     0.014 C 
ENDBRANCH   1   9
TORSDOF 3
ENDMDL
MODEL 3
REMARK VINA RESULT:    -3.253      8.995      9.674
REMARK INTER + INTRA:          -3.803
REMARK INTER:                  -3.911
REMARK INTRA:                   0.108
REMARK UNBOUND:                -0.074
REMARK SMILES CC(C)[C@H]([NH3+])C(=O)[O-]
REMARK SMILES IDX 4 1 5 2 6 6 7 7 8 8 2 9 1 10 3 11
REMARK H PARENT 5 3 5 4 5 5
REMARK Flexibility Score: inf
ROOT
ATOM      1  C   UNL     1      11.562 -25.286  36.288  1.00  0.00     0.230 C 
ENDROOT
BRANCH   1   2
ATOM      2  N   UNL     1      11.793 -25.437  34.843  1.00  0.00    -0.350 N 
ATOM      3  H   UNL     1      11.216 -24.748  34.310  1.00  0.00     0.345 HD
ATOM      4  H   UNL     1      12.795 -25.241  34.616  1.00  0.00     0.345 HD
ATOM      5  H   UNL     1      11.558 -26.408  34.530  1.00  0.00     0.345 HD
ENDBRANCH   1   2
BRANCH   1   6
ATOM      6  C   UNL     1      10.078 -25.268  36.561  1.00  0.00     0.099 C 
ATOM      7  O   UNL     1       9.262 -25.032  35.631  1.00  0.00    -0.544 OA
ATOM      8  O   UNL     1       9.604 -25.505  37.844  1.00  0.00    -0.544 OA
ENDBRANCH   1   6
BRANCH   1   9
ATOM      9  C   UNL     1      12.248 -24.007  36.856  1.00  0.00     0.047 C 
ATOM     10  C   UNL     1      11.401 -22.752  36.581  1.00  0.00     0.014 C 
ATOM     11  C   UNL     1      12.507 -24.118  38.368  1.00  0.00     0.014 C 
ENDBRANCH   1   9
TORSDOF 3
ENDMDL
MODEL 4
REMARK VINA RESULT:    -3.209      6.398      7.490
REMARK INTER + INTRA:          -3.752
REMARK INTER:                  -3.696
REMARK INTRA:                  -0.056
REMARK UNBOUND:                -0.074
REMARK SMILES CC(C)[C@H]([NH3+])C(=O)[O-]
REMARK SMILES IDX 4 1 5 2 6 6 7 7 8 8 2 9 1 10 3 11
REMARK H PARENT 5 3 5 4 5 5
REMARK Flexibility Score: inf
ROOT
ATOM      1  C   UNL     1      12.029 -18.951  29.598  1.00  0.00     0.230 C 
ENDROOT
BRANCH   1   2
ATOM      2  N   UNL     1      10.750 -18.229  29.521  1.00  0.00    -0.350 N 
ATOM      3  H   UNL     1      10.698 -17.501  30.269  1.00  0.00     0.345 HD
ATOM      4  H   UNL     1      10.670 -17.733  28.603  1.00  0.00     0.345 HD
ATOM      5  H   UNL     1       9.945 -18.891  29.620  1.00  0.00     0.345 HD
ENDBRANCH   1   2
BRANCH   1   6
ATOM      6  C   UNL     1      13.023 -18.129  30.381  1.00  0.00     0.099 C 
ATOM      7  O   UNL     1      14.231 -18.483  30.449  1.00  0.00    -0.544 OA
ATOM      8  O   UNL     1      12.610 -16.978  31.040  1.00  0.00    -0.544 OA
ENDBRANCH   1   6
BRANCH   1   9
ATOM      9  C   UNL     1      12.587 -19.299  28.185  1.00  0.00     0.047 C 
ATOM     10  C   UNL     1      12.081 -20.673  27.710  1.00  0.00     0.014 C 
ATOM     11  C   UNL     1      12.209 -18.235  27.140  1.00  0.00     0.014 C 
ENDBRANCH   1   9
TORSDOF 3
ENDMDL
MODEL 5
REMARK VINA RESULT:    -3.162      8.484      9.140
REMARK INTER + INTRA:          -3.699
REMARK INTER:                  -3.644
REMARK INTRA:                  -0.055
REMARK UNBOUND:                -0.074
REMARK SMILES CC(C)[C@H]([NH3+])C(=O)[O-]
REMARK SMILES IDX 4 1 5 2 6 6 7 7 8 8 2 9 1 10 3 11
REMARK H PARENT 5 3 5 4 5 5
REMARK Flexibility Score: inf
ROOT
ATOM      1  C   UNL     1      12.414 -23.614  37.102  1.00  0.00     0.230 C 
ENDROOT
BRANCH   1   2
ATOM      2  N   UNL     1      11.683 -22.379  36.780  1.00  0.00    -0.350 N 
ATOM      3  H   UNL     1      11.496 -21.831  37.650  1.00  0.00     0.345 HD
ATOM      4  H   UNL     1      12.260 -21.772  36.152  1.00  0.00     0.345 HD
ATOM      5  H   UNL     1      10.778 -22.598  36.303  1.00  0.00     0.345 HD
ENDBRANCH   1   2
BRANCH   1   6
ATOM      6  C   UNL     1      11.819 -24.766  36.330  1.00  0.00     0.099 C 
ATOM      7  O   UNL     1      12.367 -25.900  36.354  1.00  0.00    -0.544 OA
ATOM      8  O   UNL     1      10.665 -24.579  35.581  1.00  0.00    -0.544 OA
ENDBRANCH   1   6
BRANCH   1   9
ATOM      9  C   UNL     1      12.410 -23.909  38.633  1.00  0.00     0.047 C 
ATOM     10  C   UNL     1      13.607 -23.240  39.332  1.00  0.00     0.014 C 
ATOM     11  C   UNL     1      11.109 -23.440  39.304  1.00  0.00     0.014 C 
ENDBRANCH   1   9
TORSDOF 3
ENDMDL
MODEL 6
REMARK VINA RESULT:    -3.132      9.592     10.613
REMARK INTER + INTRA:          -3.664
REMARK INTER:                  -3.618
REMARK INTRA:                  -0.046
REMARK UNBOUND:                -0.074
REMARK SMILES CC(C)[C@H]([NH3+])C(=O)[O-]
REMARK SMILES IDX 4 1 5 2 6 6 7 7 8 8 2 9 1 10 3 11
REMARK H PARENT 5 3 5 4 5 5
REMARK Flexibility Score: inf
ROOT
ATOM      1  C   UNL     1      11.290 -19.586  26.399  1.00  0.00     0.230 C 
ENDROOT
BRANCH   1   2
ATOM      2  N   UNL     1      10.736 -20.704  25.621  1.00  0.00    -0.350 N 
ATOM      3  H   UNL     1      11.408 -20.996  24.876  1.00  0.00     0.345 HD
ATOM      4  H   UNL     1      10.583 -21.534  26.240  1.00  0.00     0.345 HD
ATOM      5  H   UNL     1       9.823 -20.435  25.184  1.00  0.00     0.345 HD
ENDBRANCH   1   2
BRANCH   1   6
ATOM      6  C   UNL     1      12.049 -18.661  25.480  1.00  0.00     0.099 C 
ATOM      7  O   UNL     1      12.306 -17.480  25.834  1.00  0.00    -0.544 OA
ATOM      8  O   UNL     1      12.464 -19.107  24.232  1.00  0.00    -0.544 OA
ENDBRANCH   1   6
BRANCH   1   9
ATOM      9  C   UNL     1      12.199 -20.082  27.564  1.00  0.00     0.047 C 
ATOM     10  C   UNL     1      11.629 -19.667  28.932  1.00  0.00     0.014 C 
ATOM     11  C   UNL     1      12.383 -21.609  27.538  1.00  0.00     0.014 C 
ENDBRANCH   1   9
TORSDOF 3
ENDMDL
MODEL 7
REMARK VINA RESULT:    -3.092      8.918      9.528
REMARK INTER + INTRA:          -3.618
REMARK INTER:                  -3.555
REMARK INTRA:                  -0.064
REMARK UNBOUND:                -0.074
REMARK SMILES CC(C)[C@H]([NH3+])C(=O)[O-]
REMARK SMILES IDX 4 1 5 2 6 6 7 7 8 8 2 9 1 10 3 11
REMARK H PARENT 5 3 5 4 5 5
REMARK Flexibility Score: inf
ROOT
ATOM      1  C   UNL     1      10.656 -24.958  35.772  1.00  0.00     0.230 C 
ENDROOT
BRANCH   1   2
ATOM      2  N   UNL     1      11.703 -25.388  34.833  1.00  0.00    -0.350 N 
ATOM      3  H   UNL     1      12.159 -26.264  35.176  1.00  0.00     0.345 HD
ATOM      4  H   UNL     1      11.284 -25.605  33.899  1.00  0.00     0.345 HD
ATOM      5  H   UNL     1      12.426 -24.640  34.715  1.00  0.00     0.345 HD
ENDBRANCH   1   2
BRANCH   1   6
ATOM      6  C   UNL     1      10.177 -23.578  35.393  1.00  0.00     0.099 C 
ATOM      7  O   UNL     1       9.131 -23.432  34.706  1.00  0.00    -0.544 OA
ATOM      8  O   UNL     1      10.894 -22.458  35.795  1.00  0.00    -0.544 OA
ENDBRANCH   1   6
BRANCH   1   9
ATOM      9  C   UNL     1      11.151 -24.989  37.250  1.00  0.00     0.047 C 
ATOM     10  C   UNL     1       9.980 -24.821  38.233  1.00  0.00     0.014 C 
ATOM     11  C   UNL     1      11.901 -26.291  37.577  1.00  0.00     0.014 C 
ENDBRANCH   1   9
TORSDOF 3
ENDMDL
MODEL 8
REMARK VINA RESULT:    -3.072     10.451     11.320
REMARK INTER + INTRA:          -3.595
REMARK INTER:                  -3.546
REMARK INTRA:                  -0.049
REMARK UNBOUND:                -0.074
REMARK SMILES CC(C)[C@H]([NH3+])C(=O)[O-]
REMARK SMILES IDX 4 1 5 2 6 6 7 7 8 8 2 9 1 10 3 11
REMARK H PARENT 5 3 5 4 5 5
REMARK Flexibility Score: inf
ROOT
ATOM      1  C   UNL     1       4.071 -10.998  37.528  1.00  0.00     0.230 C 
ENDROOT
BRANCH   1   2
ATOM      2  N   UNL     1       5.506 -10.875  37.827  1.00  0.00    -0.350 N 
ATOM      3  H   UNL     1       5.688 -10.007  38.380  1.00  0.00     0.345 HD
ATOM      4  H   UNL     1       5.824 -11.684  38.410  1.00  0.00     0.345 HD
ATOM      5  H   UNL     1       6.067 -10.853  36.944  1.00  0.00     0.345 HD
ENDBRANCH   1   2
BRANCH   1   6
ATOM      6  C   UNL     1       3.301 -11.160  38.816  1.00  0.00     0.099 C 
ATOM      7  O   UNL     1       3.853 -10.922  39.923  1.00  0.00    -0.544 OA
ATOM      8  O   UNL     1       1.978 -11.580  38.787  1.00  0.00    -0.544 OA
ENDBRANCH   1   6
BRANCH   1   9
ATOM      9  C   UNL     1       3.779 -12.180  36.554  1.00  0.00     0.047 C 
ATOM     10  C   UNL     1       3.117 -11.681  35.257  1.00  0.00     0.014 C 
ATOM     11  C   UNL     1       5.056 -12.960  36.200  1.00  0.00     0.014 C 
ENDBRANCH   1   9
TORSDOF 3
ENDMDL
MODEL 9
REMARK VINA RESULT:    -3.045      8.556      9.229
REMARK INTER + INTRA:          -3.564
REMARK INTER:                  -3.647
REMARK INTRA:                   0.082
REMARK UNBOUND:                -0.074
REMARK SMILES CC(C)[C@H]([NH3+])C(=O)[O-]
REMARK SMILES IDX 4 1 5 2 6 6 7 7 8 8 2 9 1 10 3 11
REMARK H PARENT 5 3 5 4 5 5
REMARK Flexibility Score: inf
ROOT
ATOM      1  C   UNL     1      12.489 -23.619  37.490  1.00  0.00     0.230 C 
ENDROOT
BRANCH   1   2
ATOM      2  N   UNL     1      12.065 -22.260  37.120  1.00  0.00    -0.350 N 
ATOM      3  H   UNL     1      12.880 -21.606  37.145  1.00  0.00     0.345 HD
ATOM      4  H   UNL     1      11.693 -22.252  36.141  1.00  0.00     0.345 HD
ATOM      5  H   UNL     1      11.319 -21.915  37.768  1.00  0.00     0.345 HD
ENDBRANCH   1   2
BRANCH   1   6
ATOM      6  C   UNL     1      11.606 -24.627  36.798  1.00  0.00     0.099 C 
ATOM      7  O   UNL     1      10.352 -24.557  36.904  1.00  0.00    -0.544 OA
ATOM      8  O   UNL     1      12.172 -25.646  36.043  1.00  0.00    -0.544 OA
ENDBRANCH   1   6
BRANCH   1   9
ATOM      9  C   UNL     1      12.472 -23.832  39.035  1.00  0.00     0.047 C 
ATOM     10  C   UNL     1      12.328 -25.323  39.389  1.00  0.00     0.014 C 
ATOM     11  C   UNL     1      13.740 -23.276  39.704  1.00  0.00     0.014 C 
ENDBRANCH   1   9
TORSDOF 3
ENDMDL
