MODEL 1
REMARK VINA RESULT:    -4.910      0.000      0.000
REMARK INTER + INTRA:          -6.793
REMARK INTER:                  -6.058
REMARK INTRA:                  -0.736
REMARK UNBOUND:                -0.736
REMARK SMILES CC(C)=CCC[C@@H](C)c1ccc(C)cc1
REMARK SMILES IDX 6 1 7 2 8 3 9 4 13 5 12 6 11 7 14 8 10 9 15 10 5 11 4 12
REMARK SMILES IDX 2 13 1 14 3 15
REMARK H PARENT
REMARK Flexibility Score: inf
ROOT
ATOM      1  C   UNL     1     -10.805   5.829  21.125  1.00  0.00     0.012 C 
ENDROOT
BRANCH   1   2
ATOM      2  C   UNL     1      -9.858   7.049  21.044  1.00  0.00     0.016 C 
ATOM      3  C   UNL     1      -8.417   6.656  20.685  1.00  0.00     0.013 C 
BRANCH   2   4
ATOM      4  C   UNL     1     -10.394   8.062  20.047  1.00  0.00    -0.045 A 
ATOM      5  C   UNL     1     -11.953  10.972  17.261  1.00  0.00     0.044 C 
ATOM      6  C   UNL     1     -11.388   9.958  18.211  1.00  0.00    -0.051 A 
ATOM      7  C   UNL     1     -10.599  10.368  19.295  1.00  0.00     0.004 A 
ATOM      8  C   UNL     1     -11.701   8.599  18.063  1.00  0.00     0.004 A 
ATOM      9  C   UNL     1     -10.102   9.428  20.203  1.00  0.00     0.004 A 
ATOM     10  C   UNL     1     -11.206   7.658  18.969  1.00  0.00     0.004 A 
ENDBRANCH   2   4
ENDBRANCH   1   2
BRANCH   1  11
ATOM     11  C   UNL     1     -10.132   4.491  20.754  1.00  0.00     0.028 C 
BRANCH  11  12
ATOM     12  C   UNL     1     -11.014   3.625  19.886  1.00  0.00    -0.028 C 
ATOM     13  C   UNL     1     -10.600   2.990  18.767  1.00  0.00    -0.080 C 
ATOM     14  C   UNL     1     -11.593   2.145  18.011  1.00  0.00     0.039 C 
ATOM     15  C   UNL     1      -9.191   3.129  18.240  1.00  0.00     0.039 C 
ENDBRANCH  11  12
ENDBRANCH   1  11
TORSDOF 4
ENDMDL
MODEL 2
REMARK VINA RESULT:    -4.280      1.208      6.053
REMARK INTER + INTRA:          -6.017
REMARK INTER:                  -5.550
REMARK INTRA:                  -0.467
REMARK UNBOUND:                -0.736
REMARK SMILES CC(C)=CCC[C@@H](C)c1ccc(C)cc1
REMARK SMILES IDX 6 1 7 2 8 3 9 4 13 5 12 6 11 7 14 8 10 9 15 10 5 11 4 12
REMARK SMILES IDX 2 13 1 14 3 15
REMARK H PARENT
REMARK Flexibility Score: inf
ROOT
ATOM      1  C   UNL     1      -9.324   7.860  20.414  1.00  0.00     0.012 C 
ENDROOT
BRANCH   1   2
ATOM      2  C   UNL     1     -10.417   7.003  21.094  1.00  0.00     0.016 C 
ATOM      3  C   UNL     1     -11.784   7.703  21.125  1.00  0.00     0.013 C 
BRANCH   2   4
ATOM      4  C   UNL     1     -10.529   5.654  20.404  1.00  0.00    -0.045 A 
ATOM      5  C   UNL     1     -10.873   1.792  18.500  1.00  0.00     0.044 C 
ATOM      6  C   UNL     1     -10.756   3.146  19.135  1.00  0.00    -0.051 A 
ATOM      7  C   UNL     1     -11.899   3.810  19.601  1.00  0.00     0.004 A 
ATOM      8  C   UNL     1      -9.495   3.728  19.330  1.00  0.00     0.004 A 
ATOM      9  C   UNL     1     -11.788   5.055  20.226  1.00  0.00     0.004 A 
ATOM     10  C   UNL     1      -9.382   4.973  19.956  1.00  0.00     0.004 A 
ENDBRANCH   2   4
ENDBRANCH   1   2
BRANCH   1  11
ATOM     11  C   UNL     1      -9.609   9.377  20.450  1.00  0.00     0.028 C 
BRANCH  11  12
ATOM     12  C   UNL     1     -10.208   9.879  19.157  1.00  0.00    -0.028 C 
ATOM     13  C   UNL     1     -11.299  10.674  19.077  1.00  0.00    -0.080 C 
ATOM     14  C   UNL     1     -11.771  11.109  17.715  1.00  0.00     0.039 C 
ATOM     15  C   UNL     1     -12.067  11.107  20.304  1.00  0.00     0.039 C 
ENDBRANCH  11  12
ENDBRANCH   1  11
TORSDOF 4
ENDMDL
MODEL 3
REMARK VINA RESULT:    -3.973      0.915      1.841
REMARK INTER + INTRA:          -5.637
REMARK INTER:                  -5.163
REMARK INTRA:                  -0.474
REMARK UNBOUND:                -0.736
REMARK SMILES CC(C)=CCC[C@@H](C)c1ccc(C)cc1
REMARK SMILES IDX 6 1 7 2 8 3 9 4 13 5 12 6 11 7 14 8 10 9 15 10 5 11 4 12
REMARK SMILES IDX 2 13 1 14 3 15
REMARK H PARENT
REMARK Flexibility Score: inf
ROOT
ATOM      1  C   UNL     1      -9.353   5.333  18.955  1.00  0.00     0.012 C 
ENDROOT
BRANCH   1   2
ATOM      2  C   UNL     1      -9.631   6.362  20.076  1.00  0.00     0.016 C 
ATOM      3  C   UNL     1      -8.366   6.739  20.860  1.00  0.00     0.013 C 
BRANCH   2   4
ATOM      4  C   UNL     1     -10.283   7.605  19.494  1.00  0.00    -0.045 A 
ATOM      5  C   UNL     1     -12.110  11.123  17.778  1.00  0.00     0.044 C 
ATOM      6  C   UNL     1     -11.496   9.901  18.395  1.00  0.00    -0.051 A 
ATOM      7  C   UNL     1     -11.875   8.624  17.959  1.00  0.00     0.004 A 
ATOM      8  C   UNL     1     -10.489  10.028  19.363  1.00  0.00     0.004 A 
ATOM      9  C   UNL     1     -11.277   7.485  18.507  1.00  0.00     0.004 A 
ATOM     10  C   UNL     1      -9.890   8.891  19.911  1.00  0.00     0.004 A 
ENDBRANCH   2   4
ENDBRANCH   1   2
BRANCH   1  11
ATOM     11  C   UNL     1      -9.115   3.898  19.472  1.00  0.00     0.028 C 
BRANCH  11  12
ATOM     12  C   UNL     1      -9.927   2.873  18.715  1.00  0.00    -0.028 C 
ATOM     13  C   UNL     1     -11.278   2.825  18.702  1.00  0.00    -0.080 C 
ATOM     14  C   UNL     1     -11.950   1.753  17.885  1.00  0.00     0.039 C 
ATOM     15  C   UNL     1     -12.123   3.788  19.503  1.00  0.00     0.039 C 
ENDBRANCH  11  12
ENDBRANCH   1  11
TORSDOF 4
ENDMDL
MODEL 4
REMARK VINA RESULT:    -3.900      1.494      6.225
REMARK INTER + INTRA:          -5.547
REMARK INTER:                  -4.972
REMARK INTRA:                  -0.575
REMARK UNBOUND:                -0.736
REMARK SMILES CC(C)=CCC[C@@H](C)c1ccc(C)cc1
REMARK SMILES IDX 6 1 7 2 8 3 9 4 13 5 12 6 11 7 14 8 10 9 15 10 5 11 4 12
REMARK SMILES IDX 2 13 1 14 3 15
REMARK H PARENT
REMARK Flexibility Score: inf
ROOT
ATOM      1  C   UNL     1     -10.745   6.750  18.912  1.00  0.00     0.012 C 
ENDROOT
BRANCH   1   2
ATOM      2  C   UNL     1      -9.742   5.607  19.198  1.00  0.00     0.016 C 
ATOM      3  C   UNL     1      -9.255   5.599  20.655  1.00  0.00     0.013 C 
BRANCH   2   4
ATOM      4  C   UNL     1     -10.361   4.266  18.840  1.00  0.00    -0.045 A 
ATOM      5  C   UNL     1     -12.066   0.440  17.784  1.00  0.00     0.044 C 
ATOM      6  C   UNL     1     -11.489   1.769  18.176  1.00  0.00    -0.051 A 
ATOM      7  C   UNL     1     -10.274   1.834  18.873  1.00  0.00     0.004 A 
ATOM      8  C   UNL     1     -12.125   2.957  17.789  1.00  0.00     0.004 A 
ATOM      9  C   UNL     1      -9.717   3.072  19.207  1.00  0.00     0.004 A 
ATOM     10  C   UNL     1     -11.569   4.195  18.121  1.00  0.00     0.004 A 
ENDBRANCH   2   4
ENDBRANCH   1   2
BRANCH   1  11
ATOM     11  C   UNL     1     -11.523   7.224  20.157  1.00  0.00     0.028 C 
BRANCH  11  12
ATOM     12  C   UNL     1     -11.965   8.664  20.044  1.00  0.00    -0.028 C 
ATOM     13  C   UNL     1     -11.137   9.729  20.141  1.00  0.00    -0.080 C 
ATOM     14  C   UNL     1     -11.723  11.108  19.990  1.00  0.00     0.039 C 
ATOM     15  C   UNL     1      -9.662   9.574  20.427  1.00  0.00     0.039 C 
ENDBRANCH  11  12
ENDBRANCH   1  11
TORSDOF 4
ENDMDL
MODEL 5
REMARK VINA RESULT:    -3.818      1.369      2.372
REMARK INTER + INTRA:          -5.447
REMARK INTER:                  -4.624
REMARK INTRA:                  -0.823
REMARK UNBOUND:                -0.736
REMARK SMILES CC(C)=CCC[C@@H](C)c1ccc(C)cc1
REMARK SMILES IDX 6 1 7 2 8 3 9 4 13 5 12 6 11 7 14 8 10 9 15 10 5 11 4 12
REMARK SMILES IDX 2 13 1 14 3 15
REMARK H PARENT
REMARK Flexibility Score: inf
ROOT
ATOM      1  C   UNL     1      -9.830   4.442  19.683  1.00  0.00     0.012 C 
ENDROOT
BRANCH   1   2
ATOM      2  C   UNL     1     -11.276   4.964  19.855  1.00  0.00     0.016 C 
ATOM      3  C   UNL     1     -11.951   4.427  21.125  1.00  0.00     0.013 C 
BRANCH   2   4
ATOM      4  C   UNL     1     -11.287   6.484  19.852  1.00  0.00    -0.045 A 
ATOM      5  C   UNL     1     -11.361  10.802  19.898  1.00  0.00     0.044 C 
ATOM      6  C   UNL     1     -11.309   9.303  19.869  1.00  0.00    -0.051 A 
ATOM      7  C   UNL     1     -10.809   8.593  20.970  1.00  0.00     0.004 A 
ATOM      8  C   UNL     1     -11.822   8.599  18.771  1.00  0.00     0.004 A 
ATOM      9  C   UNL     1     -10.794   7.195  20.960  1.00  0.00     0.004 A 
ATOM     10  C   UNL     1     -11.809   7.202  18.759  1.00  0.00     0.004 A 
ENDBRANCH   2   4
ENDBRANCH   1   2
BRANCH   1  11
ATOM     11  C   UNL     1      -9.630   3.560  18.432  1.00  0.00     0.028 C 
BRANCH  11  12
ATOM     12  C   UNL     1     -10.273   2.200  18.581  1.00  0.00    -0.028 C 
ATOM     13  C   UNL     1     -11.364   1.790  17.896  1.00  0.00    -0.080 C 
ATOM     14  C   UNL     1     -11.882   0.397  18.139  1.00  0.00     0.039 C 
ATOM     15  C   UNL     1     -12.089   2.695  16.927  1.00  0.00     0.039 C 
ENDBRANCH  11  12
ENDBRANCH   1  11
TORSDOF 4
ENDMDL
MODEL 6
REMARK VINA RESULT:    -2.637      2.736      6.106
REMARK INTER + INTRA:          -3.990
REMARK INTER:                  -3.379
REMARK INTRA:                  -0.611
REMARK UNBOUND:                -0.736
REMARK SMILES CC(C)=CCC[C@@H](C)c1ccc(C)cc1
REMARK SMILES IDX 6 1 7 2 8 3 9 4 13 5 12 6 11 7 14 8 10 9 15 10 5 11 4 12
REMARK SMILES IDX 2 13 1 14 3 15
REMARK H PARENT
REMARK Flexibility Score: inf
ROOT
ATOM      1  C   UNL     1      -8.782   9.242  20.747  1.00  0.00     0.012 C 
ENDROOT
BRANCH   1   2
ATOM      2  C   UNL     1     -10.178   8.743  20.308  1.00  0.00     0.016 C 
ATOM      3  C   UNL     1     -10.696   9.462  19.054  1.00  0.00     0.013 C 
BRANCH   2   4
ATOM      4  C   UNL     1     -10.148   7.240  20.081  1.00  0.00    -0.045 A 
ATOM      5  C   UNL     1      -9.999   2.975  19.416  1.00  0.00     0.044 C 
ATOM      6  C   UNL     1     -10.072   4.452  19.667  1.00  0.00    -0.051 A 
ATOM      7  C   UNL     1      -9.218   5.052  20.603  1.00  0.00     0.004 A 
ATOM      8  C   UNL     1     -10.946   5.254  18.919  1.00  0.00     0.004 A 
ATOM      9  C   UNL     1      -9.259   6.434  20.812  1.00  0.00     0.004 A 
ATOM     10  C   UNL     1     -10.987   6.635  19.126  1.00  0.00     0.004 A 
ENDBRANCH   2   4
ENDBRANCH   1   2
BRANCH   1  11
ATOM     11  C   UNL     1      -7.867   9.649  19.573  1.00  0.00     0.028 C 
BRANCH  11  12
ATOM     12  C   UNL     1      -6.401   9.541  19.923  1.00  0.00    -0.028 C 
ATOM     13  C   UNL     1      -5.400  10.106  19.210  1.00  0.00    -0.080 C 
ATOM     14  C   UNL     1      -3.985   9.926  19.694  1.00  0.00     0.039 C 
ATOM     15  C   UNL     1      -5.659  10.878  17.938  1.00  0.00     0.039 C 
ENDBRANCH  11  12
ENDBRANCH   1  11
TORSDOF 4
ENDMDL
MODEL 7
REMARK VINA RESULT:    -2.085      2.705      6.335
REMARK INTER + INTRA:          -3.308
REMARK INTER:                  -2.791
REMARK INTRA:                  -0.517
REMARK UNBOUND:                -0.736
REMARK SMILES CC(C)=CCC[C@@H](C)c1ccc(C)cc1
REMARK SMILES IDX 6 1 7 2 8 3 9 4 13 5 12 6 11 7 14 8 10 9 15 10 5 11 4 12
REMARK SMILES IDX 2 13 1 14 3 15
REMARK H PARENT
REMARK Flexibility Score: inf
ROOT
ATOM      1  C   UNL     1      -7.967   7.922  19.999  1.00  0.00     0.012 C 
ENDROOT
BRANCH   1   2
ATOM      2  C   UNL     1      -9.152   7.409  20.850  1.00  0.00     0.016 C 
ATOM      3  C   UNL     1     -10.341   8.382  20.855  1.00  0.00     0.013 C 
BRANCH   2   4
ATOM      4  C   UNL     1      -9.592   6.039  20.363  1.00  0.00    -0.045 A 
ATOM      5  C   UNL     1     -10.874   2.173  18.925  1.00  0.00     0.044 C 
ATOM      6  C   UNL     1     -10.406   3.503  19.438  1.00  0.00    -0.051 A 
ATOM      7  C   UNL     1      -9.547   4.296  18.665  1.00  0.00     0.004 A 
ATOM      8  C   UNL     1     -10.879   3.993  20.664  1.00  0.00     0.004 A 
ATOM      9  C   UNL     1      -9.140   5.551  19.125  1.00  0.00     0.004 A 
ATOM     10  C   UNL     1     -10.473   5.248  21.125  1.00  0.00     0.004 A 
ENDBRANCH   2   4
ENDBRANCH   1   2
BRANCH   1  11
ATOM     11  C   UNL     1      -7.559   9.377  20.310  1.00  0.00     0.028 C 
BRANCH  11  12
ATOM     12  C   UNL     1      -7.037  10.100  19.091  1.00  0.00    -0.028 C 
ATOM     13  C   UNL     1      -5.730  10.348  18.849  1.00  0.00    -0.080 C 
ATOM     14  C   UNL     1      -5.359  11.067  17.578  1.00  0.00     0.039 C 
ATOM     15  C   UNL     1      -4.645   9.956  19.825  1.00  0.00     0.039 C 
ENDBRANCH  11  12
ENDBRANCH   1  11
TORSDOF 4
ENDMDL
