MODEL 1
REMARK VINA RESULT:    -5.075      0.000      0.000
REMARK INTER + INTRA:         -11.334
REMARK INTER:                  -8.932
REMARK INTRA:                  -2.402
REMARK UNBOUND:                -2.402
REMARK SMILES CCCCCCC=CCCCCCCCC(=O)[O-]
REMARK SMILES IDX 10 1 11 2 12 3 13 4 14 5 15 6 16 7 17 8 18 9 9 10 8 11 7 12
REMARK SMILES IDX 6 13 5 14 4 15 3 16 2 17 1 18
REMARK H PARENT
REMARK Flexibility Score: inf
ROOT
ATOM      1  C   UNL     1       7.986  44.998  22.705  1.00  0.00     0.004 C 
ENDROOT
BRANCH   1   2
ATOM      2  C   UNL     1       6.468  45.042  22.955  1.00  0.00     0.000 C 
BRANCH   2   3
ATOM      3  C   UNL     1       6.037  46.258  23.789  1.00  0.00     0.000 C 
BRANCH   3   4
ATOM      4  C   UNL     1       5.816  47.485  22.897  1.00  0.00     0.000 C 
BRANCH   4   5
ATOM      5  C   UNL     1       6.759  48.631  23.292  1.00  0.00     0.006 C 
BRANCH   5   6
ATOM      6  C   UNL     1       7.422  48.393  24.655  1.00  0.00     0.053 C 
BRANCH   6   7
ATOM      7  C   UNL     1       6.844  49.276  25.717  1.00  0.00     0.041 C 
ATOM      8  O   UNL     1       5.783  49.920  25.499  1.00  0.00    -0.550 OA
ATOM      9  O   UNL     1       7.494  49.416  26.937  1.00  0.00    -0.550 OA
ENDBRANCH   6   7
ENDBRANCH   5   6
ENDBRANCH   4   5
ENDBRANCH   3   4
ENDBRANCH   2   3
ENDBRANCH   1   2
BRANCH   1  10
ATOM     10  C   UNL     1       8.393  45.220  21.237  1.00  0.00     0.027 C 
BRANCH  10  11
ATOM     11  C   UNL     1       8.988  46.582  21.001  1.00  0.00    -0.031 C 
ATOM     12  C   UNL     1       9.825  47.147  21.884  1.00  0.00    -0.031 C 
BRANCH  12  13
ATOM     13  C   UNL     1      10.429  48.503  21.638  1.00  0.00     0.027 C 
BRANCH  13  14
ATOM     14  C   UNL     1      10.521  48.806  20.138  1.00  0.00     0.004 C 
BRANCH  14  15
ATOM     15  C   UNL     1       9.970  50.206  19.827  1.00  0.00     0.000 C 
BRANCH  15  16
ATOM     16  C   UNL     1       8.795  50.595  20.738  1.00  0.00    -0.000 C 
BRANCH  16  17
ATOM     17  C   UNL     1       7.475  50.744  19.968  1.00  0.00    -0.003 C 
ATOM     18  C   UNL     1       6.834  49.384  19.710  1.00  0.00     0.004 C 
ENDBRANCH  16  17
ENDBRANCH  15  16
ENDBRANCH  14  15
ENDBRANCH  13  14
ENDBRANCH  12  13
ENDBRANCH  10  11
ENDBRANCH   1  10
TORSDOF 13
ENDMDL
MODEL 2
REMARK VINA RESULT:    -5.074      2.505      5.760
REMARK INTER + INTRA:         -11.331
REMARK INTER:                  -8.976
REMARK INTRA:                  -2.356
REMARK UNBOUND:                -2.402
REMARK SMILES CCCCCCC=CCCCCCCCC(=O)[O-]
REMARK SMILES IDX 10 1 11 2 12 3 13 4 14 5 15 6 16 7 17 8 18 9 9 10 8 11 7 12
REMARK SMILES IDX 6 13 5 14 4 15 3 16 2 17 1 18
REMARK H PARENT
REMARK Flexibility Score: inf
ROOT
ATOM      1  C   UNL     1       4.880  48.939  26.417  1.00  0.00     0.004 C 
ENDROOT
BRANCH   1   2
ATOM      2  C   UNL     1       5.856  49.943  25.778  1.00  0.00     0.000 C 
BRANCH   2   3
ATOM      3  C   UNL     1       7.318  49.474  25.842  1.00  0.00     0.000 C 
BRANCH   3   4
ATOM      4  C   UNL     1       7.971  49.525  24.455  1.00  0.00     0.000 C 
BRANCH   4   5
ATOM      5  C   UNL     1       6.925  49.339  23.346  1.00  0.00     0.006 C 
BRANCH   5   6
ATOM      6  C   UNL     1       7.569  49.073  21.979  1.00  0.00     0.053 C 
BRANCH   6   7
ATOM      7  C   UNL     1       8.217  50.302  21.421  1.00  0.00     0.041 C 
ATOM      8  O   UNL     1       7.623  51.412  21.472  1.00  0.00    -0.550 OA
ATOM      9  O   UNL     1       9.465  50.218  20.815  1.00  0.00    -0.550 OA
ENDBRANCH   6   7
ENDBRANCH   5   6
ENDBRANCH   4   5
ENDBRANCH   3   4
ENDBRANCH   2   3
ENDBRANCH   1   2
BRANCH   1  10
ATOM     10  C   UNL     1       5.551  47.669  26.971  1.00  0.00     0.027 C 
BRANCH  10  11
ATOM     11  C   UNL     1       4.993  46.409  26.367  1.00  0.00    -0.031 C 
ATOM     12  C   UNL     1       4.921  46.237  25.039  1.00  0.00    -0.031 C 
BRANCH  12  13
ATOM     13  C   UNL     1       4.376  44.971  24.438  1.00  0.00     0.027 C 
BRANCH  13  14
ATOM     14  C   UNL     1       5.280  44.456  23.312  1.00  0.00     0.004 C 
BRANCH  14  15
ATOM     15  C   UNL     1       6.321  45.515  22.917  1.00  0.00     0.000 C 
BRANCH  15  16
ATOM     16  C   UNL     1       7.762  44.986  22.994  1.00  0.00    -0.000 C 
BRANCH  16  17
ATOM     17  C   UNL     1       8.727  45.994  23.635  1.00  0.00    -0.003 C 
ATOM     18  C   UNL     1       8.659  45.927  25.158  1.00  0.00     0.004 C 
ENDBRANCH  16  17
ENDBRANCH  15  16
ENDBRANCH  14  15
ENDBRANCH  13  14
ENDBRANCH  12  13
ENDBRANCH  10  11
ENDBRANCH   1  10
TORSDOF 13
ENDMDL
MODEL 3
REMARK VINA RESULT:    -5.016      2.377      3.461
REMARK INTER + INTRA:         -11.229
REMARK INTER:                  -9.029
REMARK INTRA:                  -2.200
REMARK UNBOUND:                -2.402
REMARK SMILES CCCCCCC=CCCCCCCCC(=O)[O-]
REMARK SMILES IDX 10 1 11 2 12 3 13 4 14 5 15 6 16 7 17 8 18 9 9 10 8 11 7 12
REMARK SMILES IDX 6 13 5 14 4 15 3 16 2 17 1 18
REMARK H PARENT
REMARK Flexibility Score: inf
ROOT
ATOM      1  C   UNL     1       6.074  45.182  22.707  1.00  0.00     0.004 C 
ENDROOT
BRANCH   1   2
ATOM      2  C   UNL     1       5.054  44.240  23.371  1.00  0.00     0.000 C 
BRANCH   2   3
ATOM      3  C   UNL     1       4.295  44.906  24.529  1.00  0.00     0.000 C 
BRANCH   3   4
ATOM      4  C   UNL     1       4.723  46.369  24.696  1.00  0.00     0.000 C 
BRANCH   4   5
ATOM      5  C   UNL     1       5.057  46.681  26.163  1.00  0.00     0.006 C 
BRANCH   5   6
ATOM      6  C   UNL     1       4.460  48.018  26.622  1.00  0.00     0.053 C 
BRANCH   6   7
ATOM      7  C   UNL     1       5.121  48.524  27.866  1.00  0.00     0.041 C 
ATOM      8  O   UNL     1       5.260  47.768  28.864  1.00  0.00    -0.550 OA
ATOM      9  O   UNL     1       5.556  49.842  27.938  1.00  0.00    -0.550 OA
ENDBRANCH   6   7
ENDBRANCH   5   6
ENDBRANCH   4   5
ENDBRANCH   3   4
ENDBRANCH   2   3
ENDBRANCH   1   2
BRANCH   1  10
ATOM     10  C   UNL     1       7.541  44.749  22.881  1.00  0.00     0.027 C 
BRANCH  10  11
ATOM     11  C   UNL     1       8.384  45.810  23.534  1.00  0.00    -0.031 C 
ATOM     12  C   UNL     1       8.455  45.931  24.868  1.00  0.00    -0.031 C 
BRANCH  12  13
ATOM     13  C   UNL     1       9.309  46.985  25.518  1.00  0.00     0.027 C 
BRANCH  13  14
ATOM     14  C   UNL     1       9.137  48.343  24.828  1.00  0.00     0.004 C 
BRANCH  14  15
ATOM     15  C   UNL     1       7.890  49.071  25.353  1.00  0.00     0.000 C 
BRANCH  15  16
ATOM     16  C   UNL     1       6.917  49.465  24.230  1.00  0.00    -0.000 C 
BRANCH  16  17
ATOM     17  C   UNL     1       7.608  49.575  22.863  1.00  0.00    -0.003 C 
ATOM     18  C   UNL     1       7.986  51.020  22.553  1.00  0.00     0.004 C 
ENDBRANCH  16  17
ENDBRANCH  15  16
ENDBRANCH  14  15
ENDBRANCH  13  14
ENDBRANCH  12  13
ENDBRANCH  10  11
ENDBRANCH   1  10
TORSDOF 13
ENDMDL
MODEL 4
REMARK VINA RESULT:    -4.990      1.421      4.623
REMARK INTER + INTRA:         -11.184
REMARK INTER:                  -9.339
REMARK INTRA:                  -1.845
REMARK UNBOUND:                -2.402
REMARK SMILES CCCCCCC=CCCCCCCCC(=O)[O-]
REMARK SMILES IDX 10 1 11 2 12 3 13 4 14 5 15 6 16 7 17 8 18 9 9 10 8 11 7 12
REMARK SMILES IDX 6 13 5 14 4 15 3 16 2 17 1 18
REMARK H PARENT
REMARK Flexibility Score: inf
ROOT
ATOM      1  C   UNL     1       6.768  49.265  19.499  1.00  0.00     0.004 C 
ENDROOT
BRANCH   1   2
ATOM      2  C   UNL     1       6.854  50.753  19.117  1.00  0.00     0.000 C 
BRANCH   2   3
ATOM      3  C   UNL     1       7.269  51.647  20.296  1.00  0.00     0.000 C 
BRANCH   3   4
ATOM      4  C   UNL     1       8.533  51.107  20.975  1.00  0.00     0.000 C 
BRANCH   4   5
ATOM      5  C   UNL     1       8.468  51.307  22.497  1.00  0.00     0.006 C 
BRANCH   5   6
ATOM      6  C   UNL     1       7.559  50.277  23.179  1.00  0.00     0.053 C 
BRANCH   6   7
ATOM      7  C   UNL     1       8.269  49.549  24.278  1.00  0.00     0.041 C 
ATOM      8  O   UNL     1       9.405  49.044  24.073  1.00  0.00    -0.550 OA
ATOM      9  O   UNL     1       7.664  49.398  25.519  1.00  0.00    -0.550 OA
ENDBRANCH   6   7
ENDBRANCH   5   6
ENDBRANCH   4   5
ENDBRANCH   3   4
ENDBRANCH   2   3
ENDBRANCH   1   2
BRANCH   1  10
ATOM     10  C   UNL     1       7.656  48.340  18.647  1.00  0.00     0.027 C 
BRANCH  10  11
ATOM     11  C   UNL     1       8.376  47.308  19.472  1.00  0.00    -0.031 C 
ATOM     12  C   UNL     1       8.522  47.443  20.798  1.00  0.00    -0.031 C 
BRANCH  12  13
ATOM     13  C   UNL     1       9.231  46.403  21.621  1.00  0.00     0.027 C 
BRANCH  13  14
ATOM     14  C   UNL     1       8.402  45.117  21.725  1.00  0.00     0.004 C 
BRANCH  14  15
ATOM     15  C   UNL     1       7.693  45.029  23.084  1.00  0.00     0.000 C 
BRANCH  15  16
ATOM     16  C   UNL     1       6.213  44.635  22.956  1.00  0.00    -0.000 C 
BRANCH  16  17
ATOM     17  C   UNL     1       5.270  45.665  23.594  1.00  0.00    -0.003 C 
ATOM     18  C   UNL     1       5.597  47.078  23.118  1.00  0.00     0.004 C 
ENDBRANCH  16  17
ENDBRANCH  15  16
ENDBRANCH  14  15
ENDBRANCH  13  14
ENDBRANCH  12  13
ENDBRANCH  10  11
ENDBRANCH   1  10
TORSDOF 13
ENDMDL
MODEL 5
REMARK VINA RESULT:    -4.972      3.251      6.309
REMARK INTER + INTRA:         -11.152
REMARK INTER:                  -8.995
REMARK INTRA:                  -2.158
REMARK UNBOUND:                -2.402
REMARK SMILES CCCCCCC=CCCCCCCCC(=O)[O-]
REMARK SMILES IDX 10 1 11 2 12 3 13 4 14 5 15 6 16 7 17 8 18 9 9 10 8 11 7 12
REMARK SMILES IDX 6 13 5 14 4 15 3 16 2 17 1 18
REMARK H PARENT
REMARK Flexibility Score: inf
ROOT
ATOM      1  C   UNL     1       8.268  51.164  22.594  1.00  0.00     0.004 C 
ENDROOT
BRANCH   1   2
ATOM      2  C   UNL     1       8.531  51.333  21.087  1.00  0.00     0.000 C 
BRANCH   2   3
ATOM      3  C   UNL     1       9.494  50.274  20.528  1.00  0.00     0.000 C 
BRANCH   3   4
ATOM      4  C   UNL     1       9.100  49.872  19.102  1.00  0.00     0.000 C 
BRANCH   4   5
ATOM      5  C   UNL     1       7.602  50.111  18.856  1.00  0.00     0.006 C 
BRANCH   5   6
ATOM      6  C   UNL     1       6.844  48.805  18.583  1.00  0.00     0.053 C 
BRANCH   6   7
ATOM      7  C   UNL     1       7.492  48.002  17.498  1.00  0.00     0.041 C 
ATOM      8  O   UNL     1       7.926  46.845  17.739  1.00  0.00    -0.550 OA
ATOM      9  O   UNL     1       7.645  48.544  16.228  1.00  0.00    -0.550 OA
ENDBRANCH   6   7
ENDBRANCH   5   6
ENDBRANCH   4   5
ENDBRANCH   3   4
ENDBRANCH   2   3
ENDBRANCH   1   2
BRANCH   1  10
ATOM     10  C   UNL     1       8.770  49.831  23.178  1.00  0.00     0.027 C 
BRANCH  10  11
ATOM     11  C   UNL     1       7.646  48.907  23.562  1.00  0.00    -0.031 C 
ATOM     12  C   UNL     1       6.782  48.433  22.653  1.00  0.00    -0.031 C 
BRANCH  12  13
ATOM     13  C   UNL     1       5.668  47.500  23.038  1.00  0.00     0.027 C 
BRANCH  13  14
ATOM     14  C   UNL     1       6.208  46.254  23.751  1.00  0.00     0.004 C 
BRANCH  14  15
ATOM     15  C   UNL     1       6.527  45.140  22.743  1.00  0.00     0.000 C 
BRANCH  15  16
ATOM     16  C   UNL     1       8.033  45.004  22.467  1.00  0.00    -0.000 C 
BRANCH  16  17
ATOM     17  C   UNL     1       8.411  45.414  21.037  1.00  0.00    -0.003 C 
ATOM     18  C   UNL     1       9.442  46.539  21.042  1.00  0.00     0.004 C 
ENDBRANCH  16  17
ENDBRANCH  15  16
ENDBRANCH  14  15
ENDBRANCH  13  14
ENDBRANCH  12  13
ENDBRANCH  10  11
ENDBRANCH   1  10
TORSDOF 13
ENDMDL
MODEL 6
REMARK VINA RESULT:    -4.968      2.989      5.880
REMARK INTER + INTRA:         -11.145
REMARK INTER:                  -9.183
REMARK INTRA:                  -1.962
REMARK UNBOUND:                -2.402
REMARK SMILES CCCCCCC=CCCCCCCCC(=O)[O-]
REMARK SMILES IDX 10 1 11 2 12 3 13 4 14 5 15 6 16 7 17 8 18 9 9 10 8 11 7 12
REMARK SMILES IDX 6 13 5 14 4 15 3 16 2 17 1 18
REMARK H PARENT
REMARK Flexibility Score: inf
ROOT
ATOM      1  C   UNL     1       5.806  44.624  23.237  1.00  0.00     0.004 C 
ENDROOT
BRANCH   1   2
ATOM      2  C   UNL     1       6.760  45.810  23.005  1.00  0.00     0.000 C 
BRANCH   2   3
ATOM      3  C   UNL     1       8.190  45.527  23.491  1.00  0.00     0.000 C 
BRANCH   3   4
ATOM      4  C   UNL     1       8.393  46.036  24.923  1.00  0.00     0.000 C 
BRANCH   4   5
ATOM      5  C   UNL     1       9.474  47.126  24.972  1.00  0.00     0.006 C 
BRANCH   5   6
ATOM      6  C   UNL     1       9.020  48.424  24.292  1.00  0.00     0.053 C 
BRANCH   6   7
ATOM      7  C   UNL     1       9.877  48.762  23.111  1.00  0.00     0.041 C 
ATOM      8  O   UNL     1      10.975  48.172  22.935  1.00  0.00    -0.550 OA
ATOM      9  O   UNL     1       9.479  49.753  22.222  1.00  0.00    -0.550 OA
ENDBRANCH   6   7
ENDBRANCH   5   6
ENDBRANCH   4   5
ENDBRANCH   3   4
ENDBRANCH   2   3
ENDBRANCH   1   2
BRANCH   1  10
ATOM     10  C   UNL     1       4.584  44.957  24.111  1.00  0.00     0.027 C 
BRANCH  10  11
ATOM     11  C   UNL     1       4.756  46.236  24.884  1.00  0.00    -0.031 C 
ATOM     12  C   UNL     1       4.992  46.236  26.204  1.00  0.00    -0.031 C 
BRANCH  12  13
ATOM     13  C   UNL     1       5.177  47.516  26.971  1.00  0.00     0.027 C 
BRANCH  13  14
ATOM     14  C   UNL     1       5.618  48.658  26.048  1.00  0.00     0.004 C 
BRANCH  14  15
ATOM     15  C   UNL     1       6.391  49.730  26.832  1.00  0.00     0.000 C 
BRANCH  15  16
ATOM     16  C   UNL     1       7.621  49.161  27.557  1.00  0.00    -0.000 C 
BRANCH  16  17
ATOM     17  C   UNL     1       7.718  49.634  29.015  1.00  0.00    -0.003 C 
ATOM     18  C   UNL     1       6.636  50.661  29.332  1.00  0.00     0.004 C 
ENDBRANCH  16  17
ENDBRANCH  15  16
ENDBRANCH  14  15
ENDBRANCH  13  14
ENDBRANCH  12  13
ENDBRANCH  10  11
ENDBRANCH   1  10
TORSDOF 13
ENDMDL
MODEL 7
REMARK VINA RESULT:    -4.926      2.513      4.797
REMARK INTER + INTRA:         -11.071
REMARK INTER:                  -9.134
REMARK INTRA:                  -1.937
REMARK UNBOUND:                -2.402
REMARK SMILES CCCCCCC=CCCCCCCCC(=O)[O-]
REMARK SMILES IDX 10 1 11 2 12 3 13 4 14 5 15 6 16 7 17 8 18 9 9 10 8 11 7 12
REMARK SMILES IDX 6 13 5 14 4 15 3 16 2 17 1 18
REMARK H PARENT
REMARK Flexibility Score: inf
ROOT
ATOM      1  C   UNL     1       9.191  49.423  23.681  1.00  0.00     0.004 C 
ENDROOT
BRANCH   1   2
ATOM      2  C   UNL     1       8.181  49.055  24.783  1.00  0.00     0.000 C 
BRANCH   2   3
ATOM      3  C   UNL     1       6.882  49.870  24.696  1.00  0.00     0.000 C 
BRANCH   3   4
ATOM      4  C   UNL     1       6.177  49.925  26.057  1.00  0.00     0.000 C 
BRANCH   4   5
ATOM      5  C   UNL     1       7.057  49.315  27.158  1.00  0.00     0.006 C 
BRANCH   5   6
ATOM      6  C   UNL     1       6.645  49.788  28.559  1.00  0.00     0.053 C 
BRANCH   6   7
ATOM      7  C   UNL     1       5.919  48.720  29.315  1.00  0.00     0.041 C 
ATOM      8  O   UNL     1       4.753  48.382  28.976  1.00  0.00    -0.550 OA
ATOM      9  O   UNL     1       6.515  48.118  30.417  1.00  0.00    -0.550 OA
ENDBRANCH   6   7
ENDBRANCH   5   6
ENDBRANCH   4   5
ENDBRANCH   3   4
ENDBRANCH   2   3
ENDBRANCH   1   2
BRANCH   1  10
ATOM     10  C   UNL     1      10.129  48.274  23.273  1.00  0.00     0.027 C 
BRANCH  10  11
ATOM     11  C   UNL     1       9.401  46.972  23.079  1.00  0.00    -0.031 C 
ATOM     12  C   UNL     1       9.107  46.505  21.857  1.00  0.00    -0.031 C 
BRANCH  12  13
ATOM     13  C   UNL     1       8.390  45.196  21.666  1.00  0.00     0.027 C 
BRANCH  13  14
ATOM     14  C   UNL     1       7.712  44.740  22.964  1.00  0.00     0.004 C 
BRANCH  14  15
ATOM     15  C   UNL     1       6.201  45.011  22.918  1.00  0.00     0.000 C 
BRANCH  15  16
ATOM     16  C   UNL     1       5.796  46.249  23.735  1.00  0.00    -0.000 C 
BRANCH  16  17
ATOM     17  C   UNL     1       6.176  46.127  25.218  1.00  0.00    -0.003 C 
ATOM     18  C   UNL     1       4.960  46.336  26.116  1.00  0.00     0.004 C 
ENDBRANCH  16  17
ENDBRANCH  15  16
ENDBRANCH  14  15
ENDBRANCH  13  14
ENDBRANCH  12  13
ENDBRANCH  10  11
ENDBRANCH   1  10
TORSDOF 13
ENDMDL
MODEL 8
REMARK VINA RESULT:    -4.887      3.564      6.382
REMARK INTER + INTRA:         -11.003
REMARK INTER:                  -9.346
REMARK INTRA:                  -1.657
REMARK UNBOUND:                -2.402
REMARK SMILES CCCCCCC=CCCCCCCCC(=O)[O-]
REMARK SMILES IDX 10 1 11 2 12 3 13 4 14 5 15 6 16 7 17 8 18 9 9 10 8 11 7 12
REMARK SMILES IDX 6 13 5 14 4 15 3 16 2 17 1 18
REMARK H PARENT
REMARK Flexibility Score: inf
ROOT
ATOM      1  C   UNL     1       8.590  51.351  21.773  1.00  0.00     0.004 C 
ENDROOT
BRANCH   1   2
ATOM      2  C   UNL     1       7.643  51.204  20.568  1.00  0.00     0.000 C 
BRANCH   2   3
ATOM      3  C   UNL     1       8.193  50.256  19.492  1.00  0.00     0.000 C 
BRANCH   3   4
ATOM      4  C   UNL     1       9.722  50.158  19.576  1.00  0.00     0.000 C 
BRANCH   4   5
ATOM      5  C   UNL     1      10.203  48.743  19.220  1.00  0.00     0.006 C 
BRANCH   5   6
ATOM      6  C   UNL     1       9.046  47.738  19.145  1.00  0.00     0.053 C 
BRANCH   6   7
ATOM      7  C   UNL     1       8.900  47.158  17.773  1.00  0.00     0.041 C 
ATOM      8  O   UNL     1       9.855  47.222  16.953  1.00  0.00    -0.550 OA
ATOM      9  O   UNL     1       7.700  46.575  17.386  1.00  0.00    -0.550 OA
ENDBRANCH   6   7
ENDBRANCH   5   6
ENDBRANCH   4   5
ENDBRANCH   3   4
ENDBRANCH   2   3
ENDBRANCH   1   2
BRANCH   1  10
ATOM     10  C   UNL     1       7.987  50.888  23.111  1.00  0.00     0.027 C 
BRANCH  10  11
ATOM     11  C   UNL     1       8.696  49.689  23.680  1.00  0.00    -0.031 C 
ATOM     12  C   UNL     1       9.293  48.783  22.891  1.00  0.00    -0.031 C 
BRANCH  12  13
ATOM     13  C   UNL     1      10.011  47.592  23.464  1.00  0.00     0.027 C 
BRANCH  13  14
ATOM     14  C   UNL     1       9.512  47.269  24.878  1.00  0.00     0.004 C 
BRANCH  14  15
ATOM     15  C   UNL     1       8.776  45.921  24.905  1.00  0.00     0.000 C 
BRANCH  15  16
ATOM     16  C   UNL     1       7.321  46.031  24.423  1.00  0.00    -0.000 C 
BRANCH  16  17
ATOM     17  C   UNL     1       7.084  45.309  23.089  1.00  0.00    -0.003 C 
ATOM     18  C   UNL     1       5.735  44.596  23.082  1.00  0.00     0.004 C 
ENDBRANCH  16  17
ENDBRANCH  15  16
ENDBRANCH  14  15
ENDBRANCH  13  14
ENDBRANCH  12  13
ENDBRANCH  10  11
ENDBRANCH   1  10
TORSDOF 13
ENDMDL
MODEL 9
REMARK VINA RESULT:    -4.844      2.405      3.865
REMARK INTER + INTRA:         -10.928
REMARK INTER:                  -8.622
REMARK INTRA:                  -2.306
REMARK UNBOUND:                -2.402
REMARK SMILES CCCCCCC=CCCCCCCCC(=O)[O-]
REMARK SMILES IDX 10 1 11 2 12 3 13 4 14 5 15 6 16 7 17 8 18 9 9 10 8 11 7 12
REMARK SMILES IDX 6 13 5 14 4 15 3 16 2 17 1 18
REMARK H PARENT
REMARK Flexibility Score: inf
ROOT
ATOM      1  C   UNL     1       5.740  48.269  24.419  1.00  0.00     0.004 C 
ENDROOT
BRANCH   1   2
ATOM      2  C   UNL     1       5.473  46.854  24.964  1.00  0.00     0.000 C 
BRANCH   2   3
ATOM      3  C   UNL     1       6.242  45.767  24.197  1.00  0.00     0.000 C 
BRANCH   3   4
ATOM      4  C   UNL     1       6.666  46.268  22.811  1.00  0.00     0.000 C 
BRANCH   4   5
ATOM      5  C   UNL     1       8.107  45.845  22.489  1.00  0.00     0.006 C 
BRANCH   5   6
ATOM      6  C   UNL     1       9.141  46.673  23.263  1.00  0.00     0.053 C 
BRANCH   6   7
ATOM      7  C   UNL     1      10.142  47.309  22.349  1.00  0.00     0.041 C 
ATOM      8  O   UNL     1      10.225  46.943  21.147  1.00  0.00    -0.550 OA
ATOM      9  O   UNL     1      11.006  48.284  22.832  1.00  0.00    -0.550 OA
ENDBRANCH   6   7
ENDBRANCH   5   6
ENDBRANCH   4   5
ENDBRANCH   3   4
ENDBRANCH   2   3
ENDBRANCH   1   2
BRANCH   1  10
ATOM     10  C   UNL     1       6.669  49.122  25.301  1.00  0.00     0.027 C 
BRANCH  10  11
ATOM     11  C   UNL     1       7.649  49.931  24.496  1.00  0.00    -0.031 C 
ATOM     12  C   UNL     1       7.559  50.022  23.161  1.00  0.00    -0.031 C 
BRANCH  12  13
ATOM     13  C   UNL     1       8.532  50.843  22.360  1.00  0.00     0.027 C 
BRANCH  13  14
ATOM     14  C   UNL     1       8.594  50.366  20.904  1.00  0.00     0.004 C 
BRANCH  14  15
ATOM     15  C   UNL     1       7.502  49.323  20.622  1.00  0.00     0.000 C 
BRANCH  15  16
ATOM     16  C   UNL     1       6.452  49.823  19.616  1.00  0.00    -0.000 C 
BRANCH  16  17
ATOM     17  C   UNL     1       6.903  51.087  18.870  1.00  0.00    -0.003 C 
ATOM     18  C   UNL     1       5.998  52.270  19.197  1.00  0.00     0.004 C 
ENDBRANCH  16  17
ENDBRANCH  15  16
ENDBRANCH  14  15
ENDBRANCH  13  14
ENDBRANCH  12  13
ENDBRANCH  10  11
ENDBRANCH   1  10
TORSDOF 13
ENDMDL
