MODEL 1
REMARK VINA RESULT:    -3.638      0.000      0.000
REMARK INTER + INTRA:          -4.629
REMARK INTER:                  -4.489
REMARK INTRA:                  -0.140
REMARK UNBOUND:                -0.140
REMARK SMILES CCCCCC(=O)[O-]
REMARK SMILES IDX 4 1 5 2 6 3 7 4 8 5 3 6 2 7 1 8
REMARK H PARENT
REMARK Flexibility Score: inf
ROOT
ATOM      1  C   UNL     1     139.825 136.041 130.798  1.00  0.00     0.006 C 
ENDROOT
BRANCH   1   2
ATOM      2  C   UNL     1     139.916 134.942 129.731  1.00  0.00     0.053 C 
BRANCH   2   3
ATOM      3  C   UNL     1     139.140 133.722 130.125  1.00  0.00     0.041 C 
ATOM      4  O   UNL     1     137.952 133.829 130.529  1.00  0.00    -0.550 OA
ATOM      5  O   UNL     1     139.719 132.465 130.014  1.00  0.00    -0.550 OA
ENDBRANCH   2   3
ENDBRANCH   1   2
BRANCH   1   6
ATOM      6  C   UNL     1     139.160 137.317 130.263  1.00  0.00     0.000 C 
BRANCH   6   7
ATOM      7  C   UNL     1     137.677 137.365 130.644  1.00  0.00    -0.003 C 
ATOM      8  C   UNL     1     137.051 138.703 130.261  1.00  0.00     0.004 C 
ENDBRANCH   6   7
ENDBRANCH   1   6
TORSDOF 4
ENDMDL
MODEL 2
REMARK VINA RESULT:    -3.578      1.271      1.821
REMARK INTER + INTRA:          -4.554
REMARK INTER:                  -4.291
REMARK INTRA:                  -0.264
REMARK UNBOUND:                -0.140
REMARK SMILES CCCCCC(=O)[O-]
REMARK SMILES IDX 4 1 5 2 6 3 7 4 8 5 3 6 2 7 1 8
REMARK H PARENT
REMARK Flexibility Score: inf
ROOT
ATOM      1  C   UNL     1     140.007 134.780 129.807  1.00  0.00     0.006 C 
ENDROOT
BRANCH   1   2
ATOM      2  C   UNL     1     139.377 133.461 130.273  1.00  0.00     0.053 C 
BRANCH   2   3
ATOM      3  C   UNL     1     137.880 133.517 130.233  1.00  0.00     0.041 C 
ATOM      4  O   UNL     1     137.205 133.140 131.227  1.00  0.00    -0.550 OA
ATOM      5  O   UNL     1     137.234 134.014 129.110  1.00  0.00    -0.550 OA
ENDBRANCH   2   3
ENDBRANCH   1   2
BRANCH   1   6
ATOM      6  C   UNL     1     139.912 135.880 130.873  1.00  0.00     0.000 C 
BRANCH   6   7
ATOM      7  C   UNL     1     139.274 137.149 130.299  1.00  0.00    -0.003 C 
ATOM      8  C   UNL     1     137.796 137.239 130.667  1.00  0.00     0.004 C 
ENDBRANCH   6   7
ENDBRANCH   1   6
TORSDOF 4
ENDMDL
MODEL 3
REMARK VINA RESULT:    -3.559      2.744      4.825
REMARK INTER + INTRA:          -4.531
REMARK INTER:                  -4.400
REMARK INTRA:                  -0.131
REMARK UNBOUND:                -0.140
REMARK SMILES CCCCCC(=O)[O-]
REMARK SMILES IDX 4 1 5 2 6 3 7 4 8 5 3 6 2 7 1 8
REMARK H PARENT
REMARK Flexibility Score: inf
ROOT
ATOM      1  C   UNL     1     138.981 132.734 130.539  1.00  0.00     0.006 C 
ENDROOT
BRANCH   1   2
ATOM      2  C   UNL     1     139.198 134.048 129.776  1.00  0.00     0.053 C 
BRANCH   2   3
ATOM      3  C   UNL     1     140.048 135.007 130.553  1.00  0.00     0.041 C 
ATOM      4  O   UNL     1     140.065 136.228 130.249  1.00  0.00    -0.550 OA
ATOM      5  O   UNL     1     140.796 134.555 131.632  1.00  0.00    -0.550 OA
ENDBRANCH   2   3
ENDBRANCH   1   2
BRANCH   1   6
ATOM      6  C   UNL     1     139.690 131.548 129.870  1.00  0.00     0.000 C 
BRANCH   6   7
ATOM      7  C   UNL     1     138.680 130.484 129.427  1.00  0.00    -0.003 C 
ATOM      8  C   UNL     1     138.118 130.798 128.044  1.00  0.00     0.004 C 
ENDBRANCH   6   7
ENDBRANCH   1   6
TORSDOF 4
ENDMDL
MODEL 4
REMARK VINA RESULT:    -3.540      2.639      4.906
REMARK INTER + INTRA:          -4.508
REMARK INTER:                  -4.392
REMARK INTRA:                  -0.117
REMARK UNBOUND:                -0.140
REMARK SMILES CCCCCC(=O)[O-]
REMARK SMILES IDX 4 1 5 2 6 3 7 4 8 5 3 6 2 7 1 8
REMARK H PARENT
REMARK Flexibility Score: inf
ROOT
ATOM      1  C   UNL     1     138.963 132.409 130.605  1.00  0.00     0.006 C 
ENDROOT
BRANCH   1   2
ATOM      2  C   UNL     1     139.956 133.541 130.901  1.00  0.00     0.053 C 
BRANCH   2   3
ATOM      3  C   UNL     1     139.714 134.733 130.027  1.00  0.00     0.041 C 
ATOM      4  O   UNL     1     140.341 135.806 130.229  1.00  0.00    -0.550 OA
ATOM      5  O   UNL     1     138.819 134.648 128.968  1.00  0.00    -0.550 OA
ENDBRANCH   2   3
ENDBRANCH   1   2
BRANCH   1   6
ATOM      6  C   UNL     1     139.615 131.247 129.842  1.00  0.00     0.000 C 
BRANCH   6   7
ATOM      7  C   UNL     1     138.553 130.319 129.244  1.00  0.00    -0.003 C 
ATOM      8  C   UNL     1     138.027 130.862 127.919  1.00  0.00     0.004 C 
ENDBRANCH   6   7
ENDBRANCH   1   6
TORSDOF 4
ENDMDL
MODEL 5
REMARK VINA RESULT:    -3.537      2.444      3.568
REMARK INTER + INTRA:          -4.505
REMARK INTER:                  -4.456
REMARK INTRA:                  -0.049
REMARK UNBOUND:                -0.140
REMARK SMILES CCCCCC(=O)[O-]
REMARK SMILES IDX 4 1 5 2 6 3 7 4 8 5 3 6 2 7 1 8
REMARK H PARENT
REMARK Flexibility Score: inf
ROOT
ATOM      1  C   UNL     1     139.015 132.782 130.340  1.00  0.00     0.006 C 
ENDROOT
BRANCH   1   2
ATOM      2  C   UNL     1     139.671 131.513 129.781  1.00  0.00     0.053 C 
BRANCH   2   3
ATOM      3  C   UNL     1     138.657 130.574 129.202  1.00  0.00     0.041 C 
ATOM      4  O   UNL     1     138.175 129.648 129.906  1.00  0.00    -0.550 OA
ATOM      5  O   UNL     1     138.222 130.743 127.894  1.00  0.00    -0.550 OA
ENDBRANCH   2   3
ENDBRANCH   1   2
BRANCH   1   6
ATOM      6  C   UNL     1     140.043 133.758 130.929  1.00  0.00     0.000 C 
BRANCH   6   7
ATOM      7  C   UNL     1     140.239 134.970 130.012  1.00  0.00    -0.003 C 
ATOM      8  C   UNL     1     139.718 136.247 130.665  1.00  0.00     0.004 C 
ENDBRANCH   6   7
ENDBRANCH   1   6
TORSDOF 4
ENDMDL
MODEL 6
REMARK VINA RESULT:    -3.466      2.241      4.738
REMARK INTER + INTRA:          -4.417
REMARK INTER:                  -4.336
REMARK INTRA:                  -0.080
REMARK UNBOUND:                -0.140
REMARK SMILES CCCCCC(=O)[O-]
REMARK SMILES IDX 4 1 5 2 6 3 7 4 8 5 3 6 2 7 1 8
REMARK H PARENT
REMARK Flexibility Score: inf
ROOT
ATOM      1  C   UNL     1     140.004 133.652 130.964  1.00  0.00     0.006 C 
ENDROOT
BRANCH   1   2
ATOM      2  C   UNL     1     139.960 134.857 130.013  1.00  0.00     0.053 C 
BRANCH   2   3
ATOM      3  C   UNL     1     139.081 135.948 130.543  1.00  0.00     0.041 C 
ATOM      4  O   UNL     1     139.585 136.933 131.144  1.00  0.00    -0.550 OA
ATOM      5  O   UNL     1     137.708 135.893 130.343  1.00  0.00    -0.550 OA
ENDBRANCH   2   3
ENDBRANCH   1   2
BRANCH   1   6
ATOM      6  C   UNL     1     138.982 132.572 130.582  1.00  0.00     0.000 C 
BRANCH   6   7
ATOM      7  C   UNL     1     139.663 131.400 129.868  1.00  0.00    -0.003 C 
ATOM      8  C   UNL     1     138.874 130.107 130.053  1.00  0.00     0.004 C 
ENDBRANCH   6   7
ENDBRANCH   1   6
TORSDOF 4
ENDMDL
MODEL 7
REMARK VINA RESULT:    -3.443      1.716      2.522
REMARK INTER + INTRA:          -4.388
REMARK INTER:                  -4.226
REMARK INTRA:                  -0.162
REMARK UNBOUND:                -0.140
REMARK SMILES CCCCCC(=O)[O-]
REMARK SMILES IDX 4 1 5 2 6 3 7 4 8 5 3 6 2 7 1 8
REMARK H PARENT
REMARK Flexibility Score: inf
ROOT
ATOM      1  C   UNL     1     138.012 134.303 129.663  1.00  0.00     0.006 C 
ENDROOT
BRANCH   1   2
ATOM      2  C   UNL     1     138.011 132.796 129.371  1.00  0.00     0.053 C 
BRANCH   2   3
ATOM      3  C   UNL     1     138.907 132.049 130.312  1.00  0.00     0.041 C 
ATOM      4  O   UNL     1     138.747 132.152 131.556  1.00  0.00    -0.550 OA
ATOM      5  O   UNL     1     139.898 131.215 129.811  1.00  0.00    -0.550 OA
ENDBRANCH   2   3
ENDBRANCH   1   2
BRANCH   1   6
ATOM      6  C   UNL     1     139.284 134.994 129.152  1.00  0.00     0.000 C 
BRANCH   6   7
ATOM      7  C   UNL     1     140.112 135.550 130.316  1.00  0.00    -0.003 C 
ATOM      8  C   UNL     1     139.437 136.765 130.943  1.00  0.00     0.004 C 
ENDBRANCH   6   7
ENDBRANCH   1   6
TORSDOF 4
ENDMDL
MODEL 8
REMARK VINA RESULT:    -3.425      3.876      4.871
REMARK INTER + INTRA:          -4.365
REMARK INTER:                  -4.090
REMARK INTRA:                  -0.276
REMARK UNBOUND:                -0.140
REMARK SMILES CCCCCC(=O)[O-]
REMARK SMILES IDX 4 1 5 2 6 3 7 4 8 5 3 6 2 7 1 8
REMARK H PARENT
REMARK Flexibility Score: inf
ROOT
ATOM      1  C   UNL     1     138.535 130.329 129.095  1.00  0.00     0.006 C 
ENDROOT
BRANCH   1   2
ATOM      2  C   UNL     1     139.701 131.125 129.697  1.00  0.00     0.053 C 
BRANCH   2   3
ATOM      3  C   UNL     1     139.219 132.317 130.466  1.00  0.00     0.041 C 
ATOM      4  O   UNL     1     139.593 133.475 130.141  1.00  0.00    -0.550 OA
ATOM      5  O   UNL     1     138.333 132.151 131.522  1.00  0.00    -0.550 OA
ENDBRANCH   2   3
ENDBRANCH   1   2
BRANCH   1   6
ATOM      6  C   UNL     1     137.826 131.096 127.971  1.00  0.00     0.000 C 
BRANCH   6   7
ATOM      7  C   UNL     1     136.344 131.306 128.299  1.00  0.00    -0.003 C 
ATOM      8  C   UNL     1     136.051 132.769 128.616  1.00  0.00     0.004 C 
ENDBRANCH   6   7
ENDBRANCH   1   6
TORSDOF 4
ENDMDL
MODEL 9
REMARK VINA RESULT:    -3.366      4.058      5.712
REMARK INTER + INTRA:          -4.294
REMARK INTER:                  -4.085
REMARK INTRA:                  -0.209
REMARK UNBOUND:                -0.140
REMARK SMILES CCCCCC(=O)[O-]
REMARK SMILES IDX 4 1 5 2 6 3 7 4 8 5 3 6 2 7 1 8
REMARK H PARENT
REMARK Flexibility Score: inf
ROOT
ATOM      1  C   UNL     1     136.553 131.545 127.961  1.00  0.00     0.006 C 
ENDROOT
BRANCH   1   2
ATOM      2  C   UNL     1     136.623 133.076 128.030  1.00  0.00     0.053 C 
BRANCH   2   3
ATOM      3  C   UNL     1     135.917 133.609 129.240  1.00  0.00     0.041 C 
ATOM      4  O   UNL     1     136.312 133.298 130.394  1.00  0.00    -0.550 OA
ATOM      5  O   UNL     1     134.841 134.475 129.091  1.00  0.00    -0.550 OA
ENDBRANCH   2   3
ENDBRANCH   1   2
BRANCH   1   6
ATOM      6  C   UNL     1     137.941 130.904 127.817  1.00  0.00     0.000 C 
BRANCH   6   7
ATOM      7  C   UNL     1     138.428 130.344 129.157  1.00  0.00    -0.003 C 
ATOM      8  C   UNL     1     139.456 131.268 129.802  1.00  0.00     0.004 C 
ENDBRANCH   6   7
ENDBRANCH   1   6
TORSDOF 4
ENDMDL
