MODEL 1
REMARK VINA RESULT:    -5.521      0.000      0.000
REMARK INTER + INTRA:          -6.255
REMARK INTER:                  -6.005
REMARK INTRA:                  -0.250
REMARK UNBOUND:                -0.250
REMARK SMILES O=C([O-])c1ccccc1O
REMARK SMILES IDX 4 1 9 2 5 3 8 4 6 5 7 6 2 7 1 8 3 9 10 10
REMARK H PARENT 10 11
REMARK Flexibility Score: inf
ROOT
ATOM      1  C   UNL     1      26.478 -33.182 -24.515  1.00  0.00     0.039 A 
ATOM      2  C   UNL     1      25.520 -33.004 -23.486  1.00  0.00     0.124 A 
ATOM      3  C   UNL     1      27.769 -32.646 -24.344  1.00  0.00     0.014 A 
ATOM      4  C   UNL     1      25.889 -32.356 -22.299  1.00  0.00     0.047 A 
ATOM      5  C   UNL     1      28.115 -31.985 -23.162  1.00  0.00     0.001 A 
ATOM      6  C   UNL     1      27.178 -31.849 -22.138  1.00  0.00     0.004 A 
ENDROOT
BRANCH   1   7
ATOM      7  C   UNL     1      26.187 -33.945 -25.748  1.00  0.00     0.075 C 
ATOM      8  O   UNL     1      25.485 -34.990 -25.694  1.00  0.00    -0.545 OA
ATOM      9  O   UNL     1      26.621 -33.489 -26.987  1.00  0.00    -0.545 OA
ENDBRANCH   1   7
BRANCH   2  10
ATOM     10  O   UNL     1      24.192 -33.418 -23.615  1.00  0.00    -0.507 OA
ATOM     11  H   UNL     1      23.436 -33.038 -23.064  1.00  0.00     0.293 HD
ENDBRANCH   2  10
TORSDOF 2
ENDMDL
MODEL 2
REMARK VINA RESULT:    -5.415      1.400      2.090
REMARK INTER + INTRA:          -6.139
REMARK INTER:                  -5.886
REMARK INTRA:                  -0.253
REMARK UNBOUND:                -0.250
REMARK SMILES O=C([O-])c1ccccc1O
REMARK SMILES IDX 4 1 9 2 5 3 8 4 6 5 7 6 2 7 1 8 3 9 10 10
REMARK H PARENT 10 11
REMARK Flexibility Score: inf
ROOT
ATOM      1  C   UNL     1      26.435 -32.979 -25.409  1.00  0.00     0.039 A 
ATOM      2  C   UNL     1      25.773 -34.096 -24.840  1.00  0.00     0.124 A 
ATOM      3  C   UNL     1      26.699 -31.858 -24.598  1.00  0.00     0.014 A 
ATOM      4  C   UNL     1      25.451 -34.091 -23.476  1.00  0.00     0.047 A 
ATOM      5  C   UNL     1      26.353 -31.861 -23.244  1.00  0.00     0.001 A 
ATOM      6  C   UNL     1      25.739 -32.980 -22.683  1.00  0.00     0.004 A 
ENDROOT
BRANCH   1   7
ATOM      7  C   UNL     1      26.896 -32.960 -26.814  1.00  0.00     0.075 C 
ATOM      8  O   UNL     1      28.066 -32.586 -27.090  1.00  0.00    -0.545 OA
ATOM      9  O   UNL     1      26.074 -33.415 -27.838  1.00  0.00    -0.545 OA
ENDBRANCH   1   7
BRANCH   2  10
ATOM     10  O   UNL     1      25.388 -35.206 -25.594  1.00  0.00    -0.507 OA
ATOM     11  H   UNL     1      25.302 -36.136 -25.210  1.00  0.00     0.293 HD
ENDBRANCH   2  10
TORSDOF 2
ENDMDL
MODEL 3
REMARK VINA RESULT:    -5.181      1.902      3.518
REMARK INTER + INTRA:          -5.885
REMARK INTER:                  -5.669
REMARK INTRA:                  -0.216
REMARK UNBOUND:                -0.250
REMARK SMILES O=C([O-])c1ccccc1O
REMARK SMILES IDX 4 1 9 2 5 3 8 4 6 5 7 6 2 7 1 8 3 9 10 10
REMARK H PARENT 10 11
REMARK Flexibility Score: inf
ROOT
ATOM      1  C   UNL     1      26.658 -32.603 -24.189  1.00  0.00     0.039 A 
ATOM      2  C   UNL     1      25.417 -33.167 -24.578  1.00  0.00     0.124 A 
ATOM      3  C   UNL     1      27.667 -32.442 -25.158  1.00  0.00     0.014 A 
ATOM      4  C   UNL     1      25.195 -33.496 -25.923  1.00  0.00     0.047 A 
ATOM      5  C   UNL     1      27.437 -32.794 -26.491  1.00  0.00     0.001 A 
ATOM      6  C   UNL     1      26.200 -33.311 -26.873  1.00  0.00     0.004 A 
ENDROOT
BRANCH   1   7
ATOM      7  C   UNL     1      26.921 -32.139 -22.810  1.00  0.00     0.075 C 
ATOM      8  O   UNL     1      28.071 -31.740 -22.486  1.00  0.00    -0.545 OA
ATOM      9  O   UNL     1      25.896 -32.071 -21.874  1.00  0.00    -0.545 OA
ENDBRANCH   1   7
BRANCH   2  10
ATOM     10  O   UNL     1      24.399 -33.450 -23.664  1.00  0.00    -0.507 OA
ATOM     11  H   UNL     1      23.417 -33.358 -23.881  1.00  0.00     0.293 HD
ENDBRANCH   2  10
TORSDOF 2
ENDMDL
MODEL 4
REMARK VINA RESULT:    -5.133      2.371      3.174
REMARK INTER + INTRA:          -5.833
REMARK INTER:                  -5.583
REMARK INTRA:                  -0.250
REMARK UNBOUND:                -0.250
REMARK SMILES O=C([O-])c1ccccc1O
REMARK SMILES IDX 4 1 9 2 5 3 8 4 6 5 7 6 2 7 1 8 3 9 10 10
REMARK H PARENT 10 11
REMARK Flexibility Score: inf
ROOT
ATOM      1  C   UNL     1      25.783 -33.144 -25.485  1.00  0.00     0.039 A 
ATOM      2  C   UNL     1      24.765 -32.157 -25.496  1.00  0.00     0.124 A 
ATOM      3  C   UNL     1      26.839 -33.044 -26.410  1.00  0.00     0.014 A 
ATOM      4  C   UNL     1      24.860 -31.074 -26.380  1.00  0.00     0.047 A 
ATOM      5  C   UNL     1      26.908 -31.967 -27.299  1.00  0.00     0.001 A 
ATOM      6  C   UNL     1      25.925 -30.979 -27.276  1.00  0.00     0.004 A 
ENDROOT
BRANCH   1   7
ATOM      7  C   UNL     1      25.799 -34.256 -24.510  1.00  0.00     0.075 C 
ATOM      8  O   UNL     1      26.150 -35.410 -24.874  1.00  0.00    -0.545 OA
ATOM      9  O   UNL     1      25.495 -34.035 -23.172  1.00  0.00    -0.545 OA
ENDBRANCH   1   7
BRANCH   2  10
ATOM     10  O   UNL     1      23.634 -32.233 -24.680  1.00  0.00    -0.507 OA
ATOM     11  H   UNL     1      22.898 -31.542 -24.685  1.00  0.00     0.293 HD
ENDBRANCH   2  10
TORSDOF 2
ENDMDL
MODEL 5
REMARK VINA RESULT:    -5.019     20.133     21.108
REMARK INTER + INTRA:          -5.709
REMARK INTER:                  -5.461
REMARK INTRA:                  -0.249
REMARK UNBOUND:                -0.250
REMARK SMILES O=C([O-])c1ccccc1O
REMARK SMILES IDX 4 1 9 2 5 3 8 4 6 5 7 6 2 7 1 8 3 9 10 10
REMARK H PARENT 10 11
REMARK Flexibility Score: inf
ROOT
ATOM      1  C   UNL     1      16.176 -48.827 -14.685  1.00  0.00     0.039 A 
ATOM      2  C   UNL     1      15.704 -47.511 -14.920  1.00  0.00     0.124 A 
ATOM      3  C   UNL     1      15.305 -49.769 -14.105  1.00  0.00     0.014 A 
ATOM      4  C   UNL     1      14.370 -47.191 -14.632  1.00  0.00     0.047 A 
ATOM      5  C   UNL     1      13.983 -49.428 -13.805  1.00  0.00     0.001 A 
ATOM      6  C   UNL     1      13.515 -48.143 -14.078  1.00  0.00     0.004 A 
ENDROOT
BRANCH   1   7
ATOM      7  C   UNL     1      17.539 -49.260 -15.060  1.00  0.00     0.075 C 
ATOM      8  O   UNL     1      17.702 -50.282 -15.779  1.00  0.00    -0.545 OA
ATOM      9  O   UNL     1      18.651 -48.516 -14.686  1.00  0.00    -0.545 OA
ENDBRANCH   1   7
BRANCH   2  10
ATOM     10  O   UNL     1      16.528 -46.491 -15.400  1.00  0.00    -0.507 OA
ATOM     11  H   UNL     1      17.206 -46.009 -14.827  1.00  0.00     0.293 HD
ENDBRANCH   2  10
TORSDOF 2
ENDMDL
MODEL 6
REMARK VINA RESULT:    -5.015     19.676     20.614
REMARK INTER + INTRA:          -5.704
REMARK INTER:                  -5.459
REMARK INTRA:                  -0.245
REMARK UNBOUND:                -0.250
REMARK SMILES O=C([O-])c1ccccc1O
REMARK SMILES IDX 4 1 9 2 5 3 8 4 6 5 7 6 2 7 1 8 3 9 10 10
REMARK H PARENT 10 11
REMARK Flexibility Score: inf
ROOT
ATOM      1  C   UNL     1      16.735 -48.678 -14.287  1.00  0.00     0.039 A 
ATOM      2  C   UNL     1      16.778 -47.352 -14.786  1.00  0.00     0.124 A 
ATOM      3  C   UNL     1      17.902 -49.233 -13.727  1.00  0.00     0.014 A 
ATOM      4  C   UNL     1      17.954 -46.600 -14.658  1.00  0.00     0.047 A 
ATOM      5  C   UNL     1      19.073 -48.477 -13.626  1.00  0.00     0.001 A 
ATOM      6  C   UNL     1      19.095 -47.159 -14.082  1.00  0.00     0.004 A 
ENDROOT
BRANCH   1   7
ATOM      7  C   UNL     1      15.500 -49.490 -14.296  1.00  0.00     0.075 C 
ATOM      8  O   UNL     1      15.570 -50.748 -14.281  1.00  0.00    -0.545 OA
ATOM      9  O   UNL     1      14.249 -48.885 -14.253  1.00  0.00    -0.545 OA
ENDBRANCH   1   7
BRANCH   2  10
ATOM     10  O   UNL     1      15.696 -46.760 -15.442  1.00  0.00    -0.507 OA
ATOM     11  H   UNL     1      15.482 -45.775 -15.382  1.00  0.00     0.293 HD
ENDBRANCH   2  10
TORSDOF 2
ENDMDL
MODEL 7
REMARK VINA RESULT:    -4.943     19.673     20.655
REMARK INTER + INTRA:          -5.626
REMARK INTER:                  -5.385
REMARK INTRA:                  -0.241
REMARK UNBOUND:                -0.250
REMARK SMILES O=C([O-])c1ccccc1O
REMARK SMILES IDX 4 1 9 2 5 3 8 4 6 5 7 6 2 7 1 8 3 9 10 10
REMARK H PARENT 10 11
REMARK Flexibility Score: inf
ROOT
ATOM      1  C   UNL     1      18.180 -48.511 -14.349  1.00  0.00     0.039 A 
ATOM      2  C   UNL     1      18.865 -49.515 -13.620  1.00  0.00     0.124 A 
ATOM      3  C   UNL     1      16.991 -48.848 -15.023  1.00  0.00     0.014 A 
ATOM      4  C   UNL     1      18.317 -50.803 -13.532  1.00  0.00     0.047 A 
ATOM      5  C   UNL     1      16.469 -50.142 -14.942  1.00  0.00     0.001 A 
ATOM      6  C   UNL     1      17.127 -51.114 -14.190  1.00  0.00     0.004 A 
ENDROOT
BRANCH   1   7
ATOM      7  C   UNL     1      18.647 -47.108 -14.397  1.00  0.00     0.075 C 
ATOM      8  O   UNL     1      18.281 -46.352 -15.335  1.00  0.00    -0.545 OA
ATOM      9  O   UNL     1      19.437 -46.585 -13.379  1.00  0.00    -0.545 OA
ENDBRANCH   1   7
BRANCH   2  10
ATOM     10  O   UNL     1      20.098 -49.290 -13.004  1.00  0.00    -0.507 OA
ATOM     11  H   UNL     1      20.980 -49.561 -13.414  1.00  0.00     0.293 HD
ENDBRANCH   2  10
TORSDOF 2
ENDMDL
MODEL 8
REMARK VINA RESULT:    -4.932     19.681     20.660
REMARK INTER + INTRA:          -5.614
REMARK INTER:                  -5.395
REMARK INTRA:                  -0.219
REMARK UNBOUND:                -0.250
REMARK SMILES O=C([O-])c1ccccc1O
REMARK SMILES IDX 4 1 9 2 5 3 8 4 6 5 7 6 2 7 1 8 3 9 10 10
REMARK H PARENT 10 11
REMARK Flexibility Score: inf
ROOT
ATOM      1  C   UNL     1      16.460 -48.454 -14.298  1.00  0.00     0.039 A 
ATOM      2  C   UNL     1      17.413 -47.478 -14.685  1.00  0.00     0.124 A 
ATOM      3  C   UNL     1      16.896 -49.584 -13.579  1.00  0.00     0.014 A 
ATOM      4  C   UNL     1      18.752 -47.623 -14.295  1.00  0.00     0.047 A 
ATOM      5  C   UNL     1      18.239 -49.724 -13.217  1.00  0.00     0.001 A 
ATOM      6  C   UNL     1      19.162 -48.740 -13.566  1.00  0.00     0.004 A 
ENDROOT
BRANCH   1   7
ATOM      7  C   UNL     1      15.017 -48.312 -14.586  1.00  0.00     0.075 C 
ATOM      8  O   UNL     1      14.230 -49.269 -14.359  1.00  0.00    -0.545 OA
ATOM      9  O   UNL     1      14.497 -47.107 -15.043  1.00  0.00    -0.545 OA
ENDBRANCH   1   7
BRANCH   2  10
ATOM     10  O   UNL     1      17.083 -46.379 -15.480  1.00  0.00    -0.507 OA
ATOM     11  H   UNL     1      16.274 -45.797 -15.316  1.00  0.00     0.293 HD
ENDBRANCH   2  10
TORSDOF 2
ENDMDL
MODEL 9
REMARK VINA RESULT:    -4.839     19.668     20.565
REMARK INTER + INTRA:          -5.513
REMARK INTER:                  -5.276
REMARK INTRA:                  -0.238
REMARK UNBOUND:                -0.250
REMARK SMILES O=C([O-])c1ccccc1O
REMARK SMILES IDX 4 1 9 2 5 3 8 4 6 5 7 6 2 7 1 8 3 9 10 10
REMARK H PARENT 10 11
REMARK Flexibility Score: inf
ROOT
ATOM      1  C   UNL     1      17.775 -49.015 -14.230  1.00  0.00     0.039 A 
ATOM      2  C   UNL     1      18.941 -48.414 -13.692  1.00  0.00     0.124 A 
ATOM      3  C   UNL     1      16.840 -48.205 -14.904  1.00  0.00     0.014 A 
ATOM      4  C   UNL     1      19.171 -47.046 -13.891  1.00  0.00     0.047 A 
ATOM      5  C   UNL     1      17.075 -46.838 -15.076  1.00  0.00     0.001 A 
ATOM      6  C   UNL     1      18.244 -46.263 -14.579  1.00  0.00     0.004 A 
ENDROOT
BRANCH   1   7
ATOM      7  C   UNL     1      17.520 -50.469 -14.146  1.00  0.00     0.075 C 
ATOM      8  O   UNL     1      17.906 -51.121 -13.140  1.00  0.00    -0.545 OA
ATOM      9  O   UNL     1      16.798 -51.124 -15.137  1.00  0.00    -0.545 OA
ENDBRANCH   1   7
BRANCH   2  10
ATOM     10  O   UNL     1      19.869 -49.125 -12.928  1.00  0.00    -0.507 OA
ATOM     11  H   UNL     1      19.724 -50.077 -12.622  1.00  0.00     0.293 HD
ENDBRANCH   2  10
TORSDOF 2
ENDMDL
