MODEL 1
REMARK VINA RESULT:    -5.241      0.000      0.000
REMARK INTER + INTRA:          -7.110
REMARK INTER:                  -6.773
REMARK INTRA:                  -0.337
REMARK UNBOUND:                -0.337
REMARK SMILES CCO[C@H]1O[C@H](CO)[C@H](O)[C@H](O)[C@@H]1O
REMARK SMILES IDX 4 1 13 2 11 3 9 4 6 5 5 6 3 7 2 8 1 9 14 10 12 12 7 14 8 15
REMARK SMILES IDX 10 17
REMARK H PARENT 14 11 12 13 8 16 10 18
REMARK Flexibility Score: inf
ROOT
ATOM      1  C   UNL     1      -5.332   6.498 -12.188  1.00  0.00     0.281 C 
ATOM      2  C   UNL     1      -6.251   7.090 -11.092  1.00  0.00     0.202 C 
ATOM      3  C   UNL     1      -5.538   8.220 -10.316  1.00  0.00     0.179 C 
ATOM      4  C   UNL     1      -4.116   7.812  -9.897  1.00  0.00     0.177 C 
ATOM      5  C   UNL     1      -3.369   7.225 -11.117  1.00  0.00     0.178 C 
ATOM      6  O   UNL     1      -4.071   6.113 -11.650  1.00  0.00    -0.341 OA
ENDROOT
BRANCH   1   7
ATOM      7  O   UNL     1      -5.185   7.431 -13.246  1.00  0.00    -0.350 OA
BRANCH   7   8
ATOM      8  C   UNL     1      -5.370   6.792 -14.491  1.00  0.00     0.160 C 
ATOM      9  C   UNL     1      -6.744   6.140 -14.517  1.00  0.00     0.035 C 
ENDBRANCH   7   8
ENDBRANCH   1   7
BRANCH   2  10
ATOM     10  O   UNL     1      -6.727   6.092 -10.221  1.00  0.00    -0.385 OA
ATOM     11  H   UNL     1      -6.914   5.274 -10.750  1.00  0.00     0.211 HD
ENDBRANCH   2  10
BRANCH   3  12
ATOM     12  O   UNL     1      -6.281   8.590  -9.183  1.00  0.00    -0.387 OA
ATOM     13  H   UNL     1      -5.987   7.997  -8.442  1.00  0.00     0.211 HD
ENDBRANCH   3  12
BRANCH   5  14
ATOM     14  C   UNL     1      -1.945   6.773 -10.756  1.00  0.00     0.191 C 
BRANCH  14  15
ATOM     15  O   UNL     1      -1.911   5.401 -10.463  1.00  0.00    -0.394 OA
ATOM     16  H   UNL     1      -2.589   4.968 -11.044  1.00  0.00     0.210 HD
ENDBRANCH  14  15
ENDBRANCH   5  14
BRANCH   4  17
ATOM     17  O   UNL     1      -4.176   6.873  -8.851  1.00  0.00    -0.387 OA
ATOM     18  H   UNL     1      -4.541   6.031  -9.232  1.00  0.00     0.211 HD
ENDBRANCH   4  17
TORSDOF 7
ENDMDL
MODEL 2
REMARK VINA RESULT:    -5.044     11.693     13.723
REMARK INTER + INTRA:          -6.856
REMARK INTER:                  -6.469
REMARK INTRA:                  -0.387
REMARK UNBOUND:                -0.337
REMARK SMILES CCO[C@H]1O[C@H](CO)[C@H](O)[C@H](O)[C@@H]1O
REMARK SMILES IDX 4 1 13 2 11 3 9 4 6 5 5 6 3 7 2 8 1 9 14 10 12 12 7 14 8 15
REMARK SMILES IDX 10 17
REMARK H PARENT 14 11 12 13 8 16 10 18
REMARK Flexibility Score: inf
ROOT
ATOM      1  C   UNL     1      -7.258  -2.781 -19.309  1.00  0.00     0.281 C 
ATOM      2  C   UNL     1      -7.303  -2.971 -20.844  1.00  0.00     0.202 C 
ATOM      3  C   UNL     1      -5.993  -3.602 -21.367  1.00  0.00     0.179 C 
ATOM      4  C   UNL     1      -4.754  -2.907 -20.780  1.00  0.00     0.177 C 
ATOM      5  C   UNL     1      -4.907  -2.791 -19.246  1.00  0.00     0.178 C 
ATOM      6  O   UNL     1      -6.087  -2.076 -18.911  1.00  0.00    -0.341 OA
ENDROOT
BRANCH   1   7
ATOM      7  O   UNL     1      -7.351  -4.042 -18.666  1.00  0.00    -0.350 OA
BRANCH   7   8
ATOM      8  C   UNL     1      -8.493  -4.739 -19.119  1.00  0.00     0.160 C 
ATOM      9  C   UNL     1      -8.153  -6.215 -19.257  1.00  0.00     0.035 C 
ENDBRANCH   7   8
ENDBRANCH   1   7
BRANCH   2  10
ATOM     10  O   UNL     1      -7.590  -1.762 -21.507  1.00  0.00    -0.385 OA
ATOM     11  H   UNL     1      -7.968  -1.124 -20.849  1.00  0.00     0.211 HD
ENDBRANCH   2  10
BRANCH   3  12
ATOM     12  O   UNL     1      -5.946  -3.557 -22.770  1.00  0.00    -0.387 OA
ATOM     13  H   UNL     1      -5.672  -2.634 -23.017  1.00  0.00     0.211 HD
ENDBRANCH   3  12
BRANCH   5  14
ATOM     14  C   UNL     1      -3.708  -2.079 -18.600  1.00  0.00     0.191 C 
BRANCH  14  15
ATOM     15  O   UNL     1      -3.814  -0.687 -18.738  1.00  0.00    -0.394 OA
ATOM     16  H   UNL     1      -4.135  -0.516 -19.661  1.00  0.00     0.210 HD
ENDBRANCH  14  15
ENDBRANCH   5  14
BRANCH   4  17
ATOM     17  O   UNL     1      -4.597  -1.636 -21.363  1.00  0.00    -0.387 OA
ATOM     18  H   UNL     1      -3.838  -1.192 -20.901  1.00  0.00     0.211 HD
ENDBRANCH   4  17
TORSDOF 7
ENDMDL
MODEL 3
REMARK VINA RESULT:    -4.636      1.608      3.433
REMARK INTER + INTRA:          -6.328
REMARK INTER:                  -6.159
REMARK INTRA:                  -0.169
REMARK UNBOUND:                -0.337
REMARK SMILES CCO[C@H]1O[C@H](CO)[C@H](O)[C@H](O)[C@@H]1O
REMARK SMILES IDX 4 1 13 2 11 3 9 4 6 5 5 6 3 7 2 8 1 9 14 10 12 12 7 14 8 15
REMARK SMILES IDX 10 17
REMARK H PARENT 14 11 12 13 8 16 10 18
REMARK Flexibility Score: inf
ROOT
ATOM      1  C   UNL     1      -5.360   7.028 -12.960  1.00  0.00     0.281 C 
ATOM      2  C   UNL     1      -4.199   7.289 -11.969  1.00  0.00     0.202 C 
ATOM      3  C   UNL     1      -4.351   6.431 -10.693  1.00  0.00     0.179 C 
ATOM      4  C   UNL     1      -5.781   6.495 -10.132  1.00  0.00     0.177 C 
ATOM      5  C   UNL     1      -6.792   6.233 -11.273  1.00  0.00     0.178 C 
ATOM      6  O   UNL     1      -6.624   7.174 -12.321  1.00  0.00    -0.341 OA
ENDROOT
BRANCH   1   7
ATOM      7  O   UNL     1      -5.214   5.742 -13.541  1.00  0.00    -0.350 OA
BRANCH   7   8
ATOM      8  C   UNL     1      -5.664   5.757 -14.879  1.00  0.00     0.160 C 
ATOM      9  C   UNL     1      -4.507   6.142 -15.789  1.00  0.00     0.035 C 
ENDBRANCH   7   8
ENDBRANCH   1   7
BRANCH   2  10
ATOM     10  O   UNL     1      -4.083   8.657 -11.657  1.00  0.00    -0.385 OA
ATOM     11  H   UNL     1      -4.709   9.166 -12.232  1.00  0.00     0.211 HD
ENDBRANCH   2  10
BRANCH   3  12
ATOM     12  O   UNL     1      -3.435   6.839  -9.710  1.00  0.00    -0.387 OA
ATOM     13  H   UNL     1      -3.911   7.486  -9.125  1.00  0.00     0.211 HD
ENDBRANCH   3  12
BRANCH   5  14
ATOM     14  C   UNL     1      -8.246   6.308 -10.781  1.00  0.00     0.191 C 
BRANCH  14  15
ATOM     15  O   UNL     1      -8.722   5.040 -10.414  1.00  0.00    -0.394 OA
ATOM     16  H   UNL     1      -9.473   4.829 -11.028  1.00  0.00     0.210 HD
ENDBRANCH  14  15
ENDBRANCH   5  14
BRANCH   4  17
ATOM     17  O   UNL     1      -6.009   7.752  -9.544  1.00  0.00    -0.387 OA
ATOM     18  H   UNL     1      -5.212   7.967  -8.992  1.00  0.00     0.211 HD
ENDBRANCH   4  17
TORSDOF 7
ENDMDL
MODEL 4
REMARK VINA RESULT:    -4.635     11.299     13.407
REMARK INTER + INTRA:          -6.326
REMARK INTER:                  -5.982
REMARK INTRA:                  -0.345
REMARK UNBOUND:                -0.337
REMARK SMILES CCO[C@H]1O[C@H](CO)[C@H](O)[C@H](O)[C@@H]1O
REMARK SMILES IDX 4 1 13 2 11 3 9 4 6 5 5 6 3 7 2 8 1 9 14 10 12 12 7 14 8 15
REMARK SMILES IDX 10 17
REMARK H PARENT 14 11 12 13 8 16 10 18
REMARK Flexibility Score: inf
ROOT
ATOM      1  C   UNL     1      -4.755  -2.789 -19.205  1.00  0.00     0.281 C 
ATOM      2  C   UNL     1      -5.381  -2.130 -20.458  1.00  0.00     0.202 C 
ATOM      3  C   UNL     1      -6.906  -1.951 -20.291  1.00  0.00     0.179 C 
ATOM      4  C   UNL     1      -7.575  -3.230 -19.762  1.00  0.00     0.177 C 
ATOM      5  C   UNL     1      -6.795  -3.745 -18.530  1.00  0.00     0.178 C 
ATOM      6  O   UNL     1      -5.437  -3.991 -18.861  1.00  0.00    -0.341 OA
ENDROOT
BRANCH   1   7
ATOM      7  O   UNL     1      -4.751  -1.865 -18.129  1.00  0.00    -0.350 OA
BRANCH   7   8
ATOM      8  C   UNL     1      -4.038  -0.700 -18.487  1.00  0.00     0.160 C 
ATOM      9  C   UNL     1      -3.759   0.117 -17.235  1.00  0.00     0.035 C 
ENDBRANCH   7   8
ENDBRANCH   1   7
BRANCH   2  10
ATOM     10  O   UNL     1      -5.075  -2.849 -21.629  1.00  0.00    -0.385 OA
ATOM     11  H   UNL     1      -4.138  -2.649 -21.885  1.00  0.00     0.211 HD
ENDBRANCH   2  10
BRANCH   3  12
ATOM     12  O   UNL     1      -7.497  -1.573 -21.508  1.00  0.00    -0.387 OA
ATOM     13  H   UNL     1      -6.811  -1.707 -22.214  1.00  0.00     0.211 HD
ENDBRANCH   3  12
BRANCH   5  14
ATOM     14  C   UNL     1      -7.400  -5.041 -17.968  1.00  0.00     0.191 C 
BRANCH  14  15
ATOM     15  O   UNL     1      -8.692  -5.255 -18.470  1.00  0.00    -0.394 OA
ATOM     16  H   UNL     1      -8.676  -6.133 -18.933  1.00  0.00     0.210 HD
ENDBRANCH  14  15
ENDBRANCH   5  14
BRANCH   4  17
ATOM     17  O   UNL     1      -7.608  -4.206 -20.774  1.00  0.00    -0.387 OA
ATOM     18  H   UNL     1      -6.792  -4.086 -21.327  1.00  0.00     0.211 HD
ENDBRANCH   4  17
TORSDOF 7
ENDMDL
MODEL 5
REMARK VINA RESULT:    -4.630      1.996      3.720
REMARK INTER + INTRA:          -6.320
REMARK INTER:                  -6.115
REMARK INTRA:                  -0.205
REMARK UNBOUND:                -0.337
REMARK SMILES CCO[C@H]1O[C@H](CO)[C@H](O)[C@H](O)[C@@H]1O
REMARK SMILES IDX 4 1 13 2 11 3 9 4 6 5 5 6 3 7 2 8 1 9 14 10 12 12 7 14 8 15
REMARK SMILES IDX 10 17
REMARK H PARENT 14 11 12 13 8 16 10 18
REMARK Flexibility Score: inf
ROOT
ATOM      1  C   UNL     1      -7.440   6.810 -10.434  1.00  0.00     0.281 C 
ATOM      2  C   UNL     1      -7.513   7.022 -11.965  1.00  0.00     0.202 C 
ATOM      3  C   UNL     1      -6.234   6.504 -12.662  1.00  0.00     0.179 C 
ATOM      4  C   UNL     1      -4.962   6.987 -11.945  1.00  0.00     0.177 C 
ATOM      5  C   UNL     1      -5.090   6.711 -10.429  1.00  0.00     0.178 C 
ATOM      6  O   UNL     1      -6.239   7.353  -9.896  1.00  0.00    -0.341 OA
ENDROOT
BRANCH   1   7
ATOM      7  O   UNL     1      -7.570   5.430 -10.133  1.00  0.00    -0.350 OA
BRANCH   7   8
ATOM      8  C   UNL     1      -8.811   4.943 -10.598  1.00  0.00     0.160 C 
ATOM      9  C   UNL     1      -9.829   5.018  -9.471  1.00  0.00     0.035 C 
ENDBRANCH   7   8
ENDBRANCH   1   7
BRANCH   2  10
ATOM     10  O   UNL     1      -7.765   8.368 -12.291  1.00  0.00    -0.385 OA
ATOM     11  H   UNL     1      -7.343   8.943 -11.602  1.00  0.00     0.211 HD
ENDBRANCH   2  10
BRANCH   3  12
ATOM     12  O   UNL     1      -6.205   6.906 -14.007  1.00  0.00    -0.387 OA
ATOM     13  H   UNL     1      -6.831   6.311 -14.498  1.00  0.00     0.211 HD
ENDBRANCH   3  12
BRANCH   5  14
ATOM     14  C   UNL     1      -3.857   7.195  -9.650  1.00  0.00     0.191 C 
BRANCH  14  15
ATOM     15  O   UNL     1      -4.215   7.656  -8.374  1.00  0.00    -0.394 OA
ATOM     16  H   UNL     1      -3.373   7.919  -7.920  1.00  0.00     0.210 HD
ENDBRANCH  14  15
ENDBRANCH   5  14
BRANCH   4  17
ATOM     17  O   UNL     1      -4.768   8.359 -12.187  1.00  0.00    -0.387 OA
ATOM     18  H   UNL     1      -3.887   8.603 -11.800  1.00  0.00     0.211 HD
ENDBRANCH   4  17
TORSDOF 7
ENDMDL
MODEL 6
REMARK VINA RESULT:    -4.579      1.816      2.971
REMARK INTER + INTRA:          -6.255
REMARK INTER:                  -5.835
REMARK INTRA:                  -0.420
REMARK UNBOUND:                -0.337
REMARK SMILES CCO[C@H]1O[C@H](CO)[C@H](O)[C@H](O)[C@@H]1O
REMARK SMILES IDX 4 1 13 2 11 3 9 4 6 5 5 6 3 7 2 8 1 9 14 10 12 12 7 14 8 15
REMARK SMILES IDX 10 17
REMARK H PARENT 14 11 12 13 8 16 10 18
REMARK Flexibility Score: inf
ROOT
ATOM      1  C   UNL     1      -6.384   6.204 -11.197  1.00  0.00     0.281 C 
ATOM      2  C   UNL     1      -5.908   7.061 -10.000  1.00  0.00     0.202 C 
ATOM      3  C   UNL     1      -5.411   8.447 -10.468  1.00  0.00     0.179 C 
ATOM      4  C   UNL     1      -4.461   8.333 -11.672  1.00  0.00     0.177 C 
ATOM      5  C   UNL     1      -5.100   7.422 -12.746  1.00  0.00     0.178 C 
ATOM      6  O   UNL     1      -5.387   6.139 -12.212  1.00  0.00    -0.341 OA
ENDROOT
BRANCH   1   7
ATOM      7  O   UNL     1      -7.607   6.717 -11.699  1.00  0.00    -0.350 OA
BRANCH   7   8
ATOM      8  C   UNL     1      -8.648   6.495 -10.772  1.00  0.00     0.160 C 
ATOM      9  C   UNL     1      -8.908   5.001 -10.663  1.00  0.00     0.035 C 
ENDBRANCH   7   8
ENDBRANCH   1   7
BRANCH   2  10
ATOM     10  O   UNL     1      -4.927   6.394  -9.242  1.00  0.00    -0.385 OA
ATOM     11  H   UNL     1      -4.246   6.027  -9.862  1.00  0.00     0.211 HD
ENDBRANCH   2  10
BRANCH   3  12
ATOM     12  O   UNL     1      -4.770   9.125  -9.418  1.00  0.00    -0.387 OA
ATOM     13  H   UNL     1      -4.103   8.496  -9.036  1.00  0.00     0.211 HD
ENDBRANCH   3  12
BRANCH   5  14
ATOM     14  C   UNL     1      -4.186   7.247 -13.969  1.00  0.00     0.191 C 
BRANCH  14  15
ATOM     15  O   UNL     1      -3.356   8.364 -14.142  1.00  0.00    -0.394 OA
ATOM     16  H   UNL     1      -3.952   9.137 -14.323  1.00  0.00     0.210 HD
ENDBRANCH  14  15
ENDBRANCH   5  14
BRANCH   4  17
ATOM     17  O   UNL     1      -3.221   7.817 -11.256  1.00  0.00    -0.387 OA
ATOM     18  H   UNL     1      -3.370   7.355 -10.389  1.00  0.00     0.211 HD
ENDBRANCH   4  17
TORSDOF 7
ENDMDL
MODEL 7
REMARK VINA RESULT:    -4.526      1.484      4.046
REMARK INTER + INTRA:          -6.186
REMARK INTER:                  -5.816
REMARK INTRA:                  -0.371
REMARK UNBOUND:                -0.337
REMARK SMILES CCO[C@H]1O[C@H](CO)[C@H](O)[C@H](O)[C@@H]1O
REMARK SMILES IDX 4 1 13 2 11 3 9 4 6 5 5 6 3 7 2 8 1 9 14 10 12 12 7 14 8 15
REMARK SMILES IDX 10 17
REMARK H PARENT 14 11 12 13 8 16 10 18
REMARK Flexibility Score: inf
ROOT
ATOM      1  C   UNL     1      -5.142   7.580 -10.758  1.00  0.00     0.281 C 
ATOM      2  C   UNL     1      -6.606   7.309 -10.336  1.00  0.00     0.202 C 
ATOM      3  C   UNL     1      -7.226   6.168 -11.173  1.00  0.00     0.179 C 
ATOM      4  C   UNL     1      -6.949   6.350 -12.675  1.00  0.00     0.177 C 
ATOM      5  C   UNL     1      -5.444   6.632 -12.889  1.00  0.00     0.178 C 
ATOM      6  O   UNL     1      -5.040   7.783 -12.164  1.00  0.00    -0.341 OA
ENDROOT
BRANCH   1   7
ATOM      7  O   UNL     1      -4.313   6.514 -10.324  1.00  0.00    -0.350 OA
BRANCH   7   8
ATOM      8  C   UNL     1      -2.994   6.974 -10.117  1.00  0.00     0.160 C 
ATOM      9  C   UNL     1      -2.029   6.078 -10.878  1.00  0.00     0.035 C 
ENDBRANCH   7   8
ENDBRANCH   1   7
BRANCH   2  10
ATOM     10  O   UNL     1      -7.389   8.478 -10.404  1.00  0.00    -0.385 OA
ATOM     11  H   UNL     1      -7.791   8.639  -9.512  1.00  0.00     0.211 HD
ENDBRANCH   2  10
BRANCH   3  12
ATOM     12  O   UNL     1      -8.610   6.085 -10.951  1.00  0.00    -0.387 OA
ATOM     13  H   UNL     1      -8.882   6.937 -10.517  1.00  0.00     0.211 HD
ENDBRANCH   3  12
BRANCH   5  14
ATOM     14  C   UNL     1      -5.106   6.849 -14.372  1.00  0.00     0.191 C 
BRANCH  14  15
ATOM     15  O   UNL     1      -6.165   6.442 -15.197  1.00  0.00    -0.394 OA
ATOM     16  H   UNL     1      -6.914   6.190 -14.595  1.00  0.00     0.210 HD
ENDBRANCH  14  15
ENDBRANCH   5  14
BRANCH   4  17
ATOM     17  O   UNL     1      -7.731   7.403 -13.182  1.00  0.00    -0.387 OA
ATOM     18  H   UNL     1      -7.405   8.241 -12.761  1.00  0.00     0.211 HD
ENDBRANCH   4  17
TORSDOF 7
ENDMDL
MODEL 8
REMARK VINA RESULT:    -4.446      1.458      2.062
REMARK INTER + INTRA:          -6.082
REMARK INTER:                  -5.701
REMARK INTRA:                  -0.381
REMARK UNBOUND:                -0.337
REMARK SMILES CCO[C@H]1O[C@H](CO)[C@H](O)[C@H](O)[C@@H]1O
REMARK SMILES IDX 4 1 13 2 11 3 9 4 6 5 5 6 3 7 2 8 1 9 14 10 12 12 7 14 8 15
REMARK SMILES IDX 10 17
REMARK H PARENT 14 11 12 13 8 16 10 18
REMARK Flexibility Score: inf
ROOT
ATOM      1  C   UNL     1      -5.282   6.565 -13.126  1.00  0.00     0.281 C 
ATOM      2  C   UNL     1      -6.759   6.924 -12.838  1.00  0.00     0.202 C 
ATOM      3  C   UNL     1      -6.866   8.013 -11.747  1.00  0.00     0.179 C 
ATOM      4  C   UNL     1      -5.971   7.696 -10.538  1.00  0.00     0.177 C 
ATOM      5  C   UNL     1      -4.549   7.340 -11.030  1.00  0.00     0.178 C 
ATOM      6  O   UNL     1      -4.587   6.240 -11.927  1.00  0.00    -0.341 OA
ENDROOT
BRANCH   1   7
ATOM      7  O   UNL     1      -4.655   7.632 -13.820  1.00  0.00    -0.350 OA
BRANCH   7   8
ATOM      8  C   UNL     1      -3.847   7.130 -14.863  1.00  0.00     0.160 C 
ATOM      9  C   UNL     1      -4.639   6.101 -15.655  1.00  0.00     0.035 C 
ENDBRANCH   7   8
ENDBRANCH   1   7
BRANCH   2  10
ATOM     10  O   UNL     1      -7.513   5.784 -12.499  1.00  0.00    -0.385 OA
ATOM     11  H   UNL     1      -8.473   6.033 -12.486  1.00  0.00     0.211 HD
ENDBRANCH   2  10
BRANCH   3  12
ATOM     12  O   UNL     1      -8.198   8.165 -11.327  1.00  0.00    -0.387 OA
ATOM     13  H   UNL     1      -8.447   7.327 -10.855  1.00  0.00     0.211 HD
ENDBRANCH   3  12
BRANCH   5  14
ATOM     14  C   UNL     1      -3.609   6.987  -9.867  1.00  0.00     0.191 C 
BRANCH  14  15
ATOM     15  O   UNL     1      -4.068   7.539  -8.662  1.00  0.00    -0.394 OA
ATOM     16  H   UNL     1      -3.416   8.242  -8.404  1.00  0.00     0.210 HD
ENDBRANCH  14  15
ENDBRANCH   5  14
BRANCH   4  17
ATOM     17  O   UNL     1      -6.522   6.633  -9.799  1.00  0.00    -0.387 OA
ATOM     18  H   UNL     1      -7.478   6.851  -9.639  1.00  0.00     0.211 HD
ENDBRANCH   4  17
TORSDOF 7
ENDMDL
MODEL 9
REMARK VINA RESULT:    -4.390      1.854      3.847
REMARK INTER + INTRA:          -6.009
REMARK INTER:                  -5.754
REMARK INTRA:                  -0.255
REMARK UNBOUND:                -0.337
REMARK SMILES CCO[C@H]1O[C@H](CO)[C@H](O)[C@H](O)[C@@H]1O
REMARK SMILES IDX 4 1 13 2 11 3 9 4 6 5 5 6 3 7 2 8 1 9 14 10 12 12 7 14 8 15
REMARK SMILES IDX 10 17
REMARK H PARENT 14 11 12 13 8 16 10 18
REMARK Flexibility Score: inf
ROOT
ATOM      1  C   UNL     1      -7.103   6.831 -12.254  1.00  0.00     0.281 C 
ATOM      2  C   UNL     1      -5.696   6.543 -12.829  1.00  0.00     0.202 C 
ATOM      3  C   UNL     1      -4.632   6.506 -11.708  1.00  0.00     0.179 C 
ATOM      4  C   UNL     1      -4.770   7.703 -10.754  1.00  0.00     0.177 C 
ATOM      5  C   UNL     1      -6.246   7.840 -10.311  1.00  0.00     0.178 C 
ATOM      6  O   UNL     1      -7.097   7.996 -11.436  1.00  0.00    -0.341 OA
ENDROOT
BRANCH   1   7
ATOM      7  O   UNL     1      -7.573   5.697 -11.544  1.00  0.00    -0.350 OA
BRANCH   7   8
ATOM      8  C   UNL     1      -8.946   5.841 -11.246  1.00  0.00     0.160 C 
ATOM      9  C   UNL     1      -9.277   5.012 -10.014  1.00  0.00     0.035 C 
ENDBRANCH   7   8
ENDBRANCH   1   7
BRANCH   2  10
ATOM     10  O   UNL     1      -5.348   7.464 -13.835  1.00  0.00    -0.385 OA
ATOM     11  H   UNL     1      -5.676   8.361 -13.568  1.00  0.00     0.211 HD
ENDBRANCH   2  10
BRANCH   3  12
ATOM     12  O   UNL     1      -3.338   6.477 -12.253  1.00  0.00    -0.387 OA
ATOM     13  H   UNL     1      -3.395   6.902 -13.149  1.00  0.00     0.211 HD
ENDBRANCH   3  12
BRANCH   5  14
ATOM     14  C   UNL     1      -6.455   9.039  -9.373  1.00  0.00     0.191 C 
BRANCH  14  15
ATOM     15  O   UNL     1      -5.423   9.125  -8.426  1.00  0.00    -0.394 OA
ATOM     16  H   UNL     1      -4.574   8.963  -8.915  1.00  0.00     0.210 HD
ENDBRANCH  14  15
ENDBRANCH   5  14
BRANCH   4  17
ATOM     17  O   UNL     1      -4.331   8.877 -11.393  1.00  0.00    -0.387 OA
ATOM     18  H   UNL     1      -3.940   9.464 -10.694  1.00  0.00     0.211 HD
ENDBRANCH   4  17
TORSDOF 7
ENDMDL
