MODEL 1
REMARK VINA RESULT:    -5.266      0.000      0.000
REMARK INTER + INTRA:          -6.319
REMARK INTER:                  -6.190
REMARK INTRA:                  -0.129
REMARK UNBOUND:                -0.129
REMARK SMILES O=C([O-])C=Cc1ccc(O)c(O)c1
REMARK SMILES IDX 6 1 13 2 7 3 11 4 8 5 9 6 5 7 4 8 2 9 1 10 3 11 12 12 10 14
REMARK H PARENT 12 13 10 15
REMARK Flexibility Score: inf
ROOT
ATOM      1  C   UNL     1     -20.943  -3.318  20.382  1.00  0.00    -0.022 A 
ATOM      2  C   UNL     1     -21.123  -1.979  19.997  1.00  0.00     0.058 A 
ATOM      3  C   UNL     1     -21.234  -3.688  21.710  1.00  0.00     0.012 A 
ATOM      4  C   UNL     1     -21.608  -1.030  20.909  1.00  0.00     0.157 A 
ATOM      5  C   UNL     1     -21.716  -2.742  22.618  1.00  0.00     0.051 A 
ATOM      6  C   UNL     1     -21.908  -1.413  22.221  1.00  0.00     0.157 A 
ENDROOT
BRANCH   1   7
ATOM      7  C   UNL     1     -20.418  -4.280  19.381  1.00  0.00     0.010 C 
ATOM      8  C   UNL     1     -19.301  -4.078  18.668  1.00  0.00     0.025 C 
BRANCH   8   9
ATOM      9  C   UNL     1     -18.811  -5.066  17.695  1.00  0.00     0.064 C 
ATOM     10  O   UNL     1     -18.774  -6.284  18.012  1.00  0.00    -0.545 OA
ATOM     11  O   UNL     1     -18.384  -4.677  16.430  1.00  0.00    -0.545 OA
ENDBRANCH   8   9
ENDBRANCH   1   7
BRANCH   4  12
ATOM     12  O   UNL     1     -21.794   0.295  20.517  1.00  0.00    -0.504 OA
ATOM     13  H   UNL     1     -22.015   1.021  21.188  1.00  0.00     0.293 HD
ENDBRANCH   4  12
BRANCH   6  14
ATOM     14  O   UNL     1     -22.389  -0.468  23.125  1.00  0.00    -0.504 OA
ATOM     15  H   UNL     1     -22.244   0.525  22.982  1.00  0.00     0.293 HD
ENDBRANCH   6  14
TORSDOF 4
ENDMDL
MODEL 2
REMARK VINA RESULT:    -5.237      3.145      4.114
REMARK INTER + INTRA:          -6.284
REMARK INTER:                  -6.159
REMARK INTRA:                  -0.125
REMARK UNBOUND:                -0.129
REMARK SMILES O=C([O-])C=Cc1ccc(O)c(O)c1
REMARK SMILES IDX 6 1 13 2 7 3 11 4 8 5 9 6 5 7 4 8 2 9 1 10 3 11 12 12 10 14
REMARK H PARENT 12 13 10 15
REMARK Flexibility Score: inf
ROOT
ATOM      1  C   UNL     1     -21.490  -2.434  18.767  1.00  0.00    -0.022 A 
ATOM      2  C   UNL     1     -21.761  -1.616  19.877  1.00  0.00     0.058 A 
ATOM      3  C   UNL     1     -20.995  -3.734  18.986  1.00  0.00     0.012 A 
ATOM      4  C   UNL     1     -21.567  -2.092  21.182  1.00  0.00     0.157 A 
ATOM      5  C   UNL     1     -20.801  -4.207  20.287  1.00  0.00     0.051 A 
ATOM      6  C   UNL     1     -21.088  -3.391  21.387  1.00  0.00     0.157 A 
ENDROOT
BRANCH   1   7
ATOM      7  C   UNL     1     -21.703  -1.878  17.407  1.00  0.00     0.010 C 
ATOM      8  C   UNL     1     -22.903  -1.530  16.924  1.00  0.00     0.025 C 
BRANCH   8   9
ATOM      9  C   UNL     1     -23.065  -0.972  15.573  1.00  0.00     0.064 C 
ATOM     10  O   UNL     1     -23.195  -1.749  14.591  1.00  0.00    -0.545 OA
ATOM     11  O   UNL     1     -23.074   0.402  15.360  1.00  0.00    -0.545 OA
ENDBRANCH   8   9
ENDBRANCH   1   7
BRANCH   4  12
ATOM     12  O   UNL     1     -21.847  -1.278  22.279  1.00  0.00    -0.504 OA
ATOM     13  H   UNL     1     -22.659  -1.437  22.865  1.00  0.00     0.293 HD
ENDBRANCH   4  12
BRANCH   6  14
ATOM     14  O   UNL     1     -20.897  -3.861  22.685  1.00  0.00    -0.504 OA
ATOM     15  H   UNL     1     -20.020  -4.281  22.972  1.00  0.00     0.293 HD
ENDBRANCH   6  14
TORSDOF 4
ENDMDL
MODEL 3
REMARK VINA RESULT:    -5.072      1.561      2.502
REMARK INTER + INTRA:          -6.091
REMARK INTER:                  -5.965
REMARK INTRA:                  -0.125
REMARK UNBOUND:                -0.129
REMARK SMILES O=C([O-])C=Cc1ccc(O)c(O)c1
REMARK SMILES IDX 6 1 13 2 7 3 11 4 8 5 9 6 5 7 4 8 2 9 1 10 3 11 12 12 10 14
REMARK H PARENT 12 13 10 15
REMARK Flexibility Score: inf
ROOT
ATOM      1  C   UNL     1     -20.590  -3.159  19.162  1.00  0.00    -0.022 A 
ATOM      2  C   UNL     1     -20.491  -3.856  20.378  1.00  0.00     0.058 A 
ATOM      3  C   UNL     1     -21.275  -1.928  19.139  1.00  0.00     0.012 A 
ATOM      4  C   UNL     1     -21.040  -3.327  21.554  1.00  0.00     0.157 A 
ATOM      5  C   UNL     1     -21.823  -1.401  20.313  1.00  0.00     0.051 A 
ATOM      6  C   UNL     1     -21.705  -2.096  21.522  1.00  0.00     0.157 A 
ENDROOT
BRANCH   1   7
ATOM      7  C   UNL     1     -20.001  -3.768  17.944  1.00  0.00     0.010 C 
ATOM      8  C   UNL     1     -18.826  -3.396  17.419  1.00  0.00     0.025 C 
BRANCH   8   9
ATOM      9  C   UNL     1     -18.274  -4.036  16.215  1.00  0.00     0.064 C 
ATOM     10  O   UNL     1     -17.709  -3.330  15.340  1.00  0.00    -0.545 OA
ATOM     11  O   UNL     1     -18.370  -5.411  16.025  1.00  0.00    -0.545 OA
ENDBRANCH   8   9
ENDBRANCH   1   7
BRANCH   4  12
ATOM     12  O   UNL     1     -20.928  -4.020  22.759  1.00  0.00    -0.504 OA
ATOM     13  H   UNL     1     -20.756  -5.018  22.784  1.00  0.00     0.293 HD
ENDBRANCH   4  12
BRANCH   6  14
ATOM     14  O   UNL     1     -22.249  -1.572  22.693  1.00  0.00    -0.504 OA
ATOM     15  H   UNL     1     -22.568  -2.173  23.444  1.00  0.00     0.293 HD
ENDBRANCH   6  14
TORSDOF 4
ENDMDL
MODEL 4
REMARK VINA RESULT:    -4.962     13.657     17.138
REMARK INTER + INTRA:          -5.961
REMARK INTER:                  -5.826
REMARK INTRA:                  -0.135
REMARK UNBOUND:                -0.129
REMARK SMILES O=C([O-])C=Cc1ccc(O)c(O)c1
REMARK SMILES IDX 6 1 13 2 7 3 11 4 8 5 9 6 5 7 4 8 2 9 1 10 3 11 12 12 10 14
REMARK H PARENT 12 13 10 15
REMARK Flexibility Score: inf
ROOT
ATOM      1  C   UNL     1      -9.408  -6.071   8.133  1.00  0.00    -0.022 A 
ATOM      2  C   UNL     1     -10.257  -5.264   7.356  1.00  0.00     0.058 A 
ATOM      3  C   UNL     1      -8.057  -6.199   7.753  1.00  0.00     0.012 A 
ATOM      4  C   UNL     1      -9.765  -4.577   6.238  1.00  0.00     0.157 A 
ATOM      5  C   UNL     1      -7.568  -5.514   6.637  1.00  0.00     0.051 A 
ATOM      6  C   UNL     1      -8.418  -4.699   5.879  1.00  0.00     0.157 A 
ENDROOT
BRANCH   1   7
ATOM      7  C   UNL     1      -9.981  -6.786   9.301  1.00  0.00     0.010 C 
ATOM      8  C   UNL     1     -11.294  -6.862   9.557  1.00  0.00     0.025 C 
BRANCH   8   9
ATOM      9  C   UNL     1     -11.817  -7.593  10.722  1.00  0.00     0.064 C 
ATOM     10  O   UNL     1     -11.231  -8.634  11.116  1.00  0.00    -0.545 OA
ATOM     11  O   UNL     1     -12.952  -7.153  11.395  1.00  0.00    -0.545 OA
ENDBRANCH   8   9
ENDBRANCH   1   7
BRANCH   4  12
ATOM     12  O   UNL     1     -10.611  -3.769   5.478  1.00  0.00    -0.504 OA
ATOM     13  H   UNL     1     -11.145  -4.142   4.701  1.00  0.00     0.293 HD
ENDBRANCH   4  12
BRANCH   6  14
ATOM     14  O   UNL     1      -7.932  -4.014   4.767  1.00  0.00    -0.504 OA
ATOM     15  H   UNL     1      -6.997  -4.177   4.411  1.00  0.00     0.293 HD
ENDBRANCH   6  14
TORSDOF 4
ENDMDL
MODEL 5
REMARK VINA RESULT:    -4.962      1.183      6.044
REMARK INTER + INTRA:          -5.961
REMARK INTER:                  -5.819
REMARK INTRA:                  -0.141
REMARK UNBOUND:                -0.129
REMARK SMILES O=C([O-])C=Cc1ccc(O)c(O)c1
REMARK SMILES IDX 6 1 13 2 7 3 11 4 8 5 9 6 5 7 4 8 2 9 1 10 3 11 12 12 10 14
REMARK H PARENT 12 13 10 15
REMARK Flexibility Score: inf
ROOT
ATOM      1  C   UNL     1     -20.226  -3.999  19.674  1.00  0.00    -0.022 A 
ATOM      2  C   UNL     1     -19.778  -5.313  19.453  1.00  0.00     0.058 A 
ATOM      3  C   UNL     1     -19.962  -3.018  18.699  1.00  0.00     0.012 A 
ATOM      4  C   UNL     1     -19.102  -5.649  18.271  1.00  0.00     0.157 A 
ATOM      5  C   UNL     1     -19.288  -3.355  17.521  1.00  0.00     0.051 A 
ATOM      6  C   UNL     1     -18.860  -4.669  17.302  1.00  0.00     0.157 A 
ENDROOT
BRANCH   1   7
ATOM      7  C   UNL     1     -20.926  -3.693  20.946  1.00  0.00     0.010 C 
ATOM      8  C   UNL     1     -21.451  -2.494  21.238  1.00  0.00     0.025 C 
BRANCH   8   9
ATOM      9  C   UNL     1     -22.148  -2.239  22.508  1.00  0.00     0.064 C 
ATOM     10  O   UNL     1     -22.792  -3.168  23.060  1.00  0.00    -0.545 OA
ATOM     11  O   UNL     1     -22.110  -0.985  23.108  1.00  0.00    -0.545 OA
ENDBRANCH   8   9
ENDBRANCH   1   7
BRANCH   4  12
ATOM     12  O   UNL     1     -18.670  -6.957  18.054  1.00  0.00    -0.504 OA
ATOM     13  H   UNL     1     -18.068  -7.195  17.274  1.00  0.00     0.293 HD
ENDBRANCH   4  12
BRANCH   6  14
ATOM     14  O   UNL     1     -18.189  -5.007  16.129  1.00  0.00    -0.504 OA
ATOM     15  H   UNL     1     -18.428  -4.582  15.240  1.00  0.00     0.293 HD
ENDBRANCH   6  14
TORSDOF 4
ENDMDL
MODEL 6
REMARK VINA RESULT:    -4.942      1.964      5.635
REMARK INTER + INTRA:          -5.937
REMARK INTER:                  -5.806
REMARK INTRA:                  -0.131
REMARK UNBOUND:                -0.129
REMARK SMILES O=C([O-])C=Cc1ccc(O)c(O)c1
REMARK SMILES IDX 6 1 13 2 7 3 11 4 8 5 9 6 5 7 4 8 2 9 1 10 3 11 12 12 10 14
REMARK H PARENT 12 13 10 15
REMARK Flexibility Score: inf
ROOT
ATOM      1  C   UNL     1     -20.204  -2.955  19.266  1.00  0.00    -0.022 A 
ATOM      2  C   UNL     1     -20.937  -2.352  18.230  1.00  0.00     0.058 A 
ATOM      3  C   UNL     1     -18.994  -3.604  18.954  1.00  0.00     0.012 A 
ATOM      4  C   UNL     1     -20.462  -2.372  16.911  1.00  0.00     0.157 A 
ATOM      5  C   UNL     1     -18.522  -3.625  17.638  1.00  0.00     0.051 A 
ATOM      6  C   UNL     1     -19.250  -3.007  16.615  1.00  0.00     0.157 A 
ENDROOT
BRANCH   1   7
ATOM      7  C   UNL     1     -20.756  -2.914  20.643  1.00  0.00     0.010 C 
ATOM      8  C   UNL     1     -21.624  -1.987  21.071  1.00  0.00     0.025 C 
BRANCH   8   9
ATOM      9  C   UNL     1     -22.155  -1.993  22.443  1.00  0.00     0.064 C 
ATOM     10  O   UNL     1     -22.126  -0.936  23.125  1.00  0.00    -0.545 OA
ATOM     11  O   UNL     1     -22.686  -3.150  23.003  1.00  0.00    -0.545 OA
ENDBRANCH   8   9
ENDBRANCH   1   7
BRANCH   4  12
ATOM     12  O   UNL     1     -21.189  -1.762  15.890  1.00  0.00    -0.504 OA
ATOM     13  H   UNL     1     -22.154  -1.480  16.020  1.00  0.00     0.293 HD
ENDBRANCH   4  12
BRANCH   6  14
ATOM     14  O   UNL     1     -18.781  -3.025  15.303  1.00  0.00    -0.504 OA
ATOM     15  H   UNL     1     -18.041  -3.655  15.013  1.00  0.00     0.293 HD
ENDBRANCH   6  14
TORSDOF 4
ENDMDL
MODEL 7
REMARK VINA RESULT:    -4.847      2.122      2.868
REMARK INTER + INTRA:          -5.826
REMARK INTER:                  -5.693
REMARK INTRA:                  -0.132
REMARK UNBOUND:                -0.129
REMARK SMILES O=C([O-])C=Cc1ccc(O)c(O)c1
REMARK SMILES IDX 6 1 13 2 7 3 11 4 8 5 9 6 5 7 4 8 2 9 1 10 3 11 12 12 10 14
REMARK H PARENT 12 13 10 15
REMARK Flexibility Score: inf
ROOT
ATOM      1  C   UNL     1     -19.486  -3.265  17.821  1.00  0.00    -0.022 A 
ATOM      2  C   UNL     1     -20.696  -2.575  17.640  1.00  0.00     0.058 A 
ATOM      3  C   UNL     1     -19.013  -3.476  19.132  1.00  0.00     0.012 A 
ATOM      4  C   UNL     1     -21.436  -2.126  18.743  1.00  0.00     0.157 A 
ATOM      5  C   UNL     1     -19.751  -3.026  20.231  1.00  0.00     0.051 A 
ATOM      6  C   UNL     1     -20.964  -2.354  20.041  1.00  0.00     0.157 A 
ENDROOT
BRANCH   1   7
ATOM      7  C   UNL     1     -18.736  -3.711  16.621  1.00  0.00     0.010 C 
ATOM      8  C   UNL     1     -18.434  -4.992  16.363  1.00  0.00     0.025 C 
BRANCH   8   9
ATOM      9  C   UNL     1     -17.698  -5.389  15.153  1.00  0.00     0.064 C 
ATOM     10  O   UNL     1     -18.055  -6.416  14.520  1.00  0.00    -0.545 OA
ATOM     11  O   UNL     1     -16.612  -4.649  14.698  1.00  0.00    -0.545 OA
ENDBRANCH   8   9
ENDBRANCH   1   7
BRANCH   4  12
ATOM     12  O   UNL     1     -22.642  -1.451  18.556  1.00  0.00    -0.504 OA
ATOM     13  H   UNL     1     -23.215  -1.160  19.339  1.00  0.00     0.293 HD
ENDBRANCH   4  12
BRANCH   6  14
ATOM     14  O   UNL     1     -21.702  -1.906  21.134  1.00  0.00    -0.504 OA
ATOM     15  H   UNL     1     -22.648  -1.559  21.029  1.00  0.00     0.293 HD
ENDBRANCH   6  14
TORSDOF 4
ENDMDL
MODEL 8
REMARK VINA RESULT:    -4.804      3.472      4.735
REMARK INTER + INTRA:          -5.775
REMARK INTER:                  -5.646
REMARK INTRA:                  -0.129
REMARK UNBOUND:                -0.129
REMARK SMILES O=C([O-])C=Cc1ccc(O)c(O)c1
REMARK SMILES IDX 6 1 13 2 7 3 11 4 8 5 9 6 5 7 4 8 2 9 1 10 3 11 12 12 10 14
REMARK H PARENT 12 13 10 15
REMARK Flexibility Score: inf
ROOT
ATOM      1  C   UNL     1     -21.590  -2.166  18.539  1.00  0.00    -0.022 A 
ATOM      2  C   UNL     1     -21.142  -3.497  18.564  1.00  0.00     0.058 A 
ATOM      3  C   UNL     1     -21.762  -1.484  19.760  1.00  0.00     0.012 A 
ATOM      4  C   UNL     1     -20.846  -4.131  19.779  1.00  0.00     0.157 A 
ATOM      5  C   UNL     1     -21.467  -2.117  20.971  1.00  0.00     0.051 A 
ATOM      6  C   UNL     1     -21.006  -3.438  20.985  1.00  0.00     0.157 A 
ENDROOT
BRANCH   1   7
ATOM      7  C   UNL     1     -21.899  -1.545  17.227  1.00  0.00     0.010 C 
ATOM      8  C   UNL     1     -23.131  -1.485  16.703  1.00  0.00     0.025 C 
BRANCH   8   9
ATOM      9  C   UNL     1     -23.393  -0.848  15.403  1.00  0.00     0.064 C 
ATOM     10  O   UNL     1     -22.866   0.264  15.139  1.00  0.00    -0.545 OA
ATOM     11  O   UNL     1     -24.217  -1.453  14.460  1.00  0.00    -0.545 OA
ENDBRANCH   8   9
ENDBRANCH   1   7
BRANCH   4  12
ATOM     12  O   UNL     1     -20.392  -5.449  19.795  1.00  0.00    -0.504 OA
ATOM     13  H   UNL     1     -20.219  -5.941  20.664  1.00  0.00     0.293 HD
ENDBRANCH   4  12
BRANCH   6  14
ATOM     14  O   UNL     1     -20.711  -4.071  22.191  1.00  0.00    -0.504 OA
ATOM     15  H   UNL     1     -20.344  -5.015  22.218  1.00  0.00     0.293 HD
ENDBRANCH   6  14
TORSDOF 4
ENDMDL
MODEL 9
REMARK VINA RESULT:    -4.744     15.907     17.138
REMARK INTER + INTRA:          -5.705
REMARK INTER:                  -5.572
REMARK INTRA:                  -0.133
REMARK UNBOUND:                -0.129
REMARK SMILES O=C([O-])C=Cc1ccc(O)c(O)c1
REMARK SMILES IDX 6 1 13 2 7 3 11 4 8 5 9 6 5 7 4 8 2 9 1 10 3 11 12 12 10 14
REMARK H PARENT 12 13 10 15
REMARK Flexibility Score: inf
ROOT
ATOM      1  C   UNL     1      -8.141  -6.257   8.918  1.00  0.00    -0.022 A 
ATOM      2  C   UNL     1      -9.517  -6.088   9.146  1.00  0.00     0.058 A 
ATOM      3  C   UNL     1      -7.584  -5.762   7.723  1.00  0.00     0.012 A 
ATOM      4  C   UNL     1     -10.319  -5.416   8.213  1.00  0.00     0.157 A 
ATOM      5  C   UNL     1      -8.385  -5.093   6.793  1.00  0.00     0.051 A 
ATOM      6  C   UNL     1      -9.752  -4.915   7.036  1.00  0.00     0.157 A 
ENDROOT
BRANCH   1   7
ATOM      7  C   UNL     1      -7.337  -6.985   9.932  1.00  0.00     0.010 C 
ATOM      8  C   UNL     1      -7.828  -7.417  11.101  1.00  0.00     0.025 C 
BRANCH   8   9
ATOM      9  C   UNL     1      -6.997  -8.146  12.072  1.00  0.00     0.064 C 
ATOM     10  O   UNL     1      -6.673  -7.589  13.153  1.00  0.00    -0.545 OA
ATOM     11  O   UNL     1      -6.560  -9.441  11.814  1.00  0.00    -0.545 OA
ENDBRANCH   8   9
ENDBRANCH   1   7
BRANCH   4  12
ATOM     12  O   UNL     1     -11.682  -5.242   8.450  1.00  0.00    -0.504 OA
ATOM     13  H   UNL     1     -12.091  -5.429   9.359  1.00  0.00     0.293 HD
ENDBRANCH   4  12
BRANCH   6  14
ATOM     14  O   UNL     1     -10.552  -4.247   6.111  1.00  0.00    -0.504 OA
ATOM     15  H   UNL     1     -11.563  -4.314   6.139  1.00  0.00     0.293 HD
ENDBRANCH   6  14
TORSDOF 4
ENDMDL
