MODEL 1
REMARK VINA RESULT:    -5.375      0.000      0.000
REMARK INTER + INTRA:          -7.805
REMARK INTER:                  -7.260
REMARK INTRA:                  -0.545
REMARK UNBOUND:                -0.545
REMARK SMILES COc1ccc(-c2cc(=O)c3c(OC)c(OC)c(OC)cc3o2)cc1OC
REMARK SMILES IDX 7 1 8 2 9 3 10 4 11 5 12 6 15 7 18 8 21 9 22 10 23 11 6 12
REMARK SMILES IDX 3 13 25 14 4 15 24 16 5 17 2 18 1 19 26 20 27 21 13 22 14 23
REMARK SMILES IDX 19 24 20 25 16 26 17 27
REMARK H PARENT
REMARK Flexibility Score: inf
ROOT
ATOM      1  C   UNL     1      15.189  49.750  31.704  1.00  0.00     0.138 A 
ATOM      2  C   UNL     1      16.256  49.405  30.859  1.00  0.00     0.100 A 
ATOM      3  C   UNL     1      16.352  48.101  30.373  1.00  0.00     0.197 A 
ATOM      4  O   UNL     1      17.335  47.795  29.646  1.00  0.00    -0.289 OA
ATOM      5  C   UNL     1      15.369  47.151  30.724  1.00  0.00     0.111 A 
ATOM      6  C   UNL     1      15.371  45.816  30.247  1.00  0.00     0.179 A 
ATOM      7  C   UNL     1      14.418  44.889  30.743  1.00  0.00     0.204 A 
ATOM      8  C   UNL     1      13.409  45.325  31.614  1.00  0.00     0.168 A 
ATOM      9  C   UNL     1      13.373  46.666  32.029  1.00  0.00     0.098 A 
ATOM     10  C   UNL     1      14.347  47.567  31.606  1.00  0.00     0.146 A 
ATOM     11  O   UNL     1      14.300  48.821  32.045  1.00  0.00    -0.456 OA
ENDROOT
BRANCH   1  12
ATOM     12  C   UNL     1      15.035  51.121  32.251  1.00  0.00     0.021 A 
ATOM     13  C   UNL     1      14.775  53.713  33.341  1.00  0.00     0.160 A 
ATOM     14  C   UNL     1      13.805  53.229  32.451  1.00  0.00     0.161 A 
ATOM     15  C   UNL     1      15.865  52.897  33.690  1.00  0.00     0.051 A 
ATOM     16  C   UNL     1      13.935  51.933  31.913  1.00  0.00     0.062 A 
ATOM     17  C   UNL     1      15.988  51.615  33.155  1.00  0.00     0.016 A 
BRANCH  13  18
ATOM     18  O   UNL     1      14.618  55.010  33.857  1.00  0.00    -0.493 OA
ATOM     19  C   UNL     1      15.144  56.187  33.253  1.00  0.00     0.278 C 
ENDBRANCH  13  18
BRANCH  14  20
ATOM     20  O   UNL     1      12.722  54.063  32.129  1.00  0.00    -0.493 OA
ATOM     21  C   UNL     1      11.418  53.951  32.690  1.00  0.00     0.278 C 
ENDBRANCH  14  20
ENDBRANCH   1  12
BRANCH   6  22
ATOM     22  O   UNL     1      16.283  45.422  29.265  1.00  0.00    -0.492 OA
ATOM     23  C   UNL     1      15.915  45.395  27.889  1.00  0.00     0.278 C 
ENDBRANCH   6  22
BRANCH   8  24
ATOM     24  O   UNL     1      12.459  44.388  32.053  1.00  0.00    -0.493 OA
ATOM     25  C   UNL     1      12.342  43.921  33.393  1.00  0.00     0.278 C 
ENDBRANCH   8  24
BRANCH   7  26
ATOM     26  O   UNL     1      14.421  43.521  30.409  1.00  0.00    -0.490 OA
ATOM     27  C   UNL     1      13.724  42.922  29.321  1.00  0.00     0.278 C 
ENDBRANCH   7  26
TORSDOF 6
ENDMDL
MODEL 2
REMARK VINA RESULT:    -5.261      2.012      8.206
REMARK INTER + INTRA:          -7.651
REMARK INTER:                  -6.936
REMARK INTRA:                  -0.715
REMARK UNBOUND:                -0.545
REMARK SMILES COc1ccc(-c2cc(=O)c3c(OC)c(OC)c(OC)cc3o2)cc1OC
REMARK SMILES IDX 7 1 8 2 9 3 10 4 11 5 12 6 15 7 18 8 21 9 22 10 23 11 6 12
REMARK SMILES IDX 3 13 25 14 4 15 24 16 5 17 2 18 1 19 26 20 27 21 13 22 14 23
REMARK SMILES IDX 19 24 20 25 16 26 17 27
REMARK H PARENT
REMARK Flexibility Score: inf
ROOT
ATOM      1  C   UNL     1      14.393  49.100  31.358  1.00  0.00     0.138 A 
ATOM      2  C   UNL     1      14.059  49.648  30.109  1.00  0.00     0.100 A 
ATOM      3  C   UNL     1      14.157  51.026  29.917  1.00  0.00     0.197 A 
ATOM      4  O   UNL     1      13.818  51.509  28.803  1.00  0.00    -0.289 OA
ATOM      5  C   UNL     1      14.602  51.850  30.974  1.00  0.00     0.111 A 
ATOM      6  C   UNL     1      14.764  53.253  30.854  1.00  0.00     0.179 A 
ATOM      7  C   UNL     1      15.098  54.024  31.997  1.00  0.00     0.204 A 
ATOM      8  C   UNL     1      15.379  53.384  33.212  1.00  0.00     0.168 A 
ATOM      9  C   UNL     1      15.283  51.986  33.306  1.00  0.00     0.098 A 
ATOM     10  C   UNL     1      14.885  51.226  32.209  1.00  0.00     0.146 A 
ATOM     11  O   UNL     1      14.774  49.908  32.344  1.00  0.00    -0.456 OA
ENDROOT
BRANCH   1  12
ATOM     12  C   UNL     1      14.309  47.642  31.621  1.00  0.00     0.021 A 
ATOM     13  C   UNL     1      14.144  44.858  32.063  1.00  0.00     0.160 A 
ATOM     14  C   UNL     1      13.747  45.749  33.070  1.00  0.00     0.161 A 
ATOM     15  C   UNL     1      14.612  45.361  30.836  1.00  0.00     0.051 A 
ATOM     16  C   UNL     1      13.826  47.139  32.844  1.00  0.00     0.062 A 
ATOM     17  C   UNL     1      14.687  46.737  30.619  1.00  0.00     0.016 A 
BRANCH  13  18
ATOM     18  O   UNL     1      14.056  43.480  32.319  1.00  0.00    -0.493 OA
ATOM     19  C   UNL     1      13.347  42.552  31.506  1.00  0.00     0.278 C 
ENDBRANCH  13  18
BRANCH  14  20
ATOM     20  O   UNL     1      13.275  45.217  34.281  1.00  0.00    -0.493 OA
ATOM     21  C   UNL     1      11.918  45.265  34.712  1.00  0.00     0.278 C 
ENDBRANCH  14  20
ENDBRANCH   1  12
BRANCH   6  22
ATOM     22  O   UNL     1      14.631  53.871  29.608  1.00  0.00    -0.492 OA
ATOM     23  C   UNL     1      15.769  54.359  28.905  1.00  0.00     0.278 C 
ENDBRANCH   6  22
BRANCH   8  24
ATOM     24  O   UNL     1      15.746  54.177  34.312  1.00  0.00    -0.493 OA
ATOM     25  C   UNL     1      14.858  54.581  35.350  1.00  0.00     0.278 C 
ENDBRANCH   8  24
BRANCH   7  26
ATOM     26  O   UNL     1      15.165  55.430  31.989  1.00  0.00    -0.490 OA
ATOM     27  C   UNL     1      14.059  56.324  32.076  1.00  0.00     0.278 C 
ENDBRANCH   7  26
TORSDOF 6
ENDMDL
MODEL 3
REMARK VINA RESULT:    -5.113      1.938      8.940
REMARK INTER + INTRA:          -7.452
REMARK INTER:                  -6.783
REMARK INTRA:                  -0.669
REMARK UNBOUND:                -0.545
REMARK SMILES COc1ccc(-c2cc(=O)c3c(OC)c(OC)c(OC)cc3o2)cc1OC
REMARK SMILES IDX 7 1 8 2 9 3 10 4 11 5 12 6 15 7 18 8 21 9 22 10 23 11 6 12
REMARK SMILES IDX 3 13 25 14 4 15 24 16 5 17 2 18 1 19 26 20 27 21 13 22 14 23
REMARK SMILES IDX 19 24 20 25 16 26 17 27
REMARK H PARENT
REMARK Flexibility Score: inf
ROOT
ATOM      1  C   UNL     1      15.161  50.657  31.756  1.00  0.00     0.138 A 
ATOM      2  C   UNL     1      15.055  50.917  33.131  1.00  0.00     0.100 A 
ATOM      3  C   UNL     1      14.772  52.212  33.564  1.00  0.00     0.197 A 
ATOM      4  O   UNL     1      14.717  52.439  34.803  1.00  0.00    -0.289 OA
ATOM      5  C   UNL     1      14.582  53.241  32.616  1.00  0.00     0.111 A 
ATOM      6  C   UNL     1      14.258  54.575  32.968  1.00  0.00     0.179 A 
ATOM      7  C   UNL     1      14.205  55.575  31.963  1.00  0.00     0.204 A 
ATOM      8  C   UNL     1      14.359  55.219  30.616  1.00  0.00     0.168 A 
ATOM      9  C   UNL     1      14.613  53.883  30.269  1.00  0.00     0.098 A 
ATOM     10  C   UNL     1      14.740  52.905  31.253  1.00  0.00     0.146 A 
ATOM     11  O   UNL     1      15.013  51.656  30.889  1.00  0.00    -0.456 OA
ENDROOT
BRANCH   1  12
ATOM     12  C   UNL     1      15.460  49.299  31.236  1.00  0.00     0.021 A 
ATOM     13  C   UNL     1      16.060  46.741  30.202  1.00  0.00     0.160 A 
ATOM     14  C   UNL     1      14.898  46.931  30.965  1.00  0.00     0.161 A 
ATOM     15  C   UNL     1      16.912  47.831  29.952  1.00  0.00     0.051 A 
ATOM     16  C   UNL     1      14.599  48.211  31.474  1.00  0.00     0.062 A 
ATOM     17  C   UNL     1      16.610  49.095  30.459  1.00  0.00     0.016 A 
BRANCH  13  18
ATOM     18  O   UNL     1      16.332  45.454  29.711  1.00  0.00    -0.493 OA
ATOM     19  C   UNL     1      16.988  45.183  28.477  1.00  0.00     0.278 C 
ENDBRANCH  13  18
BRANCH  14  20
ATOM     20  O   UNL     1      14.062  45.826  31.190  1.00  0.00    -0.493 OA
ATOM     21  C   UNL     1      14.024  45.072  32.397  1.00  0.00     0.278 C 
ENDBRANCH  14  20
ENDBRANCH   1  12
BRANCH   6  22
ATOM     22  O   UNL     1      13.955  54.898  34.293  1.00  0.00    -0.492 OA
ATOM     23  C   UNL     1      12.605  55.014  34.730  1.00  0.00     0.278 C 
ENDBRANCH   6  22
BRANCH   8  24
ATOM     24  O   UNL     1      14.260  56.230  29.646  1.00  0.00    -0.493 OA
ATOM     25  C   UNL     1      15.365  56.780  28.934  1.00  0.00     0.278 C 
ENDBRANCH   8  24
BRANCH   7  26
ATOM     26  O   UNL     1      14.002  56.941  32.240  1.00  0.00    -0.490 OA
ATOM     27  C   UNL     1      14.989  57.858  32.704  1.00  0.00     0.278 C 
ENDBRANCH   7  26
TORSDOF 6
ENDMDL
MODEL 4
REMARK VINA RESULT:    -5.063      1.819      8.531
REMARK INTER + INTRA:          -7.383
REMARK INTER:                  -6.718
REMARK INTRA:                  -0.665
REMARK UNBOUND:                -0.545
REMARK SMILES COc1ccc(-c2cc(=O)c3c(OC)c(OC)c(OC)cc3o2)cc1OC
REMARK SMILES IDX 7 1 8 2 9 3 10 4 11 5 12 6 15 7 18 8 21 9 22 10 23 11 6 12
REMARK SMILES IDX 3 13 25 14 4 15 24 16 5 17 2 18 1 19 26 20 27 21 13 22 14 23
REMARK SMILES IDX 19 24 20 25 16 26 17 27
REMARK H PARENT
REMARK Flexibility Score: inf
ROOT
ATOM      1  C   UNL     1      14.757  50.294  31.179  1.00  0.00     0.138 A 
ATOM      2  C   UNL     1      14.898  51.084  30.028  1.00  0.00     0.100 A 
ATOM      3  C   UNL     1      14.866  52.474  30.141  1.00  0.00     0.197 A 
ATOM      4  O   UNL     1      14.955  53.170  29.094  1.00  0.00    -0.289 OA
ATOM      5  C   UNL     1      14.705  53.068  31.411  1.00  0.00     0.111 A 
ATOM      6  C   UNL     1      14.696  54.470  31.620  1.00  0.00     0.179 A 
ATOM      7  C   UNL     1      14.407  54.988  32.909  1.00  0.00     0.204 A 
ATOM      8  C   UNL     1      14.247  54.113  33.992  1.00  0.00     0.168 A 
ATOM      9  C   UNL     1      14.324  52.726  33.791  1.00  0.00     0.098 A 
ATOM     10  C   UNL     1      14.535  52.205  32.516  1.00  0.00     0.146 A 
ATOM     11  O   UNL     1      14.571  50.885  32.357  1.00  0.00    -0.456 OA
ENDROOT
BRANCH   1  12
ATOM     12  C   UNL     1      14.785  48.811  31.121  1.00  0.00     0.021 A 
ATOM     13  C   UNL     1      14.805  45.988  31.060  1.00  0.00     0.160 A 
ATOM     14  C   UNL     1      15.835  46.708  30.436  1.00  0.00     0.161 A 
ATOM     15  C   UNL     1      13.775  46.682  31.719  1.00  0.00     0.051 A 
ATOM     16  C   UNL     1      15.825  48.117  30.473  1.00  0.00     0.062 A 
ATOM     17  C   UNL     1      13.771  48.077  31.752  1.00  0.00     0.016 A 
BRANCH  13  18
ATOM     18  O   UNL     1      14.842  44.586  31.002  1.00  0.00    -0.493 OA
ATOM     19  C   UNL     1      13.860  43.729  31.576  1.00  0.00     0.278 C 
ENDBRANCH  13  18
BRANCH  14  20
ATOM     20  O   UNL     1      16.855  45.987  29.794  1.00  0.00    -0.493 OA
ATOM     21  C   UNL     1      17.004  45.880  28.382  1.00  0.00     0.278 C 
ENDBRANCH  14  20
ENDBRANCH   1  12
BRANCH   6  22
ATOM     22  O   UNL     1      15.006  55.339  30.571  1.00  0.00    -0.492 OA
ATOM     23  C   UNL     1      16.265  56.000  30.513  1.00  0.00     0.278 C 
ENDBRANCH   6  22
BRANCH   8  24
ATOM     24  O   UNL     1      14.002  54.664  35.261  1.00  0.00    -0.493 OA
ATOM     25  C   UNL     1      12.899  54.320  36.094  1.00  0.00     0.278 C 
ENDBRANCH   8  24
BRANCH   7  26
ATOM     26  O   UNL     1      14.266  56.363  33.177  1.00  0.00    -0.490 OA
ATOM     27  C   UNL     1      13.127  57.164  32.876  1.00  0.00     0.278 C 
ENDBRANCH   7  26
TORSDOF 6
ENDMDL
MODEL 5
REMARK VINA RESULT:    -5.033      2.336      4.336
REMARK INTER + INTRA:          -7.343
REMARK INTER:                  -6.703
REMARK INTRA:                  -0.641
REMARK UNBOUND:                -0.545
REMARK SMILES COc1ccc(-c2cc(=O)c3c(OC)c(OC)c(OC)cc3o2)cc1OC
REMARK SMILES IDX 7 1 8 2 9 3 10 4 11 5 12 6 15 7 18 8 21 9 22 10 23 11 6 12
REMARK SMILES IDX 3 13 25 14 4 15 24 16 5 17 2 18 1 19 26 20 27 21 13 22 14 23
REMARK SMILES IDX 19 24 20 25 16 26 17 27
REMARK H PARENT
REMARK Flexibility Score: inf
ROOT
ATOM      1  C   UNL     1      15.095  50.057  31.075  1.00  0.00     0.138 A 
ATOM      2  C   UNL     1      14.635  48.740  31.232  1.00  0.00     0.100 A 
ATOM      3  C   UNL     1      14.993  47.772  30.294  1.00  0.00     0.197 A 
ATOM      4  O   UNL     1      14.543  46.602  30.427  1.00  0.00    -0.289 OA
ATOM      5  C   UNL     1      15.823  48.125  29.207  1.00  0.00     0.111 A 
ATOM      6  C   UNL     1      16.262  47.198  28.229  1.00  0.00     0.179 A 
ATOM      7  C   UNL     1      16.991  47.656  27.102  1.00  0.00     0.204 A 
ATOM      8  C   UNL     1      17.374  49.002  27.019  1.00  0.00     0.168 A 
ATOM      9  C   UNL     1      16.993  49.902  28.027  1.00  0.00     0.098 A 
ATOM     10  C   UNL     1      16.214  49.478  29.101  1.00  0.00     0.146 A 
ATOM     11  O   UNL     1      15.845  50.365  30.020  1.00  0.00    -0.456 OA
ENDROOT
BRANCH   1  12
ATOM     12  C   UNL     1      14.747  51.129  32.041  1.00  0.00     0.021 A 
ATOM     13  C   UNL     1      14.105  53.133  33.924  1.00  0.00     0.160 A 
ATOM     14  C   UNL     1      13.426  53.084  32.697  1.00  0.00     0.161 A 
ATOM     15  C   UNL     1      15.094  52.175  34.209  1.00  0.00     0.051 A 
ATOM     16  C   UNL     1      13.746  52.079  31.762  1.00  0.00     0.062 A 
ATOM     17  C   UNL     1      15.405  51.182  33.279  1.00  0.00     0.016 A 
BRANCH  13  18
ATOM     18  O   UNL     1      13.766  54.147  34.834  1.00  0.00    -0.493 OA
ATOM     19  C   UNL     1      12.858  53.987  35.919  1.00  0.00     0.278 C 
ENDBRANCH  13  18
BRANCH  14  20
ATOM     20  O   UNL     1      12.437  54.048  32.446  1.00  0.00    -0.493 OA
ATOM     21  C   UNL     1      11.036  53.820  32.560  1.00  0.00     0.278 C 
ENDBRANCH  14  20
ENDBRANCH   1  12
BRANCH   6  22
ATOM     22  O   UNL     1      16.010  45.833  28.392  1.00  0.00    -0.492 OA
ATOM     23  C   UNL     1      17.070  44.914  28.634  1.00  0.00     0.278 C 
ENDBRANCH   6  22
BRANCH   8  24
ATOM     24  O   UNL     1      18.131  49.411  25.908  1.00  0.00    -0.493 OA
ATOM     25  C   UNL     1      19.309  50.207  25.980  1.00  0.00     0.278 C 
ENDBRANCH   8  24
BRANCH   7  26
ATOM     26  O   UNL     1      17.366  46.822  26.031  1.00  0.00    -0.490 OA
ATOM     27  C   UNL     1      16.516  46.376  24.978  1.00  0.00     0.278 C 
ENDBRANCH   7  26
TORSDOF 6
ENDMDL
MODEL 6
REMARK VINA RESULT:    -5.019      1.280      1.639
REMARK INTER + INTRA:          -7.325
REMARK INTER:                  -6.801
REMARK INTRA:                  -0.524
REMARK UNBOUND:                -0.545
REMARK SMILES COc1ccc(-c2cc(=O)c3c(OC)c(OC)c(OC)cc3o2)cc1OC
REMARK SMILES IDX 7 1 8 2 9 3 10 4 11 5 12 6 15 7 18 8 21 9 22 10 23 11 6 12
REMARK SMILES IDX 3 13 25 14 4 15 24 16 5 17 2 18 1 19 26 20 27 21 13 22 14 23
REMARK SMILES IDX 19 24 20 25 16 26 17 27
REMARK H PARENT
REMARK Flexibility Score: inf
ROOT
ATOM      1  C   UNL     1      15.089  49.954  31.385  1.00  0.00     0.138 A 
ATOM      2  C   UNL     1      15.986  49.439  30.436  1.00  0.00     0.100 A 
ATOM      3  C   UNL     1      16.039  48.062  30.220  1.00  0.00     0.197 A 
ATOM      4  O   UNL     1      16.876  47.609  29.392  1.00  0.00    -0.289 OA
ATOM      5  C   UNL     1      15.183  47.206  30.947  1.00  0.00     0.111 A 
ATOM      6  C   UNL     1      15.147  45.801  30.765  1.00  0.00     0.179 A 
ATOM      7  C   UNL     1      14.347  45.000  31.620  1.00  0.00     0.204 A 
ATOM      8  C   UNL     1      13.508  45.611  32.564  1.00  0.00     0.168 A 
ATOM      9  C   UNL     1      13.499  47.008  32.692  1.00  0.00     0.098 A 
ATOM     10  C   UNL     1      14.334  47.800  31.908  1.00  0.00     0.146 A 
ATOM     11  O   UNL     1      14.322  49.119  32.079  1.00  0.00    -0.456 OA
ENDROOT
BRANCH   1  12
ATOM     12  C   UNL     1      14.988  51.410  31.657  1.00  0.00     0.021 A 
ATOM     13  C   UNL     1      14.812  54.190  32.118  1.00  0.00     0.160 A 
ATOM     14  C   UNL     1      15.056  53.319  33.190  1.00  0.00     0.161 A 
ATOM     15  C   UNL     1      14.667  53.670  30.820  1.00  0.00     0.051 A 
ATOM     16  C   UNL     1      15.148  51.932  32.955  1.00  0.00     0.062 A 
ATOM     17  C   UNL     1      14.760  52.297  30.594  1.00  0.00     0.016 A 
BRANCH  13  18
ATOM     18  O   UNL     1      14.722  55.566  32.384  1.00  0.00    -0.493 OA
ATOM     19  C   UNL     1      14.798  56.586  31.394  1.00  0.00     0.278 C 
ENDBRANCH  13  18
BRANCH  14  20
ATOM     20  O   UNL     1      15.205  53.868  34.473  1.00  0.00    -0.493 OA
ATOM     21  C   UNL     1      14.149  54.026  35.414  1.00  0.00     0.278 C 
ENDBRANCH  14  20
ENDBRANCH   1  12
BRANCH   6  22
ATOM     22  O   UNL     1      15.868  45.209  29.725  1.00  0.00    -0.492 OA
ATOM     23  C   UNL     1      15.236  44.870  28.494  1.00  0.00     0.278 C 
ENDBRANCH   6  22
BRANCH   8  24
ATOM     24  O   UNL     1      12.701  44.787  33.366  1.00  0.00    -0.493 OA
ATOM     25  C   UNL     1      12.088  45.195  34.585  1.00  0.00     0.278 C 
ENDBRANCH   8  24
BRANCH   7  26
ATOM     26  O   UNL     1      14.342  43.593  31.582  1.00  0.00    -0.490 OA
ATOM     27  C   UNL     1      13.459  42.778  30.816  1.00  0.00     0.278 C 
ENDBRANCH   7  26
TORSDOF 6
ENDMDL
MODEL 7
REMARK VINA RESULT:    -4.908      1.686      8.489
REMARK INTER + INTRA:          -7.175
REMARK INTER:                  -6.506
REMARK INTRA:                  -0.669
REMARK UNBOUND:                -0.545
REMARK SMILES COc1ccc(-c2cc(=O)c3c(OC)c(OC)c(OC)cc3o2)cc1OC
REMARK SMILES IDX 7 1 8 2 9 3 10 4 11 5 12 6 15 7 18 8 21 9 22 10 23 11 6 12
REMARK SMILES IDX 3 13 25 14 4 15 24 16 5 17 2 18 1 19 26 20 27 21 13 22 14 23
REMARK SMILES IDX 19 24 20 25 16 26 17 27
REMARK H PARENT
REMARK Flexibility Score: inf
ROOT
ATOM      1  C   UNL     1      14.821  50.390  31.722  1.00  0.00     0.138 A 
ATOM      2  C   UNL     1      15.515  51.061  32.742  1.00  0.00     0.100 A 
ATOM      3  C   UNL     1      15.017  52.269  33.230  1.00  0.00     0.197 A 
ATOM      4  O   UNL     1      15.670  52.880  34.119  1.00  0.00    -0.289 OA
ATOM      5  C   UNL     1      13.816  52.794  32.703  1.00  0.00     0.111 A 
ATOM      6  C   UNL     1      13.223  53.996  33.165  1.00  0.00     0.179 A 
ATOM      7  C   UNL     1      12.084  54.519  32.502  1.00  0.00     0.204 A 
ATOM      8  C   UNL     1      11.482  53.788  31.467  1.00  0.00     0.168 A 
ATOM      9  C   UNL     1      12.037  52.564  31.060  1.00  0.00     0.098 A 
ATOM     10  C   UNL     1      13.197  52.077  31.656  1.00  0.00     0.146 A 
ATOM     11  O   UNL     1      13.713  50.930  31.222  1.00  0.00    -0.456 OA
ENDROOT
BRANCH   1  12
ATOM     12  C   UNL     1      15.302  49.102  31.164  1.00  0.00     0.021 A 
ATOM     13  C   UNL     1      16.252  46.681  30.063  1.00  0.00     0.160 A 
ATOM     14  C   UNL     1      14.998  46.718  30.691  1.00  0.00     0.161 A 
ATOM     15  C   UNL     1      17.021  47.855  29.979  1.00  0.00     0.051 A 
ATOM     16  C   UNL     1      14.525  47.930  31.235  1.00  0.00     0.062 A 
ATOM     17  C   UNL     1      16.547  49.051  30.519  1.00  0.00     0.016 A 
BRANCH  13  18
ATOM     18  O   UNL     1      16.697  45.459  29.534  1.00  0.00    -0.493 OA
ATOM     19  C   UNL     1      16.966  45.227  28.155  1.00  0.00     0.278 C 
ENDBRANCH  13  18
BRANCH  14  20
ATOM     20  O   UNL     1      14.249  45.532  30.751  1.00  0.00    -0.493 OA
ATOM     21  C   UNL     1      14.087  44.734  31.919  1.00  0.00     0.278 C 
ENDBRANCH  14  20
ENDBRANCH   1  12
BRANCH   6  22
ATOM     22  O   UNL     1      13.734  54.643  34.292  1.00  0.00    -0.492 OA
ATOM     23  C   UNL     1      13.151  54.454  35.577  1.00  0.00     0.278 C 
ENDBRANCH   6  22
BRANCH   8  24
ATOM     24  O   UNL     1      10.332  54.318  30.860  1.00  0.00    -0.493 OA
ATOM     25  C   UNL     1      10.271  54.795  29.520  1.00  0.00     0.278 C 
ENDBRANCH   8  24
BRANCH   7  26
ATOM     26  O   UNL     1      11.503  55.760  32.823  1.00  0.00    -0.490 OA
ATOM     27  C   UNL     1      11.973  57.039  32.407  1.00  0.00     0.278 C 
ENDBRANCH   7  26
TORSDOF 6
ENDMDL
MODEL 8
REMARK VINA RESULT:    -4.852      2.124      9.030
REMARK INTER + INTRA:          -7.098
REMARK INTER:                  -6.407
REMARK INTRA:                  -0.691
REMARK UNBOUND:                -0.545
REMARK SMILES COc1ccc(-c2cc(=O)c3c(OC)c(OC)c(OC)cc3o2)cc1OC
REMARK SMILES IDX 7 1 8 2 9 3 10 4 11 5 12 6 15 7 18 8 21 9 22 10 23 11 6 12
REMARK SMILES IDX 3 13 25 14 4 15 24 16 5 17 2 18 1 19 26 20 27 21 13 22 14 23
REMARK SMILES IDX 19 24 20 25 16 26 17 27
REMARK H PARENT
REMARK Flexibility Score: inf
ROOT
ATOM      1  C   UNL     1      15.116  50.689  31.375  1.00  0.00     0.138 A 
ATOM      2  C   UNL     1      15.058  50.870  32.766  1.00  0.00     0.100 A 
ATOM      3  C   UNL     1      14.809  52.141  33.283  1.00  0.00     0.197 A 
ATOM      4  O   UNL     1      14.797  52.296  34.534  1.00  0.00    -0.289 OA
ATOM      5  C   UNL     1      14.605  53.226  32.402  1.00  0.00     0.111 A 
ATOM      6  C   UNL     1      14.312  54.541  32.841  1.00  0.00     0.179 A 
ATOM      7  C   UNL     1      14.242  55.599  31.899  1.00  0.00     0.204 A 
ATOM      8  C   UNL     1      14.348  55.320  30.529  1.00  0.00     0.168 A 
ATOM      9  C   UNL     1      14.571  54.004  30.097  1.00  0.00     0.098 A 
ATOM     10  C   UNL     1      14.714  52.969  31.018  1.00  0.00     0.146 A 
ATOM     11  O   UNL     1      14.956  51.739  30.573  1.00  0.00    -0.456 OA
ENDROOT
BRANCH   1  12
ATOM     12  C   UNL     1      15.378  49.360  30.768  1.00  0.00     0.021 A 
ATOM     13  C   UNL     1      15.864  46.806  29.666  1.00  0.00     0.160 A 
ATOM     14  C   UNL     1      16.465  47.939  29.096  1.00  0.00     0.161 A 
ATOM     15  C   UNL     1      15.031  46.954  30.789  1.00  0.00     0.051 A 
ATOM     16  C   UNL     1      16.224  49.211  29.652  1.00  0.00     0.062 A 
ATOM     17  C   UNL     1      14.797  48.216  31.335  1.00  0.00     0.016 A 
BRANCH  13  18
ATOM     18  O   UNL     1      16.121  45.553  29.087  1.00  0.00    -0.493 OA
ATOM     19  C   UNL     1      15.407  44.360  29.397  1.00  0.00     0.278 C 
ENDBRANCH  13  18
BRANCH  14  20
ATOM     20  O   UNL     1      17.299  47.759  27.981  1.00  0.00    -0.493 OA
ATOM     21  C   UNL     1      17.596  48.768  27.021  1.00  0.00     0.278 C 
ENDBRANCH  14  20
ENDBRANCH   1  12
BRANCH   6  22
ATOM     22  O   UNL     1      14.056  54.790  34.192  1.00  0.00    -0.492 OA
ATOM     23  C   UNL     1      12.724  54.934  34.673  1.00  0.00     0.278 C 
ENDBRANCH   6  22
BRANCH   8  24
ATOM     24  O   UNL     1      14.234  56.388  29.623  1.00  0.00    -0.493 OA
ATOM     25  C   UNL     1      15.332  57.014  28.967  1.00  0.00     0.278 C 
ENDBRANCH   8  24
BRANCH   7  26
ATOM     26  O   UNL     1      14.069  56.949  32.261  1.00  0.00    -0.490 OA
ATOM     27  C   UNL     1      15.087  57.828  32.730  1.00  0.00     0.278 C 
ENDBRANCH   7  26
TORSDOF 6
ENDMDL
MODEL 9
REMARK VINA RESULT:    -4.831      3.303     10.495
REMARK INTER + INTRA:          -7.071
REMARK INTER:                  -6.473
REMARK INTRA:                  -0.598
REMARK UNBOUND:                -0.545
REMARK SMILES COc1ccc(-c2cc(=O)c3c(OC)c(OC)c(OC)cc3o2)cc1OC
REMARK SMILES IDX 7 1 8 2 9 3 10 4 11 5 12 6 15 7 18 8 21 9 22 10 23 11 6 12
REMARK SMILES IDX 3 13 25 14 4 15 24 16 5 17 2 18 1 19 26 20 27 21 13 22 14 23
REMARK SMILES IDX 19 24 20 25 16 26 17 27
REMARK H PARENT
REMARK Flexibility Score: inf
ROOT
ATOM      1  C   UNL     1      14.816  54.796  32.071  1.00  0.00     0.138 A 
ATOM      2  C   UNL     1      15.971  55.481  31.662  1.00  0.00     0.100 A 
ATOM      3  C   UNL     1      16.004  56.874  31.731  1.00  0.00     0.197 A 
ATOM      4  O   UNL     1      17.033  57.478  31.324  1.00  0.00    -0.289 OA
ATOM      5  C   UNL     1      14.882  57.575  32.224  1.00  0.00     0.111 A 
ATOM      6  C   UNL     1      14.843  58.986  32.360  1.00  0.00     0.179 A 
ATOM      7  C   UNL     1      13.636  59.623  32.747  1.00  0.00     0.204 A 
ATOM      8  C   UNL     1      12.523  58.849  33.104  1.00  0.00     0.168 A 
ATOM      9  C   UNL     1      12.590  57.449  33.031  1.00  0.00     0.098 A 
ATOM     10  C   UNL     1      13.746  56.816  32.583  1.00  0.00     0.146 A 
ATOM     11  O   UNL     1      13.763  55.489  32.496  1.00  0.00    -0.456 OA
ENDROOT
BRANCH   1  12
ATOM     12  C   UNL     1      14.724  53.316  32.021  1.00  0.00     0.021 A 
ATOM     13  C   UNL     1      14.603  50.495  31.950  1.00  0.00     0.160 A 
ATOM     14  C   UNL     1      13.864  51.250  31.026  1.00  0.00     0.161 A 
ATOM     15  C   UNL     1      15.406  51.153  32.898  1.00  0.00     0.051 A 
ATOM     16  C   UNL     1      13.932  52.657  31.061  1.00  0.00     0.062 A 
ATOM     17  C   UNL     1      15.469  52.546  32.927  1.00  0.00     0.016 A 
BRANCH  13  18
ATOM     18  O   UNL     1      14.513  49.095  31.891  1.00  0.00    -0.493 OA
ATOM     19  C   UNL     1      15.290  48.273  31.027  1.00  0.00     0.278 C 
ENDBRANCH  13  18
BRANCH  14  20
ATOM     20  O   UNL     1      13.079  50.565  30.085  1.00  0.00    -0.493 OA
ATOM     21  C   UNL     1      11.673  50.370  30.193  1.00  0.00     0.278 C 
ENDBRANCH  14  20
ENDBRANCH   1  12
BRANCH   6  22
ATOM     22  O   UNL     1      15.998  59.743  32.150  1.00  0.00    -0.492 OA
ATOM     23  C   UNL     1      16.739  60.272  33.245  1.00  0.00     0.278 C 
ENDBRANCH   6  22
BRANCH   8  24
ATOM     24  O   UNL     1      11.358  59.515  33.521  1.00  0.00    -0.493 OA
ATOM     25  C   UNL     1      10.731  59.334  34.787  1.00  0.00     0.278 C 
ENDBRANCH   8  24
BRANCH   7  26
ATOM     26  O   UNL     1      13.480  61.021  32.796  1.00  0.00    -0.490 OA
ATOM     27  C   UNL     1      13.270  61.881  31.680  1.00  0.00     0.278 C 
ENDBRANCH   7  26
TORSDOF 6
ENDMDL
