MODEL 1
REMARK VINA RESULT:    -3.197      0.000      0.000
REMARK INTER + INTRA:          -4.680
REMARK INTER:                  -4.879
REMARK INTRA:                   0.199
REMARK UNBOUND:                 0.199
REMARK SMILES CC1=CCC[C@@H](C)C(=O)C[C@@H](C(C)C)C(=O)C1
REMARK SMILES IDX 8 1 9 2 6 3 7 4 5 5 4 6 3 7 2 8 1 9 10 11 11 12 15 13 16 14
REMARK SMILES IDX 17 15 12 17 13 18 14 19
REMARK H PARENT
REMARK Flexibility Score: 70.00
ROOT
ATOM      1  C   UNL     1      -1.399  -9.069 -41.559  1.00  0.00     0.136 C 
ATOM      2  O   UNL     1      -1.658  -9.161 -42.750  1.00  0.00    -0.299 OA
ENDROOT
BRANCH   1   3
ATOM      3  C   UNL     1      -2.270  -8.205 -40.658  1.00  0.00     0.053 C 
ATOM      4  C   UNL     1      -1.704  -8.164 -39.231  1.00  0.00     0.016 C 
BRANCH   3   5
ATOM      5  C   UNL     1      -3.732  -8.713 -40.657  1.00  0.00     0.015 C 
BRANCH   5   6
ATOM      6  C   UNL     1      -3.830 -10.225 -40.946  1.00  0.00     0.028 C 
BRANCH   6   7
ATOM      7  C   UNL     1      -3.595 -11.040 -39.699  1.00  0.00    -0.028 C 
ATOM      8  C   UNL     1      -2.765 -12.107 -39.622  1.00  0.00    -0.070 CG0
ATOM      9  C   UNL     1      -2.604 -12.782 -38.283  1.00  0.00     0.039 C 
ATOM     10  G   UNL     1      -1.995 -12.647 -40.819  1.00  0.00     0.000 G0
ENDBRANCH   6   7
ENDBRANCH   5   6
ENDBRANCH   3   5
ENDBRANCH   1   3
BRANCH   1  11
ATOM     11  C   UNL     1      -0.201  -9.804 -41.005  1.00  0.00     0.087 C 
BRANCH  11  12
ATOM     12  C   UNL     1       0.052 -11.192 -41.660  1.00  0.00     0.066 C 
BRANCH  12  13
ATOM     13  C   UNL     1      -0.503 -12.305 -40.781  1.00  0.00     0.140 C 
ATOM     14  O   UNL     1       0.256 -12.956 -40.076  1.00  0.00    -0.299 OA
BRANCH  13  15
ATOM     15  C   UNL     1      -1.968 -12.659 -40.817  1.00  0.00     0.106 CG0
ATOM     16  G   UNL     1      -2.728 -12.086 -39.629  1.00  0.00     0.000 G0
ENDBRANCH  13  15
ENDBRANCH  12  13
BRANCH  12  17
ATOM     17  C   UNL     1       1.543 -11.466 -42.055  1.00  0.00    -0.006 C 
ATOM     18  C   UNL     1       2.469 -10.278 -41.736  1.00  0.00     0.008 C 
ATOM     19  C   UNL     1       1.661 -11.794 -43.556  1.00  0.00     0.008 C 
ENDBRANCH  12  17
ENDBRANCH  11  12
ENDBRANCH   1  11
TORSDOF 1
ENDMDL
MODEL 2
REMARK VINA RESULT:    -3.133      2.215      3.477
REMARK INTER + INTRA:          -4.583
REMARK INTER:                  -4.216
REMARK INTRA:                  -0.367
REMARK UNBOUND:                 0.199
REMARK SMILES CC1=CCC[C@@H](C)C(=O)C[C@@H](C(C)C)C(=O)C1
REMARK SMILES IDX 8 1 9 2 6 3 7 4 5 5 4 6 3 7 2 8 1 9 10 11 11 12 15 13 16 14
REMARK SMILES IDX 17 15 12 17 13 18 14 19
REMARK H PARENT
REMARK Flexibility Score: 70.00
ROOT
ATOM      1  C   UNL     1      -0.935  -9.517 -40.673  1.00  0.00     0.136 C 
ATOM      2  O   UNL     1       0.280  -9.384 -40.640  1.00  0.00    -0.299 OA
ENDROOT
BRANCH   1   3
ATOM      3  C   UNL     1      -1.775  -9.120 -39.468  1.00  0.00     0.053 C 
ATOM      4  C   UNL     1      -1.389  -7.718 -38.975  1.00  0.00     0.016 C 
BRANCH   3   5
ATOM      5  C   UNL     1      -1.631 -10.163 -38.332  1.00  0.00     0.015 C 
BRANCH   5   6
ATOM      6  C   UNL     1      -2.797 -11.171 -38.307  1.00  0.00     0.028 C 
BRANCH   6   7
ATOM      7  C   UNL     1      -2.342 -12.549 -38.718  1.00  0.00    -0.028 C 
ATOM      8  C   UNL     1      -2.813 -13.228 -39.792  1.00  0.00    -0.070 CG0
ATOM      9  C   UNL     1      -2.214 -14.578 -40.094  1.00  0.00     0.039 C 
ATOM     10  G   UNL     1      -3.911 -12.687 -40.697  1.00  0.00     0.000 G0
ENDBRANCH   6   7
ENDBRANCH   5   6
ENDBRANCH   3   5
ENDBRANCH   1   3
BRANCH   1  11
ATOM     11  C   UNL     1      -1.580 -10.094 -41.912  1.00  0.00     0.087 C 
BRANCH  11  12
ATOM     12  C   UNL     1      -3.093 -10.417 -41.751  1.00  0.00     0.066 C 
BRANCH  12  13
ATOM     13  C   UNL     1      -3.332 -11.917 -41.867  1.00  0.00     0.140 C 
ATOM     14  O   UNL     1      -3.113 -12.486 -42.927  1.00  0.00    -0.299 OA
BRANCH  13  15
ATOM     15  C   UNL     1      -3.899 -12.698 -40.709  1.00  0.00     0.106 CG0
ATOM     16  G   UNL     1      -2.813 -13.218 -39.778  1.00  0.00     0.000 G0
ENDBRANCH  13  15
ENDBRANCH  12  13
BRANCH  12  17
ATOM     17  C   UNL     1      -4.038  -9.612 -42.706  1.00  0.00    -0.006 C 
ATOM     18  C   UNL     1      -3.328  -8.423 -43.380  1.00  0.00     0.008 C 
ATOM     19  C   UNL     1      -5.268  -9.085 -41.943  1.00  0.00     0.008 C 
ENDBRANCH  12  17
ENDBRANCH  11  12
ENDBRANCH   1  11
TORSDOF 1
ENDMDL
MODEL 3
REMARK VINA RESULT:    -3.088      2.932      4.652
REMARK INTER + INTRA:          -4.514
REMARK INTER:                  -4.373
REMARK INTRA:                  -0.142
REMARK UNBOUND:                 0.199
REMARK SMILES CC1=CCC[C@@H](C)C(=O)C[C@@H](C(C)C)C(=O)C1
REMARK SMILES IDX 8 1 9 2 6 3 7 4 5 5 4 6 3 7 2 8 1 9 10 11 11 12 15 13 16 14
REMARK SMILES IDX 17 15 12 17 13 18 14 19
REMARK H PARENT
REMARK Flexibility Score: 70.00
ROOT
ATOM      1  C   UNL     1      -0.829  -8.938 -38.307  1.00  0.00     0.136 C 
ATOM      2  O   UNL     1      -0.546  -8.034 -39.080  1.00  0.00    -0.299 OA
ENDROOT
BRANCH   1   3
ATOM      3  C   UNL     1      -1.141  -8.623 -36.852  1.00  0.00     0.053 C 
ATOM      4  C   UNL     1      -0.955  -7.125 -36.568  1.00  0.00     0.016 C 
BRANCH   3   5
ATOM      5  C   UNL     1      -0.263  -9.477 -35.905  1.00  0.00     0.015 C 
BRANCH   5   6
ATOM      6  C   UNL     1      -1.099 -10.264 -34.875  1.00  0.00     0.028 C 
BRANCH   6   7
ATOM      7  C   UNL     1      -0.624 -11.690 -34.755  1.00  0.00    -0.028 C 
ATOM      8  C   UNL     1      -1.155 -12.738 -35.428  1.00  0.00    -0.070 CG0
ATOM      9  C   UNL     1      -0.529 -14.096 -35.233  1.00  0.00     0.039 C 
ATOM     10  G   UNL     1      -2.347 -12.602 -36.366  1.00  0.00     0.000 G0
ENDBRANCH   6   7
ENDBRANCH   5   6
ENDBRANCH   3   5
ENDBRANCH   1   3
BRANCH   1  11
ATOM     11  C   UNL     1      -0.845 -10.362 -38.814  1.00  0.00     0.087 C 
BRANCH  11  12
ATOM     12  C   UNL     1      -2.184 -11.113 -38.561  1.00  0.00     0.066 C 
BRANCH  12  13
ATOM     13  C   UNL     1      -1.929 -12.424 -37.829  1.00  0.00     0.140 C 
ATOM     14  O   UNL     1      -1.421 -13.363 -38.425  1.00  0.00    -0.299 OA
BRANCH  13  15
ATOM     15  C   UNL     1      -2.357 -12.601 -36.394  1.00  0.00     0.106 CG0
ATOM     16  G   UNL     1      -1.169 -12.728 -35.450  1.00  0.00     0.000 G0
ENDBRANCH  13  15
ENDBRANCH  12  13
BRANCH  12  17
ATOM     17  C   UNL     1      -3.059 -11.334 -39.841  1.00  0.00    -0.006 C 
ATOM     18  C   UNL     1      -3.239 -10.048 -40.668  1.00  0.00     0.008 C 
ATOM     19  C   UNL     1      -4.451 -11.877 -39.465  1.00  0.00     0.008 C 
ENDBRANCH  12  17
ENDBRANCH  11  12
ENDBRANCH   1  11
TORSDOF 1
ENDMDL
MODEL 4
REMARK VINA RESULT:    -3.078     13.099     14.977
REMARK INTER + INTRA:          -4.498
REMARK INTER:                  -4.144
REMARK INTRA:                  -0.355
REMARK UNBOUND:                 0.199
REMARK SMILES CC1=CCC[C@@H](C)C(=O)C[C@@H](C(C)C)C(=O)C1
REMARK SMILES IDX 8 1 9 2 6 3 7 4 5 5 4 6 3 7 2 8 1 9 10 11 11 12 15 13 16 14
REMARK SMILES IDX 17 15 12 17 13 18 14 19
REMARK H PARENT
REMARK Flexibility Score: 70.00
ROOT
ATOM      1  C   UNL     1       0.232 -22.667 -44.298  1.00  0.00     0.136 C 
ATOM      2  O   UNL     1      -0.001 -21.494 -44.552  1.00  0.00    -0.299 OA
ENDROOT
BRANCH   1   3
ATOM      3  C   UNL     1       0.281 -23.134 -42.850  1.00  0.00     0.053 C 
ATOM      4  C   UNL     1      -0.675 -22.306 -41.979  1.00  0.00     0.016 C 
BRANCH   3   5
ATOM      5  C   UNL     1       1.727 -23.065 -42.300  1.00  0.00     0.015 C 
BRANCH   5   6
ATOM      6  C   UNL     1       2.270 -24.451 -41.898  1.00  0.00     0.028 C 
BRANCH   6   7
ATOM      7  C   UNL     1       3.518 -24.798 -42.672  1.00  0.00    -0.028 C 
ATOM      8  C   UNL     1       3.573 -25.703 -43.678  1.00  0.00    -0.070 CG0
ATOM      9  C   UNL     1       4.891 -25.896 -44.384  1.00  0.00     0.039 C 
ATOM     10  G   UNL     1       2.370 -26.525 -44.121  1.00  0.00     0.000 G0
ENDBRANCH   6   7
ENDBRANCH   5   6
ENDBRANCH   3   5
ENDBRANCH   1   3
BRANCH   1  11
ATOM     11  C   UNL     1       0.487 -23.631 -45.433  1.00  0.00     0.087 C 
BRANCH  11  12
ATOM     12  C   UNL     1       0.311 -25.128 -45.049  1.00  0.00     0.066 C 
BRANCH  12  13
ATOM     13  C   UNL     1       1.607 -25.894 -45.282  1.00  0.00     0.140 C 
ATOM     14  O   UNL     1       2.024 -26.048 -46.422  1.00  0.00    -0.299 OA
BRANCH  13  15
ATOM     15  C   UNL     1       2.349 -26.522 -44.129  1.00  0.00     0.106 CG0
ATOM     16  G   UNL     1       3.557 -25.698 -43.705  1.00  0.00     0.000 G0
ENDBRANCH  13  15
ENDBRANCH  12  13
BRANCH  12  17
ATOM     17  C   UNL     1      -0.904 -25.839 -45.736  1.00  0.00    -0.006 C 
ATOM     18  C   UNL     1      -1.350 -25.135 -47.031  1.00  0.00     0.008 C 
ATOM     19  C   UNL     1      -2.107 -25.916 -44.776  1.00  0.00     0.008 C 
ENDBRANCH  12  17
ENDBRANCH  11  12
ENDBRANCH   1  11
TORSDOF 1
ENDMDL
MODEL 5
REMARK VINA RESULT:    -3.032      2.368      4.355
REMARK INTER + INTRA:          -4.428
REMARK INTER:                  -4.326
REMARK INTRA:                  -0.103
REMARK UNBOUND:                 0.199
REMARK SMILES CC1=CCC[C@@H](C)C(=O)C[C@@H](C(C)C)C(=O)C1
REMARK SMILES IDX 8 1 9 2 6 3 7 4 5 5 4 6 3 7 2 8 1 9 10 11 11 12 15 13 16 14
REMARK SMILES IDX 17 15 12 17 13 18 14 19
REMARK H PARENT
REMARK Flexibility Score: 70.00
ROOT
ATOM      1  C   UNL     1      -1.115 -10.009 -37.434  1.00  0.00     0.136 C 
ATOM      2  O   UNL     1      -0.741 -10.234 -36.292  1.00  0.00    -0.299 OA
ENDROOT
BRANCH   1   3
ATOM      3  C   UNL     1      -0.525  -8.841 -38.210  1.00  0.00     0.053 C 
ATOM      4  C   UNL     1      -0.495  -7.573 -37.344  1.00  0.00     0.016 C 
BRANCH   3   5
ATOM      5  C   UNL     1      -1.315  -8.597 -39.519  1.00  0.00     0.015 C 
BRANCH   5   6
ATOM      6  C   UNL     1      -0.600  -9.179 -40.756  1.00  0.00     0.028 C 
BRANCH   6   7
ATOM      7  C   UNL     1      -1.579  -9.836 -41.697  1.00  0.00    -0.028 C 
ATOM      8  C   UNL     1      -1.831 -11.166 -41.741  1.00  0.00    -0.070 CG0
ATOM      9  C   UNL     1      -2.879 -11.656 -42.709  1.00  0.00     0.039 C 
ATOM     10  G   UNL     1      -1.108 -12.176 -40.861  1.00  0.00     0.000 G0
ENDBRANCH   6   7
ENDBRANCH   5   6
ENDBRANCH   3   5
ENDBRANCH   1   3
BRANCH   1  11
ATOM     11  C   UNL     1      -2.178 -10.890 -38.048  1.00  0.00     0.087 C 
BRANCH  11  12
ATOM     12  C   UNL     1      -1.719 -12.353 -38.311  1.00  0.00     0.066 C 
BRANCH  12  13
ATOM     13  C   UNL     1      -1.979 -12.740 -39.761  1.00  0.00     0.140 C 
ATOM     14  O   UNL     1      -2.869 -13.537 -40.026  1.00  0.00    -0.299 OA
BRANCH  13  15
ATOM     15  C   UNL     1      -1.110 -12.203 -40.870  1.00  0.00     0.106 CG0
ATOM     16  G   UNL     1      -1.834 -11.169 -41.720  1.00  0.00     0.000 G0
ENDBRANCH  13  15
ENDBRANCH  12  13
BRANCH  12  17
ATOM     17  C   UNL     1      -2.313 -13.412 -37.322  1.00  0.00    -0.006 C 
ATOM     18  C   UNL     1      -3.621 -12.939 -36.661  1.00  0.00     0.008 C 
ATOM     19  C   UNL     1      -1.298 -13.758 -36.215  1.00  0.00     0.008 C 
ENDBRANCH  12  17
ENDBRANCH  11  12
ENDBRANCH   1  11
TORSDOF 1
ENDMDL
MODEL 6
REMARK VINA RESULT:    -2.979      2.336      4.117
REMARK INTER + INTRA:          -4.348
REMARK INTER:                  -4.303
REMARK INTRA:                  -0.046
REMARK UNBOUND:                 0.199
REMARK SMILES CC1=CCC[C@@H](C)C(=O)C[C@@H](C(C)C)C(=O)C1
REMARK SMILES IDX 8 1 9 2 6 3 7 4 5 5 4 6 3 7 2 8 1 9 10 11 11 12 15 13 16 14
REMARK SMILES IDX 17 15 12 17 13 18 14 19
REMARK H PARENT
REMARK Flexibility Score: 70.00
ROOT
ATOM      1  C   UNL     1      -0.319 -11.352 -40.907  1.00  0.00     0.136 C 
ATOM      2  O   UNL     1       0.491 -11.452 -41.817  1.00  0.00    -0.299 OA
ENDROOT
BRANCH   1   3
ATOM      3  C   UNL     1      -1.079 -10.049 -40.707  1.00  0.00     0.053 C 
ATOM      4  C   UNL     1      -1.046  -9.199 -41.985  1.00  0.00     0.016 C 
BRANCH   3   5
ATOM      5  C   UNL     1      -0.508  -9.260 -39.504  1.00  0.00     0.015 C 
BRANCH   5   6
ATOM      6  C   UNL     1      -1.499  -9.184 -38.325  1.00  0.00     0.028 C 
BRANCH   6   7
ATOM      7  C   UNL     1      -0.816  -9.476 -37.012  1.00  0.00    -0.028 C 
ATOM      8  C   UNL     1      -1.029 -10.584 -36.263  1.00  0.00    -0.070 CG0
ATOM      9  C   UNL     1      -0.225 -10.748 -34.998  1.00  0.00     0.039 C 
ATOM     10  G   UNL     1      -2.038 -11.659 -36.642  1.00  0.00     0.000 G0
ENDBRANCH   6   7
ENDBRANCH   5   6
ENDBRANCH   3   5
ENDBRANCH   1   3
BRANCH   1  11
ATOM     11  C   UNL     1      -0.537 -12.527 -39.981  1.00  0.00     0.087 C 
BRANCH  11  12
ATOM     12  C   UNL     1      -1.833 -12.433 -39.127  1.00  0.00     0.066 C 
BRANCH  12  13
ATOM     13  C   UNL     1      -1.514 -12.627 -37.651  1.00  0.00     0.140 C 
ATOM     14  O   UNL     1      -0.860 -13.598 -37.294  1.00  0.00    -0.299 OA
BRANCH  13  15
ATOM     15  C   UNL     1      -2.049 -11.672 -36.614  1.00  0.00     0.106 CG0
ATOM     16  G   UNL     1      -1.044 -10.585 -36.258  1.00  0.00     0.000 G0
ENDBRANCH  13  15
ENDBRANCH  12  13
BRANCH  12  17
ATOM     17  C   UNL     1      -2.990 -13.383 -39.591  1.00  0.00    -0.006 C 
ATOM     18  C   UNL     1      -2.471 -14.707 -40.181  1.00  0.00     0.008 C 
ATOM     19  C   UNL     1      -3.880 -12.690 -40.641  1.00  0.00     0.008 C 
ENDBRANCH  12  17
ENDBRANCH  11  12
ENDBRANCH   1  11
TORSDOF 1
ENDMDL
MODEL 7
REMARK VINA RESULT:    -2.938      2.123      4.220
REMARK INTER + INTRA:          -4.285
REMARK INTER:                  -3.944
REMARK INTRA:                  -0.340
REMARK UNBOUND:                 0.199
REMARK SMILES CC1=CCC[C@@H](C)C(=O)C[C@@H](C(C)C)C(=O)C1
REMARK SMILES IDX 8 1 9 2 6 3 7 4 5 5 4 6 3 7 2 8 1 9 10 11 11 12 15 13 16 14
REMARK SMILES IDX 17 15 12 17 13 18 14 19
REMARK H PARENT
REMARK Flexibility Score: 70.00
ROOT
ATOM      1  C   UNL     1      -2.471  -9.148 -42.159  1.00  0.00     0.136 C 
ATOM      2  O   UNL     1      -3.105  -8.108 -42.048  1.00  0.00    -0.299 OA
ENDROOT
BRANCH   1   3
ATOM      3  C   UNL     1      -0.977  -9.160 -41.875  1.00  0.00     0.053 C 
ATOM      4  C   UNL     1      -0.285 -10.292 -42.650  1.00  0.00     0.016 C 
BRANCH   3   5
ATOM      5  C   UNL     1      -0.708  -9.289 -40.356  1.00  0.00     0.015 C 
BRANCH   5   6
ATOM      6  C   UNL     1      -0.614 -10.758 -39.896  1.00  0.00     0.028 C 
BRANCH   6   7
ATOM      7  C   UNL     1      -1.687 -11.089 -38.889  1.00  0.00    -0.028 C 
ATOM      8  C   UNL     1      -2.755 -11.885 -39.134  1.00  0.00    -0.070 CG0
ATOM      9  C   UNL     1      -3.711 -12.156 -38.000  1.00  0.00     0.039 C 
ATOM     10  G   UNL     1      -3.026 -12.511 -40.495  1.00  0.00     0.000 G0
ENDBRANCH   6   7
ENDBRANCH   5   6
ENDBRANCH   3   5
ENDBRANCH   1   3
BRANCH   1  11
ATOM     11  C   UNL     1      -3.188 -10.403 -42.599  1.00  0.00     0.087 C 
BRANCH  11  12
ATOM     12  C   UNL     1      -4.470 -10.724 -41.779  1.00  0.00     0.066 C 
BRANCH  12  13
ATOM     13  C   UNL     1      -4.346 -12.085 -41.106  1.00  0.00     0.140 C 
ATOM     14  O   UNL     1      -5.330 -12.805 -41.005  1.00  0.00    -0.299 OA
BRANCH  13  15
ATOM     15  C   UNL     1      -3.037 -12.530 -40.504  1.00  0.00     0.106 CG0
ATOM     16  G   UNL     1      -2.785 -11.897 -39.143  1.00  0.00     0.000 G0
ENDBRANCH  13  15
ENDBRANCH  12  13
BRANCH  12  17
ATOM     17  C   UNL     1      -5.808 -10.607 -42.587  1.00  0.00    -0.006 C 
ATOM     18  C   UNL     1      -5.590 -10.672 -44.110  1.00  0.00     0.008 C 
ATOM     19  C   UNL     1      -6.538  -9.293 -42.248  1.00  0.00     0.008 C 
ENDBRANCH  12  17
ENDBRANCH  11  12
ENDBRANCH   1  11
TORSDOF 1
ENDMDL
MODEL 8
REMARK VINA RESULT:    -2.910     14.005     15.837
REMARK INTER + INTRA:          -4.243
REMARK INTER:                  -3.990
REMARK INTRA:                  -0.253
REMARK UNBOUND:                 0.199
REMARK SMILES CC1=CCC[C@@H](C)C(=O)C[C@@H](C(C)C)C(=O)C1
REMARK SMILES IDX 8 1 9 2 6 3 7 4 5 5 4 6 3 7 2 8 1 9 10 11 11 12 15 13 16 14
REMARK SMILES IDX 17 15 12 17 13 18 14 19
REMARK H PARENT
REMARK Flexibility Score: 70.00
ROOT
ATOM      1  C   UNL     1       1.212 -23.915 -44.744  1.00  0.00     0.136 C 
ATOM      2  O   UNL     1       1.217 -22.898 -45.422  1.00  0.00    -0.299 OA
ENDROOT
BRANCH   1   3
ATOM      3  C   UNL     1       2.096 -25.091 -45.133  1.00  0.00     0.053 C 
ATOM      4  C   UNL     1       3.580 -24.701 -45.067  1.00  0.00     0.016 C 
BRANCH   3   5
ATOM      5  C   UNL     1       1.725 -25.612 -46.543  1.00  0.00     0.015 C 
BRANCH   5   6
ATOM      6  C   UNL     1       0.960 -26.950 -46.494  1.00  0.00     0.028 C 
BRANCH   6   7
ATOM      7  C   UNL     1      -0.426 -26.812 -47.073  1.00  0.00    -0.028 C 
ATOM      8  C   UNL     1      -1.568 -26.806 -46.344  1.00  0.00    -0.070 CG0
ATOM      9  C   UNL     1      -2.872 -26.608 -47.075  1.00  0.00     0.039 C 
ATOM     10  G   UNL     1      -1.588 -26.989 -44.833  1.00  0.00     0.000 G0
ENDBRANCH   6   7
ENDBRANCH   5   6
ENDBRANCH   3   5
ENDBRANCH   1   3
BRANCH   1  11
ATOM     11  C   UNL     1       0.308 -23.991 -43.535  1.00  0.00     0.087 C 
BRANCH  11  12
ATOM     12  C   UNL     1      -0.232 -25.418 -43.233  1.00  0.00     0.066 C 
BRANCH  12  13
ATOM     13  C   UNL     1      -1.476 -25.704 -44.064  1.00  0.00     0.140 C 
ATOM     14  O   UNL     1      -2.401 -24.904 -44.067  1.00  0.00    -0.299 OA
BRANCH  13  15
ATOM     15  C   UNL     1      -1.609 -26.995 -44.831  1.00  0.00     0.106 CG0
ATOM     16  G   UNL     1      -1.556 -26.778 -46.337  1.00  0.00     0.000 G0
ENDBRANCH  13  15
ENDBRANCH  12  13
BRANCH  12  17
ATOM     17  C   UNL     1      -0.479 -25.713 -41.714  1.00  0.00    -0.006 C 
ATOM     18  C   UNL     1       0.122 -24.635 -40.793  1.00  0.00     0.008 C 
ATOM     19  C   UNL     1       0.109 -27.082 -41.320  1.00  0.00     0.008 C 
ENDBRANCH  12  17
ENDBRANCH  11  12
ENDBRANCH   1  11
TORSDOF 1
ENDMDL
MODEL 9
REMARK VINA RESULT:    -2.748      7.406      9.307
REMARK INTER + INTRA:          -3.995
REMARK INTER:                  -3.760
REMARK INTRA:                  -0.234
REMARK UNBOUND:                 0.199
REMARK SMILES CC1=CCC[C@@H](C)C(=O)C[C@@H](C(C)C)C(=O)C1
REMARK SMILES IDX 8 1 9 2 6 3 7 4 5 5 4 6 3 7 2 8 1 9 10 11 11 12 15 13 16 14
REMARK SMILES IDX 17 15 12 17 13 18 14 19
REMARK H PARENT
REMARK Flexibility Score: 70.00
ROOT
ATOM      1  C   UNL     1      -3.499 -12.009 -33.163  1.00  0.00     0.136 C 
ATOM      2  O   UNL     1      -4.475 -11.522 -32.611  1.00  0.00    -0.299 OA
ENDROOT
BRANCH   1   3
ATOM      3  C   UNL     1      -2.125 -11.386 -32.962  1.00  0.00     0.053 C 
ATOM      4  C   UNL     1      -1.411 -11.198 -34.308  1.00  0.00     0.016 C 
BRANCH   3   5
ATOM      5  C   UNL     1      -1.269 -12.245 -31.999  1.00  0.00     0.015 C 
BRANCH   5   6
ATOM      6  C   UNL     1      -0.209 -13.084 -32.743  1.00  0.00     0.028 C 
BRANCH   6   7
ATOM      7  C   UNL     1      -0.162 -14.498 -32.222  1.00  0.00    -0.028 C 
ATOM      8  C   UNL     1      -0.820 -15.545 -32.774  1.00  0.00    -0.070 CG0
ATOM      9  C   UNL     1      -0.625 -16.908 -32.158  1.00  0.00     0.039 C 
ATOM     10  G   UNL     1      -1.738 -15.404 -33.980  1.00  0.00     0.000 G0
ENDBRANCH   6   7
ENDBRANCH   5   6
ENDBRANCH   3   5
ENDBRANCH   1   3
BRANCH   1  11
ATOM     11  C   UNL     1      -3.681 -13.215 -34.054  1.00  0.00     0.087 C 
BRANCH  11  12
ATOM     12  C   UNL     1      -4.116 -14.504 -33.299  1.00  0.00     0.066 C 
BRANCH  12  13
ATOM     13  C   UNL     1      -3.188 -15.662 -33.643  1.00  0.00     0.140 C 
ATOM     14  O   UNL     1      -3.606 -16.810 -33.590  1.00  0.00    -0.299 OA
BRANCH  13  15
ATOM     15  C   UNL     1      -1.740 -15.414 -33.986  1.00  0.00     0.106 CG0
ATOM     16  G   UNL     1      -0.829 -15.566 -32.776  1.00  0.00     0.000 G0
ENDBRANCH  13  15
ENDBRANCH  12  13
BRANCH  12  17
ATOM     17  C   UNL     1      -5.619 -14.899 -33.496  1.00  0.00    -0.006 C 
ATOM     18  C   UNL     1      -6.239 -14.269 -34.757  1.00  0.00     0.008 C 
ATOM     19  C   UNL     1      -6.459 -14.483 -32.273  1.00  0.00     0.008 C 
ENDBRANCH  12  17
ENDBRANCH  11  12
ENDBRANCH   1  11
TORSDOF 1
ENDMDL
