MODEL 1
REMARK VINA RESULT:    -2.338      0.000      0.000
REMARK INTER + INTRA:          -3.434
REMARK INTER:                  -3.159
REMARK INTRA:                  -0.275
REMARK UNBOUND:                -0.275
REMARK SMILES CCCCCCCC=O
REMARK SMILES IDX 5 1 4 2 3 3 2 4 1 5 6 6 7 7 8 8 9 9
REMARK H PARENT
REMARK Flexibility Score: inf
ROOT
ATOM      1  C   UNL     1     116.466 114.351 113.762  1.00  0.00     0.000 C 
ENDROOT
BRANCH   1   2
ATOM      2  C   UNL     1     115.908 113.868 112.414  1.00  0.00     0.000 C 
BRANCH   2   3
ATOM      3  C   UNL     1     114.389 113.637 112.450  1.00  0.00    -0.000 C 
BRANCH   3   4
ATOM      4  C   UNL     1     113.817 113.969 113.833  1.00  0.00    -0.003 C 
ATOM      5  C   UNL     1     112.961 112.824 114.366  1.00  0.00     0.004 C 
ENDBRANCH   3   4
ENDBRANCH   2   3
ENDBRANCH   1   2
BRANCH   1   6
ATOM      6  C   UNL     1     117.991 114.177 113.868  1.00  0.00     0.008 C 
BRANCH   6   7
ATOM      7  C   UNL     1     118.644 113.973 112.493  1.00  0.00     0.072 C 
BRANCH   7   8
ATOM      8  C   UNL     1     119.833 114.867 112.286  1.00  0.00     0.224 C 
ATOM      9  O   UNL     1     119.674 116.005 111.876  1.00  0.00    -0.303 OA
ENDBRANCH   7   8
ENDBRANCH   6   7
ENDBRANCH   1   6
TORSDOF 6
ENDMDL
MODEL 2
REMARK VINA RESULT:    -2.316      4.058      5.064
REMARK INTER + INTRA:          -3.404
REMARK INTER:                  -3.142
REMARK INTRA:                  -0.262
REMARK UNBOUND:                -0.275
REMARK SMILES CCCCCCCC=O
REMARK SMILES IDX 5 1 4 2 3 3 2 4 1 5 6 6 7 7 8 8 9 9
REMARK H PARENT
REMARK Flexibility Score: inf
ROOT
ATOM      1  C   UNL     1     118.897 116.367 114.066  1.00  0.00     0.000 C 
ENDROOT
BRANCH   1   2
ATOM      2  C   UNL     1     118.623 117.874 113.936  1.00  0.00     0.000 C 
BRANCH   2   3
ATOM      3  C   UNL     1     117.289 118.176 113.238  1.00  0.00    -0.000 C 
BRANCH   3   4
ATOM      4  C   UNL     1     117.360 119.500 112.469  1.00  0.00    -0.003 C 
ATOM      5  C   UNL     1     118.735 120.147 112.609  1.00  0.00     0.004 C 
ENDBRANCH   3   4
ENDBRANCH   2   3
ENDBRANCH   1   2
BRANCH   1   6
ATOM      6  C   UNL     1     119.253 115.713 112.719  1.00  0.00     0.008 C 
BRANCH   6   7
ATOM      7  C   UNL     1     119.954 114.359 112.904  1.00  0.00     0.072 C 
BRANCH   7   8
ATOM      8  C   UNL     1     119.442 113.608 114.099  1.00  0.00     0.224 C 
ATOM      9  O   UNL     1     120.216 112.976 114.798  1.00  0.00    -0.303 OA
ENDBRANCH   7   8
ENDBRANCH   6   7
ENDBRANCH   1   6
TORSDOF 6
ENDMDL
MODEL 3
REMARK VINA RESULT:    -2.294      3.991      5.057
REMARK INTER + INTRA:          -3.374
REMARK INTER:                  -3.162
REMARK INTRA:                  -0.212
REMARK UNBOUND:                -0.275
REMARK SMILES CCCCCCCC=O
REMARK SMILES IDX 5 1 4 2 3 3 2 4 1 5 6 6 7 7 8 8 9 9
REMARK H PARENT
REMARK Flexibility Score: inf
ROOT
ATOM      1  C   UNL     1     118.877 116.787 112.898  1.00  0.00     0.000 C 
ENDROOT
BRANCH   1   2
ATOM      2  C   UNL     1     119.415 115.733 111.916  1.00  0.00     0.000 C 
BRANCH   2   3
ATOM      3  C   UNL     1     120.074 114.542 112.627  1.00  0.00    -0.000 C 
BRANCH   3   4
ATOM      4  C   UNL     1     119.229 114.078 113.818  1.00  0.00    -0.003 C 
ATOM      5  C   UNL     1     120.058 113.251 114.795  1.00  0.00     0.004 C 
ENDBRANCH   3   4
ENDBRANCH   2   3
ENDBRANCH   1   2
BRANCH   1   6
ATOM      6  C   UNL     1     117.671 117.558 112.336  1.00  0.00     0.008 C 
BRANCH   6   7
ATOM      7  C   UNL     1     117.395 118.848 113.122  1.00  0.00     0.072 C 
BRANCH   7   8
ATOM      8  C   UNL     1     118.603 119.738 113.201  1.00  0.00     0.224 C 
ATOM      9  O   UNL     1     118.739 120.652 112.405  1.00  0.00    -0.303 OA
ENDBRANCH   7   8
ENDBRANCH   6   7
ENDBRANCH   1   6
TORSDOF 6
ENDMDL
MODEL 4
REMARK VINA RESULT:    -2.257     10.022     11.802
REMARK INTER + INTRA:          -3.324
REMARK INTER:                  -2.774
REMARK INTRA:                  -0.550
REMARK UNBOUND:                -0.275
REMARK SMILES CCCCCCCC=O
REMARK SMILES IDX 5 1 4 2 3 3 2 4 1 5 6 6 7 7 8 8 9 9
REMARK H PARENT
REMARK Flexibility Score: inf
ROOT
ATOM      1  C   UNL     1     124.598 121.483 119.258  1.00  0.00     0.000 C 
ENDROOT
BRANCH   1   2
ATOM      2  C   UNL     1     125.568 121.582 118.069  1.00  0.00     0.000 C 
BRANCH   2   3
ATOM      3  C   UNL     1     124.970 122.345 116.878  1.00  0.00    -0.000 C 
BRANCH   3   4
ATOM      4  C   UNL     1     125.436 121.739 115.549  1.00  0.00    -0.003 C 
ATOM      5  C   UNL     1     124.710 120.430 115.254  1.00  0.00     0.004 C 
ENDBRANCH   3   4
ENDBRANCH   2   3
ENDBRANCH   1   2
BRANCH   1   6
ATOM      6  C   UNL     1     124.206 120.031 119.583  1.00  0.00     0.008 C 
BRANCH   6   7
ATOM      7  C   UNL     1     123.221 119.456 118.555  1.00  0.00     0.072 C 
BRANCH   7   8
ATOM      8  C   UNL     1     122.052 120.367 118.312  1.00  0.00     0.224 C 
ATOM      9  O   UNL     1     121.767 120.702 117.174  1.00  0.00    -0.303 OA
ENDBRANCH   7   8
ENDBRANCH   6   7
ENDBRANCH   1   6
TORSDOF 6
ENDMDL
MODEL 5
REMARK VINA RESULT:    -2.253     11.034     12.291
REMARK INTER + INTRA:          -3.318
REMARK INTER:                  -3.007
REMARK INTRA:                  -0.311
REMARK UNBOUND:                -0.275
REMARK SMILES CCCCCCCC=O
REMARK SMILES IDX 5 1 4 2 3 3 2 4 1 5 6 6 7 7 8 8 9 9
REMARK H PARENT
REMARK Flexibility Score: inf
ROOT
ATOM      1  C   UNL     1     125.359 121.595 115.270  1.00  0.00     0.000 C 
ENDROOT
BRANCH   1   2
ATOM      2  C   UNL     1     124.615 120.376 115.839  1.00  0.00     0.000 C 
BRANCH   2   3
ATOM      3  C   UNL     1     123.752 120.725 117.061  1.00  0.00    -0.000 C 
BRANCH   3   4
ATOM      4  C   UNL     1     124.056 119.785 118.232  1.00  0.00    -0.003 C 
ATOM      5  C   UNL     1     124.476 120.567 119.474  1.00  0.00     0.004 C 
ENDBRANCH   3   4
ENDBRANCH   2   3
ENDBRANCH   1   2
BRANCH   1   6
ATOM      6  C   UNL     1     125.912 122.517 116.371  1.00  0.00     0.008 C 
BRANCH   6   7
ATOM      7  C   UNL     1     126.529 123.799 115.794  1.00  0.00     0.072 C 
BRANCH   7   8
ATOM      8  C   UNL     1     125.717 124.365 114.664  1.00  0.00     0.224 C 
ATOM      9  O   UNL     1     126.260 124.662 113.613  1.00  0.00    -0.303 OA
ENDBRANCH   7   8
ENDBRANCH   6   7
ENDBRANCH   1   6
TORSDOF 6
ENDMDL
MODEL 6
REMARK VINA RESULT:    -2.244      7.911      9.051
REMARK INTER + INTRA:          -3.306
REMARK INTER:                  -2.806
REMARK INTRA:                  -0.500
REMARK UNBOUND:                -0.275
REMARK SMILES CCCCCCCC=O
REMARK SMILES IDX 5 1 4 2 3 3 2 4 1 5 6 6 7 7 8 8 9 9
REMARK H PARENT
REMARK Flexibility Score: inf
ROOT
ATOM      1  C   UNL     1     120.293 108.751 116.204  1.00  0.00     0.000 C 
ENDROOT
BRANCH   1   2
ATOM      2  C   UNL     1     120.886 108.616 117.616  1.00  0.00     0.000 C 
BRANCH   2   3
ATOM      3  C   UNL     1     121.037 109.969 118.328  1.00  0.00    -0.000 C 
BRANCH   3   4
ATOM      4  C   UNL     1     122.023 110.874 117.581  1.00  0.00    -0.003 C 
ATOM      5  C   UNL     1     123.424 110.270 117.565  1.00  0.00     0.004 C 
ENDBRANCH   3   4
ENDBRANCH   2   3
ENDBRANCH   1   2
BRANCH   1   6
ATOM      6  C   UNL     1     121.104 107.983 115.146  1.00  0.00     0.008 C 
BRANCH   6   7
ATOM      7  C   UNL     1     122.275 107.209 115.767  1.00  0.00     0.072 C 
BRANCH   7   8
ATOM      8  C   UNL     1     123.455 107.119 114.843  1.00  0.00     0.224 C 
ATOM      9  O   UNL     1     124.383 107.901 114.962  1.00  0.00    -0.303 OA
ENDBRANCH   7   8
ENDBRANCH   6   7
ENDBRANCH   1   6
TORSDOF 6
ENDMDL
MODEL 7
REMARK VINA RESULT:    -2.241      3.923      4.928
REMARK INTER + INTRA:          -3.303
REMARK INTER:                  -3.017
REMARK INTRA:                  -0.286
REMARK UNBOUND:                -0.275
REMARK SMILES CCCCCCCC=O
REMARK SMILES IDX 5 1 4 2 3 3 2 4 1 5 6 6 7 7 8 8 9 9
REMARK H PARENT
REMARK Flexibility Score: inf
ROOT
ATOM      1  C   UNL     1     114.438 116.755 113.623  1.00  0.00     0.000 C 
ENDROOT
BRANCH   1   2
ATOM      2  C   UNL     1     113.729 117.436 112.441  1.00  0.00     0.000 C 
BRANCH   2   3
ATOM      3  C   UNL     1     113.387 118.907 112.723  1.00  0.00    -0.000 C 
BRANCH   3   4
ATOM      4  C   UNL     1     113.915 119.339 114.095  1.00  0.00    -0.003 C 
ATOM      5  C   UNL     1     112.936 120.277 114.794  1.00  0.00     0.004 C 
ENDBRANCH   3   4
ENDBRANCH   2   3
ENDBRANCH   1   2
BRANCH   1   6
ATOM      6  C   UNL     1     114.153 115.244 113.693  1.00  0.00     0.008 C 
BRANCH   6   7
ATOM      7  C   UNL     1     114.015 114.619 112.298  1.00  0.00     0.072 C 
BRANCH   7   8
ATOM      8  C   UNL     1     115.151 113.691 111.972  1.00  0.00     0.224 C 
ATOM      9  O   UNL     1     116.256 113.893 112.447  1.00  0.00    -0.303 OA
ENDBRANCH   7   8
ENDBRANCH   6   7
ENDBRANCH   1   6
TORSDOF 6
ENDMDL
MODEL 8
REMARK VINA RESULT:    -2.233     10.369     12.048
REMARK INTER + INTRA:          -3.292
REMARK INTER:                  -2.838
REMARK INTRA:                  -0.454
REMARK UNBOUND:                -0.275
REMARK SMILES CCCCCCCC=O
REMARK SMILES IDX 5 1 4 2 3 3 2 4 1 5 6 6 7 7 8 8 9 9
REMARK H PARENT
REMARK Flexibility Score: inf
ROOT
ATOM      1  C   UNL     1     122.583 121.124 116.750  1.00  0.00     0.000 C 
ENDROOT
BRANCH   1   2
ATOM      2  C   UNL     1     124.042 120.677 116.934  1.00  0.00     0.000 C 
BRANCH   2   3
ATOM      3  C   UNL     1     124.873 120.819 115.650  1.00  0.00    -0.000 C 
BRANCH   3   4
ATOM      4  C   UNL     1     125.623 122.156 115.629  1.00  0.00    -0.003 C 
ATOM      5  C   UNL     1     126.060 122.567 117.031  1.00  0.00     0.004 C 
ENDBRANCH   3   4
ENDBRANCH   2   3
ENDBRANCH   1   2
BRANCH   1   6
ATOM      6  C   UNL     1     122.135 122.138 117.816  1.00  0.00     0.008 C 
BRANCH   6   7
ATOM      7  C   UNL     1     122.359 123.587 117.363  1.00  0.00     0.072 C 
BRANCH   7   8
ATOM      8  C   UNL     1     121.069 124.334 117.176  1.00  0.00     0.224 C 
ATOM      9  O   UNL     1     120.382 124.124 116.190  1.00  0.00    -0.303 OA
ENDBRANCH   7   8
ENDBRANCH   6   7
ENDBRANCH   1   6
TORSDOF 6
ENDMDL
MODEL 9
REMARK VINA RESULT:    -2.213      3.567      4.892
REMARK INTER + INTRA:          -3.264
REMARK INTER:                  -2.995
REMARK INTRA:                  -0.269
REMARK UNBOUND:                -0.275
REMARK SMILES CCCCCCCC=O
REMARK SMILES IDX 5 1 4 2 3 3 2 4 1 5 6 6 7 7 8 8 9 9
REMARK H PARENT
REMARK Flexibility Score: inf
ROOT
ATOM      1  C   UNL     1     118.866 117.412 112.840  1.00  0.00     0.000 C 
ENDROOT
BRANCH   1   2
ATOM      2  C   UNL     1     119.261 118.712 112.120  1.00  0.00     0.000 C 
BRANCH   2   3
ATOM      3  C   UNL     1     118.077 119.675 111.945  1.00  0.00    -0.000 C 
BRANCH   3   4
ATOM      4  C   UNL     1     116.882 119.235 112.797  1.00  0.00    -0.003 C 
ATOM      5  C   UNL     1     115.598 119.200 111.972  1.00  0.00     0.004 C 
ENDBRANCH   3   4
ENDBRANCH   2   3
ENDBRANCH   1   2
BRANCH   1   6
ATOM      6  C   UNL     1     118.867 116.193 111.901  1.00  0.00     0.008 C 
BRANCH   6   7
ATOM      7  C   UNL     1     119.721 115.042 112.452  1.00  0.00     0.072 C 
BRANCH   7   8
ATOM      8  C   UNL     1     118.913 114.064 113.256  1.00  0.00     0.224 C 
ATOM      9  O   UNL     1     117.695 114.080 113.188  1.00  0.00    -0.303 OA
ENDBRANCH   7   8
ENDBRANCH   6   7
ENDBRANCH   1   6
TORSDOF 6
ENDMDL
