MODEL 1
REMARK VINA RESULT:    -4.416      0.000      0.000
REMARK INTER + INTRA:          -8.128
REMARK INTER:                  -6.611
REMARK INTRA:                  -1.517
REMARK UNBOUND:                -1.517
REMARK SMILES COC(=O)C1=CO[C@@H](O[C@H]2O[C@@H](CO)[C@@H](O)[C@@H](O)[C@@H]2O)[C@H]2C(CO)=CC[C@H]12
REMARK SMILES IDX 9 1 8 2 5 3 6 4 27 5 7 6 21 7 26 8 22 9 25 10 3 11 4 12 2 13
REMARK SMILES IDX 1 14 23 15 24 16 10 18 19 19 11 20 17 21 12 22 15 23 20 24
REMARK SMILES IDX 18 26 13 28 14 29 16 31
REMARK H PARENT 24 17 20 25 18 27 14 30 16 32
REMARK Flexibility Score: inf
ROOT
ATOM      1  O   UNL     1      43.785  -0.757 -47.943  1.00  0.00    -0.310 OA
ENDROOT
BRANCH   1   2
ATOM      2  C   UNL     1      43.086  -1.995 -47.937  1.00  0.00     0.316 C 
ATOM      3  C   UNL     1      45.069  -4.007 -47.141  1.00  0.00     0.076 C 
ATOM      4  C   UNL     1      44.134  -3.574 -46.265  1.00  0.00     0.202 C 
ATOM      5  C   UNL     1      45.142  -3.274 -48.458  1.00  0.00     0.047 C 
ATOM      6  O   UNL     1      43.177  -2.593 -46.627  1.00  0.00    -0.471 OA
ATOM      7  C   UNL     1      43.728  -2.963 -48.932  1.00  0.00     0.094 C 
ATOM      8  C   UNL     1      45.777  -3.905 -49.696  1.00  0.00     0.037 C 
ATOM      9  C   UNL     1      43.956  -2.573 -50.352  1.00  0.00    -0.039 C 
ATOM     10  C   UNL     1      45.074  -3.156 -50.795  1.00  0.00    -0.024 C 
BRANCH   3  11
ATOM     11  C   UNL     1      46.089  -4.996 -46.728  1.00  0.00     0.337 C 
ATOM     12  O   UNL     1      47.224  -4.611 -46.337  1.00  0.00    -0.246 OA
BRANCH  11  13
ATOM     13  O   UNL     1      45.789  -6.363 -46.760  1.00  0.00    -0.466 OA
ATOM     14  C   UNL     1      45.924  -7.151 -47.936  1.00  0.00     0.282 C 
ENDBRANCH  11  13
ENDBRANCH   3  11
BRANCH   9  15
ATOM     15  C   UNL     1      42.974  -1.847 -51.229  1.00  0.00     0.187 C 
BRANCH  15  16
ATOM     16  O   UNL     1      43.091  -0.461 -51.056  1.00  0.00    -0.392 OA
ATOM     17  H   UNL     1      42.414  -0.043 -51.652  1.00  0.00     0.211 HD
ENDBRANCH  15  16
ENDBRANCH   9  15
ENDBRANCH   1   2
BRANCH   1  18
ATOM     18  C   UNL     1      43.163   0.234 -47.139  1.00  0.00     0.286 C 
ATOM     19  C   UNL     1      42.693   1.451 -47.976  1.00  0.00     0.202 C 
ATOM     20  O   UNL     1      44.005   0.581 -46.044  1.00  0.00    -0.341 OA
ATOM     21  C   UNL     1      41.875   2.432 -47.104  1.00  0.00     0.179 C 
ATOM     22  C   UNL     1      43.648   1.781 -45.358  1.00  0.00     0.178 C 
ATOM     23  C   UNL     1      42.184   2.247 -45.598  1.00  0.00     0.177 C 
BRANCH  19  24
ATOM     24  O   UNL     1      41.914   1.002 -49.055  1.00  0.00    -0.385 OA
ATOM     25  H   UNL     1      41.721   1.796 -49.617  1.00  0.00     0.211 HD
ENDBRANCH  19  24
BRANCH  21  26
ATOM     26  O   UNL     1      42.152   3.748 -47.514  1.00  0.00    -0.387 OA
ATOM     27  H   UNL     1      41.795   4.356 -46.814  1.00  0.00     0.211 HD
ENDBRANCH  21  26
BRANCH  22  28
ATOM     28  C   UNL     1      44.707   2.860 -45.657  1.00  0.00     0.191 C 
BRANCH  28  29
ATOM     29  O   UNL     1      44.721   3.840 -44.652  1.00  0.00    -0.394 OA
ATOM     30  H   UNL     1      43.794   4.184 -44.565  1.00  0.00     0.210 HD
ENDBRANCH  28  29
ENDBRANCH  22  28
BRANCH  23  31
ATOM     31  O   UNL     1      41.909   3.417 -44.869  1.00  0.00    -0.387 OA
ATOM     32  H   UNL     1      42.245   4.178 -45.412  1.00  0.00     0.211 HD
ENDBRANCH  23  31
ENDBRANCH   1  18
TORSDOF 11
ENDMDL
MODEL 2
REMARK VINA RESULT:    -4.311     12.145     15.807
REMARK INTER + INTRA:          -7.970
REMARK INTER:                  -7.413
REMARK INTRA:                  -0.558
REMARK UNBOUND:                -1.517
REMARK SMILES COC(=O)C1=CO[C@@H](O[C@H]2O[C@@H](CO)[C@@H](O)[C@@H](O)[C@@H]2O)[C@H]2C(CO)=CC[C@H]12
REMARK SMILES IDX 9 1 8 2 5 3 6 4 27 5 7 6 21 7 26 8 22 9 25 10 3 11 4 12 2 13
REMARK SMILES IDX 1 14 23 15 24 16 10 18 19 19 11 20 17 21 12 22 15 23 20 24
REMARK SMILES IDX 18 26 13 28 14 29 16 31
REMARK H PARENT 24 17 20 25 18 27 14 30 16 32
REMARK Flexibility Score: inf
ROOT
ATOM      1  O   UNL     1      57.989  -6.363 -46.437  1.00  0.00    -0.310 OA
ENDROOT
BRANCH   1   2
ATOM      2  C   UNL     1      58.396  -5.044 -46.093  1.00  0.00     0.316 C 
ATOM      3  C   UNL     1      60.047  -4.126 -48.338  1.00  0.00     0.076 C 
ATOM      4  C   UNL     1      58.780  -3.681 -48.186  1.00  0.00     0.202 C 
ATOM      5  C   UNL     1      60.483  -5.236 -47.414  1.00  0.00     0.047 C 
ATOM      6  O   UNL     1      57.963  -4.124 -47.115  1.00  0.00    -0.471 OA
ATOM      7  C   UNL     1      59.923  -4.970 -46.022  1.00  0.00     0.094 C 
ATOM      8  C   UNL     1      61.959  -5.515 -47.130  1.00  0.00     0.037 C 
ATOM      9  C   UNL     1      60.704  -5.925 -45.186  1.00  0.00    -0.039 C 
ATOM     10  C   UNL     1      61.873  -6.177 -45.782  1.00  0.00    -0.024 C 
BRANCH   3  11
ATOM     11  C   UNL     1      60.867  -3.688 -49.490  1.00  0.00     0.337 C 
ATOM     12  O   UNL     1      61.585  -2.655 -49.401  1.00  0.00    -0.246 OA
BRANCH  11  13
ATOM     13  O   UNL     1      60.855  -4.430 -50.678  1.00  0.00    -0.466 OA
ATOM     14  C   UNL     1      59.947  -4.163 -51.739  1.00  0.00     0.282 C 
ENDBRANCH  11  13
ENDBRANCH   3  11
BRANCH   9  15
ATOM     15  C   UNL     1      60.359  -6.348 -43.785  1.00  0.00     0.187 C 
BRANCH  15  16
ATOM     16  O   UNL     1      60.749  -7.676 -43.563  1.00  0.00    -0.392 OA
ATOM     17  H   UNL     1      61.724  -7.719 -43.747  1.00  0.00     0.211 HD
ENDBRANCH  15  16
ENDBRANCH   9  15
ENDBRANCH   1   2
BRANCH   1  18
ATOM     18  C   UNL     1      56.586  -6.551 -46.343  1.00  0.00     0.286 C 
ATOM     19  C   UNL     1      56.042  -7.449 -47.483  1.00  0.00     0.202 C 
ATOM     20  O   UNL     1      55.924  -5.294 -46.238  1.00  0.00    -0.341 OA
ATOM     21  C   UNL     1      54.546  -7.772 -47.259  1.00  0.00     0.179 C 
ATOM     22  C   UNL     1      54.516  -5.326 -46.464  1.00  0.00     0.178 C 
ATOM     23  C   UNL     1      53.874  -6.736 -46.326  1.00  0.00     0.177 C 
BRANCH  19  24
ATOM     24  O   UNL     1      56.788  -8.638 -47.536  1.00  0.00    -0.385 OA
ATOM     25  H   UNL     1      56.269  -9.276 -48.092  1.00  0.00     0.211 HD
ENDBRANCH  19  24
BRANCH  21  26
ATOM     26  O   UNL     1      53.897  -7.818 -48.506  1.00  0.00    -0.387 OA
ATOM     27  H   UNL     1      54.591  -7.694 -49.205  1.00  0.00     0.211 HD
ENDBRANCH  21  26
BRANCH  22  28
ATOM     28  C   UNL     1      54.210  -4.628 -47.804  1.00  0.00     0.191 C 
BRANCH  28  29
ATOM     29  O   UNL     1      55.394  -4.356 -48.509  1.00  0.00    -0.394 OA
ATOM     30  H   UNL     1      56.129  -4.833 -48.043  1.00  0.00     0.210 HD
ENDBRANCH  28  29
ENDBRANCH  22  28
BRANCH  23  31
ATOM     31  O   UNL     1      52.486  -6.674 -46.540  1.00  0.00    -0.387 OA
ATOM     32  H   UNL     1      52.058  -6.679 -45.644  1.00  0.00     0.211 HD
ENDBRANCH  23  31
ENDBRANCH   1  18
TORSDOF 11
ENDMDL
MODEL 3
REMARK VINA RESULT:    -4.292      6.910     11.741
REMARK INTER + INTRA:          -7.941
REMARK INTER:                  -6.400
REMARK INTRA:                  -1.541
REMARK UNBOUND:                -1.517
REMARK SMILES COC(=O)C1=CO[C@@H](O[C@H]2O[C@@H](CO)[C@@H](O)[C@@H](O)[C@@H]2O)[C@H]2C(CO)=CC[C@H]12
REMARK SMILES IDX 9 1 8 2 5 3 6 4 27 5 7 6 21 7 26 8 22 9 25 10 3 11 4 12 2 13
REMARK SMILES IDX 1 14 23 15 24 16 10 18 19 19 11 20 17 21 12 22 15 23 20 24
REMARK SMILES IDX 18 26 13 28 14 29 16 31
REMARK H PARENT 24 17 20 25 18 27 14 30 16 32
REMARK Flexibility Score: inf
ROOT
ATOM      1  O   UNL     1      52.174  -6.050 -45.414  1.00  0.00    -0.310 OA
ENDROOT
BRANCH   1   2
ATOM      2  C   UNL     1      51.784  -7.393 -45.673  1.00  0.00     0.316 C 
ATOM      3  C   UNL     1      48.855  -7.335 -45.845  1.00  0.00     0.076 C 
ATOM      4  C   UNL     1      49.611  -7.431 -46.962  1.00  0.00     0.202 C 
ATOM      5  C   UNL     1      49.595  -7.078 -44.556  1.00  0.00     0.047 C 
ATOM      6  O   UNL     1      51.027  -7.447 -46.899  1.00  0.00    -0.471 OA
ATOM      7  C   UNL     1      50.879  -7.900 -44.549  1.00  0.00     0.094 C 
ATOM      8  C   UNL     1      48.982  -7.409 -43.196  1.00  0.00     0.037 C 
ATOM      9  C   UNL     1      51.296  -7.811 -43.121  1.00  0.00    -0.039 C 
ATOM     10  C   UNL     1      50.218  -7.599 -42.360  1.00  0.00    -0.024 C 
BRANCH   3  11
ATOM     11  C   UNL     1      47.379  -7.272 -45.936  1.00  0.00     0.337 C 
ATOM     12  O   UNL     1      46.720  -8.295 -46.266  1.00  0.00    -0.246 OA
BRANCH  11  13
ATOM     13  O   UNL     1      46.713  -6.076 -45.644  1.00  0.00    -0.466 OA
ATOM     14  C   UNL     1      45.980  -5.347 -46.621  1.00  0.00     0.282 C 
ENDBRANCH  11  13
ENDBRANCH   3  11
BRANCH   9  15
ATOM     15  C   UNL     1      52.659  -8.149 -42.584  1.00  0.00     0.187 C 
BRANCH  15  16
ATOM     16  O   UNL     1      53.522  -7.052 -42.709  1.00  0.00    -0.392 OA
ATOM     17  H   UNL     1      53.947  -7.126 -43.604  1.00  0.00     0.211 HD
ENDBRANCH  15  16
ENDBRANCH   9  15
ENDBRANCH   1   2
BRANCH   1  18
ATOM     18  C   UNL     1      53.519  -5.784 -45.782  1.00  0.00     0.286 C 
ATOM     19  C   UNL     1      53.618  -5.094 -47.165  1.00  0.00     0.202 C 
ATOM     20  O   UNL     1      54.305  -6.967 -45.673  1.00  0.00    -0.341 OA
ATOM     21  C   UNL     1      55.074  -4.667 -47.462  1.00  0.00     0.179 C 
ATOM     22  C   UNL     1      55.577  -6.914 -46.317  1.00  0.00     0.178 C 
ATOM     23  C   UNL     1      56.087  -5.476 -46.616  1.00  0.00     0.177 C 
BRANCH  19  24
ATOM     24  O   UNL     1      52.772  -3.972 -47.189  1.00  0.00    -0.385 OA
ATOM     25  H   UNL     1      53.011  -3.452 -48.000  1.00  0.00     0.211 HD
ENDBRANCH  19  24
BRANCH  21  26
ATOM     26  O   UNL     1      55.328  -4.828 -48.836  1.00  0.00    -0.387 OA
ATOM     27  H   UNL     1      54.875  -4.081 -49.309  1.00  0.00     0.211 HD
ENDBRANCH  21  26
BRANCH  22  28
ATOM     28  C   UNL     1      55.551  -7.839 -47.550  1.00  0.00     0.191 C 
BRANCH  28  29
ATOM     29  O   UNL     1      56.746  -8.567 -47.657  1.00  0.00    -0.394 OA
ATOM     30  H   UNL     1      57.465  -7.919 -47.881  1.00  0.00     0.210 HD
ENDBRANCH  28  29
ENDBRANCH  22  28
BRANCH  23  31
ATOM     31  O   UNL     1      57.353  -5.514 -47.226  1.00  0.00    -0.387 OA
ATOM     32  H   UNL     1      57.861  -4.735 -46.878  1.00  0.00     0.211 HD
ENDBRANCH  23  31
ENDBRANCH   1  18
TORSDOF 11
ENDMDL
MODEL 4
REMARK VINA RESULT:    -4.198     13.499     16.707
REMARK INTER + INTRA:          -7.801
REMARK INTER:                  -6.417
REMARK INTRA:                  -1.383
REMARK UNBOUND:                -1.517
REMARK SMILES COC(=O)C1=CO[C@@H](O[C@H]2O[C@@H](CO)[C@@H](O)[C@@H](O)[C@@H]2O)[C@H]2C(CO)=CC[C@H]12
REMARK SMILES IDX 9 1 8 2 5 3 6 4 27 5 7 6 21 7 26 8 22 9 25 10 3 11 4 12 2 13
REMARK SMILES IDX 1 14 23 15 24 16 10 18 19 19 11 20 17 21 12 22 15 23 20 24
REMARK SMILES IDX 18 26 13 28 14 29 16 31
REMARK H PARENT 24 17 20 25 18 27 14 30 16 32
REMARK Flexibility Score: inf
ROOT
ATOM      1  O   UNL     1      59.536  -3.085 -48.054  1.00  0.00    -0.310 OA
ENDROOT
BRANCH   1   2
ATOM      2  C   UNL     1      60.074  -2.009 -48.812  1.00  0.00     0.316 C 
ATOM      3  C   UNL     1      57.974   0.040 -48.856  1.00  0.00     0.076 C 
ATOM      4  C   UNL     1      59.055   0.177 -48.056  1.00  0.00     0.202 C 
ATOM      5  C   UNL     1      57.828  -1.284 -49.565  1.00  0.00     0.047 C 
ATOM      6  O   UNL     1      60.073  -0.809 -48.011  1.00  0.00    -0.471 OA
ATOM      7  C   UNL     1      59.200  -1.746 -50.040  1.00  0.00     0.094 C 
ATOM      8  C   UNL     1      56.973  -1.435 -50.822  1.00  0.00     0.037 C 
ATOM      9  C   UNL     1      58.848  -2.841 -50.986  1.00  0.00    -0.039 C 
ATOM     10  C   UNL     1      57.622  -2.627 -51.471  1.00  0.00    -0.024 C 
BRANCH   3  11
ATOM     11  C   UNL     1      56.899   1.058 -48.852  1.00  0.00     0.337 C 
ATOM     12  O   UNL     1      55.814   0.832 -48.250  1.00  0.00    -0.246 OA
BRANCH  11  13
ATOM     13  O   UNL     1      57.092   2.279 -49.508  1.00  0.00    -0.466 OA
ATOM     14  C   UNL     1      56.867   2.445 -50.903  1.00  0.00     0.282 C 
ENDBRANCH  11  13
ENDBRANCH   3  11
BRANCH   9  15
ATOM     15  C   UNL     1      59.796  -3.884 -51.510  1.00  0.00     0.187 C 
BRANCH  15  16
ATOM     16  O   UNL     1      59.972  -4.906 -50.566  1.00  0.00    -0.392 OA
ATOM     17  H   UNL     1      59.178  -4.881 -49.970  1.00  0.00     0.211 HD
ENDBRANCH  15  16
ENDBRANCH   9  15
ENDBRANCH   1   2
BRANCH   1  18
ATOM     18  C   UNL     1      60.337  -3.429 -46.934  1.00  0.00     0.286 C 
ATOM     19  C   UNL     1      60.717  -4.931 -46.929  1.00  0.00     0.202 C 
ATOM     20  O   UNL     1      59.715  -2.991 -45.730  1.00  0.00    -0.341 OA
ATOM     21  C   UNL     1      61.723  -5.238 -45.795  1.00  0.00     0.179 C 
ATOM     22  C   UNL     1      60.246  -3.553 -44.531  1.00  0.00     0.178 C 
ATOM     23  C   UNL     1      61.668  -4.163 -44.681  1.00  0.00     0.177 C 
BRANCH  19  24
ATOM     24  O   UNL     1      61.275  -5.275 -48.173  1.00  0.00    -0.385 OA
ATOM     25  H   UNL     1      61.416  -6.257 -48.160  1.00  0.00     0.211 HD
ENDBRANCH  19  24
BRANCH  21  26
ATOM     26  O   UNL     1      61.447  -6.514 -45.272  1.00  0.00    -0.387 OA
ATOM     27  H   UNL     1      61.685  -6.496 -44.308  1.00  0.00     0.211 HD
ENDBRANCH  21  26
BRANCH  22  28
ATOM     28  C   UNL     1      59.209  -4.524 -43.933  1.00  0.00     0.191 C 
BRANCH  28  29
ATOM     29  O   UNL     1      59.740  -5.210 -42.830  1.00  0.00    -0.394 OA
ATOM     30  H   UNL     1      60.724  -5.079 -42.850  1.00  0.00     0.210 HD
ENDBRANCH  28  29
ENDBRANCH  22  28
BRANCH  23  31
ATOM     31  O   UNL     1      62.125  -4.672 -43.453  1.00  0.00    -0.387 OA
ATOM     32  H   UNL     1      61.734  -4.099 -42.743  1.00  0.00     0.211 HD
ENDBRANCH  23  31
ENDBRANCH   1  18
TORSDOF 11
ENDMDL
MODEL 5
REMARK VINA RESULT:    -4.168     13.122     16.356
REMARK INTER + INTRA:          -7.755
REMARK INTER:                  -6.478
REMARK INTRA:                  -1.277
REMARK UNBOUND:                -1.517
REMARK SMILES COC(=O)C1=CO[C@@H](O[C@H]2O[C@@H](CO)[C@@H](O)[C@@H](O)[C@@H]2O)[C@H]2C(CO)=CC[C@H]12
REMARK SMILES IDX 9 1 8 2 5 3 6 4 27 5 7 6 21 7 26 8 22 9 25 10 3 11 4 12 2 13
REMARK SMILES IDX 1 14 23 15 24 16 10 18 19 19 11 20 17 21 12 22 15 23 20 24
REMARK SMILES IDX 18 26 13 28 14 29 16 31
REMARK H PARENT 24 17 20 25 18 27 14 30 16 32
REMARK Flexibility Score: inf
ROOT
ATOM      1  O   UNL     1      58.780  -2.942 -47.594  1.00  0.00    -0.310 OA
ENDROOT
BRANCH   1   2
ATOM      2  C   UNL     1      59.220  -1.738 -48.210  1.00  0.00     0.316 C 
ATOM      3  C   UNL     1      57.045  -0.945 -50.014  1.00  0.00     0.076 C 
ATOM      4  C   UNL     1      57.232  -0.308 -48.836  1.00  0.00     0.202 C 
ATOM      5  C   UNL     1      57.885  -2.176 -50.250  1.00  0.00     0.047 C 
ATOM      6  O   UNL     1      58.269  -0.686 -47.946  1.00  0.00    -0.471 OA
ATOM      7  C   UNL     1      59.293  -1.923 -49.727  1.00  0.00     0.094 C 
ATOM      8  C   UNL     1      58.145  -2.715 -51.656  1.00  0.00     0.037 C 
ATOM      9  C   UNL     1      60.055  -3.053 -50.331  1.00  0.00    -0.039 C 
ATOM     10  C   UNL     1      59.440  -3.451 -51.448  1.00  0.00    -0.024 C 
BRANCH   3  11
ATOM     11  C   UNL     1      55.927  -0.565 -50.907  1.00  0.00     0.337 C 
ATOM     12  O   UNL     1      55.907   0.573 -51.449  1.00  0.00    -0.246 OA
BRANCH  11  13
ATOM     13  O   UNL     1      54.896  -1.478 -51.160  1.00  0.00    -0.466 OA
ATOM     14  C   UNL     1      54.538  -1.885 -52.475  1.00  0.00     0.282 C 
ENDBRANCH  11  13
ENDBRANCH   3  11
BRANCH   9  15
ATOM     15  C   UNL     1      61.421  -3.514 -49.905  1.00  0.00     0.187 C 
BRANCH  15  16
ATOM     16  O   UNL     1      61.448  -4.909 -49.767  1.00  0.00    -0.392 OA
ATOM     17  H   UNL     1      60.774  -5.138 -49.074  1.00  0.00     0.211 HD
ENDBRANCH  15  16
ENDBRANCH   9  15
ENDBRANCH   1   2
BRANCH   1  18
ATOM     18  C   UNL     1      59.756  -3.514 -46.737  1.00  0.00     0.286 C 
ATOM     19  C   UNL     1      59.571  -5.045 -46.586  1.00  0.00     0.202 C 
ATOM     20  O   UNL     1      59.795  -2.815 -45.497  1.00  0.00    -0.341 OA
ATOM     21  C   UNL     1      60.742  -5.662 -45.786  1.00  0.00     0.179 C 
ATOM     22  C   UNL     1      60.489  -3.483 -44.444  1.00  0.00     0.178 C 
ATOM     23  C   UNL     1      61.461  -4.599 -44.920  1.00  0.00     0.177 C 
BRANCH  19  24
ATOM     24  O   UNL     1      59.494  -5.634 -47.859  1.00  0.00    -0.385 OA
ATOM     25  H   UNL     1      58.720  -6.255 -47.839  1.00  0.00     0.211 HD
ENDBRANCH  19  24
BRANCH  21  26
ATOM     26  O   UNL     1      60.249  -6.708 -44.986  1.00  0.00    -0.387 OA
ATOM     27  H   UNL     1      59.791  -7.351 -45.590  1.00  0.00     0.211 HD
ENDBRANCH  21  26
BRANCH  22  28
ATOM     28  C   UNL     1      59.466  -3.950 -43.390  1.00  0.00     0.191 C 
BRANCH  28  29
ATOM     29  O   UNL     1      60.041  -4.882 -42.511  1.00  0.00    -0.394 OA
ATOM     30  H   UNL     1      59.368  -5.597 -42.361  1.00  0.00     0.210 HD
ENDBRANCH  28  29
ENDBRANCH  22  28
BRANCH  23  31
ATOM     31  O   UNL     1      62.119  -5.186 -43.826  1.00  0.00    -0.387 OA
ATOM     32  H   UNL     1      61.762  -4.750 -43.009  1.00  0.00     0.211 HD
ENDBRANCH  23  31
ENDBRANCH   1  18
TORSDOF 11
ENDMDL
MODEL 6
REMARK VINA RESULT:    -4.133     12.268     14.142
REMARK INTER + INTRA:          -7.704
REMARK INTER:                  -6.132
REMARK INTRA:                  -1.571
REMARK UNBOUND:                -1.517
REMARK SMILES COC(=O)C1=CO[C@@H](O[C@H]2O[C@@H](CO)[C@@H](O)[C@@H](O)[C@@H]2O)[C@H]2C(CO)=CC[C@H]12
REMARK SMILES IDX 9 1 8 2 5 3 6 4 27 5 7 6 21 7 26 8 22 9 25 10 3 11 4 12 2 13
REMARK SMILES IDX 1 14 23 15 24 16 10 18 19 19 11 20 17 21 12 22 15 23 20 24
REMARK SMILES IDX 18 26 13 28 14 29 16 31
REMARK H PARENT 24 17 20 25 18 27 14 30 16 32
REMARK Flexibility Score: inf
ROOT
ATOM      1  O   UNL     1      54.504   7.547 -49.579  1.00  0.00    -0.310 OA
ENDROOT
BRANCH   1   2
ATOM      2  C   UNL     1      53.587   6.574 -49.092  1.00  0.00     0.316 C 
ATOM      3  C   UNL     1      53.297   7.141 -46.227  1.00  0.00     0.076 C 
ATOM      4  C   UNL     1      52.327   7.490 -47.102  1.00  0.00     0.202 C 
ATOM      5  C   UNL     1      54.583   6.625 -46.824  1.00  0.00     0.047 C 
ATOM      6  O   UNL     1      52.456   7.237 -48.491  1.00  0.00    -0.471 OA
ATOM      7  C   UNL     1      54.254   5.724 -48.008  1.00  0.00     0.094 C 
ATOM      8  C   UNL     1      55.559   5.769 -46.017  1.00  0.00     0.037 C 
ATOM      9  C   UNL     1      55.557   5.045 -48.252  1.00  0.00    -0.039 C 
ATOM     10  C   UNL     1      56.259   5.017 -47.115  1.00  0.00    -0.024 C 
BRANCH   3  11
ATOM     11  C   UNL     1      53.164   7.458 -44.787  1.00  0.00     0.337 C 
ATOM     12  O   UNL     1      52.192   7.002 -44.125  1.00  0.00    -0.246 OA
BRANCH  11  13
ATOM     13  O   UNL     1      54.126   8.254 -44.156  1.00  0.00    -0.466 OA
ATOM     14  C   UNL     1      54.877   7.806 -43.034  1.00  0.00     0.282 C 
ENDBRANCH  11  13
ENDBRANCH   3  11
BRANCH   9  15
ATOM     15  C   UNL     1      55.932   4.291 -49.498  1.00  0.00     0.187 C 
BRANCH  15  16
ATOM     16  O   UNL     1      56.483   5.160 -50.451  1.00  0.00    -0.392 OA
ATOM     17  H   UNL     1      57.470   5.091 -50.360  1.00  0.00     0.211 HD
ENDBRANCH  15  16
ENDBRANCH   9  15
ENDBRANCH   1   2
BRANCH   1  18
ATOM     18  C   UNL     1      54.335   7.825 -50.960  1.00  0.00     0.286 C 
ATOM     19  C   UNL     1      53.010   8.575 -51.245  1.00  0.00     0.202 C 
ATOM     20  O   UNL     1      54.496   6.635 -51.726  1.00  0.00    -0.341 OA
ATOM     21  C   UNL     1      52.933   9.010 -52.727  1.00  0.00     0.179 C 
ATOM     22  C   UNL     1      54.035   6.712 -53.075  1.00  0.00     0.178 C 
ATOM     23  C   UNL     1      53.872   8.160 -53.617  1.00  0.00     0.177 C 
BRANCH  19  24
ATOM     24  O   UNL     1      52.922   9.701 -50.408  1.00  0.00    -0.385 OA
ATOM     25  H   UNL     1      53.667  10.304 -50.662  1.00  0.00     0.211 HD
ENDBRANCH  19  24
BRANCH  21  26
ATOM     26  O   UNL     1      51.601   8.909 -53.166  1.00  0.00    -0.387 OA
ATOM     27  H   UNL     1      51.624   8.596 -54.108  1.00  0.00     0.211 HD
ENDBRANCH  21  26
BRANCH  22  28
ATOM     28  C   UNL     1      52.770   5.843 -53.218  1.00  0.00     0.191 C 
BRANCH  28  29
ATOM     29  O   UNL     1      52.567   5.470 -54.557  1.00  0.00    -0.394 OA
ATOM     30  H   UNL     1      51.652   5.089 -54.619  1.00  0.00     0.210 HD
ENDBRANCH  28  29
ENDBRANCH  22  28
BRANCH  23  31
ATOM     31  O   UNL     1      53.439   8.145 -54.954  1.00  0.00    -0.387 OA
ATOM     32  H   UNL     1      53.712   7.269 -55.334  1.00  0.00     0.211 HD
ENDBRANCH  23  31
ENDBRANCH   1  18
TORSDOF 11
ENDMDL
MODEL 7
REMARK VINA RESULT:    -4.121      3.540      5.874
REMARK INTER + INTRA:          -7.685
REMARK INTER:                  -6.352
REMARK INTRA:                  -1.334
REMARK UNBOUND:                -1.517
REMARK SMILES COC(=O)C1=CO[C@@H](O[C@H]2O[C@@H](CO)[C@@H](O)[C@@H](O)[C@@H]2O)[C@H]2C(CO)=CC[C@H]12
REMARK SMILES IDX 9 1 8 2 5 3 6 4 27 5 7 6 21 7 26 8 22 9 25 10 3 11 4 12 2 13
REMARK SMILES IDX 1 14 23 15 24 16 10 18 19 19 11 20 17 21 12 22 15 23 20 24
REMARK SMILES IDX 18 26 13 28 14 29 16 31
REMARK H PARENT 24 17 20 25 18 27 14 30 16 32
REMARK Flexibility Score: inf
ROOT
ATOM      1  O   UNL     1      46.714  -0.278 -43.804  1.00  0.00    -0.310 OA
ENDROOT
BRANCH   1   2
ATOM      2  C   UNL     1      48.013  -0.839 -43.946  1.00  0.00     0.316 C 
ATOM      3  C   UNL     1      47.589  -3.526 -45.045  1.00  0.00     0.076 C 
ATOM      4  C   UNL     1      48.031  -2.520 -45.833  1.00  0.00     0.202 C 
ATOM      5  C   UNL     1      47.161  -3.146 -43.649  1.00  0.00     0.047 C 
ATOM      6  O   UNL     1      48.229  -1.212 -45.323  1.00  0.00    -0.471 OA
ATOM      7  C   UNL     1      48.131  -2.107 -43.099  1.00  0.00     0.094 C 
ATOM      8  C   UNL     1      47.097  -4.172 -42.519  1.00  0.00     0.037 C 
ATOM      9  C   UNL     1      47.790  -2.102 -41.649  1.00  0.00    -0.039 C 
ATOM     10  C   UNL     1      47.269  -3.287 -41.315  1.00  0.00    -0.024 C 
BRANCH   3  11
ATOM     11  C   UNL     1      47.343  -4.873 -45.609  1.00  0.00     0.337 C 
ATOM     12  O   UNL     1      48.312  -5.628 -45.893  1.00  0.00    -0.246 OA
BRANCH  11  13
ATOM     13  O   UNL     1      46.030  -5.314 -45.815  1.00  0.00    -0.466 OA
ATOM     14  C   UNL     1      45.015  -4.476 -46.355  1.00  0.00     0.282 C 
ENDBRANCH  11  13
ENDBRANCH   3  11
BRANCH   9  15
ATOM     15  C   UNL     1      48.188  -1.043 -40.660  1.00  0.00     0.187 C 
BRANCH  15  16
ATOM     16  O   UNL     1      47.376   0.091 -40.800  1.00  0.00    -0.392 OA
ATOM     17  H   UNL     1      47.876   0.729 -41.374  1.00  0.00     0.211 HD
ENDBRANCH  15  16
ENDBRANCH   9  15
ENDBRANCH   1   2
BRANCH   1  18
ATOM     18  C   UNL     1      46.480   0.809 -44.686  1.00  0.00     0.286 C 
ATOM     19  C   UNL     1      46.092   2.101 -43.926  1.00  0.00     0.202 C 
ATOM     20  O   UNL     1      45.546   0.434 -45.694  1.00  0.00    -0.341 OA
ATOM     21  C   UNL     1      46.008   3.303 -44.896  1.00  0.00     0.179 C 
ATOM     22  C   UNL     1      44.984   1.516 -46.436  1.00  0.00     0.178 C 
ATOM     23  C   UNL     1      45.796   2.839 -46.358  1.00  0.00     0.177 C 
BRANCH  19  24
ATOM     24  O   UNL     1      47.044   2.357 -42.924  1.00  0.00    -0.385 OA
ATOM     25  H   UNL     1      46.613   2.964 -42.269  1.00  0.00     0.211 HD
ENDBRANCH  19  24
BRANCH  21  26
ATOM     26  O   UNL     1      44.965   4.152 -44.484  1.00  0.00    -0.387 OA
ATOM     27  H   UNL     1      44.415   4.353 -45.286  1.00  0.00     0.211 HD
ENDBRANCH  21  26
BRANCH  22  28
ATOM     28  C   UNL     1      43.500   1.668 -46.049  1.00  0.00     0.191 C 
BRANCH  28  29
ATOM     29  O   UNL     1      42.926   0.419 -45.764  1.00  0.00    -0.394 OA
ATOM     30  H   UNL     1      42.023   0.410 -46.177  1.00  0.00     0.210 HD
ENDBRANCH  28  29
ENDBRANCH  22  28
BRANCH  23  31
ATOM     31  O   UNL     1      45.189   3.843 -47.133  1.00  0.00    -0.387 OA
ATOM     32  H   UNL     1      44.620   4.375 -46.517  1.00  0.00     0.211 HD
ENDBRANCH  23  31
ENDBRANCH   1  18
TORSDOF 11
ENDMDL
MODEL 8
REMARK VINA RESULT:    -3.981     11.195     14.778
REMARK INTER + INTRA:          -7.476
REMARK INTER:                  -6.087
REMARK INTRA:                  -1.389
REMARK UNBOUND:                -1.517
REMARK SMILES COC(=O)C1=CO[C@@H](O[C@H]2O[C@@H](CO)[C@@H](O)[C@@H](O)[C@@H]2O)[C@H]2C(CO)=CC[C@H]12
REMARK SMILES IDX 9 1 8 2 5 3 6 4 27 5 7 6 21 7 26 8 22 9 25 10 3 11 4 12 2 13
REMARK SMILES IDX 1 14 23 15 24 16 10 18 19 19 11 20 17 21 12 22 15 23 20 24
REMARK SMILES IDX 18 26 13 28 14 29 16 31
REMARK H PARENT 24 17 20 25 18 27 14 30 16 32
REMARK Flexibility Score: inf
ROOT
ATOM      1  O   UNL     1      57.308  -5.433 -47.243  1.00  0.00    -0.310 OA
ENDROOT
BRANCH   1   2
ATOM      2  C   UNL     1      56.145  -4.970 -46.566  1.00  0.00     0.316 C 
ATOM      3  C   UNL     1      53.937  -6.602 -47.602  1.00  0.00     0.076 C 
ATOM      4  C   UNL     1      54.452  -6.836 -46.374  1.00  0.00     0.202 C 
ATOM      5  C   UNL     1      54.672  -5.598 -48.456  1.00  0.00     0.047 C 
ATOM      6  O   UNL     1      55.528  -6.067 -45.863  1.00  0.00    -0.471 OA
ATOM      7  C   UNL     1      55.128  -4.439 -47.578  1.00  0.00     0.094 C 
ATOM      8  C   UNL     1      53.993  -4.884 -49.623  1.00  0.00     0.037 C 
ATOM      9  C   UNL     1      55.508  -3.415 -48.591  1.00  0.00    -0.039 C 
ATOM     10  C   UNL     1      54.820  -3.631 -49.716  1.00  0.00    -0.024 C 
BRANCH   3  11
ATOM     11  C   UNL     1      52.846  -7.447 -48.136  1.00  0.00     0.337 C 
ATOM     12  O   UNL     1      51.712  -7.442 -47.584  1.00  0.00    -0.246 OA
BRANCH  11  13
ATOM     13  O   UNL     1      53.070  -8.244 -49.265  1.00  0.00    -0.466 OA
ATOM     14  C   UNL     1      52.195  -8.250 -50.386  1.00  0.00     0.282 C 
ENDBRANCH  11  13
ENDBRANCH   3  11
BRANCH   9  15
ATOM     15  C   UNL     1      56.337  -2.188 -48.328  1.00  0.00     0.187 C 
BRANCH  15  16
ATOM     16  O   UNL     1      57.692  -2.448 -48.576  1.00  0.00    -0.392 OA
ATOM     17  H   UNL     1      58.089  -1.597 -48.901  1.00  0.00     0.211 HD
ENDBRANCH  15  16
ENDBRANCH   9  15
ENDBRANCH   1   2
BRANCH   1  18
ATOM     18  C   UNL     1      58.513  -4.968 -46.655  1.00  0.00     0.286 C 
ATOM     19  C   UNL     1      59.744  -5.251 -47.552  1.00  0.00     0.202 C 
ATOM     20  O   UNL     1      58.641  -5.469 -45.328  1.00  0.00    -0.341 OA
ATOM     21  C   UNL     1      61.012  -4.588 -46.966  1.00  0.00     0.179 C 
ATOM     22  C   UNL     1      59.942  -5.348 -44.754  1.00  0.00     0.178 C 
ATOM     23  C   UNL     1      60.857  -4.302 -45.452  1.00  0.00     0.177 C 
BRANCH  19  24
ATOM     24  O   UNL     1      59.500  -4.765 -48.847  1.00  0.00    -0.385 OA
ATOM     25  H   UNL     1      58.943  -5.445 -49.307  1.00  0.00     0.211 HD
ENDBRANCH  19  24
BRANCH  21  26
ATOM     26  O   UNL     1      62.118  -5.422 -47.207  1.00  0.00    -0.387 OA
ATOM     27  H   UNL     1      61.808  -6.360 -47.105  1.00  0.00     0.211 HD
ENDBRANCH  21  26
BRANCH  22  28
ATOM     28  C   UNL     1      60.569  -6.751 -44.638  1.00  0.00     0.191 C 
BRANCH  28  29
ATOM     29  O   UNL     1      61.505  -6.797 -43.593  1.00  0.00    -0.394 OA
ATOM     30  H   UNL     1      61.309  -7.611 -43.060  1.00  0.00     0.210 HD
ENDBRANCH  28  29
ENDBRANCH  22  28
BRANCH  23  31
ATOM     31  O   UNL     1      62.106  -4.228 -44.812  1.00  0.00    -0.387 OA
ATOM     32  H   UNL     1      62.052  -4.812 -44.010  1.00  0.00     0.211 HD
ENDBRANCH  23  31
ENDBRANCH   1  18
TORSDOF 11
ENDMDL
