MODEL 1
REMARK VINA RESULT:    -4.899      0.000      0.000
REMARK INTER + INTRA:         -10.369
REMARK INTER:                  -9.194
REMARK INTRA:                  -1.175
REMARK UNBOUND:                -1.175
REMARK SMILES O=C([O-])CCCCCCCCCCCCCCC(=O)[O-]
REMARK SMILES IDX 10 1 9 2 8 3 7 4 6 5 5 6 4 7 2 8 1 9 3 10 11 11 12 12 13 13
REMARK SMILES IDX 14 14 15 15 16 16 17 17 18 18 19 19 20 20
REMARK H PARENT
REMARK Flexibility Score: inf
ROOT
ATOM      1  C   UNL     1       1.645  24.068  48.365  1.00  0.00     0.000 C 
ENDROOT
BRANCH   1   2
ATOM      2  C   UNL     1       1.067  24.843  47.166  1.00  0.00     0.000 C 
BRANCH   2   3
ATOM      3  C   UNL     1       1.139  24.046  45.854  1.00  0.00     0.000 C 
BRANCH   3   4
ATOM      4  C   UNL     1       2.440  23.235  45.726  1.00  0.00     0.000 C 
BRANCH   4   5
ATOM      5  C   UNL     1       2.336  22.113  44.681  1.00  0.00     0.000 C 
BRANCH   5   6
ATOM      6  C   UNL     1       2.721  22.578  43.266  1.00  0.00     0.006 C 
BRANCH   6   7
ATOM      7  C   UNL     1       3.771  23.695  43.291  1.00  0.00     0.053 C 
BRANCH   7   8
ATOM      8  C   UNL     1       3.278  24.934  42.608  1.00  0.00     0.041 C 
ATOM      9  O   UNL     1       3.348  25.039  41.356  1.00  0.00    -0.550 OA
ATOM     10  O   UNL     1       2.774  25.988  43.360  1.00  0.00    -0.550 OA
ENDBRANCH   7   8
ENDBRANCH   6   7
ENDBRANCH   5   6
ENDBRANCH   4   5
ENDBRANCH   3   4
ENDBRANCH   2   3
ENDBRANCH   1   2
BRANCH   1  11
ATOM     11  C   UNL     1       1.562  24.863  49.677  1.00  0.00     0.000 C 
BRANCH  11  12
ATOM     12  C   UNL     1       1.953  24.021  50.903  1.00  0.00     0.000 C 
BRANCH  12  13
ATOM     13  C   UNL     1       2.243  22.554  50.546  1.00  0.00     0.000 C 
BRANCH  13  14
ATOM     14  C   UNL     1       2.759  21.745  51.748  1.00  0.00     0.000 C 
BRANCH  14  15
ATOM     15  C   UNL     1       3.039  22.625  52.976  1.00  0.00     0.000 C 
BRANCH  15  16
ATOM     16  C   UNL     1       4.533  22.698  53.330  1.00  0.00     0.006 C 
BRANCH  16  17
ATOM     17  C   UNL     1       5.152  24.004  52.825  1.00  0.00     0.053 C 
BRANCH  17  18
ATOM     18  C   UNL     1       6.121  23.732  51.718  1.00  0.00     0.041 C 
ATOM     19  O   UNL     1       5.756  23.079  50.705  1.00  0.00    -0.550 OA
ATOM     20  O   UNL     1       7.411  24.242  51.781  1.00  0.00    -0.550 OA
ENDBRANCH  17  18
ENDBRANCH  16  17
ENDBRANCH  15  16
ENDBRANCH  14  15
ENDBRANCH  13  14
ENDBRANCH  12  13
ENDBRANCH  11  12
ENDBRANCH   1  11
TORSDOF 15
ENDMDL
MODEL 2
REMARK VINA RESULT:    -4.813      1.670      2.755
REMARK INTER + INTRA:         -10.209
REMARK INTER:                  -8.887
REMARK INTRA:                  -1.322
REMARK UNBOUND:                -1.175
REMARK SMILES O=C([O-])CCCCCCCCCCCCCCC(=O)[O-]
REMARK SMILES IDX 10 1 9 2 8 3 7 4 6 5 5 6 4 7 2 8 1 9 3 10 11 11 12 12 13 13
REMARK SMILES IDX 14 14 15 15 16 16 17 17 18 18 19 19 20 20
REMARK H PARENT
REMARK Flexibility Score: inf
ROOT
ATOM      1  C   UNL     1       1.393  24.737  51.272  1.00  0.00     0.000 C 
ENDROOT
BRANCH   1   2
ATOM      2  C   UNL     1       1.951  25.035  49.868  1.00  0.00     0.000 C 
BRANCH   2   3
ATOM      3  C   UNL     1       1.054  25.988  49.063  1.00  0.00     0.000 C 
BRANCH   3   4
ATOM      4  C   UNL     1       1.011  25.636  47.566  1.00  0.00     0.000 C 
BRANCH   4   5
ATOM      5  C   UNL     1       1.624  24.259  47.266  1.00  0.00     0.000 C 
BRANCH   5   6
ATOM      6  C   UNL     1       1.653  23.935  45.762  1.00  0.00     0.006 C 
BRANCH   6   7
ATOM      7  C   UNL     1       2.462  22.667  45.460  1.00  0.00     0.053 C 
BRANCH   7   8
ATOM      8  C   UNL     1       2.447  22.335  43.999  1.00  0.00     0.041 C 
ATOM      9  O   UNL     1       1.667  21.451  43.557  1.00  0.00    -0.550 OA
ATOM     10  O   UNL     1       3.320  22.978  43.131  1.00  0.00    -0.550 OA
ENDBRANCH   7   8
ENDBRANCH   6   7
ENDBRANCH   5   6
ENDBRANCH   4   5
ENDBRANCH   3   4
ENDBRANCH   2   3
ENDBRANCH   1   2
BRANCH   1  11
ATOM     11  C   UNL     1       0.745  23.348  51.366  1.00  0.00     0.000 C 
BRANCH  11  12
ATOM     12  C   UNL     1       1.349  22.490  52.492  1.00  0.00     0.000 C 
BRANCH  12  13
ATOM     13  C   UNL     1       2.494  21.589  52.002  1.00  0.00     0.000 C 
BRANCH  13  14
ATOM     14  C   UNL     1       3.718  21.632  52.932  1.00  0.00     0.000 C 
BRANCH  14  15
ATOM     15  C   UNL     1       4.715  22.737  52.547  1.00  0.00     0.000 C 
BRANCH  15  16
ATOM     16  C   UNL     1       4.771  22.986  51.032  1.00  0.00     0.006 C 
BRANCH  16  17
ATOM     17  C   UNL     1       6.178  23.411  50.599  1.00  0.00     0.053 C 
BRANCH  17  18
ATOM     18  C   UNL     1       6.380  24.874  50.838  1.00  0.00     0.041 C 
ATOM     19  O   UNL     1       5.554  25.710  50.386  1.00  0.00    -0.550 OA
ATOM     20  O   UNL     1       7.455  25.312  51.602  1.00  0.00    -0.550 OA
ENDBRANCH  17  18
ENDBRANCH  16  17
ENDBRANCH  15  16
ENDBRANCH  14  15
ENDBRANCH  13  14
ENDBRANCH  12  13
ENDBRANCH  11  12
ENDBRANCH   1  11
TORSDOF 15
ENDMDL
MODEL 3
REMARK VINA RESULT:    -4.749      2.364      2.958
REMARK INTER + INTRA:         -10.088
REMARK INTER:                  -8.836
REMARK INTRA:                  -1.252
REMARK UNBOUND:                -1.175
REMARK SMILES O=C([O-])CCCCCCCCCCCCCCC(=O)[O-]
REMARK SMILES IDX 10 1 9 2 8 3 7 4 6 5 5 6 4 7 2 8 1 9 3 10 11 11 12 12 13 13
REMARK SMILES IDX 14 14 15 15 16 16 17 17 18 18 19 19 20 20
REMARK H PARENT
REMARK Flexibility Score: inf
ROOT
ATOM      1  C   UNL     1       1.772  26.100  47.634  1.00  0.00     0.000 C 
ENDROOT
BRANCH   1   2
ATOM      2  C   UNL     1       1.490  24.597  47.455  1.00  0.00     0.000 C 
BRANCH   2   3
ATOM      3  C   UNL     1       0.881  24.266  46.084  1.00  0.00     0.000 C 
BRANCH   3   4
ATOM      4  C   UNL     1       1.936  24.209  44.966  1.00  0.00     0.000 C 
BRANCH   4   5
ATOM      5  C   UNL     1       2.927  23.049  45.150  1.00  0.00     0.000 C 
BRANCH   5   6
ATOM      6  C   UNL     1       3.682  22.699  43.855  1.00  0.00     0.006 C 
BRANCH   6   7
ATOM      7  C   UNL     1       2.782  22.800  42.617  1.00  0.00     0.053 C 
BRANCH   7   8
ATOM      8  C   UNL     1       2.173  21.477  42.264  1.00  0.00     0.041 C 
ATOM      9  O   UNL     1       2.644  20.795  41.317  1.00  0.00    -0.550 OA
ATOM     10  O   UNL     1       1.064  21.015  42.960  1.00  0.00    -0.550 OA
ENDBRANCH   7   8
ENDBRANCH   6   7
ENDBRANCH   5   6
ENDBRANCH   4   5
ENDBRANCH   3   4
ENDBRANCH   2   3
ENDBRANCH   1   2
BRANCH   1  11
ATOM     11  C   UNL     1       0.869  26.747  48.695  1.00  0.00     0.000 C 
BRANCH  11  12
ATOM     12  C   UNL     1       1.467  26.661  50.110  1.00  0.00     0.000 C 
BRANCH  12  13
ATOM     13  C   UNL     1       0.610  25.816  51.066  1.00  0.00     0.000 C 
BRANCH  13  14
ATOM     14  C   UNL     1       1.226  24.434  51.344  1.00  0.00     0.000 C 
BRANCH  14  15
ATOM     15  C   UNL     1       2.721  24.371  50.990  1.00  0.00     0.000 C 
BRANCH  15  16
ATOM     16  C   UNL     1       3.163  22.977  50.518  1.00  0.00     0.006 C 
BRANCH  16  17
ATOM     17  C   UNL     1       4.350  22.471  51.343  1.00  0.00     0.053 C 
BRANCH  17  18
ATOM     18  C   UNL     1       3.872  21.659  52.506  1.00  0.00     0.041 C 
ATOM     19  O   UNL     1       3.509  20.465  52.338  1.00  0.00    -0.550 OA
ATOM     20  O   UNL     1       3.874  22.206  53.783  1.00  0.00    -0.550 OA
ENDBRANCH  17  18
ENDBRANCH  16  17
ENDBRANCH  15  16
ENDBRANCH  14  15
ENDBRANCH  13  14
ENDBRANCH  12  13
ENDBRANCH  11  12
ENDBRANCH   1  11
TORSDOF 15
ENDMDL
MODEL 4
REMARK VINA RESULT:    -4.733      2.582      3.359
REMARK INTER + INTRA:         -10.059
REMARK INTER:                  -9.169
REMARK INTRA:                  -0.890
REMARK UNBOUND:                -1.175
REMARK SMILES O=C([O-])CCCCCCCCCCCCCCC(=O)[O-]
REMARK SMILES IDX 10 1 9 2 8 3 7 4 6 5 5 6 4 7 2 8 1 9 3 10 11 11 12 12 13 13
REMARK SMILES IDX 14 14 15 15 16 16 17 17 18 18 19 19 20 20
REMARK H PARENT
REMARK Flexibility Score: inf
ROOT
ATOM      1  C   UNL     1       2.552  24.312  50.378  1.00  0.00     0.000 C 
ENDROOT
BRANCH   1   2
ATOM      2  C   UNL     1       1.490  24.698  49.333  1.00  0.00     0.000 C 
BRANCH   2   3
ATOM      3  C   UNL     1       1.784  24.111  47.944  1.00  0.00     0.000 C 
BRANCH   3   4
ATOM      4  C   UNL     1       0.841  24.657  46.859  1.00  0.00     0.000 C 
BRANCH   4   5
ATOM      5  C   UNL     1       1.149  24.087  45.466  1.00  0.00     0.000 C 
BRANCH   5   6
ATOM      6  C   UNL     1       2.536  23.424  45.387  1.00  0.00     0.006 C 
BRANCH   6   7
ATOM      7  C   UNL     1       2.466  22.007  44.802  1.00  0.00     0.053 C 
BRANCH   7   8
ATOM      8  C   UNL     1       2.264  22.030  43.318  1.00  0.00     0.041 C 
ATOM      9  O   UNL     1       1.494  21.198  42.770  1.00  0.00    -0.550 OA
ATOM     10  O   UNL     1       2.954  22.948  42.536  1.00  0.00    -0.550 OA
ENDBRANCH   7   8
ENDBRANCH   6   7
ENDBRANCH   5   6
ENDBRANCH   4   5
ENDBRANCH   3   4
ENDBRANCH   2   3
ENDBRANCH   1   2
BRANCH   1  11
ATOM     11  C   UNL     1       3.091  22.888  50.174  1.00  0.00     0.000 C 
BRANCH  11  12
ATOM     12  C   UNL     1       2.437  21.868  51.122  1.00  0.00     0.000 C 
BRANCH  12  13
ATOM     13  C   UNL     1       3.431  21.277  52.133  1.00  0.00     0.000 C 
BRANCH  13  14
ATOM     14  C   UNL     1       3.476  22.071  53.450  1.00  0.00     0.000 C 
BRANCH  14  15
ATOM     15  C   UNL     1       4.612  23.106  53.479  1.00  0.00     0.000 C 
BRANCH  15  16
ATOM     16  C   UNL     1       5.460  23.025  54.758  1.00  0.00     0.006 C 
BRANCH  16  17
ATOM     17  C   UNL     1       4.714  22.270  55.862  1.00  0.00     0.053 C 
BRANCH  17  18
ATOM     18  C   UNL     1       5.622  21.285  56.529  1.00  0.00     0.041 C 
ATOM     19  O   UNL     1       5.157  20.212  56.998  1.00  0.00    -0.550 OA
ATOM     20  O   UNL     1       6.988  21.529  56.590  1.00  0.00    -0.550 OA
ENDBRANCH  17  18
ENDBRANCH  16  17
ENDBRANCH  15  16
ENDBRANCH  14  15
ENDBRANCH  13  14
ENDBRANCH  12  13
ENDBRANCH  11  12
ENDBRANCH   1  11
TORSDOF 15
ENDMDL
MODEL 5
REMARK VINA RESULT:    -4.667      5.340      7.279
REMARK INTER + INTRA:          -9.934
REMARK INTER:                  -7.619
REMARK INTRA:                  -2.315
REMARK UNBOUND:                -1.175
REMARK SMILES O=C([O-])CCCCCCCCCCCCCCC(=O)[O-]
REMARK SMILES IDX 10 1 9 2 8 3 7 4 6 5 5 6 4 7 2 8 1 9 3 10 11 11 12 12 13 13
REMARK SMILES IDX 14 14 15 15 16 16 17 17 18 18 19 19 20 20
REMARK H PARENT
REMARK Flexibility Score: inf
ROOT
ATOM      1  C   UNL     1      -2.000  24.522  55.084  1.00  0.00     0.000 C 
ENDROOT
BRANCH   1   2
ATOM      2  C   UNL     1      -1.097  25.745  54.842  1.00  0.00     0.000 C 
BRANCH   2   3
ATOM      3  C   UNL     1       0.069  25.441  53.888  1.00  0.00     0.000 C 
BRANCH   3   4
ATOM      4  C   UNL     1       0.092  23.972  53.432  1.00  0.00     0.000 C 
BRANCH   4   5
ATOM      5  C   UNL     1       0.724  23.795  52.042  1.00  0.00     0.000 C 
BRANCH   5   6
ATOM      6  C   UNL     1       1.164  22.346  51.768  1.00  0.00     0.006 C 
BRANCH   6   7
ATOM      7  C   UNL     1       2.417  22.281  50.886  1.00  0.00     0.053 C 
BRANCH   7   8
ATOM      8  C   UNL     1       3.597  21.744  51.639  1.00  0.00     0.041 C 
ATOM      9  O   UNL     1       3.474  20.725  52.368  1.00  0.00    -0.550 OA
ATOM     10  O   UNL     1       4.823  22.391  51.562  1.00  0.00    -0.550 OA
ENDBRANCH   7   8
ENDBRANCH   6   7
ENDBRANCH   5   6
ENDBRANCH   4   5
ENDBRANCH   3   4
ENDBRANCH   2   3
ENDBRANCH   1   2
BRANCH   1  11
ATOM     11  C   UNL     1      -2.159  24.193  56.577  1.00  0.00     0.000 C 
BRANCH  11  12
ATOM     12  C   UNL     1      -0.808  24.106  57.309  1.00  0.00     0.000 C 
BRANCH  12  13
ATOM     13  C   UNL     1      -0.029  22.826  56.965  1.00  0.00     0.000 C 
BRANCH  13  14
ATOM     14  C   UNL     1       1.486  22.981  57.187  1.00  0.00     0.000 C 
BRANCH  14  15
ATOM     15  C   UNL     1       1.995  24.387  56.834  1.00  0.00     0.000 C 
BRANCH  15  16
ATOM     16  C   UNL     1       3.246  24.362  55.941  1.00  0.00     0.006 C 
BRANCH  16  17
ATOM     17  C   UNL     1       3.295  23.080  55.105  1.00  0.00     0.053 C 
BRANCH  17  18
ATOM     18  C   UNL     1       4.668  22.486  55.138  1.00  0.00     0.041 C 
ATOM     19  O   UNL     1       5.647  23.129  54.674  1.00  0.00    -0.550 OA
ATOM     20  O   UNL     1       4.875  21.244  55.723  1.00  0.00    -0.550 OA
ENDBRANCH  17  18
ENDBRANCH  16  17
ENDBRANCH  15  16
ENDBRANCH  14  15
ENDBRANCH  13  14
ENDBRANCH  12  13
ENDBRANCH  11  12
ENDBRANCH   1  11
TORSDOF 15
ENDMDL
MODEL 6
REMARK VINA RESULT:    -4.645      5.990      9.492
REMARK INTER + INTRA:          -9.894
REMARK INTER:                  -7.851
REMARK INTRA:                  -2.042
REMARK UNBOUND:                -1.175
REMARK SMILES O=C([O-])CCCCCCCCCCCCCCC(=O)[O-]
REMARK SMILES IDX 10 1 9 2 8 3 7 4 6 5 5 6 4 7 2 8 1 9 3 10 11 11 12 12 13 13
REMARK SMILES IDX 14 14 15 15 16 16 17 17 18 18 19 19 20 20
REMARK H PARENT
REMARK Flexibility Score: inf
ROOT
ATOM      1  C   UNL     1      -2.122  24.487  55.115  1.00  0.00     0.000 C 
ENDROOT
BRANCH   1   2
ATOM      2  C   UNL     1      -2.109  23.733  56.457  1.00  0.00     0.000 C 
BRANCH   2   3
ATOM      3  C   UNL     1      -0.945  24.160  57.365  1.00  0.00     0.000 C 
BRANCH   3   4
ATOM      4  C   UNL     1      -0.046  22.979  57.767  1.00  0.00     0.000 C 
BRANCH   4   5
ATOM      5  C   UNL     1       0.842  22.492  56.611  1.00  0.00     0.000 C 
BRANCH   5   6
ATOM      6  C   UNL     1       2.298  22.977  56.732  1.00  0.00     0.006 C 
BRANCH   6   7
ATOM      7  C   UNL     1       3.197  21.939  57.415  1.00  0.00     0.053 C 
BRANCH   7   8
ATOM      8  C   UNL     1       4.480  21.740  56.666  1.00  0.00     0.041 C 
ATOM      9  O   UNL     1       4.595  22.154  55.483  1.00  0.00    -0.550 OA
ATOM     10  O   UNL     1       5.537  21.066  57.265  1.00  0.00    -0.550 OA
ENDBRANCH   7   8
ENDBRANCH   6   7
ENDBRANCH   5   6
ENDBRANCH   4   5
ENDBRANCH   3   4
ENDBRANCH   2   3
ENDBRANCH   1   2
BRANCH   1  11
ATOM     11  C   UNL     1      -1.363  25.821  55.181  1.00  0.00     0.000 C 
BRANCH  11  12
ATOM     12  C   UNL     1      -0.401  26.012  53.995  1.00  0.00     0.000 C 
BRANCH  12  13
ATOM     13  C   UNL     1       0.998  25.437  54.269  1.00  0.00     0.000 C 
BRANCH  13  14
ATOM     14  C   UNL     1       1.568  24.672  53.062  1.00  0.00     0.000 C 
BRANCH  14  15
ATOM     15  C   UNL     1       0.514  23.797  52.366  1.00  0.00     0.000 C 
BRANCH  15  16
ATOM     16  C   UNL     1       1.056  22.415  51.966  1.00  0.00     0.006 C 
BRANCH  16  17
ATOM     17  C   UNL     1       2.048  21.894  53.011  1.00  0.00     0.053 C 
BRANCH  17  18
ATOM     18  C   UNL     1       3.272  21.349  52.345  1.00  0.00     0.041 C 
ATOM     19  O   UNL     1       4.098  22.131  51.803  1.00  0.00    -0.550 OA
ATOM     20  O   UNL     1       3.525  19.984  52.365  1.00  0.00    -0.550 OA
ENDBRANCH  17  18
ENDBRANCH  16  17
ENDBRANCH  15  16
ENDBRANCH  14  15
ENDBRANCH  13  14
ENDBRANCH  12  13
ENDBRANCH  11  12
ENDBRANCH   1  11
TORSDOF 15
ENDMDL
MODEL 7
REMARK VINA RESULT:    -4.631      1.762      7.821
REMARK INTER + INTRA:          -9.867
REMARK INTER:                  -8.781
REMARK INTRA:                  -1.086
REMARK UNBOUND:                -1.175
REMARK SMILES O=C([O-])CCCCCCCCCCCCCCC(=O)[O-]
REMARK SMILES IDX 10 1 9 2 8 3 7 4 6 5 5 6 4 7 2 8 1 9 3 10 11 11 12 12 13 13
REMARK SMILES IDX 14 14 15 15 16 16 17 17 18 18 19 19 20 20
REMARK H PARENT
REMARK Flexibility Score: inf
ROOT
ATOM      1  C   UNL     1       1.728  25.193  50.222  1.00  0.00     0.000 C 
ENDROOT
BRANCH   1   2
ATOM      2  C   UNL     1       1.265  25.344  51.683  1.00  0.00     0.000 C 
BRANCH   2   3
ATOM      3  C   UNL     1       0.674  24.045  52.254  1.00  0.00     0.000 C 
BRANCH   3   4
ATOM      4  C   UNL     1       1.711  23.215  53.029  1.00  0.00     0.000 C 
BRANCH   4   5
ATOM      5  C   UNL     1       2.022  21.873  52.346  1.00  0.00     0.000 C 
BRANCH   5   6
ATOM      6  C   UNL     1       3.529  21.562  52.302  1.00  0.00     0.006 C 
BRANCH   6   7
ATOM      7  C   UNL     1       4.240  22.311  51.169  1.00  0.00     0.053 C 
BRANCH   7   8
ATOM      8  C   UNL     1       5.406  23.104  51.675  1.00  0.00     0.041 C 
ATOM      9  O   UNL     1       6.327  23.451  50.890  1.00  0.00    -0.550 OA
ATOM     10  O   UNL     1       5.492  23.430  53.023  1.00  0.00    -0.550 OA
ENDBRANCH   7   8
ENDBRANCH   6   7
ENDBRANCH   5   6
ENDBRANCH   4   5
ENDBRANCH   3   4
ENDBRANCH   2   3
ENDBRANCH   1   2
BRANCH   1  11
ATOM     11  C   UNL     1       1.014  26.169  49.274  1.00  0.00     0.000 C 
BRANCH  11  12
ATOM     12  C   UNL     1       1.163  25.769  47.795  1.00  0.00     0.000 C 
BRANCH  12  13
ATOM     13  C   UNL     1       1.604  24.308  47.618  1.00  0.00     0.000 C 
BRANCH  13  14
ATOM     14  C   UNL     1       1.602  23.865  46.145  1.00  0.00     0.000 C 
BRANCH  14  15
ATOM     15  C   UNL     1       2.339  24.855  45.229  1.00  0.00     0.000 C 
BRANCH  15  16
ATOM     16  C   UNL     1       3.104  24.158  44.092  1.00  0.00     0.006 C 
BRANCH  16  17
ATOM     17  C   UNL     1       3.057  22.636  44.253  1.00  0.00     0.053 C 
BRANCH  17  18
ATOM     18  C   UNL     1       2.343  22.009  43.097  1.00  0.00     0.041 C 
ATOM     19  O   UNL     1       2.725  22.237  41.919  1.00  0.00    -0.550 OA
ATOM     20  O   UNL     1       1.287  21.135  43.323  1.00  0.00    -0.550 OA
ENDBRANCH  17  18
ENDBRANCH  16  17
ENDBRANCH  15  16
ENDBRANCH  14  15
ENDBRANCH  13  14
ENDBRANCH  12  13
ENDBRANCH  11  12
ENDBRANCH   1  11
TORSDOF 15
ENDMDL
MODEL 8
REMARK VINA RESULT:    -4.584      4.923     10.009
REMARK INTER + INTRA:          -9.778
REMARK INTER:                  -7.615
REMARK INTRA:                  -2.163
REMARK UNBOUND:                -1.175
REMARK SMILES O=C([O-])CCCCCCCCCCCCCCC(=O)[O-]
REMARK SMILES IDX 10 1 9 2 8 3 7 4 6 5 5 6 4 7 2 8 1 9 3 10 11 11 12 12 13 13
REMARK SMILES IDX 14 14 15 15 16 16 17 17 18 18 19 19 20 20
REMARK H PARENT
REMARK Flexibility Score: inf
ROOT
ATOM      1  C   UNL     1      -1.372  25.654  54.832  1.00  0.00     0.000 C 
ENDROOT
BRANCH   1   2
ATOM      2  C   UNL     1      -2.140  24.347  55.100  1.00  0.00     0.000 C 
BRANCH   2   3
ATOM      3  C   UNL     1      -2.029  23.884  56.561  1.00  0.00     0.000 C 
BRANCH   3   4
ATOM      4  C   UNL     1      -1.271  24.889  57.444  1.00  0.00     0.000 C 
BRANCH   4   5
ATOM      5  C   UNL     1       0.068  24.333  57.956  1.00  0.00     0.000 C 
BRANCH   5   6
ATOM      6  C   UNL     1       0.130  22.796  57.913  1.00  0.00     0.006 C 
BRANCH   6   7
ATOM      7  C   UNL     1       1.107  22.228  58.950  1.00  0.00     0.053 C 
BRANCH   7   8
ATOM      8  C   UNL     1       2.271  21.544  58.299  1.00  0.00     0.041 C 
ATOM      9  O   UNL     1       2.458  20.312  58.470  1.00  0.00    -0.550 OA
ATOM     10  O   UNL     1       3.167  22.278  57.533  1.00  0.00    -0.550 OA
ENDBRANCH   7   8
ENDBRANCH   6   7
ENDBRANCH   5   6
ENDBRANCH   4   5
ENDBRANCH   3   4
ENDBRANCH   2   3
ENDBRANCH   1   2
BRANCH   1  11
ATOM     11  C   UNL     1      -0.136  25.440  53.944  1.00  0.00     0.000 C 
BRANCH  11  12
ATOM     12  C   UNL     1       1.181  25.542  54.732  1.00  0.00     0.000 C 
BRANCH  12  13
ATOM     13  C   UNL     1       2.126  24.359  54.462  1.00  0.00     0.000 C 
BRANCH  13  14
ATOM     14  C   UNL     1       1.371  23.031  54.277  1.00  0.00     0.000 C 
BRANCH  14  15
ATOM     15  C   UNL     1       1.779  22.293  52.993  1.00  0.00     0.000 C 
BRANCH  15  16
ATOM     16  C   UNL     1       0.765  22.477  51.852  1.00  0.00     0.006 C 
BRANCH  16  17
ATOM     17  C   UNL     1       1.126  23.689  50.989  1.00  0.00     0.053 C 
BRANCH  17  18
ATOM     18  C   UNL     1       2.518  23.556  50.455  1.00  0.00     0.041 C 
ATOM     19  O   UNL     1       2.793  22.649  49.626  1.00  0.00    -0.550 OA
ATOM     20  O   UNL     1       3.498  24.464  50.834  1.00  0.00    -0.550 OA
ENDBRANCH  17  18
ENDBRANCH  16  17
ENDBRANCH  15  16
ENDBRANCH  14  15
ENDBRANCH  13  14
ENDBRANCH  12  13
ENDBRANCH  11  12
ENDBRANCH   1  11
TORSDOF 15
ENDMDL
MODEL 9
REMARK VINA RESULT:    -4.530      5.968      8.294
REMARK INTER + INTRA:          -9.676
REMARK INTER:                  -7.523
REMARK INTRA:                  -2.153
REMARK UNBOUND:                -1.175
REMARK SMILES O=C([O-])CCCCCCCCCCCCCCC(=O)[O-]
REMARK SMILES IDX 10 1 9 2 8 3 7 4 6 5 5 6 4 7 2 8 1 9 3 10 11 11 12 12 13 13
REMARK SMILES IDX 14 14 15 15 16 16 17 17 18 18 19 19 20 20
REMARK H PARENT
REMARK Flexibility Score: inf
ROOT
ATOM      1  C   UNL     1      -2.133  24.321  55.111  1.00  0.00     0.000 C 
ENDROOT
BRANCH   1   2
ATOM      2  C   UNL     1      -1.368  25.620  54.802  1.00  0.00     0.000 C 
BRANCH   2   3
ATOM      3  C   UNL     1      -0.145  25.388  53.900  1.00  0.00     0.000 C 
BRANCH   3   4
ATOM      4  C   UNL     1       1.185  25.643  54.630  1.00  0.00     0.000 C 
BRANCH   4   5
ATOM      5  C   UNL     1       2.090  24.401  54.659  1.00  0.00     0.000 C 
BRANCH   5   6
ATOM      6  C   UNL     1       1.348  23.113  54.260  1.00  0.00     0.006 C 
BRANCH   6   7
ATOM      7  C   UNL     1       2.168  22.250  53.292  1.00  0.00     0.053 C 
BRANCH   7   8
ATOM      8  C   UNL     1       1.578  22.251  51.915  1.00  0.00     0.041 C 
ATOM      9  O   UNL     1       0.382  22.600  51.737  1.00  0.00    -0.550 OA
ATOM     10  O   UNL     1       2.341  21.832  50.832  1.00  0.00    -0.550 OA
ENDBRANCH   7   8
ENDBRANCH   6   7
ENDBRANCH   5   6
ENDBRANCH   4   5
ENDBRANCH   3   4
ENDBRANCH   2   3
ENDBRANCH   1   2
BRANCH   1  11
ATOM     11  C   UNL     1      -2.104  23.959  56.604  1.00  0.00     0.000 C 
BRANCH  11  12
ATOM     12  C   UNL     1      -1.321  24.983  57.443  1.00  0.00     0.000 C 
BRANCH  12  13
ATOM     13  C   UNL     1       0.039  24.446  57.916  1.00  0.00     0.000 C 
BRANCH  13  14
ATOM     14  C   UNL     1       0.185  22.930  57.691  1.00  0.00     0.000 C 
BRANCH  14  15
ATOM     15  C   UNL     1       0.867  22.221  58.871  1.00  0.00     0.000 C 
BRANCH  15  16
ATOM     16  C   UNL     1       2.071  21.367  58.439  1.00  0.00     0.006 C 
BRANCH  16  17
ATOM     17  C   UNL     1       2.967  22.139  57.466  1.00  0.00     0.053 C 
BRANCH  17  18
ATOM     18  C   UNL     1       4.381  21.658  57.562  1.00  0.00     0.041 C 
ATOM     19  O   UNL     1       5.037  21.831  58.624  1.00  0.00    -0.550 OA
ATOM     20  O   UNL     1       4.958  20.977  56.499  1.00  0.00    -0.550 OA
ENDBRANCH  17  18
ENDBRANCH  16  17
ENDBRANCH  15  16
ENDBRANCH  14  15
ENDBRANCH  13  14
ENDBRANCH  12  13
ENDBRANCH  11  12
ENDBRANCH   1  11
TORSDOF 15
ENDMDL
