MODEL 1
REMARK VINA RESULT:    -5.285      0.000      0.000
REMARK INTER + INTRA:          -8.590
REMARK INTER:                  -7.448
REMARK INTRA:                  -1.142
REMARK UNBOUND:                -1.142
REMARK SMILES C[C@H](CO)CCC(=O)[C@@H](C)[C@@H]1C(=O)C[C@@H]2[C@H]3CC=C4C[C@@H](O)CC[C@]4(C)[C@H]3CC[C@]21C
REMARK SMILES IDX 6 1 5 2 2 3 1 4 3 5 4 6 7 8 8 9 9 10 10 11 11 12 12 13 30 14
REMARK SMILES IDX 13 15 14 16 15 17 29 18 31 19 16 20 28 21 27 22 17 23 25 24
REMARK SMILES IDX 18 25 19 26 24 27 26 28 20 29 23 30 21 31 22 32
REMARK H PARENT 4 7 22 33
REMARK Flexibility Score: inf
ROOT
ATOM      1  C   UNL     1       7.862 -10.754  37.830  1.00  0.00     0.076 C 
ENDROOT
BRANCH   1   2
ATOM      2  C   UNL     1       8.599  -9.590  37.151  1.00  0.00     0.013 C 
BRANCH   2   3
ATOM      3  C   UNL     1       9.885  -9.165  37.902  1.00  0.00     0.012 C 
ATOM      4  C   UNL     1      10.962  -8.644  36.936  1.00  0.00     0.010 C 
BRANCH   3   5
ATOM      5  C   UNL     1      10.449 -10.341  38.725  1.00  0.00     0.159 C 
BRANCH   5   6
ATOM      6  O   UNL     1      10.695  -9.947  40.049  1.00  0.00    -0.396 OA
ATOM      7  H   UNL     1      10.085 -10.474  40.628  1.00  0.00     0.210 HD
ENDBRANCH   5   6
ENDBRANCH   3   5
ENDBRANCH   2   3
ENDBRANCH   1   2
BRANCH   1   8
ATOM      8  C   UNL     1       6.385 -10.456  37.952  1.00  0.00     0.136 C 
ATOM      9  O   UNL     1       5.667 -10.661  36.981  1.00  0.00    -0.299 OA
BRANCH   8  10
ATOM     10  C   UNL     1       5.768  -9.837  39.197  1.00  0.00     0.064 C 
ATOM     11  C   UNL     1       4.415 -10.499  39.542  1.00  0.00     0.017 C 
BRANCH  10  12
ATOM     12  C   UNL     1       6.823  -9.778  40.354  1.00  0.00     0.072 C 
ATOM     13  C   UNL     1       6.562 -10.630  41.569  1.00  0.00     0.137 C 
ATOM     14  C   UNL     1       7.106  -8.378  40.991  1.00  0.00    -0.019 C 
ATOM     15  O   UNL     1       6.169 -11.784  41.521  1.00  0.00    -0.299 OA
ATOM     16  C   UNL     1       7.021  -9.986  42.838  1.00  0.00     0.080 C 
ATOM     17  C   UNL     1       7.816  -8.795  42.302  1.00  0.00     0.007 C 
ATOM     18  C   UNL     1       8.059  -7.472  40.152  1.00  0.00     0.008 C 
ATOM     19  C   UNL     1       5.777  -7.610  41.272  1.00  0.00     0.012 C 
ATOM     20  C   UNL     1       8.076  -7.601  43.246  1.00  0.00     0.001 C 
ATOM     21  C   UNL     1       9.148  -6.761  41.002  1.00  0.00     0.005 C 
ATOM     22  C   UNL     1       8.704  -6.384  42.455  1.00  0.00     0.003 C 
ATOM     23  C   UNL     1       8.923  -8.028  44.449  1.00  0.00     0.031 C 
ATOM     24  C   UNL     1       9.810  -5.552  43.249  1.00  0.00    -0.008 C 
ATOM     25  C   UNL     1       9.221  -6.838  45.307  1.00  0.00    -0.027 C 
ATOM     26  C   UNL     1       9.594  -5.663  44.766  1.00  0.00    -0.065 C 
ATOM     27  C   UNL     1       9.707  -4.056  42.804  1.00  0.00     0.014 C 
ATOM     28  C   UNL     1      11.249  -6.061  42.950  1.00  0.00     0.016 C 
ATOM     29  C   UNL     1      10.110  -4.585  45.704  1.00  0.00     0.063 C 
ATOM     30  C   UNL     1      10.460  -3.086  43.718  1.00  0.00     0.033 C 
ATOM     31  C   UNL     1       9.913  -3.175  45.144  1.00  0.00     0.118 C 
BRANCH  31  32
ATOM     32  O   UNL     1      10.584  -2.255  45.964  1.00  0.00    -0.393 OA
ATOM     33  H   UNL     1      10.053  -1.415  45.952  1.00  0.00     0.210 HD
ENDBRANCH  31  32
ENDBRANCH  10  12
ENDBRANCH   8  10
ENDBRANCH   1   8
TORSDOF 8
ENDMDL
MODEL 2
REMARK VINA RESULT:    -5.214      1.276      1.795
REMARK INTER + INTRA:          -8.490
REMARK INTER:                  -7.598
REMARK INTRA:                  -0.892
REMARK UNBOUND:                -1.142
REMARK SMILES C[C@H](CO)CCC(=O)[C@@H](C)[C@@H]1C(=O)C[C@@H]2[C@H]3CC=C4C[C@@H](O)CC[C@]4(C)[C@H]3CC[C@]21C
REMARK SMILES IDX 6 1 5 2 2 3 1 4 3 5 4 6 7 8 8 9 9 10 10 11 11 12 12 13 30 14
REMARK SMILES IDX 13 15 14 16 15 17 29 18 31 19 16 20 28 21 27 22 17 23 25 24
REMARK SMILES IDX 18 25 19 26 24 27 26 28 20 29 23 30 21 31 22 32
REMARK H PARENT 4 7 22 33
REMARK Flexibility Score: inf
ROOT
ATOM      1  C   UNL     1       7.698 -10.752  37.706  1.00  0.00     0.076 C 
ENDROOT
BRANCH   1   2
ATOM      2  C   UNL     1       8.101  -9.493  36.922  1.00  0.00     0.013 C 
BRANCH   2   3
ATOM      3  C   UNL     1       8.105  -9.709  35.389  1.00  0.00     0.012 C 
ATOM      4  C   UNL     1       6.779  -9.262  34.749  1.00  0.00     0.010 C 
BRANCH   3   5
ATOM      5  C   UNL     1       8.374 -11.188  35.047  1.00  0.00     0.159 C 
BRANCH   5   6
ATOM      6  O   UNL     1       7.309 -11.729  34.310  1.00  0.00    -0.396 OA
ATOM      7  H   UNL     1       7.704 -12.307  33.608  1.00  0.00     0.210 HD
ENDBRANCH   5   6
ENDBRANCH   3   5
ENDBRANCH   2   3
ENDBRANCH   1   2
BRANCH   1   8
ATOM      8  C   UNL     1       6.232 -10.708  38.074  1.00  0.00     0.136 C 
ATOM      9  O   UNL     1       5.433 -11.300  37.358  1.00  0.00    -0.299 OA
BRANCH   8  10
ATOM     10  C   UNL     1       5.699  -9.895  39.244  1.00  0.00     0.064 C 
ATOM     11  C   UNL     1       4.277 -10.349  39.642  1.00  0.00     0.017 C 
BRANCH  10  12
ATOM     12  C   UNL     1       6.758  -9.847  40.399  1.00  0.00     0.072 C 
ATOM     13  C   UNL     1       6.490 -10.696  41.615  1.00  0.00     0.137 C 
ATOM     14  C   UNL     1       7.058  -8.450  41.034  1.00  0.00    -0.019 C 
ATOM     15  O   UNL     1       6.083 -11.845  41.569  1.00  0.00    -0.299 OA
ATOM     16  C   UNL     1       6.958 -10.055  42.882  1.00  0.00     0.080 C 
ATOM     17  C   UNL     1       7.767  -8.875  42.344  1.00  0.00     0.007 C 
ATOM     18  C   UNL     1       8.020  -7.557  40.193  1.00  0.00     0.008 C 
ATOM     19  C   UNL     1       5.739  -7.666  41.317  1.00  0.00     0.012 C 
ATOM     20  C   UNL     1       8.043  -7.684  43.286  1.00  0.00     0.001 C 
ATOM     21  C   UNL     1       9.120  -6.857  41.039  1.00  0.00     0.005 C 
ATOM     22  C   UNL     1       8.683  -6.474  42.493  1.00  0.00     0.003 C 
ATOM     23  C   UNL     1       8.887  -8.119  44.488  1.00  0.00     0.031 C 
ATOM     24  C   UNL     1       9.801  -5.654  43.284  1.00  0.00    -0.008 C 
ATOM     25  C   UNL     1       9.201  -6.932  45.345  1.00  0.00    -0.027 C 
ATOM     26  C   UNL     1       9.586  -5.762  44.802  1.00  0.00    -0.065 C 
ATOM     27  C   UNL     1       9.714  -4.158  42.838  1.00  0.00     0.014 C 
ATOM     28  C   UNL     1      11.232  -6.180  42.982  1.00  0.00     0.016 C 
ATOM     29  C   UNL     1      10.116  -4.689  45.738  1.00  0.00     0.063 C 
ATOM     30  C   UNL     1      10.480  -3.196  43.750  1.00  0.00     0.033 C 
ATOM     31  C   UNL     1       9.935  -3.277  45.177  1.00  0.00     0.118 C 
BRANCH  31  32
ATOM     32  O   UNL     1      10.619  -2.365  45.995  1.00  0.00    -0.393 OA
ATOM     33  H   UNL     1      11.168  -2.899  46.628  1.00  0.00     0.210 HD
ENDBRANCH  31  32
ENDBRANCH  10  12
ENDBRANCH   8  10
ENDBRANCH   1   8
TORSDOF 8
ENDMDL
MODEL 3
REMARK VINA RESULT:    -5.213      3.857      9.050
REMARK INTER + INTRA:          -8.488
REMARK INTER:                  -8.017
REMARK INTRA:                  -0.471
REMARK UNBOUND:                -1.142
REMARK SMILES C[C@H](CO)CCC(=O)[C@@H](C)[C@@H]1C(=O)C[C@@H]2[C@H]3CC=C4C[C@@H](O)CC[C@]4(C)[C@H]3CC[C@]21C
REMARK SMILES IDX 6 1 5 2 2 3 1 4 3 5 4 6 7 8 8 9 9 10 10 11 11 12 12 13 30 14
REMARK SMILES IDX 13 15 14 16 15 17 29 18 31 19 16 20 28 21 27 22 17 23 25 24
REMARK SMILES IDX 18 25 19 26 24 27 26 28 20 29 23 30 21 31 22 32
REMARK H PARENT 4 7 22 33
REMARK Flexibility Score: inf
ROOT
ATOM      1  C   UNL     1      15.955  -4.326  45.485  1.00  0.00     0.076 C 
ENDROOT
BRANCH   1   2
ATOM      2  C   UNL     1      16.757  -3.019  45.581  1.00  0.00     0.013 C 
BRANCH   2   3
ATOM      3  C   UNL     1      18.207  -3.158  45.053  1.00  0.00     0.012 C 
ATOM      4  C   UNL     1      19.233  -2.611  46.061  1.00  0.00     0.010 C 
BRANCH   3   5
ATOM      5  C   UNL     1      18.367  -2.431  43.703  1.00  0.00     0.159 C 
BRANCH   5   6
ATOM      6  O   UNL     1      17.700  -3.127  42.683  1.00  0.00    -0.396 OA
ATOM      7  H   UNL     1      17.665  -2.527  41.894  1.00  0.00     0.210 HD
ENDBRANCH   5   6
ENDBRANCH   3   5
ENDBRANCH   2   3
ENDBRANCH   1   2
BRANCH   1   8
ATOM      8  C   UNL     1      14.746  -4.149  44.593  1.00  0.00     0.136 C 
ATOM      9  O   UNL     1      14.926  -3.984  43.393  1.00  0.00    -0.299 OA
BRANCH   8  10
ATOM     10  C   UNL     1      13.326  -4.085  45.134  1.00  0.00     0.064 C 
ATOM     11  C   UNL     1      13.154  -2.912  46.125  1.00  0.00     0.017 C 
BRANCH  10  12
ATOM     12  C   UNL     1      12.293  -4.152  43.957  1.00  0.00     0.072 C 
ATOM     13  C   UNL     1      11.049  -3.311  44.083  1.00  0.00     0.137 C 
ATOM     14  C   UNL     1      11.705  -5.556  43.602  1.00  0.00    -0.019 C 
ATOM     15  O   UNL     1      11.041  -2.158  44.483  1.00  0.00    -0.299 OA
ATOM     16  C   UNL     1       9.845  -3.966  43.486  1.00  0.00     0.080 C 
ATOM     17  C   UNL     1      10.476  -5.149  42.752  1.00  0.00     0.007 C 
ATOM     18  C   UNL     1      12.652  -6.451  42.745  1.00  0.00     0.008 C 
ATOM     19  C   UNL     1      11.286  -6.332  44.890  1.00  0.00     0.012 C 
ATOM     20  C   UNL     1       9.579  -6.351  42.386  1.00  0.00     0.001 C 
ATOM     21  C   UNL     1      11.935  -7.167  41.567  1.00  0.00     0.005 C 
ATOM     22  C   UNL     1      10.446  -7.559  41.848  1.00  0.00     0.003 C 
ATOM     23  C   UNL     1       8.473  -5.932  41.413  1.00  0.00     0.031 C 
ATOM     24  C   UNL     1       9.787  -8.394  40.658  1.00  0.00    -0.008 C 
ATOM     25  C   UNL     1       7.664  -7.129  41.019  1.00  0.00    -0.027 C 
ATOM     26  C   UNL     1       8.254  -8.298  40.705  1.00  0.00    -0.065 C 
ATOM     27  C   UNL     1      10.232  -9.886  40.806  1.00  0.00     0.014 C 
ATOM     28  C   UNL     1      10.238  -7.878  39.263  1.00  0.00     0.016 C 
ATOM     29  C   UNL     1       7.389  -9.383  40.087  1.00  0.00     0.063 C 
ATOM     30  C   UNL     1       9.416 -10.862  39.954  1.00  0.00     0.033 C 
ATOM     31  C   UNL     1       7.937 -10.788  40.341  1.00  0.00     0.118 C 
BRANCH  31  32
ATOM     32  O   UNL     1       7.205 -11.713  39.581  1.00  0.00    -0.393 OA
ATOM     33  H   UNL     1       6.255 -11.627  39.857  1.00  0.00     0.210 HD
ENDBRANCH  31  32
ENDBRANCH  10  12
ENDBRANCH   8  10
ENDBRANCH   1   8
TORSDOF 8
ENDMDL
MODEL 4
REMARK VINA RESULT:    -5.117     11.973     15.198
REMARK INTER + INTRA:          -8.353
REMARK INTER:                  -7.653
REMARK INTRA:                  -0.699
REMARK UNBOUND:                -1.142
REMARK SMILES C[C@H](CO)CCC(=O)[C@@H](C)[C@@H]1C(=O)C[C@@H]2[C@H]3CC=C4C[C@@H](O)CC[C@]4(C)[C@H]3CC[C@]21C
REMARK SMILES IDX 6 1 5 2 2 3 1 4 3 5 4 6 7 8 8 9 9 10 10 11 11 12 12 13 30 14
REMARK SMILES IDX 13 15 14 16 15 17 29 18 31 19 16 20 28 21 27 22 17 23 25 24
REMARK SMILES IDX 18 25 19 26 24 27 26 28 20 29 23 30 21 31 22 32
REMARK H PARENT 4 7 22 33
REMARK Flexibility Score: inf
ROOT
ATOM      1  C   UNL     1      21.906 -15.503  42.721  1.00  0.00     0.076 C 
ENDROOT
BRANCH   1   2
ATOM      2  C   UNL     1      22.856 -15.818  43.887  1.00  0.00     0.013 C 
BRANCH   2   3
ATOM      3  C   UNL     1      23.239 -14.565  44.713  1.00  0.00     0.012 C 
ATOM      4  C   UNL     1      22.631 -14.608  46.125  1.00  0.00     0.010 C 
BRANCH   3   5
ATOM      5  C   UNL     1      22.787 -13.279  43.992  1.00  0.00     0.159 C 
BRANCH   5   6
ATOM      6  O   UNL     1      21.609 -12.776  44.566  1.00  0.00    -0.396 OA
ATOM      7  H   UNL     1      21.104 -13.552  44.922  1.00  0.00     0.210 HD
ENDBRANCH   5   6
ENDBRANCH   3   5
ENDBRANCH   2   3
ENDBRANCH   1   2
BRANCH   1   8
ATOM      8  C   UNL     1      20.489 -15.908  43.060  1.00  0.00     0.136 C 
ATOM      9  O   UNL     1      19.859 -15.219  43.853  1.00  0.00    -0.299 OA
BRANCH   8  10
ATOM     10  C   UNL     1      19.843 -17.176  42.522  1.00  0.00     0.064 C 
ATOM     11  C   UNL     1      20.007 -18.353  43.510  1.00  0.00     0.017 C 
BRANCH  10  12
ATOM     12  C   UNL     1      18.382 -16.879  42.039  1.00  0.00     0.072 C 
ATOM     13  C   UNL     1      17.254 -17.363  42.914  1.00  0.00     0.137 C 
ATOM     14  C   UNL     1      17.968 -17.431  40.636  1.00  0.00    -0.019 C 
ATOM     15  O   UNL     1      17.242 -17.262  44.129  1.00  0.00    -0.299 OA
ATOM     16  C   UNL     1      16.062 -17.806  42.128  1.00  0.00     0.080 C 
ATOM     17  C   UNL     1      16.426 -17.321  40.725  1.00  0.00     0.007 C 
ATOM     18  C   UNL     1      18.478 -16.577  39.434  1.00  0.00     0.008 C 
ATOM     19  C   UNL     1      18.434 -18.909  40.454  1.00  0.00     0.012 C 
ATOM     20  C   UNL     1      15.711 -17.964  39.517  1.00  0.00     0.001 C 
ATOM     21  C   UNL     1      17.400 -16.334  38.342  1.00  0.00     0.005 C 
ATOM     22  C   UNL     1      16.378 -17.505  38.158  1.00  0.00     0.003 C 
ATOM     23  C   UNL     1      14.205 -17.689  39.562  1.00  0.00     0.031 C 
ATOM     24  C   UNL     1      15.365 -17.264  36.948  1.00  0.00    -0.008 C 
ATOM     25  C   UNL     1      13.548 -18.260  38.343  1.00  0.00    -0.027 C 
ATOM     26  C   UNL     1      14.094 -18.110  37.121  1.00  0.00    -0.065 C 
ATOM     27  C   UNL     1      16.090 -17.658  35.620  1.00  0.00     0.014 C 
ATOM     28  C   UNL     1      14.919 -15.778  36.849  1.00  0.00     0.016 C 
ATOM     29  C   UNL     1      13.253 -18.503  35.918  1.00  0.00     0.063 C 
ATOM     30  C   UNL     1      15.149 -17.808  34.422  1.00  0.00     0.033 C 
ATOM     31  C   UNL     1      14.104 -18.889  34.707  1.00  0.00     0.118 C 
BRANCH  31  32
ATOM     32  O   UNL     1      13.270 -19.044  33.589  1.00  0.00    -0.393 OA
ATOM     33  H   UNL     1      13.447 -18.273  32.988  1.00  0.00     0.210 HD
ENDBRANCH  31  32
ENDBRANCH  10  12
ENDBRANCH   8  10
ENDBRANCH   1   8
TORSDOF 8
ENDMDL
MODEL 5
REMARK VINA RESULT:    -5.003     14.236     16.344
REMARK INTER + INTRA:          -8.193
REMARK INTER:                  -7.591
REMARK INTRA:                  -0.601
REMARK UNBOUND:                -1.142
REMARK SMILES C[C@H](CO)CCC(=O)[C@@H](C)[C@@H]1C(=O)C[C@@H]2[C@H]3CC=C4C[C@@H](O)CC[C@]4(C)[C@H]3CC[C@]21C
REMARK SMILES IDX 6 1 5 2 2 3 1 4 3 5 4 6 7 8 8 9 9 10 10 11 11 12 12 13 30 14
REMARK SMILES IDX 13 15 14 16 15 17 29 18 31 19 16 20 28 21 27 22 17 23 25 24
REMARK SMILES IDX 18 25 19 26 24 27 26 28 20 29 23 30 21 31 22 32
REMARK H PARENT 4 7 22 33
REMARK Flexibility Score: inf
ROOT
ATOM      1  C   UNL     1      20.067 -15.671  32.962  1.00  0.00     0.076 C 
ENDROOT
BRANCH   1   2
ATOM      2  C   UNL     1      19.682 -17.157  32.901  1.00  0.00     0.013 C 
BRANCH   2   3
ATOM      3  C   UNL     1      20.687 -18.011  32.088  1.00  0.00     0.012 C 
ATOM      4  C   UNL     1      21.842 -18.520  32.967  1.00  0.00     0.010 C 
BRANCH   3   5
ATOM      5  C   UNL     1      21.253 -17.204  30.902  1.00  0.00     0.159 C 
BRANCH   5   6
ATOM      6  O   UNL     1      22.251 -17.934  30.237  1.00  0.00    -0.396 OA
ATOM      7  H   UNL     1      21.910 -18.129  29.326  1.00  0.00     0.210 HD
ENDBRANCH   5   6
ENDBRANCH   3   5
ENDBRANCH   2   3
ENDBRANCH   1   2
BRANCH   1   8
ATOM      8  C   UNL     1      20.396 -15.259  34.379  1.00  0.00     0.136 C 
ATOM      9  O   UNL     1      19.488 -14.853  35.094  1.00  0.00    -0.299 OA
BRANCH   8  10
ATOM     10  C   UNL     1      21.815 -15.251  34.928  1.00  0.00     0.064 C 
ATOM     11  C   UNL     1      22.856 -15.147  33.791  1.00  0.00     0.017 C 
BRANCH  10  12
ATOM     12  C   UNL     1      21.945 -14.199  36.082  1.00  0.00     0.072 C 
ATOM     13  C   UNL     1      23.005 -13.138  35.932  1.00  0.00     0.137 C 
ATOM     14  C   UNL     1      22.231 -14.747  37.518  1.00  0.00    -0.019 C 
ATOM     15  O   UNL     1      23.228 -12.539  34.893  1.00  0.00    -0.299 OA
ATOM     16  C   UNL     1      23.628 -12.754  37.235  1.00  0.00     0.080 C 
ATOM     17  C   UNL     1      22.704 -13.456  38.231  1.00  0.00     0.007 C 
ATOM     18  C   UNL     1      20.975 -15.311  38.251  1.00  0.00     0.008 C 
ATOM     19  C   UNL     1      23.347 -15.836  37.492  1.00  0.00     0.012 C 
ATOM     20  C   UNL     1      23.229 -13.721  39.658  1.00  0.00     0.001 C 
ATOM     21  C   UNL     1      20.863 -14.855  39.733  1.00  0.00     0.005 C 
ATOM     22  C   UNL     1      22.233 -14.651  40.462  1.00  0.00     0.003 C 
ATOM     23  C   UNL     1      23.531 -12.406  40.384  1.00  0.00     0.031 C 
ATOM     24  C   UNL     1      22.069 -14.298  42.010  1.00  0.00    -0.008 C 
ATOM     25  C   UNL     1      23.967 -12.690  41.788  1.00  0.00    -0.027 C 
ATOM     26  C   UNL     1      23.326 -13.599  42.548  1.00  0.00    -0.065 C 
ATOM     27  C   UNL     1      21.826 -15.632  42.789  1.00  0.00     0.014 C 
ATOM     28  C   UNL     1      20.866 -13.347  42.266  1.00  0.00     0.016 C 
ATOM     29  C   UNL     1      23.672 -13.654  44.026  1.00  0.00     0.063 C 
ATOM     30  C   UNL     1      21.991 -15.500  44.306  1.00  0.00     0.033 C 
ATOM     31  C   UNL     1      23.408 -15.029  44.641  1.00  0.00     0.118 C 
BRANCH  31  32
ATOM     32  O   UNL     1      23.559 -14.949  46.034  1.00  0.00    -0.393 OA
ATOM     33  H   UNL     1      24.150 -14.171  46.216  1.00  0.00     0.210 HD
ENDBRANCH  31  32
ENDBRANCH  10  12
ENDBRANCH   8  10
ENDBRANCH   1   8
TORSDOF 8
ENDMDL
MODEL 6
REMARK VINA RESULT:    -4.896     12.787     17.007
REMARK INTER + INTRA:          -8.042
REMARK INTER:                  -7.167
REMARK INTRA:                  -0.875
REMARK UNBOUND:                -1.142
REMARK SMILES C[C@H](CO)CCC(=O)[C@@H](C)[C@@H]1C(=O)C[C@@H]2[C@H]3CC=C4C[C@@H](O)CC[C@]4(C)[C@H]3CC[C@]21C
REMARK SMILES IDX 6 1 5 2 2 3 1 4 3 5 4 6 7 8 8 9 9 10 10 11 11 12 12 13 30 14
REMARK SMILES IDX 13 15 14 16 15 17 29 18 31 19 16 20 28 21 27 22 17 23 25 24
REMARK SMILES IDX 18 25 19 26 24 27 26 28 20 29 23 30 21 31 22 32
REMARK H PARENT 4 7 22 33
REMARK Flexibility Score: inf
ROOT
ATOM      1  C   UNL     1      20.348 -17.283  26.734  1.00  0.00     0.076 C 
ENDROOT
BRANCH   1   2
ATOM      2  C   UNL     1      18.880 -17.255  26.280  1.00  0.00     0.013 C 
BRANCH   2   3
ATOM      3  C   UNL     1      17.886 -17.571  27.425  1.00  0.00     0.012 C 
ATOM      4  C   UNL     1      17.030 -18.810  27.109  1.00  0.00     0.010 C 
BRANCH   3   5
ATOM      5  C   UNL     1      16.968 -16.362  27.698  1.00  0.00     0.159 C 
BRANCH   5   6
ATOM      6  O   UNL     1      17.494 -15.198  27.116  1.00  0.00    -0.396 OA
ATOM      7  H   UNL     1      16.956 -15.009  26.304  1.00  0.00     0.210 HD
ENDBRANCH   5   6
ENDBRANCH   3   5
ENDBRANCH   2   3
ENDBRANCH   1   2
BRANCH   1   8
ATOM      8  C   UNL     1      20.543 -16.433  27.970  1.00  0.00     0.136 C 
ATOM      9  O   UNL     1      20.520 -15.215  27.850  1.00  0.00    -0.299 OA
BRANCH   8  10
ATOM     10  C   UNL     1      20.847 -17.025  29.338  1.00  0.00     0.064 C 
ATOM     11  C   UNL     1      22.307 -17.525  29.421  1.00  0.00     0.017 C 
BRANCH  10  12
ATOM     12  C   UNL     1      20.388 -16.043  30.469  1.00  0.00     0.072 C 
ATOM     13  C   UNL     1      21.448 -15.179  31.104  1.00  0.00     0.137 C 
ATOM     14  C   UNL     1      19.687 -16.670  31.718  1.00  0.00    -0.019 C 
ATOM     15  O   UNL     1      22.321 -14.599  30.478  1.00  0.00    -0.299 OA
ATOM     16  C   UNL     1      21.207 -14.943  32.560  1.00  0.00     0.080 C 
ATOM     17  C   UNL     1      19.793 -15.501  32.727  1.00  0.00     0.007 C 
ATOM     18  C   UNL     1      18.185 -17.027  31.498  1.00  0.00     0.008 C 
ATOM     19  C   UNL     1      20.452 -17.936  32.215  1.00  0.00     0.012 C 
ATOM     20  C   UNL     1      19.320 -15.890  34.144  1.00  0.00     0.001 C 
ATOM     21  C   UNL     1      17.264 -16.598  32.674  1.00  0.00     0.005 C 
ATOM     22  C   UNL     1      17.937 -16.654  34.086  1.00  0.00     0.003 C 
ATOM     23  C   UNL     1      19.286 -14.668  35.066  1.00  0.00     0.031 C 
ATOM     24  C   UNL     1      16.923 -16.320  35.273  1.00  0.00    -0.008 C 
ATOM     25  C   UNL     1      18.755 -15.061  36.410  1.00  0.00    -0.027 C 
ATOM     26  C   UNL     1      17.681 -15.864  36.529  1.00  0.00    -0.065 C 
ATOM     27  C   UNL     1      16.099 -17.611  35.588  1.00  0.00     0.014 C 
ATOM     28  C   UNL     1      15.935 -15.182  34.892  1.00  0.00     0.016 C 
ATOM     29  C   UNL     1      17.062 -16.018  37.908  1.00  0.00     0.063 C 
ATOM     30  C   UNL     1      15.338 -17.551  36.914  1.00  0.00     0.033 C 
ATOM     31  C   UNL     1      16.315 -17.342  38.073  1.00  0.00     0.118 C 
BRANCH  31  32
ATOM     32  O   UNL     1      15.611 -17.327  39.286  1.00  0.00    -0.393 OA
ATOM     33  H   UNL     1      14.653 -17.180  39.063  1.00  0.00     0.210 HD
ENDBRANCH  31  32
ENDBRANCH  10  12
ENDBRANCH   8  10
ENDBRANCH   1   8
TORSDOF 8
ENDMDL
MODEL 7
REMARK VINA RESULT:    -4.845      3.097      8.225
REMARK INTER + INTRA:          -7.969
REMARK INTER:                  -6.960
REMARK INTRA:                  -1.009
REMARK UNBOUND:                -1.142
REMARK SMILES C[C@H](CO)CCC(=O)[C@@H](C)[C@@H]1C(=O)C[C@@H]2[C@H]3CC=C4C[C@@H](O)CC[C@]4(C)[C@H]3CC[C@]21C
REMARK SMILES IDX 6 1 5 2 2 3 1 4 3 5 4 6 7 8 8 9 9 10 10 11 11 12 12 13 30 14
REMARK SMILES IDX 13 15 14 16 15 17 29 18 31 19 16 20 28 21 27 22 17 23 25 24
REMARK SMILES IDX 18 25 19 26 24 27 26 28 20 29 23 30 21 31 22 32
REMARK H PARENT 4 7 22 33
REMARK Flexibility Score: inf
ROOT
ATOM      1  C   UNL     1      15.219  -4.109  43.717  1.00  0.00     0.076 C 
ENDROOT
BRANCH   1   2
ATOM      2  C   UNL     1      16.545  -4.850  43.484  1.00  0.00     0.013 C 
BRANCH   2   3
ATOM      3  C   UNL     1      16.580  -5.621  42.142  1.00  0.00     0.012 C 
ATOM      4  C   UNL     1      15.435  -5.192  41.209  1.00  0.00     0.010 C 
BRANCH   3   5
ATOM      5  C   UNL     1      16.510  -7.142  42.385  1.00  0.00     0.159 C 
BRANCH   5   6
ATOM      6  O   UNL     1      16.468  -7.423  43.759  1.00  0.00    -0.396 OA
ATOM      7  H   UNL     1      15.527  -7.646  43.983  1.00  0.00     0.210 HD
ENDBRANCH   5   6
ENDBRANCH   3   5
ENDBRANCH   2   3
ENDBRANCH   1   2
BRANCH   1   8
ATOM      8  C   UNL     1      14.491  -4.677  44.915  1.00  0.00     0.136 C 
ATOM      9  O   UNL     1      15.015  -5.594  45.535  1.00  0.00    -0.299 OA
BRANCH   8  10
ATOM     10  C   UNL     1      13.103  -4.215  45.331  1.00  0.00     0.064 C 
ATOM     11  C   UNL     1      13.165  -2.883  46.112  1.00  0.00     0.017 C 
BRANCH  10  12
ATOM     12  C   UNL     1      12.128  -4.253  44.105  1.00  0.00     0.072 C 
ATOM     13  C   UNL     1      10.881  -3.409  44.190  1.00  0.00     0.137 C 
ATOM     14  C   UNL     1      11.552  -5.647  43.693  1.00  0.00    -0.019 C 
ATOM     15  O   UNL     1      10.859  -2.265  44.612  1.00  0.00    -0.299 OA
ATOM     16  C   UNL     1       9.705  -4.047  43.522  1.00  0.00     0.080 C 
ATOM     17  C   UNL     1      10.367  -5.217  42.794  1.00  0.00     0.007 C 
ATOM     18  C   UNL     1      12.536  -6.528  42.864  1.00  0.00     0.008 C 
ATOM     19  C   UNL     1      11.070  -6.447  44.943  1.00  0.00     0.012 C 
ATOM     20  C   UNL     1       9.484  -6.407  42.361  1.00  0.00     0.001 C 
ATOM     21  C   UNL     1      11.874  -7.216  41.639  1.00  0.00     0.005 C 
ATOM     22  C   UNL     1      10.371  -7.607  41.839  1.00  0.00     0.003 C 
ATOM     23  C   UNL     1       8.427  -5.963  41.345  1.00  0.00     0.031 C 
ATOM     24  C   UNL     1       9.767  -8.415  40.602  1.00  0.00    -0.008 C 
ATOM     25  C   UNL     1       7.634  -7.148  40.888  1.00  0.00    -0.027 C 
ATOM     26  C   UNL     1       8.234  -8.313  40.578  1.00  0.00    -0.065 C 
ATOM     27  C   UNL     1      10.200  -9.911  40.740  1.00  0.00     0.014 C 
ATOM     28  C   UNL     1      10.287  -7.871  39.242  1.00  0.00     0.016 C 
ATOM     29  C   UNL     1       7.396  -9.381  39.897  1.00  0.00     0.063 C 
ATOM     30  C   UNL     1       9.422 -10.866  39.830  1.00  0.00     0.033 C 
ATOM     31  C   UNL     1       7.927 -10.794  40.148  1.00  0.00     0.118 C 
BRANCH  31  32
ATOM     32  O   UNL     1       7.229 -11.700  39.334  1.00  0.00    -0.393 OA
ATOM     33  H   UNL     1       7.050 -11.237  38.473  1.00  0.00     0.210 HD
ENDBRANCH  31  32
ENDBRANCH  10  12
ENDBRANCH   8  10
ENDBRANCH   1   8
TORSDOF 8
ENDMDL
MODEL 8
REMARK VINA RESULT:    -4.843      1.704      2.272
REMARK INTER + INTRA:          -7.967
REMARK INTER:                  -7.048
REMARK INTRA:                  -0.919
REMARK UNBOUND:                -1.142
REMARK SMILES C[C@H](CO)CCC(=O)[C@@H](C)[C@@H]1C(=O)C[C@@H]2[C@H]3CC=C4C[C@@H](O)CC[C@]4(C)[C@H]3CC[C@]21C
REMARK SMILES IDX 6 1 5 2 2 3 1 4 3 5 4 6 7 8 8 9 9 10 10 11 11 12 12 13 30 14
REMARK SMILES IDX 13 15 14 16 15 17 29 18 31 19 16 20 28 21 27 22 17 23 25 24
REMARK SMILES IDX 18 25 19 26 24 27 26 28 20 29 23 30 21 31 22 32
REMARK H PARENT 4 7 22 33
REMARK Flexibility Score: inf
ROOT
ATOM      1  C   UNL     1      10.473 -10.464  37.194  1.00  0.00     0.076 C 
ENDROOT
BRANCH   1   2
ATOM      2  C   UNL     1      10.632  -8.972  36.865  1.00  0.00     0.013 C 
BRANCH   2   3
ATOM      3  C   UNL     1      12.007  -8.401  37.291  1.00  0.00     0.012 C 
ATOM      4  C   UNL     1      12.536  -7.375  36.274  1.00  0.00     0.010 C 
BRANCH   3   5
ATOM      5  C   UNL     1      13.037  -9.534  37.469  1.00  0.00     0.159 C 
BRANCH   5   6
ATOM      6  O   UNL     1      13.823  -9.676  36.314  1.00  0.00    -0.396 OA
ATOM      7  H   UNL     1      13.862 -10.645  36.106  1.00  0.00     0.210 HD
ENDBRANCH   5   6
ENDBRANCH   3   5
ENDBRANCH   2   3
ENDBRANCH   1   2
BRANCH   1   8
ATOM      8  C   UNL     1       9.232 -10.702  38.025  1.00  0.00     0.136 C 
ATOM      9  O   UNL     1       8.936 -11.854  38.315  1.00  0.00    -0.299 OA
BRANCH   8  10
ATOM     10  C   UNL     1       8.295  -9.580  38.445  1.00  0.00     0.064 C 
ATOM     11  C   UNL     1       6.895  -9.752  37.814  1.00  0.00     0.017 C 
BRANCH  10  12
ATOM     12  C   UNL     1       8.333  -9.393  40.001  1.00  0.00     0.072 C 
ATOM     13  C   UNL     1       7.017  -9.446  40.734  1.00  0.00     0.137 C 
ATOM     14  C   UNL     1       8.959  -8.068  40.545  1.00  0.00    -0.019 C 
ATOM     15  O   UNL     1       6.142 -10.264  40.507  1.00  0.00    -0.299 OA
ATOM     16  C   UNL     1       6.969  -8.514  41.903  1.00  0.00     0.080 C 
ATOM     17  C   UNL     1       8.430  -8.075  42.000  1.00  0.00     0.007 C 
ATOM     18  C   UNL     1      10.518  -8.055  40.562  1.00  0.00     0.008 C 
ATOM     19  C   UNL     1       8.440  -6.832  39.747  1.00  0.00     0.012 C 
ATOM     20  C   UNL     1       8.755  -6.771  42.760  1.00  0.00     0.001 C 
ATOM     21  C   UNL     1      11.121  -7.488  41.878  1.00  0.00     0.005 C 
ATOM     22  C   UNL     1      10.270  -6.364  42.558  1.00  0.00     0.003 C 
ATOM     23  C   UNL     1       8.362  -6.884  44.236  1.00  0.00     0.031 C 
ATOM     24  C   UNL     1      10.983  -5.730  43.837  1.00  0.00    -0.008 C 
ATOM     25  C   UNL     1       8.756  -5.635  44.963  1.00  0.00    -0.027 C 
ATOM     26  C   UNL     1       9.955  -5.057  44.760  1.00  0.00    -0.065 C 
ATOM     27  C   UNL     1      12.024  -4.674  43.341  1.00  0.00     0.014 C 
ATOM     28  C   UNL     1      11.727  -6.803  44.681  1.00  0.00     0.016 C 
ATOM     29  C   UNL     1      10.371  -3.943  45.704  1.00  0.00     0.063 C 
ATOM     30  C   UNL     1      12.536  -3.745  44.445  1.00  0.00     0.033 C 
ATOM     31  C   UNL     1      11.370  -2.975  45.068  1.00  0.00     0.118 C 
BRANCH  31  32
ATOM     32  O   UNL     1      11.855  -2.099  46.051  1.00  0.00    -0.393 OA
ATOM     33  H   UNL     1      11.546  -1.188  45.804  1.00  0.00     0.210 HD
ENDBRANCH  31  32
ENDBRANCH  10  12
ENDBRANCH   8  10
ENDBRANCH   1   8
TORSDOF 8
ENDMDL
MODEL 9
REMARK VINA RESULT:    -4.837      5.180      8.959
REMARK INTER + INTRA:          -7.958
REMARK INTER:                  -7.045
REMARK INTRA:                  -0.913
REMARK UNBOUND:                -1.142
REMARK SMILES C[C@H](CO)CCC(=O)[C@@H](C)[C@@H]1C(=O)C[C@@H]2[C@H]3CC=C4C[C@@H](O)CC[C@]4(C)[C@H]3CC[C@]21C
REMARK SMILES IDX 6 1 5 2 2 3 1 4 3 5 4 6 7 8 8 9 9 10 10 11 11 12 12 13 30 14
REMARK SMILES IDX 13 15 14 16 15 17 29 18 31 19 16 20 28 21 27 22 17 23 25 24
REMARK SMILES IDX 18 25 19 26 24 27 26 28 20 29 23 30 21 31 22 32
REMARK H PARENT 4 7 22 33
REMARK Flexibility Score: inf
ROOT
ATOM      1  C   UNL     1       8.950  -8.868  30.184  1.00  0.00     0.076 C 
ENDROOT
BRANCH   1   2
ATOM      2  C   UNL     1       9.327  -7.994  31.391  1.00  0.00     0.013 C 
BRANCH   2   3
ATOM      3  C   UNL     1       9.969  -6.645  30.986  1.00  0.00     0.012 C 
ATOM      4  C   UNL     1       9.177  -5.449  31.542  1.00  0.00     0.010 C 
BRANCH   3   5
ATOM      5  C   UNL     1      10.073  -6.530  29.451  1.00  0.00     0.159 C 
BRANCH   5   6
ATOM      6  O   UNL     1       9.156  -5.587  28.961  1.00  0.00    -0.396 OA
ATOM      7  H   UNL     1       9.089  -4.866  29.639  1.00  0.00     0.210 HD
ENDBRANCH   5   6
ENDBRANCH   3   5
ENDBRANCH   2   3
ENDBRANCH   1   2
BRANCH   1   8
ATOM      8  C   UNL     1       7.463  -8.804  29.921  1.00  0.00     0.136 C 
ATOM      9  O   UNL     1       7.053  -9.117  28.810  1.00  0.00    -0.299 OA
BRANCH   8  10
ATOM     10  C   UNL     1       6.464  -8.292  30.948  1.00  0.00     0.064 C 
ATOM     11  C   UNL     1       5.345  -7.463  30.279  1.00  0.00     0.017 C 
BRANCH  10  12
ATOM     12  C   UNL     1       5.995  -9.462  31.879  1.00  0.00     0.072 C 
ATOM     13  C   UNL     1       4.594  -9.981  31.681  1.00  0.00     0.137 C 
ATOM     14  C   UNL     1       6.034  -9.206  33.421  1.00  0.00    -0.019 C 
ATOM     15  O   UNL     1       4.091 -10.188  30.588  1.00  0.00    -0.299 OA
ATOM     16  C   UNL     1       3.946 -10.403  32.960  1.00  0.00     0.080 C 
ATOM     17  C   UNL     1       5.129 -10.356  33.928  1.00  0.00     0.007 C 
ATOM     18  C   UNL     1       7.450  -9.343  34.059  1.00  0.00     0.008 C 
ATOM     19  C   UNL     1       5.441  -7.806  33.773  1.00  0.00     0.012 C 
ATOM     20  C   UNL     1       4.836 -10.263  35.441  1.00  0.00     0.001 C 
ATOM     21  C   UNL     1       7.458 -10.147  35.389  1.00  0.00     0.005 C 
ATOM     22  C   UNL     1       6.164  -9.992  36.256  1.00  0.00     0.003 C 
ATOM     23  C   UNL     1       4.080 -11.502  35.930  1.00  0.00     0.031 C 
ATOM     24  C   UNL     1       6.265 -10.738  37.664  1.00  0.00    -0.008 C 
ATOM     25  C   UNL     1       3.875 -11.418  37.412  1.00  0.00    -0.027 C 
ATOM     26  C   UNL     1       4.866 -11.024  38.233  1.00  0.00    -0.065 C 
ATOM     27  C   UNL     1       7.062  -9.819  38.646  1.00  0.00     0.014 C 
ATOM     28  C   UNL     1       7.004 -12.101  37.549  1.00  0.00     0.016 C 
ATOM     29  C   UNL     1       4.657 -11.198  39.728  1.00  0.00     0.063 C 
ATOM     30  C   UNL     1       6.946 -10.236  40.114  1.00  0.00     0.033 C 
ATOM     31  C   UNL     1       5.481 -10.210  40.555  1.00  0.00     0.118 C 
BRANCH  31  32
ATOM     32  O   UNL     1       5.391 -10.557  41.912  1.00  0.00    -0.393 OA
ATOM     33  H   UNL     1       5.219  -9.717  42.414  1.00  0.00     0.210 HD
ENDBRANCH  31  32
ENDBRANCH  10  12
ENDBRANCH   8  10
ENDBRANCH   1   8
TORSDOF 8
ENDMDL
