MODEL 1
REMARK VINA RESULT:    -5.242      0.000      0.000
REMARK INTER + INTRA:          -6.035
REMARK INTER:                  -5.855
REMARK INTRA:                  -0.180
REMARK UNBOUND:                -0.180
REMARK SMILES CC(C)c1ccc(C=O)cc1
REMARK SMILES IDX 4 1 5 2 6 3 7 4 10 5 11 6 2 7 1 8 3 9 8 10 9 11
REMARK H PARENT
REMARK Flexibility Score: inf
ROOT
ATOM      1  C   UNL     1      15.352  43.580   4.938  1.00  0.00    -0.045 A 
ATOM      2  C   UNL     1      16.724  43.862   5.043  1.00  0.00     0.005 A 
ATOM      3  C   UNL     1      17.420  43.576   6.221  1.00  0.00     0.012 A 
ATOM      4  C   UNL     1      16.755  43.002   7.317  1.00  0.00     0.014 A 
ATOM      5  C   UNL     1      15.386  42.719   7.215  1.00  0.00     0.012 A 
ATOM      6  C   UNL     1      14.690  43.005   6.038  1.00  0.00     0.005 A 
ENDROOT
BRANCH   1   7
ATOM      7  C   UNL     1      14.608  43.896   3.652  1.00  0.00     0.013 C 
ATOM      8  C   UNL     1      14.069  45.331   3.665  1.00  0.00     0.012 C 
ATOM      9  C   UNL     1      13.482  42.886   3.403  1.00  0.00     0.012 C 
ENDBRANCH   1   7
BRANCH   4  10
ATOM     10  C   UNL     1      17.473  42.693   8.567  1.00  0.00     0.260 C 
ATOM     11  O   UNL     1      17.747  43.597   9.401  1.00  0.00    -0.298 OA
ENDBRANCH   4  10
TORSDOF 2
ENDMDL
MODEL 2
REMARK VINA RESULT:    -5.230      0.072      1.461
REMARK INTER + INTRA:          -6.021
REMARK INTER:                  -5.839
REMARK INTRA:                  -0.182
REMARK UNBOUND:                -0.180
REMARK SMILES CC(C)c1ccc(C=O)cc1
REMARK SMILES IDX 4 1 5 2 6 3 7 4 10 5 11 6 2 7 1 8 3 9 8 10 9 11
REMARK H PARENT
REMARK Flexibility Score: inf
ROOT
ATOM      1  C   UNL     1      15.336  43.548   4.912  1.00  0.00    -0.045 A 
ATOM      2  C   UNL     1      14.645  43.003   6.007  1.00  0.00     0.005 A 
ATOM      3  C   UNL     1      15.318  42.704   7.196  1.00  0.00     0.012 A 
ATOM      4  C   UNL     1      16.697  42.944   7.309  1.00  0.00     0.014 A 
ATOM      5  C   UNL     1      17.390  43.487   6.218  1.00  0.00     0.012 A 
ATOM      6  C   UNL     1      16.717  43.787   5.031  1.00  0.00     0.005 A 
ENDROOT
BRANCH   1   7
ATOM      7  C   UNL     1      14.592  43.867   3.628  1.00  0.00     0.013 C 
ATOM      8  C   UNL     1      14.130  45.328   3.606  1.00  0.00     0.012 C 
ATOM      9  C   UNL     1      13.411  42.911   3.422  1.00  0.00     0.012 C 
ENDBRANCH   1   7
BRANCH   4  10
ATOM     10  C   UNL     1      17.424  42.635   8.555  1.00  0.00     0.260 C 
ATOM     11  O   UNL     1      17.765  43.547   9.353  1.00  0.00    -0.298 OA
ENDBRANCH   4  10
TORSDOF 2
ENDMDL
MODEL 3
REMARK VINA RESULT:    -5.030      1.275      1.456
REMARK INTER + INTRA:          -5.797
REMARK INTER:                  -5.602
REMARK INTRA:                  -0.196
REMARK UNBOUND:                -0.180
REMARK SMILES CC(C)c1ccc(C=O)cc1
REMARK SMILES IDX 4 1 5 2 6 3 7 4 10 5 11 6 2 7 1 8 3 9 8 10 9 11
REMARK H PARENT
REMARK Flexibility Score: inf
ROOT
ATOM      1  C   UNL     1      15.043  44.385   5.039  1.00  0.00    -0.045 A 
ATOM      2  C   UNL     1      14.978  45.360   6.048  1.00  0.00     0.005 A 
ATOM      3  C   UNL     1      15.714  45.213   7.228  1.00  0.00     0.012 A 
ATOM      4  C   UNL     1      16.529  44.087   7.419  1.00  0.00     0.014 A 
ATOM      5  C   UNL     1      16.597  43.111   6.414  1.00  0.00     0.012 A 
ATOM      6  C   UNL     1      15.862  43.258   5.235  1.00  0.00     0.005 A 
ENDROOT
BRANCH   1   7
ATOM      7  C   UNL     1      14.238  44.557   3.763  1.00  0.00     0.013 C 
ATOM      8  C   UNL     1      13.168  45.642   3.928  1.00  0.00     0.012 C 
ATOM      9  C   UNL     1      13.613  43.228   3.321  1.00  0.00     0.012 C 
ENDBRANCH   1   7
BRANCH   4  10
ATOM     10  C   UNL     1      17.312  43.915   8.657  1.00  0.00     0.260 C 
ATOM     11  O   UNL     1      17.830  42.805   8.951  1.00  0.00    -0.298 OA
ENDBRANCH   4  10
TORSDOF 2
ENDMDL
MODEL 4
REMARK VINA RESULT:    -5.015      2.811      4.811
REMARK INTER + INTRA:          -5.782
REMARK INTER:                  -5.600
REMARK INTRA:                  -0.182
REMARK UNBOUND:                -0.180
REMARK SMILES CC(C)c1ccc(C=O)cc1
REMARK SMILES IDX 4 1 5 2 6 3 7 4 10 5 11 6 2 7 1 8 3 9 8 10 9 11
REMARK H PARENT
REMARK Flexibility Score: inf
ROOT
ATOM      1  C   UNL     1      15.996  43.473   5.965  1.00  0.00    -0.045 A 
ATOM      2  C   UNL     1      16.089  43.837   4.611  1.00  0.00     0.005 A 
ATOM      3  C   UNL     1      14.984  43.712   3.763  1.00  0.00     0.012 A 
ATOM      4  C   UNL     1      13.765  43.221   4.256  1.00  0.00     0.014 A 
ATOM      5  C   UNL     1      13.667  42.856   5.606  1.00  0.00     0.012 A 
ATOM      6  C   UNL     1      14.772  42.981   6.453  1.00  0.00     0.005 A 
ENDROOT
BRANCH   1   7
ATOM      7  C   UNL     1      17.204  43.612   6.873  1.00  0.00     0.013 C 
ATOM      8  C   UNL     1      17.082  42.701   8.099  1.00  0.00     0.012 C 
ATOM      9  C   UNL     1      17.415  45.073   7.290  1.00  0.00     0.012 C 
ENDBRANCH   1   7
BRANCH   4  10
ATOM     10  C   UNL     1      12.588  43.083   3.377  1.00  0.00     0.260 C 
ATOM     11  O   UNL     1      12.591  42.278   2.407  1.00  0.00    -0.298 OA
ENDBRANCH   4  10
TORSDOF 2
ENDMDL
MODEL 5
REMARK VINA RESULT:    -5.005      3.089      5.029
REMARK INTER + INTRA:          -5.770
REMARK INTER:                  -5.586
REMARK INTRA:                  -0.185
REMARK UNBOUND:                -0.180
REMARK SMILES CC(C)c1ccc(C=O)cc1
REMARK SMILES IDX 4 1 5 2 6 3 7 4 10 5 11 6 2 7 1 8 3 9 8 10 9 11
REMARK H PARENT
REMARK Flexibility Score: inf
ROOT
ATOM      1  C   UNL     1      15.358  43.981   5.544  1.00  0.00    -0.045 A 
ATOM      2  C   UNL     1      15.086  45.131   6.304  1.00  0.00     0.005 A 
ATOM      3  C   UNL     1      14.089  46.026   5.907  1.00  0.00     0.012 A 
ATOM      4  C   UNL     1      13.345  45.787   4.740  1.00  0.00     0.014 A 
ATOM      5  C   UNL     1      13.614  44.641   3.979  1.00  0.00     0.012 A 
ATOM      6  C   UNL     1      14.610  43.746   4.376  1.00  0.00     0.005 A 
ENDROOT
BRANCH   1   7
ATOM      7  C   UNL     1      16.445  43.018   5.987  1.00  0.00     0.013 C 
ATOM      8  C   UNL     1      16.003  42.213   7.214  1.00  0.00     0.012 C 
ATOM      9  C   UNL     1      17.762  43.757   6.256  1.00  0.00     0.012 C 
ENDBRANCH   1   7
BRANCH   4  10
ATOM     10  C   UNL     1      12.289  46.721   4.306  1.00  0.00     0.260 C 
ATOM     11  O   UNL     1      11.883  46.735   3.113  1.00  0.00    -0.298 OA
ENDBRANCH   4  10
TORSDOF 2
ENDMDL
MODEL 6
REMARK VINA RESULT:    -4.987     11.865     12.868
REMARK INTER + INTRA:          -5.750
REMARK INTER:                  -5.558
REMARK INTRA:                  -0.192
REMARK UNBOUND:                -0.180
REMARK SMILES CC(C)c1ccc(C=O)cc1
REMARK SMILES IDX 4 1 5 2 6 3 7 4 10 5 11 6 2 7 1 8 3 9 8 10 9 11
REMARK H PARENT
REMARK Flexibility Score: inf
ROOT
ATOM      1  C   UNL     1       5.746  40.623  -0.804  1.00  0.00    -0.045 A 
ATOM      2  C   UNL     1       6.456  41.568  -1.564  1.00  0.00     0.005 A 
ATOM      3  C   UNL     1       7.278  41.158  -2.620  1.00  0.00     0.012 A 
ATOM      4  C   UNL     1       7.403  39.796  -2.933  1.00  0.00     0.014 A 
ATOM      5  C   UNL     1       6.696  38.850  -2.177  1.00  0.00     0.012 A 
ATOM      6  C   UNL     1       5.875  39.259  -1.123  1.00  0.00     0.005 A 
ENDROOT
BRANCH   1   7
ATOM      7  C   UNL     1       4.859  41.082   0.339  1.00  0.00     0.013 C 
ATOM      8  C   UNL     1       5.531  42.197   1.147  1.00  0.00     0.012 C 
ATOM      9  C   UNL     1       4.469  39.905   1.241  1.00  0.00     0.012 C 
ENDBRANCH   1   7
BRANCH   4  10
ATOM     10  C   UNL     1       8.265  39.345  -4.042  1.00  0.00     0.260 C 
ATOM     11  O   UNL     1       9.413  39.833  -4.214  1.00  0.00    -0.298 OA
ENDBRANCH   4  10
TORSDOF 2
ENDMDL
MODEL 7
REMARK VINA RESULT:    -4.980      3.099      5.044
REMARK INTER + INTRA:          -5.742
REMARK INTER:                  -5.562
REMARK INTRA:                  -0.180
REMARK UNBOUND:                -0.180
REMARK SMILES CC(C)c1ccc(C=O)cc1
REMARK SMILES IDX 4 1 5 2 6 3 7 4 10 5 11 6 2 7 1 8 3 9 8 10 9 11
REMARK H PARENT
REMARK Flexibility Score: inf
ROOT
ATOM      1  C   UNL     1      15.318  43.949   5.661  1.00  0.00    -0.045 A 
ATOM      2  C   UNL     1      14.443  43.577   4.627  1.00  0.00     0.005 A 
ATOM      3  C   UNL     1      13.421  44.439   4.215  1.00  0.00     0.012 A 
ATOM      4  C   UNL     1      13.258  45.689   4.832  1.00  0.00     0.014 A 
ATOM      5  C   UNL     1      14.129  46.064   5.865  1.00  0.00     0.012 A 
ATOM      6  C   UNL     1      15.150  45.202   6.276  1.00  0.00     0.005 A 
ENDROOT
BRANCH   1   7
ATOM      7  C   UNL     1      16.422  43.002   6.098  1.00  0.00     0.013 C 
ATOM      8  C   UNL     1      16.034  42.256   7.379  1.00  0.00     0.012 C 
ATOM      9  C   UNL     1      17.750  43.748   6.274  1.00  0.00     0.012 C 
ENDBRANCH   1   7
BRANCH   4  10
ATOM     10  C   UNL     1      12.186  46.611   4.412  1.00  0.00     0.260 C 
ATOM     11  O   UNL     1      11.914  46.781   3.194  1.00  0.00    -0.298 OA
ENDBRANCH   4  10
TORSDOF 2
ENDMDL
MODEL 8
REMARK VINA RESULT:    -4.947      2.177      3.197
REMARK INTER + INTRA:          -5.705
REMARK INTER:                  -5.510
REMARK INTRA:                  -0.195
REMARK UNBOUND:                -0.180
REMARK SMILES CC(C)c1ccc(C=O)cc1
REMARK SMILES IDX 4 1 5 2 6 3 7 4 10 5 11 6 2 7 1 8 3 9 8 10 9 11
REMARK H PARENT
REMARK Flexibility Score: inf
ROOT
ATOM      1  C   UNL     1      13.881  46.085   5.031  1.00  0.00    -0.045 A 
ATOM      2  C   UNL     1      14.386  45.381   3.924  1.00  0.00     0.005 A 
ATOM      3  C   UNL     1      15.492  44.537   4.063  1.00  0.00     0.012 A 
ATOM      4  C   UNL     1      16.113  44.381   5.312  1.00  0.00     0.014 A 
ATOM      5  C   UNL     1      15.613  45.082   6.419  1.00  0.00     0.012 A 
ATOM      6  C   UNL     1      14.507  45.926   6.280  1.00  0.00     0.005 A 
ENDROOT
BRANCH   1   7
ATOM      7  C   UNL     1      12.681  46.999   4.865  1.00  0.00     0.013 C 
ATOM      8  C   UNL     1      11.732  46.886   6.063  1.00  0.00     0.012 C 
ATOM      9  C   UNL     1      11.946  46.713   3.550  1.00  0.00     0.012 C 
ENDBRANCH   1   7
BRANCH   4  10
ATOM     10  C   UNL     1      17.281  43.495   5.478  1.00  0.00     0.260 C 
ATOM     11  O   UNL     1      18.053  43.614   6.465  1.00  0.00    -0.298 OA
ENDBRANCH   4  10
TORSDOF 2
ENDMDL
MODEL 9
REMARK VINA RESULT:    -4.801      3.903      5.592
REMARK INTER + INTRA:          -5.542
REMARK INTER:                  -5.349
REMARK INTRA:                  -0.193
REMARK UNBOUND:                -0.180
REMARK SMILES CC(C)c1ccc(C=O)cc1
REMARK SMILES IDX 4 1 5 2 6 3 7 4 10 5 11 6 2 7 1 8 3 9 8 10 9 11
REMARK H PARENT
REMARK Flexibility Score: inf
ROOT
ATOM      1  C   UNL     1      14.027  45.643   4.855  1.00  0.00    -0.045 A 
ATOM      2  C   UNL     1      13.889  46.026   6.200  1.00  0.00     0.005 A 
ATOM      3  C   UNL     1      12.759  46.730   6.627  1.00  0.00     0.012 A 
ATOM      4  C   UNL     1      11.746  47.064   5.715  1.00  0.00     0.014 A 
ATOM      5  C   UNL     1      11.879  46.684   4.372  1.00  0.00     0.012 A 
ATOM      6  C   UNL     1      13.008  45.980   3.946  1.00  0.00     0.005 A 
ENDROOT
BRANCH   1   7
ATOM      7  C   UNL     1      15.259  44.880   4.406  1.00  0.00     0.013 C 
ATOM      8  C   UNL     1      14.894  43.785   3.398  1.00  0.00     0.012 C 
ATOM      9  C   UNL     1      16.015  44.295   5.606  1.00  0.00     0.012 C 
ENDBRANCH   1   7
BRANCH   4  10
ATOM     10  C   UNL     1      10.547  47.807   6.147  1.00  0.00     0.260 C 
ATOM     11  O   UNL     1       9.393  47.435   5.806  1.00  0.00    -0.298 OA
ENDBRANCH   4  10
TORSDOF 2
ENDMDL
