MODEL 1
REMARK VINA RESULT:    -3.949      0.000      0.000
REMARK INTER + INTRA:          -6.359
REMARK INTER:                  -6.027
REMARK INTRA:                  -0.332
REMARK UNBOUND:                -0.332
REMARK SMILES O=C([O-])CCCCCCCCC(=O)[O-]
REMARK SMILES IDX 7 1 6 2 5 3 4 4 2 5 1 6 3 7 8 8 9 9 10 10 11 11 12 12 13 13
REMARK SMILES IDX 14 14
REMARK H PARENT
REMARK Flexibility Score: inf
ROOT
ATOM      1  C   UNL     1      -7.490  -7.930  -0.218  1.00  0.00     0.000 C 
ENDROOT
BRANCH   1   2
ATOM      2  C   UNL     1      -7.014  -9.194   0.520  1.00  0.00     0.000 C 
BRANCH   2   3
ATOM      3  C   UNL     1      -6.734 -10.365  -0.436  1.00  0.00     0.006 C 
BRANCH   3   4
ATOM      4  C   UNL     1      -5.540 -11.217   0.010  1.00  0.00     0.053 C 
BRANCH   4   5
ATOM      5  C   UNL     1      -6.010 -12.426   0.757  1.00  0.00     0.041 C 
ATOM      6  O   UNL     1      -6.342 -12.332   1.968  1.00  0.00    -0.550 OA
ATOM      7  O   UNL     1      -6.034 -13.665   0.130  1.00  0.00    -0.550 OA
ENDBRANCH   4   5
ENDBRANCH   3   4
ENDBRANCH   2   3
ENDBRANCH   1   2
BRANCH   1   8
ATOM      8  C   UNL     1      -6.493  -6.765  -0.102  1.00  0.00     0.000 C 
BRANCH   8   9
ATOM      9  C   UNL     1      -6.718  -5.921   1.166  1.00  0.00     0.000 C 
BRANCH   9  10
ATOM     10  C   UNL     1      -8.201  -5.834   1.560  1.00  0.00     0.006 C 
BRANCH  10  11
ATOM     11  C   UNL     1      -8.481  -4.713   2.568  1.00  0.00     0.053 C 
BRANCH  11  12
ATOM     12  C   UNL     1      -9.823  -4.102   2.309  1.00  0.00     0.041 C 
ATOM     13  O   UNL     1     -10.093  -2.956   2.758  1.00  0.00    -0.550 OA
ATOM     14  O   UNL     1     -10.755  -4.775   1.531  1.00  0.00    -0.550 OA
ENDBRANCH  11  12
ENDBRANCH  10  11
ENDBRANCH   9  10
ENDBRANCH   8   9
ENDBRANCH   1   8
TORSDOF 9
ENDMDL
MODEL 2
REMARK VINA RESULT:    -3.934      1.201      2.106
REMARK INTER + INTRA:          -6.336
REMARK INTER:                  -5.805
REMARK INTRA:                  -0.531
REMARK UNBOUND:                -0.332
REMARK SMILES O=C([O-])CCCCCCCCC(=O)[O-]
REMARK SMILES IDX 7 1 6 2 5 3 4 4 2 5 1 6 3 7 8 8 9 9 10 10 11 11 12 12 13 13
REMARK SMILES IDX 14 14
REMARK H PARENT
REMARK Flexibility Score: inf
ROOT
ATOM      1  C   UNL     1      -7.432  -9.551   0.274  1.00  0.00     0.000 C 
ENDROOT
BRANCH   1   2
ATOM      2  C   UNL     1      -6.425 -10.306  -0.612  1.00  0.00     0.000 C 
BRANCH   2   3
ATOM      3  C   UNL     1      -5.394 -11.098   0.209  1.00  0.00     0.006 C 
BRANCH   3   4
ATOM      4  C   UNL     1      -5.346 -12.581  -0.178  1.00  0.00     0.053 C 
BRANCH   4   5
ATOM      5  C   UNL     1      -6.075 -13.409   0.833  1.00  0.00     0.041 C 
ATOM      6  O   UNL     1      -6.413 -14.591   0.559  1.00  0.00    -0.550 OA
ATOM      7  O   UNL     1      -6.426 -12.859   2.060  1.00  0.00    -0.550 OA
ENDBRANCH   4   5
ENDBRANCH   3   4
ENDBRANCH   2   3
ENDBRANCH   1   2
BRANCH   1   8
ATOM      8  C   UNL     1      -7.803  -8.171  -0.294  1.00  0.00     0.000 C 
BRANCH   8   9
ATOM      9  C   UNL     1      -6.630  -7.176  -0.236  1.00  0.00     0.000 C 
BRANCH   9  10
ATOM     10  C   UNL     1      -6.320  -6.715   1.198  1.00  0.00     0.006 C 
BRANCH  10  11
ATOM     11  C   UNL     1      -6.874  -5.319   1.504  1.00  0.00     0.053 C 
BRANCH  11  12
ATOM     12  C   UNL     1      -8.160  -5.422   2.264  1.00  0.00     0.041 C 
ATOM     13  O   UNL     1      -8.420  -6.461   2.926  1.00  0.00    -0.550 OA
ATOM     14  O   UNL     1      -9.045  -4.353   2.283  1.00  0.00    -0.550 OA
ENDBRANCH  11  12
ENDBRANCH  10  11
ENDBRANCH   9  10
ENDBRANCH   8   9
ENDBRANCH   1   8
TORSDOF 9
ENDMDL
MODEL 3
REMARK VINA RESULT:    -3.928      1.107      1.468
REMARK INTER + INTRA:          -6.326
REMARK INTER:                  -6.048
REMARK INTRA:                  -0.278
REMARK UNBOUND:                -0.332
REMARK SMILES O=C([O-])CCCCCCCCC(=O)[O-]
REMARK SMILES IDX 7 1 6 2 5 3 4 4 2 5 1 6 3 7 8 8 9 9 10 10 11 11 12 12 13 13
REMARK SMILES IDX 14 14
REMARK H PARENT
REMARK Flexibility Score: inf
ROOT
ATOM      1  C   UNL     1      -7.098  -8.221   1.033  1.00  0.00     0.000 C 
ENDROOT
BRANCH   1   2
ATOM      2  C   UNL     1      -7.423  -8.876  -0.321  1.00  0.00     0.000 C 
BRANCH   2   3
ATOM      3  C   UNL     1      -6.883 -10.311  -0.427  1.00  0.00     0.006 C 
BRANCH   3   4
ATOM      4  C   UNL     1      -6.062 -10.724   0.801  1.00  0.00     0.053 C 
BRANCH   4   5
ATOM      5  C   UNL     1      -6.008 -12.215   0.916  1.00  0.00     0.041 C 
ATOM      6  O   UNL     1      -6.383 -12.782   1.976  1.00  0.00    -0.550 OA
ATOM      7  O   UNL     1      -5.497 -12.975  -0.128  1.00  0.00    -0.550 OA
ENDBRANCH   4   5
ENDBRANCH   3   4
ENDBRANCH   2   3
ENDBRANCH   1   2
BRANCH   1   8
ATOM      8  C   UNL     1      -7.398  -6.713   1.050  1.00  0.00     0.000 C 
BRANCH   8   9
ATOM      9  C   UNL     1      -8.039  -6.254   2.372  1.00  0.00     0.000 C 
BRANCH   9  10
ATOM     10  C   UNL     1      -8.847  -4.956   2.215  1.00  0.00     0.006 C 
BRANCH  10  11
ATOM     11  C   UNL     1     -10.165  -4.980   2.999  1.00  0.00     0.053 C 
BRANCH  11  12
ATOM     12  C   UNL     1     -11.295  -4.518   2.133  1.00  0.00     0.041 C 
ATOM     13  O   UNL     1     -11.232  -4.657   0.883  1.00  0.00    -0.550 OA
ATOM     14  O   UNL     1     -12.439  -3.981   2.710  1.00  0.00    -0.550 OA
ENDBRANCH  11  12
ENDBRANCH  10  11
ENDBRANCH   9  10
ENDBRANCH   8   9
ENDBRANCH   1   8
TORSDOF 9
ENDMDL
MODEL 4
REMARK VINA RESULT:    -3.816      1.179      7.894
REMARK INTER + INTRA:          -6.155
REMARK INTER:                  -5.937
REMARK INTRA:                  -0.219
REMARK UNBOUND:                -0.332
REMARK SMILES O=C([O-])CCCCCCCCC(=O)[O-]
REMARK SMILES IDX 7 1 6 2 5 3 4 4 2 5 1 6 3 7 8 8 9 9 10 10 11 11 12 12 13 13
REMARK SMILES IDX 14 14
REMARK H PARENT
REMARK Flexibility Score: inf
ROOT
ATOM      1  C   UNL     1      -7.576  -6.506   0.899  1.00  0.00     0.000 C 
ENDROOT
BRANCH   1   2
ATOM      2  C   UNL     1      -8.002  -6.083   2.316  1.00  0.00     0.000 C 
BRANCH   2   3
ATOM      3  C   UNL     1      -8.813  -4.777   2.323  1.00  0.00     0.006 C 
BRANCH   3   4
ATOM      4  C   UNL     1     -10.242  -4.969   1.801  1.00  0.00     0.053 C 
BRANCH   4   5
ATOM      5  C   UNL     1     -11.127  -3.861   2.281  1.00  0.00     0.041 C 
ATOM      6  O   UNL     1     -12.322  -4.098   2.600  1.00  0.00    -0.550 OA
ATOM      7  O   UNL     1     -10.646  -2.558   2.328  1.00  0.00    -0.550 OA
ENDBRANCH   4   5
ENDBRANCH   3   4
ENDBRANCH   2   3
ENDBRANCH   1   2
BRANCH   1   8
ATOM      8  C   UNL     1      -6.958  -7.914   0.862  1.00  0.00     0.000 C 
BRANCH   8   9
ATOM      9  C   UNL     1      -7.561  -8.793  -0.248  1.00  0.00     0.000 C 
BRANCH   9  10
ATOM     10  C   UNL     1      -6.678 -10.006  -0.583  1.00  0.00     0.006 C 
BRANCH  10  11
ATOM     11  C   UNL     1      -6.502 -10.957   0.608  1.00  0.00     0.053 C 
BRANCH  11  12
ATOM     12  C   UNL     1      -5.698 -12.154   0.206  1.00  0.00     0.041 C 
ATOM     13  O   UNL     1      -5.802 -13.231   0.851  1.00  0.00    -0.550 OA
ATOM     14  O   UNL     1      -4.875 -12.096  -0.911  1.00  0.00    -0.550 OA
ENDBRANCH  11  12
ENDBRANCH  10  11
ENDBRANCH   9  10
ENDBRANCH   8   9
ENDBRANCH   1   8
TORSDOF 9
ENDMDL
MODEL 5
REMARK VINA RESULT:    -3.790      0.951      7.292
REMARK INTER + INTRA:          -6.116
REMARK INTER:                  -5.665
REMARK INTRA:                  -0.451
REMARK UNBOUND:                -0.332
REMARK SMILES O=C([O-])CCCCCCCCC(=O)[O-]
REMARK SMILES IDX 7 1 6 2 5 3 4 4 2 5 1 6 3 7 8 8 9 9 10 10 11 11 12 12 13 13
REMARK SMILES IDX 14 14
REMARK H PARENT
REMARK Flexibility Score: inf
ROOT
ATOM      1  C   UNL     1      -7.788  -7.529  -0.106  1.00  0.00     0.000 C 
ENDROOT
BRANCH   1   2
ATOM      2  C   UNL     1      -6.506  -6.740   0.213  1.00  0.00     0.000 C 
BRANCH   2   3
ATOM      3  C   UNL     1      -6.539  -6.102   1.612  1.00  0.00     0.006 C 
BRANCH   3   4
ATOM      4  C   UNL     1      -7.909  -6.239   2.289  1.00  0.00     0.053 C 
BRANCH   4   5
ATOM      5  C   UNL     1      -8.665  -4.950   2.203  1.00  0.00     0.041 C 
ATOM      6  O   UNL     1      -9.892  -4.954   1.919  1.00  0.00    -0.550 OA
ATOM      7  O   UNL     1      -8.004  -3.742   2.386  1.00  0.00    -0.550 OA
ENDBRANCH   4   5
ENDBRANCH   3   4
ENDBRANCH   2   3
ENDBRANCH   1   2
BRANCH   1   8
ATOM      8  C   UNL     1      -7.497  -8.953  -0.610  1.00  0.00     0.000 C 
BRANCH   8   9
ATOM      9  C   UNL     1      -6.697  -9.786   0.407  1.00  0.00     0.000 C 
BRANCH   9  10
ATOM     10  C   UNL     1      -5.987 -10.985  -0.243  1.00  0.00     0.006 C 
BRANCH  10  11
ATOM     11  C   UNL     1      -5.196 -11.824   0.769  1.00  0.00     0.053 C 
BRANCH  11  12
ATOM     12  C   UNL     1      -5.988 -13.024   1.185  1.00  0.00     0.041 C 
ATOM     13  O   UNL     1      -6.415 -13.121   2.365  1.00  0.00    -0.550 OA
ATOM     14  O   UNL     1      -6.297 -14.009   0.256  1.00  0.00    -0.550 OA
ENDBRANCH  11  12
ENDBRANCH  10  11
ENDBRANCH   9  10
ENDBRANCH   8   9
ENDBRANCH   1   8
TORSDOF 9
ENDMDL
MODEL 6
REMARK VINA RESULT:    -3.663      2.125      3.387
REMARK INTER + INTRA:          -5.923
REMARK INTER:                  -5.543
REMARK INTRA:                  -0.380
REMARK UNBOUND:                -0.332
REMARK SMILES O=C([O-])CCCCCCCCC(=O)[O-]
REMARK SMILES IDX 7 1 6 2 5 3 4 4 2 5 1 6 3 7 8 8 9 9 10 10 11 11 12 12 13 13
REMARK SMILES IDX 14 14
REMARK H PARENT
REMARK Flexibility Score: inf
ROOT
ATOM      1  C   UNL     1      -6.335 -10.851  -0.344  1.00  0.00     0.000 C 
ENDROOT
BRANCH   1   2
ATOM      2  C   UNL     1      -5.171 -11.831  -0.574  1.00  0.00     0.000 C 
BRANCH   2   3
ATOM      3  C   UNL     1      -5.092 -12.918   0.511  1.00  0.00     0.006 C 
BRANCH   3   4
ATOM      4  C   UNL     1      -6.227 -13.942   0.402  1.00  0.00     0.053 C 
BRANCH   4   5
ATOM      5  C   UNL     1      -5.948 -15.127   1.274  1.00  0.00     0.041 C 
ATOM      6  O   UNL     1      -6.270 -15.107   2.491  1.00  0.00    -0.550 OA
ATOM      7  O   UNL     1      -5.286 -16.232   0.754  1.00  0.00    -0.550 OA
ENDBRANCH   4   5
ENDBRANCH   3   4
ENDBRANCH   2   3
ENDBRANCH   1   2
BRANCH   1   8
ATOM      8  C   UNL     1      -6.406 -10.345   1.106  1.00  0.00     0.000 C 
BRANCH   8   9
ATOM      9  C   UNL     1      -7.184  -9.023   1.232  1.00  0.00     0.000 C 
BRANCH   9  10
ATOM     10  C   UNL     1      -7.360  -8.313  -0.121  1.00  0.00     0.006 C 
BRANCH  10  11
ATOM     11  C   UNL     1      -6.651  -6.954  -0.173  1.00  0.00     0.053 C 
BRANCH  11  12
ATOM     12  C   UNL     1      -6.908  -6.183   1.084  1.00  0.00     0.041 C 
ATOM     13  O   UNL     1      -5.945  -5.820   1.811  1.00  0.00    -0.550 OA
ATOM     14  O   UNL     1      -8.204  -5.822   1.426  1.00  0.00    -0.550 OA
ENDBRANCH  11  12
ENDBRANCH  10  11
ENDBRANCH   9  10
ENDBRANCH   8   9
ENDBRANCH   1   8
TORSDOF 9
ENDMDL
MODEL 7
REMARK VINA RESULT:    -3.588     19.649     21.481
REMARK INTER + INTRA:          -5.809
REMARK INTER:                  -4.926
REMARK INTRA:                  -0.883
REMARK UNBOUND:                -0.332
REMARK SMILES O=C([O-])CCCCCCCCC(=O)[O-]
REMARK SMILES IDX 7 1 6 2 5 3 4 4 2 5 1 6 3 7 8 8 9 9 10 10 11 11 12 12 13 13
REMARK SMILES IDX 14 14
REMARK H PARENT
REMARK Flexibility Score: inf
ROOT
ATOM      1  C   UNL     1     -20.477  -4.640 -12.837  1.00  0.00     0.000 C 
ENDROOT
BRANCH   1   2
ATOM      2  C   UNL     1     -21.686  -3.735 -12.542  1.00  0.00     0.000 C 
BRANCH   2   3
ATOM      3  C   UNL     1     -23.022  -4.489 -12.624  1.00  0.00     0.006 C 
BRANCH   3   4
ATOM      4  C   UNL     1     -24.008  -3.836 -13.600  1.00  0.00     0.053 C 
BRANCH   4   5
ATOM      5  C   UNL     1     -23.690  -4.233 -15.008  1.00  0.00     0.041 C 
ATOM      6  O   UNL     1     -23.138  -3.413 -15.788  1.00  0.00    -0.550 OA
ATOM      7  O   UNL     1     -24.048  -5.492 -15.474  1.00  0.00    -0.550 OA
ENDBRANCH   4   5
ENDBRANCH   3   4
ENDBRANCH   2   3
ENDBRANCH   1   2
BRANCH   1   8
ATOM      8  C   UNL     1     -19.880  -4.398 -14.233  1.00  0.00     0.000 C 
BRANCH   8   9
ATOM      9  C   UNL     1     -20.249  -5.509 -15.232  1.00  0.00     0.000 C 
BRANCH   9  10
ATOM     10  C   UNL     1     -20.837  -6.750 -14.542  1.00  0.00     0.006 C 
BRANCH  10  11
ATOM     11  C   UNL     1     -19.775  -7.809 -14.222  1.00  0.00     0.053 C 
BRANCH  11  12
ATOM     12  C   UNL     1     -20.228  -8.680 -13.092  1.00  0.00     0.041 C 
ATOM     13  O   UNL     1     -20.021  -9.921 -13.128  1.00  0.00    -0.550 OA
ATOM     14  O   UNL     1     -20.833  -8.114 -11.977  1.00  0.00    -0.550 OA
ENDBRANCH  11  12
ENDBRANCH  10  11
ENDBRANCH   9  10
ENDBRANCH   8   9
ENDBRANCH   1   8
TORSDOF 9
ENDMDL
MODEL 8
REMARK VINA RESULT:    -3.588     19.990     21.585
REMARK INTER + INTRA:          -5.808
REMARK INTER:                  -4.772
REMARK INTRA:                  -1.036
REMARK UNBOUND:                -0.332
REMARK SMILES O=C([O-])CCCCCCCCC(=O)[O-]
REMARK SMILES IDX 7 1 6 2 5 3 4 4 2 5 1 6 3 7 8 8 9 9 10 10 11 11 12 12 13 13
REMARK SMILES IDX 14 14
REMARK H PARENT
REMARK Flexibility Score: inf
ROOT
ATOM      1  C   UNL     1     -23.274  -4.675 -14.537  1.00  0.00     0.000 C 
ENDROOT
BRANCH   1   2
ATOM      2  C   UNL     1     -22.910  -5.818 -15.501  1.00  0.00     0.000 C 
BRANCH   2   3
ATOM      3  C   UNL     1     -22.266  -5.311 -16.801  1.00  0.00     0.006 C 
BRANCH   3   4
ATOM      4  C   UNL     1     -20.735  -5.278 -16.725  1.00  0.00     0.053 C 
BRANCH   4   5
ATOM      5  C   UNL     1     -20.255  -3.888 -16.446  1.00  0.00     0.041 C 
ATOM      6  O   UNL     1     -19.186  -3.704 -15.806  1.00  0.00    -0.550 OA
ATOM      7  O   UNL     1     -21.015  -2.796 -16.848  1.00  0.00    -0.550 OA
ENDBRANCH   4   5
ENDBRANCH   3   4
ENDBRANCH   2   3
ENDBRANCH   1   2
BRANCH   1   8
ATOM      8  C   UNL     1     -22.744  -4.910 -13.112  1.00  0.00     0.000 C 
BRANCH   8   9
ATOM      9  C   UNL     1     -21.302  -4.403 -12.929  1.00  0.00     0.000 C 
BRANCH   9  10
ATOM     10  C   UNL     1     -20.274  -5.546 -12.912  1.00  0.00     0.006 C 
BRANCH  10  11
ATOM     11  C   UNL     1     -20.916  -6.916 -12.658  1.00  0.00     0.053 C 
BRANCH  11  12
ATOM     12  C   UNL     1     -20.209  -7.977 -13.443  1.00  0.00     0.041 C 
ATOM     13  O   UNL     1     -19.477  -7.661 -14.417  1.00  0.00    -0.550 OA
ATOM     14  O   UNL     1     -20.319  -9.309 -13.067  1.00  0.00    -0.550 OA
ENDBRANCH  11  12
ENDBRANCH  10  11
ENDBRANCH   9  10
ENDBRANCH   8   9
ENDBRANCH   1   8
TORSDOF 9
ENDMDL
MODEL 9
REMARK VINA RESULT:    -3.555     19.761     21.565
REMARK INTER + INTRA:          -5.758
REMARK INTER:                  -4.784
REMARK INTRA:                  -0.974
REMARK UNBOUND:                -0.332
REMARK SMILES O=C([O-])CCCCCCCCC(=O)[O-]
REMARK SMILES IDX 7 1 6 2 5 3 4 4 2 5 1 6 3 7 8 8 9 9 10 10 11 11 12 12 13 13
REMARK SMILES IDX 14 14
REMARK H PARENT
REMARK Flexibility Score: inf
ROOT
ATOM      1  C   UNL     1     -23.355  -5.540 -15.495  1.00  0.00     0.000 C 
ENDROOT
BRANCH   1   2
ATOM      2  C   UNL     1     -23.855  -4.225 -14.869  1.00  0.00     0.000 C 
BRANCH   2   3
ATOM      3  C   UNL     1     -24.005  -4.318 -13.342  1.00  0.00     0.006 C 
BRANCH   3   4
ATOM      4  C   UNL     1     -22.688  -4.673 -12.642  1.00  0.00     0.053 C 
BRANCH   4   5
ATOM      5  C   UNL     1     -21.678  -3.588 -12.848  1.00  0.00     0.041 C 
ATOM      6  O   UNL     1     -21.912  -2.419 -12.444  1.00  0.00    -0.550 OA
ATOM      7  O   UNL     1     -20.499  -3.856 -13.533  1.00  0.00    -0.550 OA
ENDBRANCH   4   5
ENDBRANCH   3   4
ENDBRANCH   2   3
ENDBRANCH   1   2
BRANCH   1   8
ATOM      8  C   UNL     1     -22.133  -5.336 -16.406  1.00  0.00     0.000 C 
BRANCH   8   9
ATOM      9  C   UNL     1     -20.990  -6.315 -16.086  1.00  0.00     0.000 C 
BRANCH   9  10
ATOM     10  C   UNL     1     -21.313  -7.228 -14.892  1.00  0.00     0.006 C 
BRANCH  10  11
ATOM     11  C   UNL     1     -20.134  -7.375 -13.923  1.00  0.00     0.053 C 
BRANCH  11  12
ATOM     12  C   UNL     1     -20.394  -8.481 -12.948  1.00  0.00     0.041 C 
ATOM     13  O   UNL     1     -20.853  -8.221 -11.804  1.00  0.00    -0.550 OA
ATOM     14  O   UNL     1     -20.178  -9.801 -13.320  1.00  0.00    -0.550 OA
ENDBRANCH  11  12
ENDBRANCH  10  11
ENDBRANCH   9  10
ENDBRANCH   8   9
ENDBRANCH   1   8
TORSDOF 9
ENDMDL
