MODEL 1
REMARK VINA RESULT:    -5.619      0.000      0.000
REMARK INTER + INTRA:          -6.887
REMARK INTER:                  -6.604
REMARK INTRA:                  -0.282
REMARK UNBOUND:                -0.282
REMARK SMILES O=c1cc(-c2ccc(O)c(O)c2)oc2cc(O)cc(O)c12
REMARK SMILES IDX 4 1 3 2 2 3 1 4 21 5 19 6 18 7 16 8 15 9 14 10 13 11 5 12
REMARK SMILES IDX 6 13 7 14 8 15 12 16 10 17 9 18 11 20 20 22 17 24
REMARK H PARENT 9 19 11 21 20 23 17 25
REMARK Flexibility Score: inf
ROOT
ATOM      1  C   UNL     1      -2.307  -1.182  -9.490  1.00  0.00     0.138 A 
ATOM      2  C   UNL     1      -2.471  -2.562  -9.669  1.00  0.00     0.100 A 
ATOM      3  C   UNL     1      -1.352  -3.369  -9.881  1.00  0.00     0.197 A 
ATOM      4  O   UNL     1      -1.538  -4.595 -10.094  1.00  0.00    -0.289 OA
ATOM      5  C   UNL     1      -0.059  -2.794  -9.876  1.00  0.00     0.107 A 
ATOM      6  C   UNL     1       1.157  -3.523 -10.048  1.00  0.00     0.134 A 
ATOM      7  C   UNL     1       2.372  -2.831 -10.124  1.00  0.00     0.093 A 
ATOM      8  C   UNL     1       2.421  -1.442  -9.977  1.00  0.00     0.123 A 
ATOM      9  C   UNL     1       1.246  -0.727  -9.759  1.00  0.00     0.094 A 
ATOM     10  C   UNL     1       0.014  -1.385  -9.714  1.00  0.00     0.146 A 
ATOM     11  O   UNL     1      -1.084  -0.663  -9.522  1.00  0.00    -0.456 OA
ENDROOT
BRANCH   1  12
ATOM     12  C   UNL     1      -3.461  -0.276  -9.258  1.00  0.00     0.021 A 
ATOM     13  C   UNL     1      -3.479   1.040  -9.759  1.00  0.00     0.016 A 
ATOM     14  C   UNL     1      -4.575   1.873  -9.517  1.00  0.00     0.051 A 
ATOM     15  C   UNL     1      -5.664   1.413  -8.768  1.00  0.00     0.157 A 
ATOM     16  C   UNL     1      -4.552  -0.727  -8.495  1.00  0.00     0.062 A 
ATOM     17  C   UNL     1      -5.650   0.106  -8.253  1.00  0.00     0.158 A 
BRANCH  15  18
ATOM     18  O   UNL     1      -6.755   2.247  -8.529  1.00  0.00    -0.504 OA
ATOM     19  H   UNL     1      -6.766   3.209  -8.846  1.00  0.00     0.293 HD
ENDBRANCH  15  18
BRANCH  17  20
ATOM     20  O   UNL     1      -6.717  -0.383  -7.499  1.00  0.00    -0.504 OA
ATOM     21  H   UNL     1      -7.676  -0.118  -7.689  1.00  0.00     0.293 HD
ENDBRANCH  17  20
ENDBRANCH   1  12
BRANCH   6  22
ATOM     22  O   UNL     1       1.230  -4.917 -10.125  1.00  0.00    -0.507 OA
ATOM     23  H   UNL     1       1.790  -5.433 -10.786  1.00  0.00     0.293 HD
ENDBRANCH   6  22
BRANCH   8  24
ATOM     24  O   UNL     1       3.636  -0.764 -10.039  1.00  0.00    -0.508 OA
ATOM     25  H   UNL     1       4.451  -1.088  -9.530  1.00  0.00     0.293 HD
ENDBRANCH   8  24
TORSDOF 5
ENDMDL
MODEL 2
REMARK VINA RESULT:    -4.184     12.083     14.995
REMARK INTER + INTRA:          -5.200
REMARK INTER:                  -4.937
REMARK INTRA:                  -0.263
REMARK UNBOUND:                -0.282
REMARK SMILES O=c1cc(-c2ccc(O)c(O)c2)oc2cc(O)cc(O)c12
REMARK SMILES IDX 4 1 3 2 2 3 1 4 21 5 19 6 18 7 16 8 15 9 14 10 13 11 5 12
REMARK SMILES IDX 6 13 7 14 8 15 12 16 10 17 9 18 11 20 20 22 17 24
REMARK H PARENT 9 19 11 21 20 23 17 25
REMARK Flexibility Score: inf
ROOT
ATOM      1  C   UNL     1      -0.243   7.502   0.614  1.00  0.00     0.138 A 
ATOM      2  C   UNL     1      -0.625   8.388   1.629  1.00  0.00     0.100 A 
ATOM      3  C   UNL     1      -1.864   9.027   1.559  1.00  0.00     0.197 A 
ATOM      4  O   UNL     1      -2.154   9.859   2.457  1.00  0.00    -0.289 OA
ATOM      5  C   UNL     1      -2.740   8.746   0.483  1.00  0.00     0.107 A 
ATOM      6  C   UNL     1      -4.042   9.311   0.325  1.00  0.00     0.134 A 
ATOM      7  C   UNL     1      -4.778   9.033  -0.834  1.00  0.00     0.093 A 
ATOM      8  C   UNL     1      -4.284   8.166  -1.812  1.00  0.00     0.123 A 
ATOM      9  C   UNL     1      -3.036   7.572  -1.643  1.00  0.00     0.094 A 
ATOM     10  C   UNL     1      -2.262   7.855  -0.515  1.00  0.00     0.146 A 
ATOM     11  O   UNL     1      -1.070   7.280  -0.402  1.00  0.00    -0.456 OA
ENDROOT
BRANCH   1  12
ATOM     12  C   UNL     1       1.062   6.793   0.639  1.00  0.00     0.021 A 
ATOM     13  C   UNL     1       1.197   5.513   1.210  1.00  0.00     0.016 A 
ATOM     14  C   UNL     1       2.440   4.874   1.228  1.00  0.00     0.051 A 
ATOM     15  C   UNL     1       3.567   5.501   0.684  1.00  0.00     0.157 A 
ATOM     16  C   UNL     1       2.201   7.422   0.107  1.00  0.00     0.062 A 
ATOM     17  C   UNL     1       3.446   6.782   0.124  1.00  0.00     0.158 A 
BRANCH  15  18
ATOM     18  O   UNL     1       4.804   4.859   0.703  1.00  0.00    -0.504 OA
ATOM     19  H   UNL     1       4.881   3.859   0.850  1.00  0.00     0.293 HD
ENDBRANCH  15  18
BRANCH  17  20
ATOM     20  O   UNL     1       4.550   7.437  -0.424  1.00  0.00    -0.504 OA
ATOM     21  H   UNL     1       5.155   8.029   0.133  1.00  0.00     0.293 HD
ENDBRANCH  17  20
ENDBRANCH   1  12
BRANCH   6  22
ATOM     22  O   UNL     1      -4.664  10.125   1.276  1.00  0.00    -0.507 OA
ATOM     23  H   UNL     1      -4.406  11.077   1.482  1.00  0.00     0.293 HD
ENDBRANCH   6  22
BRANCH   8  24
ATOM     24  O   UNL     1      -5.030   7.885  -2.954  1.00  0.00    -0.508 OA
ATOM     25  H   UNL     1      -5.164   6.934  -3.279  1.00  0.00     0.293 HD
ENDBRANCH   8  24
TORSDOF 5
ENDMDL
MODEL 3
REMARK VINA RESULT:    -4.097      2.592      8.249
REMARK INTER + INTRA:          -5.098
REMARK INTER:                  -4.803
REMARK INTRA:                  -0.295
REMARK UNBOUND:                -0.282
REMARK SMILES O=c1cc(-c2ccc(O)c(O)c2)oc2cc(O)cc(O)c12
REMARK SMILES IDX 4 1 3 2 2 3 1 4 21 5 19 6 18 7 16 8 15 9 14 10 13 11 5 12
REMARK SMILES IDX 6 13 7 14 8 15 12 16 10 17 9 18 11 20 20 22 17 24
REMARK H PARENT 9 19 11 21 20 23 17 25
REMARK Flexibility Score: inf
ROOT
ATOM      1  C   UNL     1       2.024  -3.149  -9.879  1.00  0.00     0.138 A 
ATOM      2  C   UNL     1       2.581  -1.868  -9.986  1.00  0.00     0.100 A 
ATOM      3  C   UNL     1       1.747  -0.749  -9.971  1.00  0.00     0.197 A 
ATOM      4  O   UNL     1       2.273   0.384 -10.125  1.00  0.00    -0.289 OA
ATOM      5  C   UNL     1       0.350  -0.914  -9.810  1.00  0.00     0.107 A 
ATOM      6  C   UNL     1      -0.593   0.155  -9.745  1.00  0.00     0.134 A 
ATOM      7  C   UNL     1      -1.962  -0.136  -9.683  1.00  0.00     0.093 A 
ATOM      8  C   UNL     1      -2.417  -1.456  -9.626  1.00  0.00     0.123 A 
ATOM      9  C   UNL     1      -1.502  -2.504  -9.638  1.00  0.00     0.094 A 
ATOM     10  C   UNL     1      -0.131  -2.248  -9.734  1.00  0.00     0.146 A 
ATOM     11  O   UNL     1       0.707  -3.279  -9.760  1.00  0.00    -0.456 OA
ENDROOT
BRANCH   1  12
ATOM     12  C   UNL     1       2.863  -4.374  -9.887  1.00  0.00     0.021 A 
ATOM     13  C   UNL     1       2.299  -5.657  -9.754  1.00  0.00     0.016 A 
ATOM     14  C   UNL     1       3.114  -6.793  -9.755  1.00  0.00     0.051 A 
ATOM     15  C   UNL     1       4.503  -6.668  -9.881  1.00  0.00     0.157 A 
ATOM     16  C   UNL     1       4.260  -4.256  -9.999  1.00  0.00     0.062 A 
ATOM     17  C   UNL     1       5.077  -5.392 -10.001  1.00  0.00     0.158 A 
BRANCH  15  18
ATOM     18  O   UNL     1       5.312  -7.802  -9.882  1.00  0.00    -0.504 OA
ATOM     19  H   UNL     1       6.284  -7.761  -9.597  1.00  0.00     0.293 HD
ENDBRANCH  15  18
BRANCH  17  20
ATOM     20  O   UNL     1       6.458  -5.232 -10.125  1.00  0.00    -0.504 OA
ATOM     21  H   UNL     1       7.081  -6.020 -10.258  1.00  0.00     0.293 HD
ENDBRANCH  17  20
ENDBRANCH   1  12
BRANCH   6  22
ATOM     22  O   UNL     1      -0.244   1.509  -9.715  1.00  0.00    -0.507 OA
ATOM     23  H   UNL     1       0.162   1.985  -8.925  1.00  0.00     0.293 HD
ENDBRANCH   6  22
BRANCH   8  24
ATOM     24  O   UNL     1      -3.780  -1.735  -9.549  1.00  0.00    -0.508 OA
ATOM     25  H   UNL     1      -4.171  -2.259  -8.775  1.00  0.00     0.293 HD
ENDBRANCH   8  24
TORSDOF 5
ENDMDL
MODEL 4
REMARK VINA RESULT:    -4.043      1.481      2.032
REMARK INTER + INTRA:          -5.034
REMARK INTER:                  -4.741
REMARK INTRA:                  -0.293
REMARK UNBOUND:                -0.282
REMARK SMILES O=c1cc(-c2ccc(O)c(O)c2)oc2cc(O)cc(O)c12
REMARK SMILES IDX 4 1 3 2 2 3 1 4 21 5 19 6 18 7 16 8 15 9 14 10 13 11 5 12
REMARK SMILES IDX 6 13 7 14 8 15 12 16 10 17 9 18 11 20 20 22 17 24
REMARK H PARENT 9 19 11 21 20 23 17 25
REMARK Flexibility Score: inf
ROOT
ATOM      1  C   UNL     1      -0.549  -1.999  -9.698  1.00  0.00     0.138 A 
ATOM      2  C   UNL     1      -0.869  -3.358  -9.819  1.00  0.00     0.100 A 
ATOM      3  C   UNL     1       0.151  -4.298  -9.963  1.00  0.00     0.197 A 
ATOM      4  O   UNL     1      -0.173  -5.504 -10.124  1.00  0.00    -0.289 OA
ATOM      5  C   UNL     1       1.503  -3.878  -9.947  1.00  0.00     0.107 A 
ATOM      6  C   UNL     1       2.628  -4.751 -10.051  1.00  0.00     0.134 A 
ATOM      7  C   UNL     1       3.917  -4.209 -10.124  1.00  0.00     0.093 A 
ATOM      8  C   UNL     1       4.126  -2.830 -10.039  1.00  0.00     0.123 A 
ATOM      9  C   UNL     1       3.039  -1.974  -9.888  1.00  0.00     0.094 A 
ATOM     10  C   UNL     1       1.737  -2.481  -9.847  1.00  0.00     0.146 A 
ATOM     11  O   UNL     1       0.727  -1.627  -9.719  1.00  0.00    -0.456 OA
ENDROOT
BRANCH   1  12
ATOM     12  C   UNL     1      -1.593  -0.955  -9.541  1.00  0.00     0.021 A 
ATOM     13  C   UNL     1      -1.302   0.412  -9.705  1.00  0.00     0.016 A 
ATOM     14  C   UNL     1      -2.303   1.374  -9.541  1.00  0.00     0.051 A 
ATOM     15  C   UNL     1      -3.606   0.989  -9.204  1.00  0.00     0.157 A 
ATOM     16  C   UNL     1      -2.901  -1.333  -9.188  1.00  0.00     0.062 A 
ATOM     17  C   UNL     1      -3.905  -0.371  -9.025  1.00  0.00     0.158 A 
BRANCH  15  18
ATOM     18  O   UNL     1      -4.602   1.951  -9.042  1.00  0.00    -0.504 OA
ATOM     19  H   UNL     1      -5.482   1.893  -9.541  1.00  0.00     0.293 HD
ENDBRANCH  15  18
BRANCH  17  20
ATOM     20  O   UNL     1      -5.192  -0.788  -8.685  1.00  0.00    -0.504 OA
ATOM     21  H   UNL     1      -5.622  -1.603  -9.106  1.00  0.00     0.293 HD
ENDBRANCH  17  20
ENDBRANCH   1  12
BRANCH   6  22
ATOM     22  O   UNL     1       2.539  -6.147 -10.063  1.00  0.00    -0.507 OA
ATOM     23  H   UNL     1       2.185  -6.699 -10.829  1.00  0.00     0.293 HD
ENDBRANCH   6  22
BRANCH   8  24
ATOM     24  O   UNL     1       5.413  -2.302 -10.098  1.00  0.00    -0.508 OA
ATOM     25  H   UNL     1       6.112  -2.528  -9.399  1.00  0.00     0.293 HD
ENDBRANCH   8  24
TORSDOF 5
ENDMDL
MODEL 5
REMARK VINA RESULT:    -3.854      1.931      7.503
REMARK INTER + INTRA:          -4.813
REMARK INTER:                  -4.498
REMARK INTRA:                  -0.315
REMARK UNBOUND:                -0.282
REMARK SMILES O=c1cc(-c2ccc(O)c(O)c2)oc2cc(O)cc(O)c12
REMARK SMILES IDX 4 1 3 2 2 3 1 4 21 5 19 6 18 7 16 8 15 9 14 10 13 11 5 12
REMARK SMILES IDX 6 13 7 14 8 15 12 16 10 17 9 18 11 20 20 22 17 24
REMARK H PARENT 9 19 11 21 20 23 17 25
REMARK Flexibility Score: inf
ROOT
ATOM      1  C   UNL     1       0.855  -1.656  -9.707  1.00  0.00     0.138 A 
ATOM      2  C   UNL     1       1.156  -0.308  -9.936  1.00  0.00     0.100 A 
ATOM      3  C   UNL     1       0.143   0.649  -9.859  1.00  0.00     0.197 A 
ATOM      4  O   UNL     1       0.436   1.844 -10.124  1.00  0.00    -0.289 OA
ATOM      5  C   UNL     1      -1.172   0.256  -9.513  1.00  0.00     0.107 A 
ATOM      6  C   UNL     1      -2.278   1.148  -9.371  1.00  0.00     0.134 A 
ATOM      7  C   UNL     1      -3.555   0.629  -9.122  1.00  0.00     0.093 A 
ATOM      8  C   UNL     1      -3.756  -0.743  -8.954  1.00  0.00     0.123 A 
ATOM      9  C   UNL     1      -2.675  -1.617  -9.042  1.00  0.00     0.094 A 
ATOM     10  C   UNL     1      -1.395  -1.134  -9.323  1.00  0.00     0.146 A 
ATOM     11  O   UNL     1      -0.394  -2.004  -9.416  1.00  0.00    -0.456 OA
ENDROOT
BRANCH   1  12
ATOM     12  C   UNL     1       1.893  -2.717  -9.773  1.00  0.00     0.021 A 
ATOM     13  C   UNL     1       3.266  -2.408  -9.763  1.00  0.00     0.016 A 
ATOM     14  C   UNL     1       4.221  -3.426  -9.836  1.00  0.00     0.051 A 
ATOM     15  C   UNL     1       3.823  -4.765  -9.928  1.00  0.00     0.157 A 
ATOM     16  C   UNL     1       1.501  -4.063  -9.880  1.00  0.00     0.062 A 
ATOM     17  C   UNL     1       2.456  -5.083  -9.953  1.00  0.00     0.158 A 
BRANCH  15  18
ATOM     18  O   UNL     1       4.778  -5.778 -10.000  1.00  0.00    -0.504 OA
ATOM     19  H   UNL     1       5.363  -6.013  -9.206  1.00  0.00     0.293 HD
ENDBRANCH  15  18
BRANCH  17  20
ATOM     20  O   UNL     1       2.025  -6.407 -10.047  1.00  0.00    -0.504 OA
ATOM     21  H   UNL     1       2.072  -6.927 -10.915  1.00  0.00     0.293 HD
ENDBRANCH  17  20
ENDBRANCH   1  12
BRANCH   6  22
ATOM     22  O   UNL     1      -2.175   2.540  -9.440  1.00  0.00    -0.507 OA
ATOM     23  H   UNL     1      -2.915   3.163  -9.725  1.00  0.00     0.293 HD
ENDBRANCH   6  22
BRANCH   8  24
ATOM     24  O   UNL     1      -5.028  -1.248  -8.692  1.00  0.00    -0.508 OA
ATOM     25  H   UNL     1      -5.842  -0.645  -8.665  1.00  0.00     0.293 HD
ENDBRANCH   8  24
TORSDOF 5
ENDMDL
MODEL 6
REMARK VINA RESULT:    -3.540      3.131      8.641
REMARK INTER + INTRA:          -4.443
REMARK INTER:                  -4.125
REMARK INTRA:                  -0.318
REMARK UNBOUND:                -0.282
REMARK SMILES O=c1cc(-c2ccc(O)c(O)c2)oc2cc(O)cc(O)c12
REMARK SMILES IDX 4 1 3 2 2 3 1 4 21 5 19 6 18 7 16 8 15 9 14 10 13 11 5 12
REMARK SMILES IDX 6 13 7 14 8 15 12 16 10 17 9 18 11 20 20 22 17 24
REMARK H PARENT 9 19 11 21 20 23 17 25
REMARK Flexibility Score: inf
ROOT
ATOM      1  C   UNL     1       2.799  -4.337  -9.761  1.00  0.00     0.138 A 
ATOM      2  C   UNL     1       3.448  -3.113  -9.554  1.00  0.00     0.100 A 
ATOM      3  C   UNL     1       2.700  -1.937  -9.479  1.00  0.00     0.197 A 
ATOM      4  O   UNL     1       3.318  -0.849  -9.348  1.00  0.00    -0.289 OA
ATOM      5  C   UNL     1       1.289  -1.994  -9.575  1.00  0.00     0.107 A 
ATOM      6  C   UNL     1       0.420  -0.865  -9.478  1.00  0.00     0.134 A 
ATOM      7  C   UNL     1      -0.954  -1.033  -9.688  1.00  0.00     0.093 A 
ATOM      8  C   UNL     1      -1.498  -2.296  -9.933  1.00  0.00     0.123 A 
ATOM      9  C   UNL     1      -0.665  -3.411  -9.980  1.00  0.00     0.094 A 
ATOM     10  C   UNL     1       0.715  -3.272  -9.810  1.00  0.00     0.146 A 
ATOM     11  O   UNL     1       1.476  -4.359  -9.879  1.00  0.00    -0.456 OA
ENDROOT
BRANCH   1  12
ATOM     12  C   UNL     1       3.545  -5.618  -9.846  1.00  0.00     0.021 A 
ATOM     13  C   UNL     1       4.952  -5.655  -9.873  1.00  0.00     0.016 A 
ATOM     14  C   UNL     1       5.626  -6.875  -9.964  1.00  0.00     0.051 A 
ATOM     15  C   UNL     1       4.911  -8.077 -10.035  1.00  0.00     0.157 A 
ATOM     16  C   UNL     1       2.833  -6.828  -9.933  1.00  0.00     0.062 A 
ATOM     17  C   UNL     1       3.507  -8.051 -10.023  1.00  0.00     0.158 A 
BRANCH  15  18
ATOM     18  O   UNL     1       5.588  -9.292 -10.125  1.00  0.00    -0.504 OA
ATOM     19  H   UNL     1       5.228 -10.060 -10.680  1.00  0.00     0.293 HD
ENDBRANCH  15  18
BRANCH  17  20
ATOM     20  O   UNL     1       2.764  -9.229 -10.097  1.00  0.00    -0.504 OA
ATOM     21  H   UNL     1       2.611  -9.714 -10.973  1.00  0.00     0.293 HD
ENDBRANCH  17  20
ENDBRANCH   1  12
BRANCH   6  22
ATOM     22  O   UNL     1       0.847   0.427  -9.158  1.00  0.00    -0.507 OA
ATOM     23  H   UNL     1       0.367   1.060  -8.537  1.00  0.00     0.293 HD
ENDBRANCH   6  22
BRANCH   8  24
ATOM     24  O   UNL     1      -2.869  -2.455 -10.125  1.00  0.00    -0.508 OA
ATOM     25  H   UNL     1      -3.391  -3.178  -9.644  1.00  0.00     0.293 HD
ENDBRANCH   8  24
TORSDOF 5
ENDMDL
MODEL 7
REMARK VINA RESULT:    -3.531      4.209      6.841
REMARK INTER + INTRA:          -4.432
REMARK INTER:                  -4.137
REMARK INTRA:                  -0.295
REMARK UNBOUND:                -0.282
REMARK SMILES O=c1cc(-c2ccc(O)c(O)c2)oc2cc(O)cc(O)c12
REMARK SMILES IDX 4 1 3 2 2 3 1 4 21 5 19 6 18 7 16 8 15 9 14 10 13 11 5 12
REMARK SMILES IDX 6 13 7 14 8 15 12 16 10 17 9 18 11 20 20 22 17 24
REMARK H PARENT 9 19 11 21 20 23 17 25
REMARK Flexibility Score: inf
ROOT
ATOM      1  C   UNL     1       3.061  -5.086 -10.077  1.00  0.00     0.138 A 
ATOM      2  C   UNL     1       2.502  -6.370 -10.076  1.00  0.00     0.100 A 
ATOM      3  C   UNL     1       3.337  -7.488 -10.069  1.00  0.00     0.197 A 
ATOM      4  O   UNL     1       2.804  -8.626 -10.125  1.00  0.00    -0.289 OA
ATOM      5  C   UNL     1       4.742  -7.316 -10.024  1.00  0.00     0.107 A 
ATOM      6  C   UNL     1       5.691  -8.382  -9.978  1.00  0.00     0.134 A 
ATOM      7  C   UNL     1       7.059  -8.090 -10.037  1.00  0.00     0.093 A 
ATOM      8  C   UNL     1       7.514  -6.769 -10.081  1.00  0.00     0.123 A 
ATOM      9  C   UNL     1       6.597  -5.721 -10.075  1.00  0.00     0.094 A 
ATOM     10  C   UNL     1       5.224  -5.980 -10.053  1.00  0.00     0.146 A 
ATOM     11  O   UNL     1       4.383  -4.952 -10.067  1.00  0.00    -0.456 OA
ENDROOT
BRANCH   1  12
ATOM     12  C   UNL     1       2.221  -3.861 -10.082  1.00  0.00     0.021 A 
ATOM     13  C   UNL     1       2.790  -2.574 -10.047  1.00  0.00     0.016 A 
ATOM     14  C   UNL     1       1.974  -1.439 -10.043  1.00  0.00     0.051 A 
ATOM     15  C   UNL     1       0.580  -1.569 -10.067  1.00  0.00     0.157 A 
ATOM     16  C   UNL     1       0.820  -3.984 -10.091  1.00  0.00     0.062 A 
ATOM     17  C   UNL     1       0.002  -2.848 -10.088  1.00  0.00     0.158 A 
BRANCH  15  18
ATOM     18  O   UNL     1      -0.230  -0.435 -10.063  1.00  0.00    -0.504 OA
ATOM     19  H   UNL     1      -1.234  -0.500 -10.184  1.00  0.00     0.293 HD
ENDBRANCH  15  18
BRANCH  17  20
ATOM     20  O   UNL     1      -1.383  -3.013 -10.108  1.00  0.00    -0.504 OA
ATOM     21  H   UNL     1      -1.885  -3.243 -10.958  1.00  0.00     0.293 HD
ENDBRANCH  17  20
ENDBRANCH   1  12
BRANCH   6  22
ATOM     22  O   UNL     1       5.348  -9.732  -9.853  1.00  0.00    -0.507 OA
ATOM     23  H   UNL     1       5.997 -10.479  -9.657  1.00  0.00     0.293 HD
ENDBRANCH   6  22
BRANCH   8  24
ATOM     24  O   UNL     1       8.877  -6.488 -10.123  1.00  0.00    -0.508 OA
ATOM     25  H   UNL     1       9.221  -5.541 -10.232  1.00  0.00     0.293 HD
ENDBRANCH   8  24
TORSDOF 5
ENDMDL
MODEL 8
REMARK VINA RESULT:    -3.291     11.373     11.924
REMARK INTER + INTRA:          -4.150
REMARK INTER:                  -3.886
REMARK INTRA:                  -0.264
REMARK UNBOUND:                -0.282
REMARK SMILES O=c1cc(-c2ccc(O)c(O)c2)oc2cc(O)cc(O)c12
REMARK SMILES IDX 4 1 3 2 2 3 1 4 21 5 19 6 18 7 16 8 15 9 14 10 13 11 5 12
REMARK SMILES IDX 6 13 7 14 8 15 12 16 10 17 9 18 11 20 20 22 17 24
REMARK H PARENT 9 19 11 21 20 23 17 25
REMARK Flexibility Score: inf
ROOT
ATOM      1  C   UNL     1       0.380   3.435   1.084  1.00  0.00     0.138 A 
ATOM      2  C   UNL     1      -0.157   2.821   2.222  1.00  0.00     0.100 A 
ATOM      3  C   UNL     1      -0.283   1.432   2.265  1.00  0.00     0.197 A 
ATOM      4  O   UNL     1      -0.821   0.917   3.279  1.00  0.00    -0.289 OA
ATOM      5  C   UNL     1       0.168   0.651   1.174  1.00  0.00     0.107 A 
ATOM      6  C   UNL     1       0.122  -0.775   1.120  1.00  0.00     0.134 A 
ATOM      7  C   UNL     1       0.506  -1.433  -0.056  1.00  0.00     0.093 A 
ATOM      8  C   UNL     1       0.988  -0.721  -1.157  1.00  0.00     0.123 A 
ATOM      9  C   UNL     1       1.084   0.667  -1.095  1.00  0.00     0.094 A 
ATOM     10  C   UNL     1       0.675   1.356   0.049  1.00  0.00     0.146 A 
ATOM     11  O   UNL     1       0.766   2.681   0.060  1.00  0.00    -0.456 OA
ENDROOT
BRANCH   1  12
ATOM     12  C   UNL     1       0.539   4.908   0.985  1.00  0.00     0.021 A 
ATOM     13  C   UNL     1       1.807   5.519   1.031  1.00  0.00     0.016 A 
ATOM     14  C   UNL     1       1.926   6.909   0.945  1.00  0.00     0.051 A 
ATOM     15  C   UNL     1       0.786   7.711   0.819  1.00  0.00     0.157 A 
ATOM     16  C   UNL     1      -0.602   5.721   0.872  1.00  0.00     0.062 A 
ATOM     17  C   UNL     1      -0.484   7.113   0.785  1.00  0.00     0.158 A 
BRANCH  15  18
ATOM     18  O   UNL     1       0.909   9.097   0.733  1.00  0.00    -0.504 OA
ATOM     19  H   UNL     1       0.513   9.710   1.437  1.00  0.00     0.293 HD
ENDBRANCH  15  18
BRANCH  17  20
ATOM     20  O   UNL     1      -1.641   7.883   0.664  1.00  0.00    -0.504 OA
ATOM     21  H   UNL     1      -2.064   8.080  -0.236  1.00  0.00     0.293 HD
ENDBRANCH  17  20
ENDBRANCH   1  12
BRANCH   6  22
ATOM     22  O   UNL     1      -0.266  -1.588   2.189  1.00  0.00    -0.507 OA
ATOM     23  H   UNL     1      -0.702  -2.493   2.100  1.00  0.00     0.293 HD
ENDBRANCH   6  22
BRANCH   8  24
ATOM     24  O   UNL     1       1.382  -1.386  -2.316  1.00  0.00    -0.508 OA
ATOM     25  H   UNL     1       2.037  -0.971  -2.969  1.00  0.00     0.293 HD
ENDBRANCH   8  24
TORSDOF 5
ENDMDL
MODEL 9
REMARK VINA RESULT:    -3.064     11.737     13.809
REMARK INTER + INTRA:          -3.884
REMARK INTER:                  -3.620
REMARK INTRA:                  -0.264
REMARK UNBOUND:                -0.282
REMARK SMILES O=c1cc(-c2ccc(O)c(O)c2)oc2cc(O)cc(O)c12
REMARK SMILES IDX 4 1 3 2 2 3 1 4 21 5 19 6 18 7 16 8 15 9 14 10 13 11 5 12
REMARK SMILES IDX 6 13 7 14 8 15 12 16 10 17 9 18 11 20 20 22 17 24
REMARK H PARENT 9 19 11 21 20 23 17 25
REMARK Flexibility Score: inf
ROOT
ATOM      1  C   UNL     1      -0.095   4.777   0.953  1.00  0.00     0.138 A 
ATOM      2  C   UNL     1       1.004   5.625   1.138  1.00  0.00     0.100 A 
ATOM      3  C   UNL     1       0.856   6.999   0.944  1.00  0.00     0.197 A 
ATOM      4  O   UNL     1       1.876   7.727   1.064  1.00  0.00    -0.289 OA
ATOM      5  C   UNL     1      -0.410   7.529   0.599  1.00  0.00     0.107 A 
ATOM      6  C   UNL     1      -0.687   8.917   0.410  1.00  0.00     0.134 A 
ATOM      7  C   UNL     1      -1.958   9.313  -0.028  1.00  0.00     0.093 A 
ATOM      8  C   UNL     1      -2.976   8.377  -0.227  1.00  0.00     0.123 A 
ATOM      9  C   UNL     1      -2.730   7.027   0.003  1.00  0.00     0.094 A 
ATOM     10  C   UNL     1      -1.463   6.596   0.406  1.00  0.00     0.146 A 
ATOM     11  O   UNL     1      -1.266   5.296   0.598  1.00  0.00    -0.456 OA
ENDROOT
BRANCH   1  12
ATOM     12  C   UNL     1       0.003   3.308   1.148  1.00  0.00     0.021 A 
ATOM     13  C   UNL     1      -0.732   2.644   2.148  1.00  0.00     0.016 A 
ATOM     14  C   UNL     1      -0.612   1.262   2.315  1.00  0.00     0.051 A 
ATOM     15  C   UNL     1       0.246   0.520   1.494  1.00  0.00     0.157 A 
ATOM     16  C   UNL     1       0.874   2.559   0.336  1.00  0.00     0.062 A 
ATOM     17  C   UNL     1       0.994   1.174   0.502  1.00  0.00     0.158 A 
BRANCH  15  18
ATOM     18  O   UNL     1       0.362  -0.858   1.663  1.00  0.00    -0.504 OA
ATOM     19  H   UNL     1      -0.333  -1.391   2.173  1.00  0.00     0.293 HD
ENDBRANCH  15  18
BRANCH  17  20
ATOM     20  O   UNL     1       1.861   0.467  -0.331  1.00  0.00    -0.504 OA
ATOM     21  H   UNL     1       2.851   0.384  -0.131  1.00  0.00     0.293 HD
ENDBRANCH  17  20
ENDBRANCH   1  12
BRANCH   6  22
ATOM     22  O   UNL     1       0.232   9.941   0.656  1.00  0.00    -0.507 OA
ATOM     23  H   UNL     1       0.369  10.396   1.546  1.00  0.00     0.293 HD
ENDBRANCH   6  22
BRANCH   8  24
ATOM     24  O   UNL     1      -4.241   8.783  -0.648  1.00  0.00    -0.508 OA
ATOM     25  H   UNL     1      -4.529   9.753  -0.601  1.00  0.00     0.293 HD
ENDBRANCH   8  24
TORSDOF 5
ENDMDL
