MODEL 1
REMARK VINA RESULT:    -3.234      0.000      0.000
REMARK INTER + INTRA:          -8.757
REMARK INTER:                  -6.259
REMARK INTRA:                  -2.498
REMARK UNBOUND:                -2.498
REMARK SMILES CCCCCCCCCCCCCCCCCC(=O)[O-]
REMARK SMILES IDX 10 1 11 2 12 3 13 4 14 5 15 6 16 7 17 8 18 9 19 10 20 11
REMARK SMILES IDX 9 12 8 13 7 14 6 15 5 16 4 17 3 18 2 19 1 20
REMARK H PARENT
REMARK Flexibility Score: inf
ROOT
ATOM      1  C   UNL     1       8.374   7.839  30.730  1.00  0.00     0.000 C 
ENDROOT
BRANCH   1   2
ATOM      2  C   UNL     1       8.010   6.344  30.744  1.00  0.00     0.000 C 
BRANCH   2   3
ATOM      3  C   UNL     1       8.723   5.563  29.620  1.00  0.00     0.000 C 
BRANCH   3   4
ATOM      4  C   UNL     1       9.386   4.261  30.098  1.00  0.00     0.000 C 
BRANCH   4   5
ATOM      5  C   UNL     1      10.887   4.428  30.389  1.00  0.00     0.000 C 
BRANCH   5   6
ATOM      6  C   UNL     1      11.517   5.579  29.588  1.00  0.00     0.000 C 
BRANCH   6   7
ATOM      7  C   UNL     1      12.938   5.249  29.095  1.00  0.00     0.006 C 
BRANCH   7   8
ATOM      8  C   UNL     1      13.091   5.474  27.584  1.00  0.00     0.053 C 
BRANCH   8   9
ATOM      9  C   UNL     1      14.169   6.467  27.277  1.00  0.00     0.041 C 
ATOM     10  O   UNL     1      15.190   6.541  28.010  1.00  0.00    -0.550 OA
ATOM     11  O   UNL     1      14.064   7.286  26.159  1.00  0.00    -0.550 OA
ENDBRANCH   8   9
ENDBRANCH   7   8
ENDBRANCH   6   7
ENDBRANCH   5   6
ENDBRANCH   4   5
ENDBRANCH   3   4
ENDBRANCH   2   3
ENDBRANCH   1   2
BRANCH   1  12
ATOM     12  C   UNL     1       9.055   8.298  32.031  1.00  0.00     0.000 C 
BRANCH  12  13
ATOM     13  C   UNL     1      10.596   8.263  32.003  1.00  0.00    -0.000 C 
BRANCH  13  14
ATOM     14  C   UNL     1      11.265   7.796  33.313  1.00  0.00    -0.000 C 
BRANCH  14  15
ATOM     15  C   UNL     1      11.882   6.386  33.268  1.00  0.00    -0.000 C 
BRANCH  15  16
ATOM     16  C   UNL     1      11.197   5.404  34.233  1.00  0.00    -0.000 C 
BRANCH  16  17
ATOM     17  C   UNL     1       9.778   5.015  33.781  1.00  0.00    -0.000 C 
BRANCH  17  18
ATOM     18  C   UNL     1       9.275   3.647  34.289  1.00  0.00    -0.000 C 
BRANCH  18  19
ATOM     19  C   UNL     1       9.518   2.469  33.329  1.00  0.00    -0.003 C 
ATOM     20  C   UNL     1       8.225   1.905  32.740  1.00  0.00     0.004 C 
ENDBRANCH  18  19
ENDBRANCH  17  18
ENDBRANCH  16  17
ENDBRANCH  15  16
ENDBRANCH  14  15
ENDBRANCH  13  14
ENDBRANCH  12  13
ENDBRANCH   1  12
TORSDOF 16
ENDMDL
MODEL 2
REMARK VINA RESULT:    -3.185      1.675      3.797
REMARK INTER + INTRA:          -8.663
REMARK INTER:                  -5.978
REMARK INTRA:                  -2.685
REMARK UNBOUND:                -2.498
REMARK SMILES CCCCCCCCCCCCCCCCCC(=O)[O-]
REMARK SMILES IDX 10 1 11 2 12 3 13 4 14 5 15 6 16 7 17 8 18 9 19 10 20 11
REMARK SMILES IDX 9 12 8 13 7 14 6 15 5 16 4 17 3 18 2 19 1 20
REMARK H PARENT
REMARK Flexibility Score: inf
ROOT
ATOM      1  C   UNL     1      11.636   6.901  33.003  1.00  0.00     0.000 C 
ENDROOT
BRANCH   1   2
ATOM      2  C   UNL     1      10.620   7.890  33.600  1.00  0.00     0.000 C 
BRANCH   2   3
ATOM      3  C   UNL     1       9.616   8.400  32.545  1.00  0.00     0.000 C 
BRANCH   3   4
ATOM      4  C   UNL     1       9.581   7.549  31.265  1.00  0.00     0.000 C 
BRANCH   4   5
ATOM      5  C   UNL     1       8.360   6.616  31.202  1.00  0.00     0.000 C 
BRANCH   5   6
ATOM      6  C   UNL     1       8.655   5.309  30.447  1.00  0.00     0.000 C 
BRANCH   6   7
ATOM      7  C   UNL     1       9.958   5.379  29.630  1.00  0.00     0.006 C 
BRANCH   7   8
ATOM      8  C   UNL     1      11.045   4.457  30.198  1.00  0.00     0.053 C 
BRANCH   8   9
ATOM      9  C   UNL     1      12.419   4.998  29.950  1.00  0.00     0.041 C 
ATOM     10  O   UNL     1      13.379   4.649  30.684  1.00  0.00    -0.550 OA
ATOM     11  O   UNL     1      12.645   5.862  28.885  1.00  0.00    -0.550 OA
ENDBRANCH   8   9
ENDBRANCH   7   8
ENDBRANCH   6   7
ENDBRANCH   5   6
ENDBRANCH   4   5
ENDBRANCH   3   4
ENDBRANCH   2   3
ENDBRANCH   1   2
BRANCH   1  12
ATOM     12  C   UNL     1      11.651   5.548  33.735  1.00  0.00     0.000 C 
BRANCH  12  13
ATOM     13  C   UNL     1      10.413   5.271  34.610  1.00  0.00    -0.000 C 
BRANCH  13  14
ATOM     14  C   UNL     1       9.354   4.345  33.975  1.00  0.00    -0.000 C 
BRANCH  14  15
ATOM     15  C   UNL     1       9.011   3.084  34.789  1.00  0.00    -0.000 C 
BRANCH  15  16
ATOM     16  C   UNL     1       8.787   1.846  33.905  1.00  0.00    -0.000 C 
BRANCH  16  17
ATOM     17  C   UNL     1       8.395   2.207  32.461  1.00  0.00    -0.000 C 
BRANCH  17  18
ATOM     18  C   UNL     1       8.527   1.061  31.435  1.00  0.00    -0.000 C 
BRANCH  18  19
ATOM     19  C   UNL     1       8.746   1.513  29.980  1.00  0.00    -0.003 C 
ATOM     20  C   UNL     1       9.875   0.753  29.285  1.00  0.00     0.004 C 
ENDBRANCH  18  19
ENDBRANCH  17  18
ENDBRANCH  16  17
ENDBRANCH  15  16
ENDBRANCH  14  15
ENDBRANCH  13  14
ENDBRANCH  12  13
ENDBRANCH   1  12
TORSDOF 16
ENDMDL
MODEL 3
REMARK VINA RESULT:    -3.185     10.252     12.282
REMARK INTER + INTRA:          -8.662
REMARK INTER:                  -6.570
REMARK INTRA:                  -2.092
REMARK UNBOUND:                -2.498
REMARK SMILES CCCCCCCCCCCCCCCCCC(=O)[O-]
REMARK SMILES IDX 10 1 11 2 12 3 13 4 14 5 15 6 16 7 17 8 18 9 19 10 20 11
REMARK SMILES IDX 9 12 8 13 7 14 6 15 5 16 4 17 3 18 2 19 1 20
REMARK H PARENT
REMARK Flexibility Score: inf
ROOT
ATOM      1  C   UNL     1      21.091   6.949  38.361  1.00  0.00     0.000 C 
ENDROOT
BRANCH   1   2
ATOM      2  C   UNL     1      21.816   8.070  39.125  1.00  0.00     0.000 C 
BRANCH   2   3
ATOM      3  C   UNL     1      22.819   8.828  38.230  1.00  0.00     0.000 C 
BRANCH   3   4
ATOM      4  C   UNL     1      22.251  10.125  37.627  1.00  0.00     0.000 C 
BRANCH   4   5
ATOM      5  C   UNL     1      21.413   9.877  36.362  1.00  0.00     0.000 C 
BRANCH   5   6
ATOM      6  C   UNL     1      22.135   8.977  35.345  1.00  0.00     0.000 C 
BRANCH   6   7
ATOM      7  C   UNL     1      21.185   7.973  34.665  1.00  0.00     0.006 C 
BRANCH   7   8
ATOM      8  C   UNL     1      21.712   7.516  33.298  1.00  0.00     0.053 C 
BRANCH   8   9
ATOM      9  C   UNL     1      21.783   6.024  33.200  1.00  0.00     0.041 C 
ATOM     10  O   UNL     1      22.888   5.455  32.997  1.00  0.00    -0.550 OA
ATOM     11  O   UNL     1      20.636   5.259  33.369  1.00  0.00    -0.550 OA
ENDBRANCH   8   9
ENDBRANCH   7   8
ENDBRANCH   6   7
ENDBRANCH   5   6
ENDBRANCH   4   5
ENDBRANCH   3   4
ENDBRANCH   2   3
ENDBRANCH   1   2
BRANCH   1  12
ATOM     12  C   UNL     1      19.567   7.155  38.306  1.00  0.00     0.000 C 
BRANCH  12  13
ATOM     13  C   UNL     1      19.043   8.344  39.136  1.00  0.00    -0.000 C 
BRANCH  13  14
ATOM     14  C   UNL     1      18.372   9.469  38.320  1.00  0.00    -0.000 C 
BRANCH  14  15
ATOM     15  C   UNL     1      16.841   9.367  38.198  1.00  0.00    -0.000 C 
BRANCH  15  16
ATOM     16  C   UNL     1      16.104  10.074  39.348  1.00  0.00    -0.000 C 
BRANCH  16  17
ATOM     17  C   UNL     1      15.497   9.089  40.364  1.00  0.00    -0.000 C 
BRANCH  17  18
ATOM     18  C   UNL     1      16.329   8.866  41.644  1.00  0.00    -0.000 C 
BRANCH  18  19
ATOM     19  C   UNL     1      17.163  10.078  42.096  1.00  0.00    -0.003 C 
ATOM     20  C   UNL     1      18.546   9.687  42.617  1.00  0.00     0.004 C 
ENDBRANCH  18  19
ENDBRANCH  17  18
ENDBRANCH  16  17
ENDBRANCH  15  16
ENDBRANCH  14  15
ENDBRANCH  13  14
ENDBRANCH  12  13
ENDBRANCH   1  12
TORSDOF 16
ENDMDL
MODEL 4
REMARK VINA RESULT:    -3.173      3.934      6.730
REMARK INTER + INTRA:          -8.640
REMARK INTER:                  -5.972
REMARK INTRA:                  -2.668
REMARK UNBOUND:                -2.498
REMARK SMILES CCCCCCCCCCCCCCCCCC(=O)[O-]
REMARK SMILES IDX 10 1 11 2 12 3 13 4 14 5 15 6 16 7 17 8 18 9 19 10 20 11
REMARK SMILES IDX 9 12 8 13 7 14 6 15 5 16 4 17 3 18 2 19 1 20
REMARK H PARENT
REMARK Flexibility Score: inf
ROOT
ATOM      1  C   UNL     1       8.776   7.260  30.696  1.00  0.00     0.000 C 
ENDROOT
BRANCH   1   2
ATOM      2  C   UNL     1       9.218   8.164  31.860  1.00  0.00     0.000 C 
BRANCH   2   3
ATOM      3  C   UNL     1      10.753   8.316  31.926  1.00  0.00     0.000 C 
BRANCH   3   4
ATOM      4  C   UNL     1      11.354   7.926  33.287  1.00  0.00     0.000 C 
BRANCH   4   5
ATOM      5  C   UNL     1      10.620   6.747  33.947  1.00  0.00     0.000 C 
BRANCH   5   6
ATOM      6  C   UNL     1      11.568   5.589  34.304  1.00  0.00     0.000 C 
BRANCH   6   7
ATOM      7  C   UNL     1      10.840   4.416  34.985  1.00  0.00     0.006 C 
BRANCH   7   8
ATOM      8  C   UNL     1       9.432   4.806  35.456  1.00  0.00     0.053 C 
BRANCH   8   9
ATOM      9  C   UNL     1       9.394   5.080  36.927  1.00  0.00     0.041 C 
ATOM     10  O   UNL     1       8.391   5.640  37.442  1.00  0.00    -0.550 OA
ATOM     11  O   UNL     1      10.452   4.684  37.737  1.00  0.00    -0.550 OA
ENDBRANCH   8   9
ENDBRANCH   7   8
ENDBRANCH   6   7
ENDBRANCH   5   6
ENDBRANCH   4   5
ENDBRANCH   3   4
ENDBRANCH   2   3
ENDBRANCH   1   2
BRANCH   1  12
ATOM     12  C   UNL     1       7.940   6.055  31.162  1.00  0.00     0.000 C 
BRANCH  12  13
ATOM     13  C   UNL     1       8.762   4.812  31.559  1.00  0.00    -0.000 C 
BRANCH  13  14
ATOM     14  C   UNL     1       9.803   4.353  30.517  1.00  0.00    -0.000 C 
BRANCH  14  15
ATOM     15  C   UNL     1      11.217   4.097  31.071  1.00  0.00    -0.000 C 
BRANCH  15  16
ATOM     16  C   UNL     1      12.218   5.197  30.680  1.00  0.00    -0.000 C 
BRANCH  16  17
ATOM     17  C   UNL     1      11.897   5.842  29.320  1.00  0.00    -0.000 C 
BRANCH  17  18
ATOM     18  C   UNL     1      12.919   5.562  28.199  1.00  0.00    -0.000 C 
BRANCH  18  19
ATOM     19  C   UNL     1      14.343   5.233  28.684  1.00  0.00    -0.003 C 
ATOM     20  C   UNL     1      15.395   6.195  28.135  1.00  0.00     0.004 C 
ENDBRANCH  18  19
ENDBRANCH  17  18
ENDBRANCH  16  17
ENDBRANCH  15  16
ENDBRANCH  14  15
ENDBRANCH  13  14
ENDBRANCH  12  13
ENDBRANCH   1  12
TORSDOF 16
ENDMDL
MODEL 5
REMARK VINA RESULT:    -3.149      1.684      3.606
REMARK INTER + INTRA:          -8.593
REMARK INTER:                  -6.053
REMARK INTRA:                  -2.540
REMARK UNBOUND:                -2.498
REMARK SMILES CCCCCCCCCCCCCCCCCC(=O)[O-]
REMARK SMILES IDX 10 1 11 2 12 3 13 4 14 5 15 6 16 7 17 8 18 9 19 10 20 11
REMARK SMILES IDX 9 12 8 13 7 14 6 15 5 16 4 17 3 18 2 19 1 20
REMARK H PARENT
REMARK Flexibility Score: inf
ROOT
ATOM      1  C   UNL     1      13.047   5.254  33.084  1.00  0.00     0.000 C 
ENDROOT
BRANCH   1   2
ATOM      2  C   UNL     1      12.603   4.355  31.918  1.00  0.00     0.000 C 
BRANCH   2   3
ATOM      3  C   UNL     1      12.898   4.996  30.546  1.00  0.00     0.000 C 
BRANCH   3   4
ATOM      4  C   UNL     1      12.234   4.264  29.367  1.00  0.00     0.000 C 
BRANCH   4   5
ATOM      5  C   UNL     1      12.636   4.844  28.002  1.00  0.00     0.000 C 
BRANCH   5   6
ATOM      6  C   UNL     1      13.700   5.949  28.122  1.00  0.00     0.000 C 
BRANCH   6   7
ATOM      7  C   UNL     1      14.045   6.589  26.764  1.00  0.00     0.006 C 
BRANCH   7   8
ATOM      8  C   UNL     1      13.632   5.699  25.585  1.00  0.00     0.053 C 
BRANCH   8   9
ATOM      9  C   UNL     1      13.752   6.418  24.277  1.00  0.00     0.041 C 
ATOM     10  O   UNL     1      13.638   5.787  23.194  1.00  0.00    -0.550 OA
ATOM     11  O   UNL     1      13.955   7.793  24.254  1.00  0.00    -0.550 OA
ENDBRANCH   8   9
ENDBRANCH   7   8
ENDBRANCH   6   7
ENDBRANCH   5   6
ENDBRANCH   4   5
ENDBRANCH   3   4
ENDBRANCH   2   3
ENDBRANCH   1   2
BRANCH   1  12
ATOM     12  C   UNL     1      11.867   5.958  33.777  1.00  0.00     0.000 C 
BRANCH  12  13
ATOM     13  C   UNL     1      11.639   7.420  33.344  1.00  0.00    -0.000 C 
BRANCH  13  14
ATOM     14  C   UNL     1      10.172   7.896  33.387  1.00  0.00    -0.000 C 
BRANCH  14  15
ATOM     15  C   UNL     1       9.561   8.265  32.023  1.00  0.00    -0.000 C 
BRANCH  15  16
ATOM     16  C   UNL     1      10.409   7.773  30.838  1.00  0.00    -0.000 C 
BRANCH  16  17
ATOM     17  C   UNL     1       9.631   6.841  29.892  1.00  0.00    -0.000 C 
BRANCH  17  18
ATOM     18  C   UNL     1       8.535   5.985  30.563  1.00  0.00    -0.000 C 
BRANCH  18  19
ATOM     19  C   UNL     1       9.022   4.644  31.141  1.00  0.00    -0.003 C 
ATOM     20  C   UNL     1       8.657   4.464  32.614  1.00  0.00     0.004 C 
ENDBRANCH  18  19
ENDBRANCH  17  18
ENDBRANCH  16  17
ENDBRANCH  15  16
ENDBRANCH  14  15
ENDBRANCH  13  14
ENDBRANCH  12  13
ENDBRANCH   1  12
TORSDOF 16
ENDMDL
MODEL 6
REMARK VINA RESULT:    -3.081      1.500      3.111
REMARK INTER + INTRA:          -8.461
REMARK INTER:                  -5.925
REMARK INTRA:                  -2.536
REMARK UNBOUND:                -2.498
REMARK SMILES CCCCCCCCCCCCCCCCCC(=O)[O-]
REMARK SMILES IDX 10 1 11 2 12 3 13 4 14 5 15 6 16 7 17 8 18 9 19 10 20 11
REMARK SMILES IDX 9 12 8 13 7 14 6 15 5 16 4 17 3 18 2 19 1 20
REMARK H PARENT
REMARK Flexibility Score: inf
ROOT
ATOM      1  C   UNL     1      11.231   7.559  33.146  1.00  0.00     0.000 C 
ENDROOT
BRANCH   1   2
ATOM      2  C   UNL     1      10.831   6.448  34.132  1.00  0.00     0.000 C 
BRANCH   2   3
ATOM      3  C   UNL     1      11.671   5.168  33.937  1.00  0.00     0.000 C 
BRANCH   3   4
ATOM      4  C   UNL     1      12.767   5.307  32.866  1.00  0.00     0.000 C 
BRANCH   4   5
ATOM      5  C   UNL     1      12.513   4.421  31.636  1.00  0.00     0.000 C 
BRANCH   5   6
ATOM      6  C   UNL     1      12.343   5.240  30.345  1.00  0.00     0.000 C 
BRANCH   6   7
ATOM      7  C   UNL     1      13.448   4.955  29.312  1.00  0.00     0.006 C 
BRANCH   7   8
ATOM      8  C   UNL     1      13.105   5.523  27.928  1.00  0.00     0.053 C 
BRANCH   8   9
ATOM      9  C   UNL     1      14.212   6.374  27.387  1.00  0.00     0.041 C 
ATOM     10  O   UNL     1      14.073   6.969  26.286  1.00  0.00    -0.550 OA
ATOM     11  O   UNL     1      15.384   6.538  28.115  1.00  0.00    -0.550 OA
ENDBRANCH   8   9
ENDBRANCH   7   8
ENDBRANCH   6   7
ENDBRANCH   5   6
ENDBRANCH   4   5
ENDBRANCH   3   4
ENDBRANCH   2   3
ENDBRANCH   1   2
BRANCH   1  12
ATOM     12  C   UNL     1      10.017   8.250  32.502  1.00  0.00     0.000 C 
BRANCH  12  13
ATOM     13  C   UNL     1       9.753   7.858  31.034  1.00  0.00    -0.000 C 
BRANCH  13  14
ATOM     14  C   UNL     1       8.473   7.029  30.797  1.00  0.00    -0.000 C 
BRANCH  14  15
ATOM     15  C   UNL     1       8.688   5.509  30.684  1.00  0.00    -0.000 C 
BRANCH  15  16
ATOM     16  C   UNL     1       8.475   4.776  32.019  1.00  0.00    -0.000 C 
BRANCH  16  17
ATOM     17  C   UNL     1       9.032   3.340  32.007  1.00  0.00    -0.000 C 
BRANCH  17  18
ATOM     18  C   UNL     1       9.037   2.645  30.630  1.00  0.00    -0.000 C 
BRANCH  18  19
ATOM     19  C   UNL     1      10.237   1.715  30.376  1.00  0.00    -0.003 C 
ATOM     20  C   UNL     1      10.003   0.745  29.218  1.00  0.00     0.004 C 
ENDBRANCH  18  19
ENDBRANCH  17  18
ENDBRANCH  16  17
ENDBRANCH  15  16
ENDBRANCH  14  15
ENDBRANCH  13  14
ENDBRANCH  12  13
ENDBRANCH   1  12
TORSDOF 16
ENDMDL
MODEL 7
REMARK VINA RESULT:    -3.080      4.434      6.120
REMARK INTER + INTRA:          -8.459
REMARK INTER:                  -5.565
REMARK INTRA:                  -2.895
REMARK UNBOUND:                -2.498
REMARK SMILES CCCCCCCCCCCCCCCCCC(=O)[O-]
REMARK SMILES IDX 10 1 11 2 12 3 13 4 14 5 15 6 16 7 17 8 18 9 19 10 20 11
REMARK SMILES IDX 9 12 8 13 7 14 6 15 5 16 4 17 3 18 2 19 1 20
REMARK H PARENT
REMARK Flexibility Score: inf
ROOT
ATOM      1  C   UNL     1       7.956   6.397  30.727  1.00  0.00     0.000 C 
ENDROOT
BRANCH   1   2
ATOM      2  C   UNL     1       9.129   5.410  30.600  1.00  0.00     0.000 C 
BRANCH   2   3
ATOM      3  C   UNL     1       9.139   4.370  31.740  1.00  0.00     0.000 C 
BRANCH   3   4
ATOM      4  C   UNL     1       8.050   4.605  32.801  1.00  0.00     0.000 C 
BRANCH   4   5
ATOM      5  C   UNL     1       8.266   3.770  34.073  1.00  0.00     0.000 C 
BRANCH   5   6
ATOM      6  C   UNL     1       9.754   3.516  34.366  1.00  0.00     0.000 C 
BRANCH   6   7
ATOM      7  C   UNL     1      10.183   4.041  35.748  1.00  0.00     0.006 C 
BRANCH   7   8
ATOM      8  C   UNL     1       9.060   3.919  36.786  1.00  0.00     0.053 C 
BRANCH   8   9
ATOM      9  C   UNL     1       8.907   5.173  37.590  1.00  0.00     0.041 C 
ATOM     10  O   UNL     1       8.015   6.011  37.294  1.00  0.00    -0.550 OA
ATOM     11  O   UNL     1       9.727   5.401  38.689  1.00  0.00    -0.550 OA
ENDBRANCH   8   9
ENDBRANCH   7   8
ENDBRANCH   6   7
ENDBRANCH   5   6
ENDBRANCH   4   5
ENDBRANCH   3   4
ENDBRANCH   2   3
ENDBRANCH   1   2
BRANCH   1  12
ATOM     12  C   UNL     1       8.415   7.832  31.037  1.00  0.00     0.000 C 
BRANCH  12  13
ATOM     13  C   UNL     1       9.892   7.962  31.460  1.00  0.00    -0.000 C 
BRANCH  13  14
ATOM     14  C   UNL     1      10.121   8.289  32.951  1.00  0.00    -0.000 C 
BRANCH  14  15
ATOM     15  C   UNL     1      10.758   7.158  33.780  1.00  0.00    -0.000 C 
BRANCH  15  16
ATOM     16  C   UNL     1      11.847   6.395  33.008  1.00  0.00    -0.000 C 
BRANCH  16  17
ATOM     17  C   UNL     1      12.833   5.661  33.935  1.00  0.00    -0.000 C 
BRANCH  17  18
ATOM     18  C   UNL     1      13.225   4.237  33.488  1.00  0.00    -0.000 C 
BRANCH  18  19
ATOM     19  C   UNL     1      12.900   3.904  32.021  1.00  0.00    -0.003 C 
ATOM     20  C   UNL     1      12.306   2.507  31.846  1.00  0.00     0.004 C 
ENDBRANCH  18  19
ENDBRANCH  17  18
ENDBRANCH  16  17
ENDBRANCH  15  16
ENDBRANCH  14  15
ENDBRANCH  13  14
ENDBRANCH  12  13
ENDBRANCH   1  12
TORSDOF 16
ENDMDL
MODEL 8
REMARK VINA RESULT:    -3.067      3.700      5.700
REMARK INTER + INTRA:          -8.434
REMARK INTER:                  -5.659
REMARK INTRA:                  -2.775
REMARK UNBOUND:                -2.498
REMARK SMILES CCCCCCCCCCCCCCCCCC(=O)[O-]
REMARK SMILES IDX 10 1 11 2 12 3 13 4 14 5 15 6 16 7 17 8 18 9 19 10 20 11
REMARK SMILES IDX 9 12 8 13 7 14 6 15 5 16 4 17 3 18 2 19 1 20
REMARK H PARENT
REMARK Flexibility Score: inf
ROOT
ATOM      1  C   UNL     1       7.894   6.937  31.083  1.00  0.00     0.000 C 
ENDROOT
BRANCH   1   2
ATOM      2  C   UNL     1       8.629   8.256  31.376  1.00  0.00     0.000 C 
BRANCH   2   3
ATOM      3  C   UNL     1      10.162   8.074  31.399  1.00  0.00     0.000 C 
BRANCH   3   4
ATOM      4  C   UNL     1      10.777   8.198  32.803  1.00  0.00     0.000 C 
BRANCH   4   5
ATOM      5  C   UNL     1      11.443   6.896  33.279  1.00  0.00     0.000 C 
BRANCH   5   6
ATOM      6  C   UNL     1      10.517   6.053  34.172  1.00  0.00     0.000 C 
BRANCH   6   7
ATOM      7  C   UNL     1       9.890   4.865  33.419  1.00  0.00     0.006 C 
BRANCH   7   8
ATOM      8  C   UNL     1      10.264   3.519  34.053  1.00  0.00     0.053 C 
BRANCH   8   9
ATOM      9  C   UNL     1       9.963   3.491  35.519  1.00  0.00     0.041 C 
ATOM     10  O   UNL     1       8.770   3.461  35.920  1.00  0.00    -0.550 OA
ATOM     11  O   UNL     1      11.000   3.464  36.444  1.00  0.00    -0.550 OA
ENDBRANCH   8   9
ENDBRANCH   7   8
ENDBRANCH   6   7
ENDBRANCH   5   6
ENDBRANCH   4   5
ENDBRANCH   3   4
ENDBRANCH   2   3
ENDBRANCH   1   2
BRANCH   1  12
ATOM     12  C   UNL     1       8.254   6.347  29.709  1.00  0.00     0.000 C 
BRANCH  12  13
ATOM     13  C   UNL     1       9.001   4.999  29.758  1.00  0.00    -0.000 C 
BRANCH  13  14
ATOM     14  C   UNL     1      10.456   5.036  29.245  1.00  0.00    -0.000 C 
BRANCH  14  15
ATOM     15  C   UNL     1      11.529   4.669  30.286  1.00  0.00    -0.000 C 
BRANCH  15  16
ATOM     16  C   UNL     1      12.145   3.281  30.042  1.00  0.00    -0.000 C 
BRANCH  16  17
ATOM     17  C   UNL     1      11.340   2.146  30.703  1.00  0.00    -0.000 C 
BRANCH  17  18
ATOM     18  C   UNL     1      10.535   1.257  29.732  1.00  0.00    -0.000 C 
BRANCH  18  19
ATOM     19  C   UNL     1       9.007   1.315  29.913  1.00  0.00    -0.003 C 
ATOM     20  C   UNL     1       8.589   1.553  31.364  1.00  0.00     0.004 C 
ENDBRANCH  18  19
ENDBRANCH  17  18
ENDBRANCH  16  17
ENDBRANCH  15  16
ENDBRANCH  14  15
ENDBRANCH  13  14
ENDBRANCH  12  13
ENDBRANCH   1  12
TORSDOF 16
ENDMDL
MODEL 9
REMARK VINA RESULT:    -3.030     11.230     13.837
REMARK INTER + INTRA:          -8.362
REMARK INTER:                  -5.652
REMARK INTRA:                  -2.710
REMARK UNBOUND:                -2.498
REMARK SMILES CCCCCCCCCCCCCCCCCC(=O)[O-]
REMARK SMILES IDX 10 1 11 2 12 3 13 4 14 5 15 6 16 7 17 8 18 9 19 10 20 11
REMARK SMILES IDX 9 12 8 13 7 14 6 15 5 16 4 17 3 18 2 19 1 20
REMARK H PARENT
REMARK Flexibility Score: inf
ROOT
ATOM      1  C   UNL     1      16.516   8.703  40.951  1.00  0.00     0.000 C 
ENDROOT
BRANCH   1   2
ATOM      2  C   UNL     1      16.625   9.424  42.306  1.00  0.00     0.000 C 
BRANCH   2   3
ATOM      3  C   UNL     1      18.045   9.325  42.904  1.00  0.00     0.000 C 
BRANCH   3   4
ATOM      4  C   UNL     1      19.114  10.061  42.080  1.00  0.00     0.000 C 
BRANCH   4   5
ATOM      5  C   UNL     1      20.208   9.122  41.547  1.00  0.00     0.000 C 
BRANCH   5   6
ATOM      6  C   UNL     1      20.609   8.045  42.570  1.00  0.00     0.000 C 
BRANCH   6   7
ATOM      7  C   UNL     1      20.556   6.622  41.983  1.00  0.00     0.006 C 
BRANCH   7   8
ATOM      8  C   UNL     1      19.410   6.456  40.976  1.00  0.00     0.053 C 
BRANCH   8   9
ATOM      9  C   UNL     1      18.389   5.470  41.453  1.00  0.00     0.041 C 
ATOM     10  O   UNL     1      18.284   4.347  40.894  1.00  0.00    -0.550 OA
ATOM     11  O   UNL     1      17.578   5.777  42.539  1.00  0.00    -0.550 OA
ENDBRANCH   8   9
ENDBRANCH   7   8
ENDBRANCH   6   7
ENDBRANCH   5   6
ENDBRANCH   4   5
ENDBRANCH   3   4
ENDBRANCH   2   3
ENDBRANCH   1   2
BRANCH   1  12
ATOM     12  C   UNL     1      15.765   9.531  39.895  1.00  0.00     0.000 C 
BRANCH  12  13
ATOM     13  C   UNL     1      16.504   9.692  38.551  1.00  0.00    -0.000 C 
BRANCH  13  14
ATOM     14  C   UNL     1      17.982  10.122  38.663  1.00  0.00    -0.000 C 
BRANCH  14  15
ATOM     15  C   UNL     1      19.004   9.107  38.121  1.00  0.00    -0.000 C 
BRANCH  15  16
ATOM     16  C   UNL     1      20.233   9.780  37.485  1.00  0.00    -0.000 C 
BRANCH  16  17
ATOM     17  C   UNL     1      21.362   8.783  37.168  1.00  0.00    -0.000 C 
BRANCH  17  18
ATOM     18  C   UNL     1      21.275   7.430  37.906  1.00  0.00    -0.000 C 
BRANCH  18  19
ATOM     19  C   UNL     1      22.518   7.063  38.737  1.00  0.00    -0.003 C 
ATOM     20  C   UNL     1      22.567   5.582  39.109  1.00  0.00     0.004 C 
ENDBRANCH  18  19
ENDBRANCH  17  18
ENDBRANCH  16  17
ENDBRANCH  15  16
ENDBRANCH  14  15
ENDBRANCH  13  14
ENDBRANCH  12  13
ENDBRANCH   1  12
TORSDOF 16
ENDMDL
