MODEL 1
REMARK VINA RESULT:    -6.500      0.000      0.000
REMARK INTER + INTRA:          -9.994
REMARK INTER:                  -8.970
REMARK INTRA:                  -1.024
REMARK UNBOUND:                -1.024
REMARK SMILES O=C([O-])[C@@H]1O[C@H](Oc2cc3oc(-c4ccccc4)cc(=O)c3c(O)c2O)[C@@H](O)[C@@H](O)[C@@H]1O
REMARK SMILES IDX 7 1 6 2 4 3 31 4 5 5 29 6 27 7 2 8 1 9 3 10 32 11 30 13
REMARK SMILES IDX 28 15 8 17 25 18 9 19 23 20 10 21 22 22 11 23 20 24 12 25
REMARK SMILES IDX 19 26 21 27 26 28 24 30 13 32 14 33 18 34 15 35 17 36 16 37
REMARK H PARENT 32 12 30 14 28 16 26 29 24 31
REMARK Flexibility Score: inf
ROOT
ATOM      1  O   UNL     1      35.847 -41.511  -3.431  1.00  0.00    -0.458 OA
ENDROOT
BRANCH   1   2
ATOM      2  C   UNL     1      34.641 -41.512  -4.201  1.00  0.00     0.339 C 
ATOM      3  C   UNL     1      33.678 -43.436  -3.168  1.00  0.00     0.199 C 
ATOM      4  C   UNL     1      32.634 -42.569  -2.412  1.00  0.00     0.180 C 
ATOM      5  O   UNL     1      34.123 -42.828  -4.376  1.00  0.00    -0.328 OA
ATOM      6  C   UNL     1      33.135 -41.131  -2.218  1.00  0.00     0.181 C 
ATOM      7  C   UNL     1      33.612 -40.563  -3.564  1.00  0.00     0.214 C 
BRANCH   3   8
ATOM      8  C   UNL     1      34.838 -43.934  -2.337  1.00  0.00     0.073 C 
ATOM      9  O   UNL     1      34.978 -43.604  -1.129  1.00  0.00    -0.547 OA
ATOM     10  O   UNL     1      35.796 -44.750  -2.930  1.00  0.00    -0.547 OA
ENDBRANCH   3   8
BRANCH   4  11
ATOM     11  O   UNL     1      32.316 -43.134  -1.166  1.00  0.00    -0.387 OA
ATOM     12  H   UNL     1      32.627 -44.078  -1.194  1.00  0.00     0.211 HD
ENDBRANCH   4  11
BRANCH   6  13
ATOM     13  O   UNL     1      32.100 -40.340  -1.692  1.00  0.00    -0.387 OA
ATOM     14  H   UNL     1      31.379 -40.320  -2.377  1.00  0.00     0.211 HD
ENDBRANCH   6  13
BRANCH   7  15
ATOM     15  O   UNL     1      32.528 -40.401  -4.445  1.00  0.00    -0.384 OA
ATOM     16  H   UNL     1      32.116 -41.295  -4.557  1.00  0.00     0.211 HD
ENDBRANCH   7  15
ENDBRANCH   1   2
BRANCH   1  17
ATOM     17  C   UNL     1      36.563 -40.391  -2.964  1.00  0.00     0.172 A 
ATOM     18  C   UNL     1      37.462 -39.629  -3.749  1.00  0.00     0.201 A 
ATOM     19  C   UNL     1      36.358 -40.039  -1.631  1.00  0.00     0.098 A 
ATOM     20  C   UNL     1      38.139 -38.527  -3.184  1.00  0.00     0.176 A 
ATOM     21  C   UNL     1      36.977 -38.922  -1.074  1.00  0.00     0.146 A 
ATOM     22  C   UNL     1      37.853 -38.125  -1.848  1.00  0.00     0.111 A 
ATOM     23  O   UNL     1      36.715 -38.617   0.193  1.00  0.00    -0.456 OA
ATOM     24  C   UNL     1      38.352 -36.949  -1.240  1.00  0.00     0.197 A 
ATOM     25  C   UNL     1      37.221 -37.552   0.811  1.00  0.00     0.138 A 
ATOM     26  C   UNL     1      38.049 -36.674   0.093  1.00  0.00     0.100 A 
ATOM     27  O   UNL     1      39.035 -36.110  -1.882  1.00  0.00    -0.289 OA
BRANCH  18  28
ATOM     28  O   UNL     1      37.701 -39.970  -5.080  1.00  0.00    -0.502 OA
ATOM     29  H   UNL     1      37.402 -40.851  -5.484  1.00  0.00     0.293 HD
ENDBRANCH  18  28
BRANCH  20  30
ATOM     30  O   UNL     1      39.102 -37.894  -3.974  1.00  0.00    -0.504 OA
ATOM     31  H   UNL     1      39.103 -37.902  -4.976  1.00  0.00     0.293 HD
ENDBRANCH  20  30
BRANCH  25  32
ATOM     32  C   UNL     1      36.867 -37.321   2.238  1.00  0.00     0.017 A 
ATOM     33  C   UNL     1      35.973 -36.282   2.570  1.00  0.00     0.012 A 
ATOM     34  C   UNL     1      37.373 -38.143   3.274  1.00  0.00     0.012 A 
ATOM     35  C   UNL     1      35.606 -36.058   3.901  1.00  0.00     0.001 A 
ATOM     36  C   UNL     1      37.006 -37.910   4.603  1.00  0.00     0.001 A 
ATOM     37  C   UNL     1      36.122 -36.872   4.918  1.00  0.00     0.000 A 
ENDBRANCH  25  32
ENDBRANCH   1  17
TORSDOF 9
ENDMDL
MODEL 2
REMARK VINA RESULT:    -6.279      2.044      2.984
REMARK INTER + INTRA:          -9.688
REMARK INTER:                  -8.171
REMARK INTRA:                  -1.518
REMARK UNBOUND:                -1.024
REMARK SMILES O=C([O-])[C@@H]1O[C@H](Oc2cc3oc(-c4ccccc4)cc(=O)c3c(O)c2O)[C@@H](O)[C@@H](O)[C@@H]1O
REMARK SMILES IDX 7 1 6 2 4 3 31 4 5 5 29 6 27 7 2 8 1 9 3 10 32 11 30 13
REMARK SMILES IDX 28 15 8 17 25 18 9 19 23 20 10 21 22 22 11 23 20 24 12 25
REMARK SMILES IDX 19 26 21 27 26 28 24 30 13 32 14 33 18 34 15 35 17 36 16 37
REMARK H PARENT 32 12 30 14 28 16 26 29 24 31
REMARK Flexibility Score: inf
ROOT
ATOM      1  O   UNL     1      34.967 -40.759  -1.710  1.00  0.00    -0.458 OA
ENDROOT
BRANCH   1   2
ATOM      2  C   UNL     1      34.455 -40.520  -3.025  1.00  0.00     0.339 C 
ATOM      3  C   UNL     1      35.386 -42.478  -4.023  1.00  0.00     0.199 C 
ATOM      4  C   UNL     1      33.990 -43.154  -4.117  1.00  0.00     0.180 C 
ATOM      5  O   UNL     1      35.307 -41.056  -4.033  1.00  0.00    -0.328 OA
ATOM      6  C   UNL     1      33.025 -42.593  -3.064  1.00  0.00     0.181 C 
ATOM      7  C   UNL     1      33.019 -41.058  -3.133  1.00  0.00     0.214 C 
BRANCH   3   8
ATOM      8  C   UNL     1      36.281 -42.977  -2.912  1.00  0.00     0.073 C 
ATOM      9  O   UNL     1      35.885 -43.834  -2.077  1.00  0.00    -0.547 OA
ATOM     10  O   UNL     1      37.562 -42.451  -2.785  1.00  0.00    -0.547 OA
ENDBRANCH   3   8
BRANCH   4  11
ATOM     11  O   UNL     1      34.094 -44.547  -3.973  1.00  0.00    -0.387 OA
ATOM     12  H   UNL     1      33.980 -44.742  -3.004  1.00  0.00     0.211 HD
ENDBRANCH   4  11
BRANCH   6  13
ATOM     13  O   UNL     1      31.734 -43.098  -3.294  1.00  0.00    -0.387 OA
ATOM     14  H   UNL     1      31.826 -44.084  -3.396  1.00  0.00     0.211 HD
ENDBRANCH   6  13
BRANCH   7  15
ATOM     15  O   UNL     1      32.452 -40.619  -4.343  1.00  0.00    -0.384 OA
ATOM     16  H   UNL     1      33.108 -40.826  -5.056  1.00  0.00     0.211 HD
ENDBRANCH   7  15
ENDBRANCH   1   2
BRANCH   1  17
ATOM     17  C   UNL     1      35.593 -39.832  -0.853  1.00  0.00     0.172 A 
ATOM     18  C   UNL     1      36.883 -39.289  -1.063  1.00  0.00     0.201 A 
ATOM     19  C   UNL     1      34.870 -39.449   0.275  1.00  0.00     0.098 A 
ATOM     20  C   UNL     1      37.427 -38.372  -0.140  1.00  0.00     0.176 A 
ATOM     21  C   UNL     1      35.370 -38.504   1.169  1.00  0.00     0.146 A 
ATOM     22  C   UNL     1      36.643 -37.922   0.961  1.00  0.00     0.111 A 
ATOM     23  O   UNL     1      34.619 -38.153   2.208  1.00  0.00    -0.456 OA
ATOM     24  C   UNL     1      37.027 -36.892   1.851  1.00  0.00     0.197 A 
ATOM     25  C   UNL     1      34.983 -37.233   3.099  1.00  0.00     0.138 A 
ATOM     26  C   UNL     1      36.204 -36.562   2.928  1.00  0.00     0.100 A 
ATOM     27  O   UNL     1      38.081 -36.226   1.680  1.00  0.00    -0.289 OA
BRANCH  18  28
ATOM     28  O   UNL     1      37.637 -39.670  -2.174  1.00  0.00    -0.502 OA
ATOM     29  H   UNL     1      37.548 -39.220  -3.079  1.00  0.00     0.293 HD
ENDBRANCH  18  28
BRANCH  20  30
ATOM     30  O   UNL     1      38.750 -37.969  -0.339  1.00  0.00    -0.504 OA
ATOM     31  H   UNL     1      39.193 -37.223   0.164  1.00  0.00     0.293 HD
ENDBRANCH  20  30
BRANCH  25  32
ATOM     32  C   UNL     1      34.064 -36.935   4.231  1.00  0.00     0.017 A 
ATOM     33  C   UNL     1      34.552 -36.230   5.351  1.00  0.00     0.012 A 
ATOM     34  C   UNL     1      32.699 -37.304   4.200  1.00  0.00     0.012 A 
ATOM     35  C   UNL     1      33.705 -35.916   6.419  1.00  0.00     0.001 A 
ATOM     36  C   UNL     1      31.857 -36.993   5.273  1.00  0.00     0.001 A 
ATOM     37  C   UNL     1      32.357 -36.298   6.380  1.00  0.00     0.000 A 
ENDBRANCH  25  32
ENDBRANCH   1  17
TORSDOF 9
ENDMDL
MODEL 3
REMARK VINA RESULT:    -6.210      6.535     10.474
REMARK INTER + INTRA:          -9.594
REMARK INTER:                  -8.228
REMARK INTRA:                  -1.366
REMARK UNBOUND:                -1.024
REMARK SMILES O=C([O-])[C@@H]1O[C@H](Oc2cc3oc(-c4ccccc4)cc(=O)c3c(O)c2O)[C@@H](O)[C@@H](O)[C@@H]1O
REMARK SMILES IDX 7 1 6 2 4 3 31 4 5 5 29 6 27 7 2 8 1 9 3 10 32 11 30 13
REMARK SMILES IDX 28 15 8 17 25 18 9 19 23 20 10 21 22 22 11 23 20 24 12 25
REMARK SMILES IDX 19 26 21 27 26 28 24 30 13 32 14 33 18 34 15 35 17 36 16 37
REMARK H PARENT 32 12 30 14 28 16 26 29 24 31
REMARK Flexibility Score: inf
ROOT
ATOM      1  O   UNL     1      34.197 -37.003   5.324  1.00  0.00    -0.458 OA
ENDROOT
BRANCH   1   2
ATOM      2  C   UNL     1      35.296 -37.870   5.019  1.00  0.00     0.339 C 
ATOM      3  C   UNL     1      34.188 -39.091   3.293  1.00  0.00     0.199 C 
ATOM      4  C   UNL     1      35.040 -38.403   2.191  1.00  0.00     0.180 C 
ATOM      5  O   UNL     1      34.856 -39.141   4.550  1.00  0.00    -0.328 OA
ATOM      6  C   UNL     1      35.559 -37.036   2.656  1.00  0.00     0.181 C 
ATOM      7  C   UNL     1      36.244 -37.180   4.024  1.00  0.00     0.214 C 
BRANCH   3   8
ATOM      8  C   UNL     1      32.772 -38.583   3.437  1.00  0.00     0.073 C 
ATOM      9  O   UNL     1      31.905 -39.217   4.097  1.00  0.00    -0.547 OA
ATOM     10  O   UNL     1      32.405 -37.406   2.796  1.00  0.00    -0.547 OA
ENDBRANCH   3   8
BRANCH   4  11
ATOM     11  O   UNL     1      34.304 -38.254   1.004  1.00  0.00    -0.387 OA
ATOM     12  H   UNL     1      34.571 -37.380   0.613  1.00  0.00     0.211 HD
ENDBRANCH   4  11
BRANCH   6  13
ATOM     13  O   UNL     1      36.462 -36.528   1.707  1.00  0.00    -0.387 OA
ATOM     14  H   UNL     1      35.918 -36.191   0.946  1.00  0.00     0.211 HD
ENDBRANCH   6  13
BRANCH   7  15
ATOM     15  O   UNL     1      37.422 -37.940   3.910  1.00  0.00    -0.384 OA
ATOM     16  H   UNL     1      37.754 -38.092   4.830  1.00  0.00     0.211 HD
ENDBRANCH   7  15
ENDBRANCH   1   2
BRANCH   1  17
ATOM     17  C   UNL     1      33.391 -37.018   6.479  1.00  0.00     0.172 A 
ATOM     18  C   UNL     1      32.032 -36.623   6.515  1.00  0.00     0.201 A 
ATOM     19  C   UNL     1      34.005 -37.448   7.654  1.00  0.00     0.098 A 
ATOM     20  C   UNL     1      31.312 -36.665   7.727  1.00  0.00     0.176 A 
ATOM     21  C   UNL     1      33.293 -37.548   8.848  1.00  0.00     0.146 A 
ATOM     22  C   UNL     1      31.925 -37.190   8.900  1.00  0.00     0.111 A 
ATOM     23  O   UNL     1      33.924 -37.997   9.928  1.00  0.00    -0.456 OA
ATOM     24  C   UNL     1      31.250 -37.426  10.121  1.00  0.00     0.197 A 
ATOM     25  C   UNL     1      33.330 -38.167  11.107  1.00  0.00     0.138 A 
ATOM     26  C   UNL     1      31.958 -37.898  11.227  1.00  0.00     0.100 A 
ATOM     27  O   UNL     1      30.008 -37.261  10.234  1.00  0.00    -0.289 OA
BRANCH  18  28
ATOM     28  O   UNL     1      31.398 -36.170   5.357  1.00  0.00    -0.502 OA
ATOM     29  H   UNL     1      31.239 -35.186   5.167  1.00  0.00     0.293 HD
ENDBRANCH  18  28
BRANCH  20  30
ATOM     30  O   UNL     1      30.014 -36.147   7.720  1.00  0.00    -0.504 OA
ATOM     31  H   UNL     1      29.626 -35.593   8.460  1.00  0.00     0.293 HD
ENDBRANCH  20  30
BRANCH  25  32
ATOM     32  C   UNL     1      34.144 -38.664  12.250  1.00  0.00     0.017 A 
ATOM     33  C   UNL     1      34.509 -37.770  13.279  1.00  0.00     0.012 A 
ATOM     34  C   UNL     1      34.531 -40.021  12.356  1.00  0.00     0.012 A 
ATOM     35  C   UNL     1      35.254 -38.216  14.376  1.00  0.00     0.001 A 
ATOM     36  C   UNL     1      35.281 -40.459  13.452  1.00  0.00     0.001 A 
ATOM     37  C   UNL     1      35.640 -39.560  14.463  1.00  0.00     0.000 A 
ENDBRANCH  25  32
ENDBRANCH   1  17
TORSDOF 9
ENDMDL
MODEL 4
REMARK VINA RESULT:    -6.018      6.512     10.260
REMARK INTER + INTRA:          -9.329
REMARK INTER:                  -8.100
REMARK INTRA:                  -1.228
REMARK UNBOUND:                -1.024
REMARK SMILES O=C([O-])[C@@H]1O[C@H](Oc2cc3oc(-c4ccccc4)cc(=O)c3c(O)c2O)[C@@H](O)[C@@H](O)[C@@H]1O
REMARK SMILES IDX 7 1 6 2 4 3 31 4 5 5 29 6 27 7 2 8 1 9 3 10 32 11 30 13
REMARK SMILES IDX 28 15 8 17 25 18 9 19 23 20 10 21 22 22 11 23 20 24 12 25
REMARK SMILES IDX 19 26 21 27 26 28 24 30 13 32 14 33 18 34 15 35 17 36 16 37
REMARK H PARENT 32 12 30 14 28 16 26 29 24 31
REMARK Flexibility Score: inf
ROOT
ATOM      1  O   UNL     1      33.768 -38.124   5.167  1.00  0.00    -0.458 OA
ENDROOT
BRANCH   1   2
ATOM      2  C   UNL     1      34.636 -37.318   4.362  1.00  0.00     0.339 C 
ATOM      3  C   UNL     1      36.153 -39.069   3.789  1.00  0.00     0.199 C 
ATOM      4  C   UNL     1      35.623 -39.119   2.330  1.00  0.00     0.180 C 
ATOM      5  O   UNL     1      35.979 -37.791   4.392  1.00  0.00    -0.328 OA
ATOM      6  C   UNL     1      34.182 -38.597   2.239  1.00  0.00     0.181 C 
ATOM      7  C   UNL     1      34.084 -37.228   2.929  1.00  0.00     0.214 C 
BRANCH   3   8
ATOM      8  C   UNL     1      35.676 -40.180   4.696  1.00  0.00     0.073 C 
ATOM      9  O   UNL     1      34.845 -41.044   4.305  1.00  0.00    -0.547 OA
ATOM     10  O   UNL     1      36.136 -40.230   6.007  1.00  0.00    -0.547 OA
ENDBRANCH   3   8
BRANCH   4  11
ATOM     11  O   UNL     1      35.690 -40.423   1.813  1.00  0.00    -0.387 OA
ATOM     12  H   UNL     1      36.221 -40.369   0.973  1.00  0.00     0.211 HD
ENDBRANCH   4  11
BRANCH   6  13
ATOM     13  O   UNL     1      33.805 -38.493   0.890  1.00  0.00    -0.387 OA
ATOM     14  H   UNL     1      33.052 -39.130   0.754  1.00  0.00     0.211 HD
ENDBRANCH   6  13
BRANCH   7  15
ATOM     15  O   UNL     1      34.813 -36.260   2.216  1.00  0.00    -0.384 OA
ATOM     16  H   UNL     1      34.198 -35.501   2.055  1.00  0.00     0.211 HD
ENDBRANCH   7  15
ENDBRANCH   1   2
BRANCH   1  17
ATOM     17  C   UNL     1      33.115 -37.750   6.358  1.00  0.00     0.172 A 
ATOM     18  C   UNL     1      31.900 -37.027   6.415  1.00  0.00     0.201 A 
ATOM     19  C   UNL     1      33.739 -38.127   7.547  1.00  0.00     0.098 A 
ATOM     20  C   UNL     1      31.330 -36.694   7.662  1.00  0.00     0.176 A 
ATOM     21  C   UNL     1      33.162 -37.852   8.785  1.00  0.00     0.146 A 
ATOM     22  C   UNL     1      31.930 -37.160   8.866  1.00  0.00     0.111 A 
ATOM     23  O   UNL     1      33.786 -38.267   9.883  1.00  0.00    -0.456 OA
ATOM     24  C   UNL     1      31.360 -37.020  10.153  1.00  0.00     0.197 A 
ATOM     25  C   UNL     1      33.305 -38.092  11.112  1.00  0.00     0.138 A 
ATOM     26  C   UNL     1      32.056 -37.471  11.275  1.00  0.00     0.100 A 
ATOM     27  O   UNL     1      30.211 -36.534  10.320  1.00  0.00    -0.289 OA
BRANCH  18  28
ATOM     28  O   UNL     1      31.264 -36.621   5.241  1.00  0.00    -0.502 OA
ATOM     29  H   UNL     1      30.349 -36.962   4.966  1.00  0.00     0.293 HD
ENDBRANCH  18  28
BRANCH  20  30
ATOM     30  O   UNL     1      30.197 -35.875   7.651  1.00  0.00    -0.504 OA
ATOM     31  H   UNL     1      29.685 -35.634   6.823  1.00  0.00     0.293 HD
ENDBRANCH  20  30
BRANCH  25  32
ATOM     32  C   UNL     1      34.103 -38.586  12.267  1.00  0.00     0.017 A 
ATOM     33  C   UNL     1      34.457 -39.950  12.330  1.00  0.00     0.012 A 
ATOM     34  C   UNL     1      34.552 -37.717  13.289  1.00  0.00     0.012 A 
ATOM     35  C   UNL     1      35.225 -40.437  13.393  1.00  0.00     0.001 A 
ATOM     36  C   UNL     1      35.315 -38.210  14.352  1.00  0.00     0.001 A 
ATOM     37  C   UNL     1      35.655 -39.567  14.404  1.00  0.00     0.000 A 
ENDBRANCH  25  32
ENDBRANCH   1  17
TORSDOF 9
ENDMDL
MODEL 5
REMARK VINA RESULT:    -5.904      2.287      4.921
REMARK INTER + INTRA:          -9.171
REMARK INTER:                  -8.226
REMARK INTRA:                  -0.945
REMARK UNBOUND:                -1.024
REMARK SMILES O=C([O-])[C@@H]1O[C@H](Oc2cc3oc(-c4ccccc4)cc(=O)c3c(O)c2O)[C@@H](O)[C@@H](O)[C@@H]1O
REMARK SMILES IDX 7 1 6 2 4 3 31 4 5 5 29 6 27 7 2 8 1 9 3 10 32 11 30 13
REMARK SMILES IDX 28 15 8 17 25 18 9 19 23 20 10 21 22 22 11 23 20 24 12 25
REMARK SMILES IDX 19 26 21 27 26 28 24 30 13 32 14 33 18 34 15 35 17 36 16 37
REMARK H PARENT 32 12 30 14 28 16 26 29 24 31
REMARK Flexibility Score: inf
ROOT
ATOM      1  O   UNL     1      34.706 -40.940  -0.664  1.00  0.00    -0.458 OA
ENDROOT
BRANCH   1   2
ATOM      2  C   UNL     1      34.950 -41.809  -1.775  1.00  0.00     0.339 C 
ATOM      3  C   UNL     1      32.954 -43.095  -1.539  1.00  0.00     0.199 C 
ATOM      4  C   UNL     1      32.324 -42.440  -2.799  1.00  0.00     0.180 C 
ATOM      5  O   UNL     1      34.377 -43.098  -1.577  1.00  0.00    -0.328 OA
ATOM      6  C   UNL     1      32.926 -41.054  -3.070  1.00  0.00     0.181 C 
ATOM      7  C   UNL     1      34.460 -41.148  -3.074  1.00  0.00     0.214 C 
BRANCH   3   8
ATOM      8  C   UNL     1      32.435 -42.591  -0.212  1.00  0.00     0.073 C 
ATOM      9  O   UNL     1      32.734 -43.158   0.874  1.00  0.00    -0.547 OA
ATOM     10  O   UNL     1      31.578 -41.497  -0.189  1.00  0.00    -0.547 OA
ENDBRANCH   3   8
BRANCH   4  11
ATOM     11  O   UNL     1      30.929 -42.336  -2.670  1.00  0.00    -0.387 OA
ATOM     12  H   UNL     1      30.656 -43.008  -1.990  1.00  0.00     0.211 HD
ENDBRANCH   4  11
BRANCH   6  13
ATOM     13  O   UNL     1      32.462 -40.574  -4.306  1.00  0.00    -0.387 OA
ATOM     14  H   UNL     1      33.237 -40.138  -4.753  1.00  0.00     0.211 HD
ENDBRANCH   6  13
BRANCH   7  15
ATOM     15  O   UNL     1      34.907 -41.905  -4.172  1.00  0.00    -0.384 OA
ATOM     16  H   UNL     1      35.733 -41.468  -4.501  1.00  0.00     0.211 HD
ENDBRANCH   7  15
ENDBRANCH   1   2
BRANCH   1  17
ATOM     17  C   UNL     1      35.481 -39.837  -0.253  1.00  0.00     0.172 A 
ATOM     18  C   UNL     1      35.215 -39.051   0.893  1.00  0.00     0.201 A 
ATOM     19  C   UNL     1      36.574 -39.518  -1.057  1.00  0.00     0.098 A 
ATOM     20  C   UNL     1      36.048 -37.959   1.215  1.00  0.00     0.176 A 
ATOM     21  C   UNL     1      37.439 -38.477  -0.724  1.00  0.00     0.146 A 
ATOM     22  C   UNL     1      37.211 -37.699   0.436  1.00  0.00     0.111 A 
ATOM     23  O   UNL     1      38.484 -38.243  -1.511  1.00  0.00    -0.456 OA
ATOM     24  C   UNL     1      38.195 -36.736   0.761  1.00  0.00     0.197 A 
ATOM     25  C   UNL     1      39.391 -37.301  -1.265  1.00  0.00     0.138 A 
ATOM     26  C   UNL     1      39.274 -36.527  -0.099  1.00  0.00     0.100 A 
ATOM     27  O   UNL     1      38.153 -36.081   1.835  1.00  0.00    -0.289 OA
BRANCH  18  28
ATOM     28  O   UNL     1      34.116 -39.336   1.705  1.00  0.00    -0.502 OA
ATOM     29  H   UNL     1      33.506 -38.616   2.077  1.00  0.00     0.293 HD
ENDBRANCH  18  28
BRANCH  20  30
ATOM     30  O   UNL     1      35.661 -37.151   2.287  1.00  0.00    -0.504 OA
ATOM     31  H   UNL     1      35.084 -37.461   3.046  1.00  0.00     0.293 HD
ENDBRANCH  20  30
BRANCH  25  32
ATOM     32  C   UNL     1      40.512 -37.121  -2.227  1.00  0.00     0.017 A 
ATOM     33  C   UNL     1      41.444 -36.084  -2.018  1.00  0.00     0.012 A 
ATOM     34  C   UNL     1      40.693 -37.989  -3.330  1.00  0.00     0.012 A 
ATOM     35  C   UNL     1      42.520 -35.907  -2.895  1.00  0.00     0.001 A 
ATOM     36  C   UNL     1      41.767 -37.804  -4.207  1.00  0.00     0.001 A 
ATOM     37  C   UNL     1      42.681 -36.767  -3.989  1.00  0.00     0.000 A 
ENDBRANCH  25  32
ENDBRANCH   1  17
TORSDOF 9
ENDMDL
MODEL 6
REMARK VINA RESULT:    -5.814      5.474      9.638
REMARK INTER + INTRA:          -9.046
REMARK INTER:                  -7.675
REMARK INTRA:                  -1.371
REMARK UNBOUND:                -1.024
REMARK SMILES O=C([O-])[C@@H]1O[C@H](Oc2cc3oc(-c4ccccc4)cc(=O)c3c(O)c2O)[C@@H](O)[C@@H](O)[C@@H]1O
REMARK SMILES IDX 7 1 6 2 4 3 31 4 5 5 29 6 27 7 2 8 1 9 3 10 32 11 30 13
REMARK SMILES IDX 28 15 8 17 25 18 9 19 23 20 10 21 22 22 11 23 20 24 12 25
REMARK SMILES IDX 19 26 21 27 26 28 24 30 13 32 14 33 18 34 15 35 17 36 16 37
REMARK H PARENT 32 12 30 14 28 16 26 29 24 31
REMARK Flexibility Score: inf
ROOT
ATOM      1  O   UNL     1      36.037 -37.938   4.589  1.00  0.00    -0.458 OA
ENDROOT
BRANCH   1   2
ATOM      2  C   UNL     1      36.718 -39.188   4.435  1.00  0.00     0.339 C 
ATOM      3  C   UNL     1      36.670 -39.214   2.049  1.00  0.00     0.199 C 
ATOM      4  C   UNL     1      38.192 -38.915   1.965  1.00  0.00     0.180 C 
ATOM      5  O   UNL     1      36.308 -39.875   3.256  1.00  0.00    -0.328 OA
ATOM      6  C   UNL     1      38.691 -38.192   3.225  1.00  0.00     0.181 C 
ATOM      7  C   UNL     1      38.239 -38.962   4.475  1.00  0.00     0.214 C 
BRANCH   3   8
ATOM      8  C   UNL     1      35.757 -38.045   1.761  1.00  0.00     0.073 C 
ATOM      9  O   UNL     1      36.208 -36.882   1.575  1.00  0.00    -0.547 OA
ATOM     10  O   UNL     1      34.382 -38.248   1.734  1.00  0.00    -0.547 OA
ENDBRANCH   3   8
BRANCH   4  11
ATOM     11  O   UNL     1      38.494 -38.149   0.827  1.00  0.00    -0.387 OA
ATOM     12  H   UNL     1      39.484 -38.166   0.728  1.00  0.00     0.211 HD
ENDBRANCH   4  11
BRANCH   6  13
ATOM     13  O   UNL     1      40.092 -38.098   3.188  1.00  0.00    -0.387 OA
ATOM     14  H   UNL     1      40.312 -37.129   3.135  1.00  0.00     0.211 HD
ENDBRANCH   6  13
BRANCH   7  15
ATOM     15  O   UNL     1      38.887 -40.208   4.551  1.00  0.00    -0.384 OA
ATOM     16  H   UNL     1      38.826 -40.616   3.651  1.00  0.00     0.211 HD
ENDBRANCH   7  15
ENDBRANCH   1   2
BRANCH   1  17
ATOM     17  C   UNL     1      35.046 -37.615   5.537  1.00  0.00     0.172 A 
ATOM     18  C   UNL     1      33.804 -37.010   5.226  1.00  0.00     0.201 A 
ATOM     19  C   UNL     1      35.342 -37.915   6.866  1.00  0.00     0.098 A 
ATOM     20  C   UNL     1      32.881 -36.717   6.252  1.00  0.00     0.176 A 
ATOM     21  C   UNL     1      34.420 -37.682   7.883  1.00  0.00     0.146 A 
ATOM     22  C   UNL     1      33.159 -37.109   7.592  1.00  0.00     0.111 A 
ATOM     23  O   UNL     1      34.746 -38.022   9.126  1.00  0.00    -0.456 OA
ATOM     24  C   UNL     1      32.241 -37.009   8.664  1.00  0.00     0.197 A 
ATOM     25  C   UNL     1      33.926 -37.879  10.165  1.00  0.00     0.138 A 
ATOM     26  C   UNL     1      32.632 -37.378   9.951  1.00  0.00     0.100 A 
ATOM     27  O   UNL     1      31.053 -36.632   8.487  1.00  0.00    -0.289 OA
BRANCH  18  28
ATOM     28  O   UNL     1      33.490 -36.681   3.907  1.00  0.00    -0.502 OA
ATOM     29  H   UNL     1      34.197 -36.510   3.200  1.00  0.00     0.293 HD
ENDBRANCH  18  28
BRANCH  20  30
ATOM     30  O   UNL     1      31.730 -36.010   5.895  1.00  0.00    -0.504 OA
ATOM     31  H   UNL     1      30.928 -35.904   6.488  1.00  0.00     0.293 HD
ENDBRANCH  20  30
BRANCH  25  32
ATOM     32  C   UNL     1      34.409 -38.281  11.514  1.00  0.00     0.017 A 
ATOM     33  C   UNL     1      34.483 -37.315  12.539  1.00  0.00     0.012 A 
ATOM     34  C   UNL     1      34.760 -39.619  11.812  1.00  0.00     0.012 A 
ATOM     35  C   UNL     1      34.911 -37.671  13.823  1.00  0.00     0.001 A 
ATOM     36  C   UNL     1      35.193 -39.968  13.095  1.00  0.00     0.001 A 
ATOM     37  C   UNL     1      35.266 -38.997  14.101  1.00  0.00     0.000 A 
ENDBRANCH  25  32
ENDBRANCH   1  17
TORSDOF 9
ENDMDL
MODEL 7
REMARK VINA RESULT:    -5.799      2.618      4.631
REMARK INTER + INTRA:          -9.026
REMARK INTER:                  -7.858
REMARK INTRA:                  -1.168
REMARK UNBOUND:                -1.024
REMARK SMILES O=C([O-])[C@@H]1O[C@H](Oc2cc3oc(-c4ccccc4)cc(=O)c3c(O)c2O)[C@@H](O)[C@@H](O)[C@@H]1O
REMARK SMILES IDX 7 1 6 2 4 3 31 4 5 5 29 6 27 7 2 8 1 9 3 10 32 11 30 13
REMARK SMILES IDX 28 15 8 17 25 18 9 19 23 20 10 21 22 22 11 23 20 24 12 25
REMARK SMILES IDX 19 26 21 27 26 28 24 30 13 32 14 33 18 34 15 35 17 36 16 37
REMARK H PARENT 32 12 30 14 28 16 26 29 24 31
REMARK Flexibility Score: inf
ROOT
ATOM      1  O   UNL     1      34.944 -40.726  -0.141  1.00  0.00    -0.458 OA
ENDROOT
BRANCH   1   2
ATOM      2  C   UNL     1      35.739 -40.731  -1.331  1.00  0.00     0.339 C 
ATOM      3  C   UNL     1      34.969 -42.837  -2.147  1.00  0.00     0.199 C 
ATOM      4  C   UNL     1      34.141 -42.155  -3.271  1.00  0.00     0.180 C 
ATOM      5  O   UNL     1      36.084 -42.053  -1.736  1.00  0.00    -0.328 OA
ATOM      6  C   UNL     1      33.763 -40.716  -2.893  1.00  0.00     0.181 C 
ATOM      7  C   UNL     1      35.019 -39.952  -2.445  1.00  0.00     0.214 C 
BRANCH   3   8
ATOM      8  C   UNL     1      34.175 -43.338  -0.962  1.00  0.00     0.073 C 
ATOM      9  O   UNL     1      32.932 -43.151  -0.871  1.00  0.00    -0.547 OA
ATOM     10  O   UNL     1      34.837 -43.991   0.071  1.00  0.00    -0.547 OA
ENDBRANCH   3   8
BRANCH   4  11
ATOM     11  O   UNL     1      32.980 -42.891  -3.560  1.00  0.00    -0.387 OA
ATOM     12  H   UNL     1      32.212 -42.347  -3.241  1.00  0.00     0.211 HD
ENDBRANCH   4  11
BRANCH   6  13
ATOM     13  O   UNL     1      33.172 -40.080  -3.999  1.00  0.00    -0.387 OA
ATOM     14  H   UNL     1      33.594 -39.182  -4.071  1.00  0.00     0.211 HD
ENDBRANCH   6  13
BRANCH   7  15
ATOM     15  O   UNL     1      35.901 -39.772  -3.525  1.00  0.00    -0.384 OA
ATOM     16  H   UNL     1      36.788 -40.096  -3.226  1.00  0.00     0.211 HD
ENDBRANCH   7  15
ENDBRANCH   1   2
BRANCH   1  17
ATOM     17  C   UNL     1      34.962 -39.773   0.897  1.00  0.00     0.172 A 
ATOM     18  C   UNL     1      33.950 -38.809   1.120  1.00  0.00     0.201 A 
ATOM     19  C   UNL     1      36.071 -39.802   1.741  1.00  0.00     0.098 A 
ATOM     20  C   UNL     1      34.066 -37.891   2.184  1.00  0.00     0.176 A 
ATOM     21  C   UNL     1      36.176 -38.938   2.828  1.00  0.00     0.146 A 
ATOM     22  C   UNL     1      35.159 -37.988   3.091  1.00  0.00     0.111 A 
ATOM     23  O   UNL     1      37.240 -39.035   3.618  1.00  0.00    -0.456 OA
ATOM     24  C   UNL     1      35.289 -37.226   4.276  1.00  0.00     0.197 A 
ATOM     25  C   UNL     1      37.420 -38.287   4.703  1.00  0.00     0.138 A 
ATOM     26  C   UNL     1      36.427 -37.365   5.071  1.00  0.00     0.100 A 
ATOM     27  O   UNL     1      34.381 -36.447   4.666  1.00  0.00    -0.289 OA
BRANCH  18  28
ATOM     28  O   UNL     1      32.838 -38.746   0.279  1.00  0.00    -0.502 OA
ATOM     29  H   UNL     1      32.784 -38.116  -0.514  1.00  0.00     0.293 HD
ENDBRANCH  18  28
BRANCH  20  30
ATOM     30  O   UNL     1      33.096 -36.889   2.275  1.00  0.00    -0.504 OA
ATOM     31  H   UNL     1      32.378 -36.863   2.974  1.00  0.00     0.293 HD
ENDBRANCH  20  30
BRANCH  25  32
ATOM     32  C   UNL     1      38.662 -38.476   5.502  1.00  0.00     0.017 A 
ATOM     33  C   UNL     1      39.808 -39.016   4.882  1.00  0.00     0.012 A 
ATOM     34  C   UNL     1      38.739 -38.093   6.862  1.00  0.00     0.012 A 
ATOM     35  C   UNL     1      40.995 -39.183   5.603  1.00  0.00     0.001 A 
ATOM     36  C   UNL     1      39.927 -38.268   7.580  1.00  0.00     0.001 A 
ATOM     37  C   UNL     1      41.055 -38.809   6.952  1.00  0.00     0.000 A 
ENDBRANCH  25  32
ENDBRANCH   1  17
TORSDOF 9
ENDMDL
MODEL 8
REMARK VINA RESULT:    -5.650      6.982     11.186
REMARK INTER + INTRA:          -8.821
REMARK INTER:                  -7.383
REMARK INTRA:                  -1.438
REMARK UNBOUND:                -1.024
REMARK SMILES O=C([O-])[C@@H]1O[C@H](Oc2cc3oc(-c4ccccc4)cc(=O)c3c(O)c2O)[C@@H](O)[C@@H](O)[C@@H]1O
REMARK SMILES IDX 7 1 6 2 4 3 31 4 5 5 29 6 27 7 2 8 1 9 3 10 32 11 30 13
REMARK SMILES IDX 28 15 8 17 25 18 9 19 23 20 10 21 22 22 11 23 20 24 12 25
REMARK SMILES IDX 19 26 21 27 26 28 24 30 13 32 14 33 18 34 15 35 17 36 16 37
REMARK H PARENT 32 12 30 14 28 16 26 29 24 31
REMARK Flexibility Score: inf
ROOT
ATOM      1  O   UNL     1      33.689 -37.902   8.829  1.00  0.00    -0.458 OA
ENDROOT
BRANCH   1   2
ATOM      2  C   UNL     1      33.960 -36.902   9.817  1.00  0.00     0.339 C 
ATOM      3  C   UNL     1      31.679 -36.433  10.340  1.00  0.00     0.199 C 
ATOM      4  C   UNL     1      31.795 -37.146  11.715  1.00  0.00     0.180 C 
ATOM      5  O   UNL     1      32.926 -35.923   9.880  1.00  0.00    -0.328 OA
ATOM      6  C   UNL     1      32.913 -38.198  11.707  1.00  0.00     0.181 C 
ATOM      7  C   UNL     1      34.212 -37.568  11.179  1.00  0.00     0.214 C 
BRANCH   3   8
ATOM      8  C   UNL     1      30.964 -37.209   9.258  1.00  0.00     0.073 C 
ATOM      9  O   UNL     1      30.550 -38.384   9.450  1.00  0.00    -0.547 OA
ATOM     10  O   UNL     1      30.788 -36.626   8.008  1.00  0.00    -0.547 OA
ENDBRANCH   3   8
BRANCH   4  11
ATOM     11  O   UNL     1      30.579 -37.748  12.076  1.00  0.00    -0.387 OA
ATOM     12  H   UNL     1      30.452 -37.574  13.046  1.00  0.00     0.211 HD
ENDBRANCH   4  11
BRANCH   6  13
ATOM     13  O   UNL     1      33.103 -38.693  13.008  1.00  0.00    -0.387 OA
ATOM     14  H   UNL     1      33.373 -37.919  13.572  1.00  0.00     0.211 HD
ENDBRANCH   6  13
BRANCH   7  15
ATOM     15  O   UNL     1      34.696 -36.603  12.081  1.00  0.00    -0.384 OA
ATOM     16  H   UNL     1      34.430 -36.901  12.987  1.00  0.00     0.211 HD
ENDBRANCH   7  15
ENDBRANCH   1   2
BRANCH   1  17
ATOM     17  C   UNL     1      34.396 -38.138   7.634  1.00  0.00     0.172 A 
ATOM     18  C   UNL     1      33.792 -38.328   6.367  1.00  0.00     0.201 A 
ATOM     19  C   UNL     1      35.785 -38.191   7.739  1.00  0.00     0.098 A 
ATOM     20  C   UNL     1      34.590 -38.567   5.229  1.00  0.00     0.176 A 
ATOM     21  C   UNL     1      36.590 -38.372   6.616  1.00  0.00     0.146 A 
ATOM     22  C   UNL     1      36.009 -38.531   5.335  1.00  0.00     0.111 A 
ATOM     23  O   UNL     1      37.909 -38.379   6.775  1.00  0.00    -0.456 OA
ATOM     24  C   UNL     1      36.898 -38.599   4.236  1.00  0.00     0.197 A 
ATOM     25  C   UNL     1      38.769 -38.507   5.767  1.00  0.00     0.138 A 
ATOM     26  C   UNL     1      38.276 -38.604   4.456  1.00  0.00     0.100 A 
ATOM     27  O   UNL     1      36.483 -38.614   3.048  1.00  0.00    -0.289 OA
BRANCH  18  28
ATOM     28  O   UNL     1      32.403 -38.299   6.236  1.00  0.00    -0.502 OA
ATOM     29  H   UNL     1      31.780 -38.146   7.022  1.00  0.00     0.293 HD
ENDBRANCH  18  28
BRANCH  20  30
ATOM     30  O   UNL     1      33.929 -38.869   4.035  1.00  0.00    -0.504 OA
ATOM     31  H   UNL     1      33.896 -38.258   3.241  1.00  0.00     0.293 HD
ENDBRANCH  20  30
BRANCH  25  32
ATOM     32  C   UNL     1      40.226 -38.516   6.069  1.00  0.00     0.017 A 
ATOM     33  C   UNL     1      41.141 -38.859   5.053  1.00  0.00     0.012 A 
ATOM     34  C   UNL     1      40.725 -38.150   7.342  1.00  0.00     0.012 A 
ATOM     35  C   UNL     1      42.518 -38.853   5.303  1.00  0.00     0.001 A 
ATOM     36  C   UNL     1      42.102 -38.152   7.589  1.00  0.00     0.001 A 
ATOM     37  C   UNL     1      42.998 -38.499   6.571  1.00  0.00     0.000 A 
ENDBRANCH  25  32
ENDBRANCH   1  17
TORSDOF 9
ENDMDL
MODEL 9
REMARK VINA RESULT:    -5.638      8.329     12.691
REMARK INTER + INTRA:          -8.804
REMARK INTER:                  -7.532
REMARK INTRA:                  -1.272
REMARK UNBOUND:                -1.024
REMARK SMILES O=C([O-])[C@@H]1O[C@H](Oc2cc3oc(-c4ccccc4)cc(=O)c3c(O)c2O)[C@@H](O)[C@@H](O)[C@@H]1O
REMARK SMILES IDX 7 1 6 2 4 3 31 4 5 5 29 6 27 7 2 8 1 9 3 10 32 11 30 13
REMARK SMILES IDX 28 15 8 17 25 18 9 19 23 20 10 21 22 22 11 23 20 24 12 25
REMARK SMILES IDX 19 26 21 27 26 28 24 30 13 32 14 33 18 34 15 35 17 36 16 37
REMARK H PARENT 32 12 30 14 28 16 26 29 24 31
REMARK Flexibility Score: inf
ROOT
ATOM      1  O   UNL     1      34.251 -38.622  11.035  1.00  0.00    -0.458 OA
ENDROOT
BRANCH   1   2
ATOM      2  C   UNL     1      33.904 -38.088  12.317  1.00  0.00     0.339 C 
ATOM      3  C   UNL     1      32.943 -40.094  13.181  1.00  0.00     0.199 C 
ATOM      4  C   UNL     1      34.151 -40.323  14.131  1.00  0.00     0.180 C 
ATOM      5  O   UNL     1      32.749 -38.720  12.862  1.00  0.00    -0.328 OA
ATOM      6  C   UNL     1      35.419 -39.639  13.599  1.00  0.00     0.181 C 
ATOM      7  C   UNL     1      35.113 -38.171  13.263  1.00  0.00     0.214 C 
BRANCH   3   8
ATOM      8  C   UNL     1      32.912 -40.961  11.943  1.00  0.00     0.073 C 
ATOM      9  O   UNL     1      31.903 -41.002  11.189  1.00  0.00    -0.547 OA
ATOM     10  O   UNL     1      34.009 -41.762  11.647  1.00  0.00    -0.547 OA
ENDBRANCH   3   8
BRANCH   4  11
ATOM     11  O   UNL     1      34.393 -41.693  14.319  1.00  0.00    -0.387 OA
ATOM     12  H   UNL     1      34.783 -42.032  13.470  1.00  0.00     0.211 HD
ENDBRANCH   4  11
BRANCH   6  13
ATOM     13  O   UNL     1      36.436 -39.719  14.565  1.00  0.00    -0.387 OA
ATOM     14  H   UNL     1      36.782 -40.652  14.539  1.00  0.00     0.211 HD
ENDBRANCH   6  13
BRANCH   7  15
ATOM     15  O   UNL     1      34.832 -37.444  14.434  1.00  0.00    -0.384 OA
ATOM     16  H   UNL     1      35.657 -36.947  14.666  1.00  0.00     0.211 HD
ENDBRANCH   7  15
ENDBRANCH   1   2
BRANCH   1  17
ATOM     17  C   UNL     1      33.726 -38.251   9.782  1.00  0.00     0.172 A 
ATOM     18  C   UNL     1      32.362 -37.961   9.537  1.00  0.00     0.201 A 
ATOM     19  C   UNL     1      34.636 -38.181   8.728  1.00  0.00     0.098 A 
ATOM     20  C   UNL     1      31.934 -37.606   8.240  1.00  0.00     0.176 A 
ATOM     21  C   UNL     1      34.239 -37.780   7.454  1.00  0.00     0.146 A 
ATOM     22  C   UNL     1      32.887 -37.453   7.193  1.00  0.00     0.111 A 
ATOM     23  O   UNL     1      35.159 -37.699   6.498  1.00  0.00    -0.456 OA
ATOM     24  C   UNL     1      32.589 -36.949   5.905  1.00  0.00     0.197 A 
ATOM     25  C   UNL     1      34.895 -37.291   5.259  1.00  0.00     0.138 A 
ATOM     26  C   UNL     1      33.590 -36.886   4.936  1.00  0.00     0.100 A 
ATOM     27  O   UNL     1      31.446 -36.513   5.612  1.00  0.00    -0.289 OA
BRANCH  18  28
ATOM     28  O   UNL     1      31.427 -38.042  10.569  1.00  0.00    -0.502 OA
ATOM     29  H   UNL     1      31.205 -37.257  11.172  1.00  0.00     0.293 HD
ENDBRANCH  18  28
BRANCH  20  30
ATOM     30  O   UNL     1      30.560 -37.453   8.039  1.00  0.00    -0.504 OA
ATOM     31  H   UNL     1      30.036 -36.645   8.318  1.00  0.00     0.293 HD
ENDBRANCH  20  30
BRANCH  25  32
ATOM     32  C   UNL     1      36.005 -37.256   4.269  1.00  0.00     0.017 A 
ATOM     33  C   UNL     1      37.110 -38.117   4.437  1.00  0.00     0.012 A 
ATOM     34  C   UNL     1      35.967 -36.409   3.136  1.00  0.00     0.012 A 
ATOM     35  C   UNL     1      38.157 -38.121   3.509  1.00  0.00     0.001 A 
ATOM     36  C   UNL     1      37.019 -36.414   2.214  1.00  0.00     0.001 A 
ATOM     37  C   UNL     1      38.111 -37.270   2.397  1.00  0.00     0.000 A 
ENDBRANCH  25  32
ENDBRANCH   1  17
TORSDOF 9
ENDMDL
