MODEL 1
REMARK VINA RESULT:    -0.860      0.000      0.000
REMARK INTER + INTRA:          -1.729
REMARK INTER:                  -1.061
REMARK INTRA:                  -0.668
REMARK UNBOUND:                -0.668
REMARK SMILES CC(C)=CCC[C@H](C)c1ccc(C)cc1
REMARK SMILES IDX 6 1 7 2 8 3 9 4 13 5 12 6 11 7 14 8 10 9 15 10 5 11 4 12
REMARK SMILES IDX 2 13 1 14 3 15
REMARK H PARENT
REMARK Flexibility Score: inf
ROOT
ATOM      1  C   UNL     1      53.250   3.635 138.665  1.00  0.00     0.012 C 
ENDROOT
BRANCH   1   2
ATOM      2  C   UNL     1      53.725   4.304 137.353  1.00  0.00     0.016 C 
ATOM      3  C   UNL     1      55.251   4.239 137.179  1.00  0.00     0.013 C 
BRANCH   2   4
ATOM      4  C   UNL     1      53.248   5.745 137.296  1.00  0.00    -0.045 A 
ATOM      5  C   UNL     1      51.875   9.836 137.104  1.00  0.00     0.044 C 
ATOM      6  C   UNL     1      52.324   8.408 137.182  1.00  0.00    -0.051 A 
ATOM      7  C   UNL     1      52.963   7.929 138.335  1.00  0.00     0.004 A 
ATOM      8  C   UNL     1      52.169   7.556 136.079  1.00  0.00     0.004 A 
ATOM      9  C   UNL     1      53.413   6.608 138.396  1.00  0.00     0.004 A 
ATOM     10  C   UNL     1      52.619   6.235 136.137  1.00  0.00     0.004 A 
ENDBRANCH   2   4
ENDBRANCH   1   2
BRANCH   1  11
ATOM     11  C   UNL     1      51.876   2.948 138.564  1.00  0.00     0.028 C 
BRANCH  11  12
ATOM     12  C   UNL     1      51.921   1.692 137.726  1.00  0.00    -0.028 C 
ATOM     13  C   UNL     1      51.910   0.436 138.223  1.00  0.00    -0.080 C 
ATOM     14  C   UNL     1      51.913   0.160 139.709  1.00  0.00     0.039 C 
ATOM     15  C   UNL     1      51.920  -0.719 137.255  1.00  0.00     0.039 C 
ENDBRANCH  11  12
ENDBRANCH   1  11
TORSDOF 4
ENDMDL
MODEL 2
REMARK VINA RESULT:    -0.318      1.147      6.601
REMARK INTER + INTRA:          -1.061
REMARK INTER:                  -1.305
REMARK INTRA:                   0.244
REMARK UNBOUND:                -0.668
REMARK SMILES CC(C)=CCC[C@H](C)c1ccc(C)cc1
REMARK SMILES IDX 6 1 7 2 8 3 9 4 13 5 12 6 11 7 14 8 10 9 15 10 5 11 4 12
REMARK SMILES IDX 2 13 1 14 3 15
REMARK H PARENT
REMARK Flexibility Score: inf
ROOT
ATOM      1  C   UNL     1      54.180   4.830 137.394  1.00  0.00     0.012 C 
ENDROOT
BRANCH   1   2
ATOM      2  C   UNL     1      52.668   4.499 137.437  1.00  0.00     0.016 C 
ATOM      3  C   UNL     1      51.894   5.412 138.402  1.00  0.00     0.013 C 
BRANCH   2   4
ATOM      4  C   UNL     1      52.461   3.041 137.807  1.00  0.00    -0.045 A 
ATOM      5  C   UNL     1      51.875  -1.098 138.894  1.00  0.00     0.044 C 
ATOM      6  C   UNL     1      52.048   0.344 138.522  1.00  0.00    -0.051 A 
ATOM      7  C   UNL     1      51.898   0.753 137.189  1.00  0.00     0.004 A 
ATOM      8  C   UNL     1      52.427   1.283 139.491  1.00  0.00     0.004 A 
ATOM      9  C   UNL     1      52.094   2.091 136.835  1.00  0.00     0.004 A 
ATOM     10  C   UNL     1      52.624   2.621 139.139  1.00  0.00     0.004 A 
ENDBRANCH   2   4
ENDBRANCH   1   2
BRANCH   1  11
ATOM     11  C   UNL     1      54.518   6.157 136.693  1.00  0.00     0.028 C 
BRANCH  11  12
ATOM     12  C   UNL     1      53.690   7.309 137.211  1.00  0.00    -0.028 C 
ATOM     13  C   UNL     1      52.687   7.903 136.527  1.00  0.00    -0.080 C 
ATOM     14  C   UNL     1      52.328   7.500 135.116  1.00  0.00     0.039 C 
ATOM     15  C   UNL     1      51.925   9.018 137.196  1.00  0.00     0.039 C 
ENDBRANCH  11  12
ENDBRANCH   1  11
TORSDOF 4
ENDMDL
MODEL 3
REMARK VINA RESULT:     0.718     10.705     12.991
REMARK INTER + INTRA:           0.217
REMARK INTER:                   0.770
REMARK INTRA:                  -0.553
REMARK UNBOUND:                -0.668
REMARK SMILES CC(C)=CCC[C@H](C)c1ccc(C)cc1
REMARK SMILES IDX 6 1 7 2 8 3 9 4 13 5 12 6 11 7 14 8 10 9 15 10 5 11 4 12
REMARK SMILES IDX 2 13 1 14 3 15
REMARK H PARENT
REMARK Flexibility Score: inf
ROOT
ATOM      1  C   UNL     1      52.033   5.117 127.488  1.00  0.00     0.012 C 
ENDROOT
BRANCH   1   2
ATOM      2  C   UNL     1      51.916   4.321 126.165  1.00  0.00     0.016 C 
ATOM      3  C   UNL     1      52.459   2.889 126.291  1.00  0.00     0.013 C 
BRANCH   2   4
ATOM      4  C   UNL     1      52.628   5.060 125.046  1.00  0.00    -0.045 A 
ATOM      5  C   UNL     1      54.684   7.154 121.875  1.00  0.00     0.044 C 
ATOM      6  C   UNL     1      53.974   6.400 122.960  1.00  0.00    -0.051 A 
ATOM      7  C   UNL     1      52.584   6.222 122.905  1.00  0.00     0.004 A 
ATOM      8  C   UNL     1      54.685   5.925 124.072  1.00  0.00     0.004 A 
ATOM      9  C   UNL     1      51.917   5.551 123.934  1.00  0.00     0.004 A 
ATOM     10  C   UNL     1      54.020   5.254 125.101  1.00  0.00     0.004 A 
ENDBRANCH   2   4
ENDBRANCH   1   2
BRANCH   1  11
ATOM     11  C   UNL     1      51.881   6.640 127.326  1.00  0.00     0.028 C 
BRANCH  11  12
ATOM     12  C   UNL     1      53.141   7.387 127.695  1.00  0.00    -0.028 C 
ATOM     13  C   UNL     1      53.178   8.501 128.459  1.00  0.00    -0.080 C 
ATOM     14  C   UNL     1      51.923   9.158 128.983  1.00  0.00     0.039 C 
ATOM     15  C   UNL     1      54.520   9.110 128.773  1.00  0.00     0.039 C 
ENDBRANCH  11  12
ENDBRANCH   1  11
TORSDOF 4
ENDMDL
MODEL 4
REMARK VINA RESULT:     1.370      1.212      2.216
REMARK INTER + INTRA:           1.022
REMARK INTER:                   0.313
REMARK INTRA:                   0.709
REMARK UNBOUND:                -0.668
REMARK SMILES CC(C)=CCC[C@H](C)c1ccc(C)cc1
REMARK SMILES IDX 6 1 7 2 8 3 9 4 13 5 12 6 11 7 14 8 10 9 15 10 5 11 4 12
REMARK SMILES IDX 2 13 1 14 3 15
REMARK H PARENT
REMARK Flexibility Score: inf
ROOT
ATOM      1  C   UNL     1      53.241   3.958 136.542  1.00  0.00     0.012 C 
ENDROOT
BRANCH   1   2
ATOM      2  C   UNL     1      52.584   5.018 135.625  1.00  0.00     0.016 C 
ATOM      3  C   UNL     1      53.331   5.185 134.292  1.00  0.00     0.013 C 
BRANCH   2   4
ATOM      4  C   UNL     1      52.490   6.350 136.348  1.00  0.00    -0.045 A 
ATOM      5  C   UNL     1      52.237  10.125 138.434  1.00  0.00     0.044 C 
ATOM      6  C   UNL     1      52.354   8.822 137.701  1.00  0.00    -0.051 A 
ATOM      7  C   UNL     1      51.947   8.725 136.362  1.00  0.00     0.004 A 
ATOM      8  C   UNL     1      52.808   7.675 138.366  1.00  0.00     0.004 A 
ATOM      9  C   UNL     1      52.022   7.503 135.689  1.00  0.00     0.004 A 
ATOM     10  C   UNL     1      52.884   6.452 137.695  1.00  0.00     0.004 A 
ENDBRANCH   2   4
ENDBRANCH   1   2
BRANCH   1  11
ATOM     11  C   UNL     1      52.743   3.986 137.999  1.00  0.00     0.028 C 
BRANCH  11  12
ATOM     12  C   UNL     1      52.123   2.674 138.420  1.00  0.00    -0.028 C 
ATOM     13  C   UNL     1      52.638   1.846 139.356  1.00  0.00    -0.080 C 
ATOM     14  C   UNL     1      53.951   2.132 140.046  1.00  0.00     0.039 C 
ATOM     15  C   UNL     1      51.880   0.589 139.695  1.00  0.00     0.039 C 
ENDBRANCH  11  12
ENDBRANCH   1  11
TORSDOF 4
ENDMDL
MODEL 5
REMARK VINA RESULT:     1.659     20.234     22.393
REMARK INTER + INTRA:           1.379
REMARK INTER:                   1.511
REMARK INTRA:                  -0.132
REMARK UNBOUND:                -0.668
REMARK SMILES CC(C)=CCC[C@H](C)c1ccc(C)cc1
REMARK SMILES IDX 6 1 7 2 8 3 9 4 13 5 12 6 11 7 14 8 10 9 15 10 5 11 4 12
REMARK SMILES IDX 2 13 1 14 3 15
REMARK H PARENT
REMARK Flexibility Score: inf
ROOT
ATOM      1  C   UNL     1      71.283   2.123 124.544  1.00  0.00     0.012 C 
ENDROOT
BRANCH   1   2
ATOM      2  C   UNL     1      71.302   3.611 124.117  1.00  0.00     0.016 C 
ATOM      3  C   UNL     1      72.117   4.489 125.081  1.00  0.00     0.013 C 
BRANCH   2   4
ATOM      4  C   UNL     1      69.883   4.139 123.994  1.00  0.00    -0.045 A 
ATOM      5  C   UNL     1      65.860   5.672 123.646  1.00  0.00     0.044 C 
ATOM      6  C   UNL     1      67.260   5.143 123.736  1.00  0.00    -0.051 A 
ATOM      7  C   UNL     1      67.506   3.768 123.613  1.00  0.00     0.004 A 
ATOM      8  C   UNL     1      68.326   6.011 124.010  1.00  0.00     0.004 A 
ATOM      9  C   UNL     1      68.806   3.270 123.732  1.00  0.00     0.004 A 
ATOM     10  C   UNL     1      69.627   5.515 124.130  1.00  0.00     0.004 A 
ENDBRANCH   2   4
ENDBRANCH   1   2
BRANCH   1  11
ATOM     11  C   UNL     1      71.046   1.136 123.386  1.00  0.00     0.028 C 
BRANCH  11  12
ATOM     12  C   UNL     1      71.700  -0.204 123.630  1.00  0.00    -0.028 C 
ATOM     13  C   UNL     1      71.351  -1.353 123.009  1.00  0.00    -0.080 C 
ATOM     14  C   UNL     1      70.202  -1.420 122.030  1.00  0.00     0.039 C 
ATOM     15  C   UNL     1      72.125  -2.605 123.331  1.00  0.00     0.039 C 
ENDBRANCH  11  12
ENDBRANCH   1  11
TORSDOF 4
ENDMDL
MODEL 6
REMARK VINA RESULT:     1.712     19.970     22.733
REMARK INTER + INTRA:           1.444
REMARK INTER:                   2.231
REMARK INTRA:                  -0.787
REMARK UNBOUND:                -0.668
REMARK SMILES CC(C)=CCC[C@H](C)c1ccc(C)cc1
REMARK SMILES IDX 6 1 7 2 8 3 9 4 13 5 12 6 11 7 14 8 10 9 15 10 5 11 4 12
REMARK SMILES IDX 2 13 1 14 3 15
REMARK H PARENT
REMARK Flexibility Score: inf
ROOT
ATOM      1  C   UNL     1      70.798   5.520 123.481  1.00  0.00     0.012 C 
ENDROOT
BRANCH   1   2
ATOM      2  C   UNL     1      70.843   4.474 124.621  1.00  0.00     0.016 C 
ATOM      3  C   UNL     1      72.125   4.576 125.463  1.00  0.00     0.013 C 
BRANCH   2   4
ATOM      4  C   UNL     1      70.694   3.073 124.053  1.00  0.00    -0.045 A 
ATOM      5  C   UNL     1      70.298  -0.921 122.458  1.00  0.00     0.044 C 
ATOM      6  C   UNL     1      70.418   0.457 123.036  1.00  0.00    -0.051 A 
ATOM      7  C   UNL     1      69.483   1.447 122.703  1.00  0.00     0.004 A 
ATOM      8  C   UNL     1      71.503   0.785 123.861  1.00  0.00     0.004 A 
ATOM      9  C   UNL     1      69.614   2.742 123.213  1.00  0.00     0.004 A 
ATOM     10  C   UNL     1      71.636   2.079 124.372  1.00  0.00     0.004 A 
ENDBRANCH   2   4
ENDBRANCH   1   2
BRANCH   1  11
ATOM     11  C   UNL     1      69.525   6.385 123.465  1.00  0.00     0.028 C 
BRANCH  11  12
ATOM     12  C   UNL     1      68.397   5.762 124.252  1.00  0.00    -0.028 C 
ATOM     13  C   UNL     1      67.134   5.610 123.795  1.00  0.00    -0.080 C 
ATOM     14  C   UNL     1      66.704   6.116 122.438  1.00  0.00     0.039 C 
ATOM     15  C   UNL     1      66.126   4.932 124.688  1.00  0.00     0.039 C 
ENDBRANCH  11  12
ENDBRANCH   1  11
TORSDOF 4
ENDMDL
MODEL 7
REMARK VINA RESULT:     1.813     20.516     22.633
REMARK INTER + INTRA:           1.569
REMARK INTER:                   2.136
REMARK INTRA:                  -0.568
REMARK UNBOUND:                -0.668
REMARK SMILES CC(C)=CCC[C@H](C)c1ccc(C)cc1
REMARK SMILES IDX 6 1 7 2 8 3 9 4 13 5 12 6 11 7 14 8 10 9 15 10 5 11 4 12
REMARK SMILES IDX 2 13 1 14 3 15
REMARK H PARENT
REMARK Flexibility Score: inf
ROOT
ATOM      1  C   UNL     1      70.697   0.228 123.098  1.00  0.00     0.012 C 
ENDROOT
BRANCH   1   2
ATOM      2  C   UNL     1      71.190   1.661 123.416  1.00  0.00     0.016 C 
ATOM      3  C   UNL     1      72.068   1.714 124.676  1.00  0.00     0.013 C 
BRANCH   2   4
ATOM      4  C   UNL     1      70.007   2.602 123.556  1.00  0.00    -0.045 A 
ATOM      5  C   UNL     1      66.664   5.307 123.964  1.00  0.00     0.044 C 
ATOM      6  C   UNL     1      67.828   4.378 123.793  1.00  0.00    -0.051 A 
ATOM      7  C   UNL     1      67.624   3.063 123.349  1.00  0.00     0.004 A 
ATOM      8  C   UNL     1      69.121   4.794 124.139  1.00  0.00     0.004 A 
ATOM      9  C   UNL     1      68.704   2.185 123.223  1.00  0.00     0.004 A 
ATOM     10  C   UNL     1      70.202   3.918 124.015  1.00  0.00     0.004 A 
ENDBRANCH   2   4
ENDBRANCH   1   2
BRANCH   1  11
ATOM     11  C   UNL     1      71.812  -0.833 123.072  1.00  0.00     0.028 C 
BRANCH  11  12
ATOM     12  C   UNL     1      71.268  -2.241 123.140  1.00  0.00    -0.028 C 
ATOM     13  C   UNL     1      71.374  -3.055 124.213  1.00  0.00    -0.080 C 
ATOM     14  C   UNL     1      72.118  -2.645 125.462  1.00  0.00     0.039 C 
ATOM     15  C   UNL     1      70.744  -4.422 124.140  1.00  0.00     0.039 C 
ENDBRANCH  11  12
ENDBRANCH   1  11
TORSDOF 4
ENDMDL
