MODEL 1
REMARK VINA RESULT:    -3.358      0.000      0.000
REMARK INTER + INTRA:          -4.038
REMARK INTER:                  -3.947
REMARK INTRA:                  -0.091
REMARK UNBOUND:                -0.091
REMARK SMILES O=C([O-])CCC(=O)[O-]
REMARK SMILES IDX 4 1 2 2 1 3 3 4 5 5 6 6 7 7 8 8
REMARK H PARENT
REMARK Flexibility Score: inf
ROOT
ATOM      1  C   UNL     1     121.110 127.649 107.024  1.00  0.00     0.059 C 
ENDROOT
BRANCH   1   2
ATOM      2  C   UNL     1     120.075 127.109 107.964  1.00  0.00     0.042 C 
ATOM      3  O   UNL     1     119.597 125.957 107.785  1.00  0.00    -0.550 OA
ATOM      4  O   UNL     1     119.670 127.859 109.060  1.00  0.00    -0.550 OA
ENDBRANCH   1   2
BRANCH   1   5
ATOM      5  C   UNL     1     122.158 126.590 106.668  1.00  0.00     0.059 C 
BRANCH   5   6
ATOM      6  C   UNL     1     123.373 126.704 107.536  1.00  0.00     0.042 C 
ATOM      7  O   UNL     1     124.462 127.114 107.054  1.00  0.00    -0.550 OA
ATOM      8  O   UNL     1     123.314 126.318 108.870  1.00  0.00    -0.550 OA
ENDBRANCH   5   6
ENDBRANCH   1   5
TORSDOF 3
ENDMDL
MODEL 2
REMARK VINA RESULT:    -3.357     12.143     12.892
REMARK INTER + INTRA:          -4.037
REMARK INTER:                  -3.951
REMARK INTRA:                  -0.086
REMARK UNBOUND:                -0.091
REMARK SMILES O=C([O-])CCC(=O)[O-]
REMARK SMILES IDX 4 1 2 2 1 3 3 4 5 5 6 6 7 7 8 8
REMARK H PARENT
REMARK Flexibility Score: inf
ROOT
ATOM      1  C   UNL     1     124.531 114.440 106.531  1.00  0.00     0.059 C 
ENDROOT
BRANCH   1   2
ATOM      2  C   UNL     1     123.985 113.358 107.414  1.00  0.00     0.042 C 
ATOM      3  O   UNL     1     123.680 113.610 108.609  1.00  0.00    -0.550 OA
ATOM      4  O   UNL     1     123.772 112.085 106.903  1.00  0.00    -0.550 OA
ENDBRANCH   1   2
BRANCH   1   5
ATOM      5  C   UNL     1     125.976 114.792 106.898  1.00  0.00     0.059 C 
BRANCH   5   6
ATOM      6  C   UNL     1     126.041 115.994 107.791  1.00  0.00     0.042 C 
ATOM      7  O   UNL     1     126.771 115.984 108.817  1.00  0.00    -0.550 OA
ATOM      8  O   UNL     1     125.262 117.110 107.512  1.00  0.00    -0.550 OA
ENDBRANCH   5   6
ENDBRANCH   1   5
TORSDOF 3
ENDMDL
MODEL 3
REMARK VINA RESULT:    -3.353      0.085      3.722
REMARK INTER + INTRA:          -4.033
REMARK INTER:                  -3.945
REMARK INTRA:                  -0.088
REMARK UNBOUND:                -0.091
REMARK SMILES O=C([O-])CCC(=O)[O-]
REMARK SMILES IDX 4 1 2 2 1 3 3 4 5 5 6 6 7 7 8 8
REMARK H PARENT
REMARK Flexibility Score: inf
ROOT
ATOM      1  C   UNL     1     122.192 126.562 106.664  1.00  0.00     0.059 C 
ENDROOT
BRANCH   1   2
ATOM      2  C   UNL     1     123.415 126.720 107.515  1.00  0.00     0.042 C 
ATOM      3  O   UNL     1     124.471 127.199 107.024  1.00  0.00    -0.550 OA
ATOM      4  O   UNL     1     123.374 126.381 108.861  1.00  0.00    -0.550 OA
ENDBRANCH   1   2
BRANCH   1   5
ATOM      5  C   UNL     1     121.126 127.607 107.005  1.00  0.00     0.059 C 
BRANCH   5   6
ATOM      6  C   UNL     1     120.073 127.045 107.911  1.00  0.00     0.042 C 
ATOM      7  O   UNL     1     119.583 125.907 107.685  1.00  0.00    -0.550 OA
ATOM      8  O   UNL     1     119.603 127.796 108.981  1.00  0.00    -0.550 OA
ENDBRANCH   5   6
ENDBRANCH   1   5
TORSDOF 3
ENDMDL
MODEL 4
REMARK VINA RESULT:    -3.337     11.805     12.719
REMARK INTER + INTRA:          -4.014
REMARK INTER:                  -3.916
REMARK INTRA:                  -0.098
REMARK UNBOUND:                -0.091
REMARK SMILES O=C([O-])CCC(=O)[O-]
REMARK SMILES IDX 4 1 2 2 1 3 3 4 5 5 6 6 7 7 8 8
REMARK H PARENT
REMARK Flexibility Score: inf
ROOT
ATOM      1  C   UNL     1     126.021 116.242 107.894  1.00  0.00     0.059 C 
ENDROOT
BRANCH   1   2
ATOM      2  C   UNL     1     126.168 115.956 109.357  1.00  0.00     0.042 C 
ATOM      3  O   UNL     1     127.094 116.498 110.018  1.00  0.00    -0.550 OA
ATOM      4  O   UNL     1     125.259 115.126 110.000  1.00  0.00    -0.550 OA
ENDBRANCH   1   2
BRANCH   1   5
ATOM      5  C   UNL     1     126.205 114.976 107.050  1.00  0.00     0.059 C 
BRANCH   5   6
ATOM      6  C   UNL     1     124.891 114.438 106.570  1.00  0.00     0.042 C 
ATOM      7  O   UNL     1     124.507 113.293 106.926  1.00  0.00    -0.550 OA
ATOM      8  O   UNL     1     124.111 115.185 105.697  1.00  0.00    -0.550 OA
ENDBRANCH   5   6
ENDBRANCH   1   5
TORSDOF 3
ENDMDL
MODEL 5
REMARK VINA RESULT:    -3.332     12.129     12.901
REMARK INTER + INTRA:          -4.008
REMARK INTER:                  -3.917
REMARK INTRA:                  -0.091
REMARK UNBOUND:                -0.091
REMARK SMILES O=C([O-])CCC(=O)[O-]
REMARK SMILES IDX 4 1 2 2 1 3 3 4 5 5 6 6 7 7 8 8
REMARK H PARENT
REMARK Flexibility Score: inf
ROOT
ATOM      1  C   UNL     1     112.820 118.491 106.578  1.00  0.00     0.059 C 
ENDROOT
BRANCH   1   2
ATOM      2  C   UNL     1     112.120 119.465 107.476  1.00  0.00     0.042 C 
ATOM      3  O   UNL     1     112.493 119.606 108.671  1.00  0.00    -0.550 OA
ATOM      4  O   UNL     1     111.086 120.249 106.982  1.00  0.00    -0.550 OA
ENDBRANCH   1   2
BRANCH   1   5
ATOM      5  C   UNL     1     112.402 117.047 106.876  1.00  0.00     0.059 C 
BRANCH   5   6
ATOM      6  C   UNL     1     113.400 116.355 107.753  1.00  0.00     0.042 C 
ATOM      7  O   UNL     1     113.012 115.653 108.725  1.00  0.00    -0.550 OA
ATOM      8  O   UNL     1     114.760 116.517 107.522  1.00  0.00    -0.550 OA
ENDBRANCH   5   6
ENDBRANCH   1   5
TORSDOF 3
ENDMDL
MODEL 6
REMARK VINA RESULT:    -3.331     12.528     13.495
REMARK INTER + INTRA:          -4.007
REMARK INTER:                  -3.914
REMARK INTRA:                  -0.093
REMARK UNBOUND:                -0.091
REMARK SMILES O=C([O-])CCC(=O)[O-]
REMARK SMILES IDX 4 1 2 2 1 3 3 4 5 5 6 6 7 7 8 8
REMARK H PARENT
REMARK Flexibility Score: inf
ROOT
ATOM      1  C   UNL     1     113.643 116.230 107.937  1.00  0.00     0.059 C 
ENDROOT
BRANCH   1   2
ATOM      2  C   UNL     1     113.309 116.277 109.397  1.00  0.00     0.042 C 
ATOM      3  O   UNL     1     113.075 117.380 109.958  1.00  0.00    -0.550 OA
ATOM      4  O   UNL     1     113.214 115.100 110.128  1.00  0.00    -0.550 OA
ENDBRANCH   1   2
BRANCH   1   5
ATOM      5  C   UNL     1     112.453 116.657 107.071  1.00  0.00     0.059 C 
BRANCH   5   6
ATOM      6  C   UNL     1     112.606 118.065 106.582  1.00  0.00     0.042 C 
ATOM      7  O   UNL     1     111.784 118.952 106.934  1.00  0.00    -0.550 OA
ATOM      8  O   UNL     1     113.633 118.389 105.705  1.00  0.00    -0.550 OA
ENDBRANCH   5   6
ENDBRANCH   1   5
TORSDOF 3
ENDMDL
MODEL 7
REMARK VINA RESULT:    -3.328     12.103     13.175
REMARK INTER + INTRA:          -4.003
REMARK INTER:                  -3.912
REMARK INTRA:                  -0.091
REMARK UNBOUND:                -0.091
REMARK SMILES O=C([O-])CCC(=O)[O-]
REMARK SMILES IDX 4 1 2 2 1 3 3 4 5 5 6 6 7 7 8 8
REMARK H PARENT
REMARK Flexibility Score: inf
ROOT
ATOM      1  C   UNL     1     112.289 117.079 106.954  1.00  0.00     0.059 C 
ENDROOT
BRANCH   1   2
ATOM      2  C   UNL     1     113.273 116.338 107.807  1.00  0.00     0.042 C 
ATOM      3  O   UNL     1     114.497 116.338 107.508  1.00  0.00    -0.550 OA
ATOM      4  O   UNL     1     112.846 115.684 108.955  1.00  0.00    -0.550 OA
ENDBRANCH   1   2
BRANCH   1   5
ATOM      5  C   UNL     1     112.780 118.492 106.623  1.00  0.00     0.059 C 
BRANCH   5   6
ATOM      6  C   UNL     1     112.115 119.522 107.484  1.00  0.00     0.042 C 
ATOM      7  O   UNL     1     112.470 119.673 108.683  1.00  0.00    -0.550 OA
ATOM      8  O   UNL     1     111.074 120.288 106.974  1.00  0.00    -0.550 OA
ENDBRANCH   5   6
ENDBRANCH   1   5
TORSDOF 3
ENDMDL
MODEL 8
REMARK VINA RESULT:    -3.325     12.220     13.164
REMARK INTER + INTRA:          -4.000
REMARK INTER:                  -3.913
REMARK INTRA:                  -0.087
REMARK UNBOUND:                -0.091
REMARK SMILES O=C([O-])CCC(=O)[O-]
REMARK SMILES IDX 4 1 2 2 1 3 3 4 5 5 6 6 7 7 8 8
REMARK H PARENT
REMARK Flexibility Score: inf
ROOT
ATOM      1  C   UNL     1     125.829 114.697 106.885  1.00  0.00     0.059 C 
ENDROOT
BRANCH   1   2
ATOM      2  C   UNL     1     125.929 115.928 107.734  1.00  0.00     0.042 C 
ATOM      3  O   UNL     1     126.792 115.996 108.650  1.00  0.00    -0.550 OA
ATOM      4  O   UNL     1     125.101 117.014 107.487  1.00  0.00    -0.550 OA
ENDBRANCH   1   2
BRANCH   1   5
ATOM      5  C   UNL     1     124.371 114.344 106.572  1.00  0.00     0.059 C 
BRANCH   5   6
ATOM      6  C   UNL     1     123.868 113.247 107.459  1.00  0.00     0.042 C 
ATOM      7  O   UNL     1     123.582 113.484 108.662  1.00  0.00    -0.550 OA
ATOM      8  O   UNL     1     123.753 111.953 106.968  1.00  0.00    -0.550 OA
ENDBRANCH   5   6
ENDBRANCH   1   5
TORSDOF 3
ENDMDL
MODEL 9
REMARK VINA RESULT:    -3.322     12.476     13.349
REMARK INTER + INTRA:          -3.996
REMARK INTER:                  -3.904
REMARK INTRA:                  -0.092
REMARK UNBOUND:                -0.091
REMARK SMILES O=C([O-])CCC(=O)[O-]
REMARK SMILES IDX 4 1 2 2 1 3 3 4 5 5 6 6 7 7 8 8
REMARK H PARENT
REMARK Flexibility Score: inf
ROOT
ATOM      1  C   UNL     1     112.482 116.719 107.006  1.00  0.00     0.059 C 
ENDROOT
BRANCH   1   2
ATOM      2  C   UNL     1     112.656 118.137 106.554  1.00  0.00     0.042 C 
ATOM      3  O   UNL     1     113.590 118.440 105.765  1.00  0.00    -0.550 OA
ATOM      4  O   UNL     1     111.761 119.115 106.968  1.00  0.00    -0.550 OA
ENDBRANCH   1   2
BRANCH   1   5
ATOM      5  C   UNL     1     113.652 116.258 107.880  1.00  0.00     0.059 C 
BRANCH   5   6
ATOM      6  C   UNL     1     113.300 116.292 109.336  1.00  0.00     0.042 C 
ATOM      7  O   UNL     1     113.107 117.393 109.917  1.00  0.00    -0.550 OA
ATOM      8  O   UNL     1     113.225 115.109 110.061  1.00  0.00    -0.550 OA
ENDBRANCH   5   6
ENDBRANCH   1   5
TORSDOF 3
ENDMDL
