MODEL 1
REMARK VINA RESULT:    -3.073      0.000      0.000
REMARK INTER + INTRA:          -3.163
REMARK INTER:                  -3.163
REMARK INTRA:                   0.000
REMARK UNBOUND:                 0.000
REMARK SMILES C=C1[C@H](O)C[C@]23C[C@H]1C(C)(C)[C@H]2CC[C@H]3C
REMARK SMILES IDX 16 1 15 2 14 3 13 4 12 5 6 6 7 7 8 8 9 9 10 10 11 11 2 12
REMARK SMILES IDX 1 13 3 14 5 15 4 16
REMARK H PARENT 4 17
REMARK Flexibility Score: inf
ROOT
ATOM      1  C   UNL     1      15.703  14.016  27.928  1.00  0.00     0.008 C 
ATOM      2  C   UNL     1      15.414  15.524  28.021  1.00  0.00    -0.008 C 
ATOM      3  C   UNL     1      14.685  15.871  29.324  1.00  0.00     0.004 C 
ATOM      4  C   UNL     1      13.231  16.066  28.945  1.00  0.00     0.005 C 
ATOM      5  C   UNL     1      13.275  16.699  27.548  1.00  0.00     0.002 C 
ATOM      6  C   UNL     1      14.532  16.113  26.871  1.00  0.00    -0.020 C 
ATOM      7  C   UNL     1      13.966  15.121  25.845  1.00  0.00     0.016 C 
ATOM      8  C   UNL     1      12.778  15.893  25.292  1.00  0.00     0.023 C 
ATOM      9  C   UNL     1      12.073  16.434  26.573  1.00  0.00    -0.025 C 
ATOM     10  C   UNL     1      11.268  17.736  26.326  1.00  0.00     0.012 C 
ATOM     11  C   UNL     1      11.056  15.375  27.076  1.00  0.00     0.012 C 
ATOM     12  C   UNL     1      13.329  17.014  24.416  1.00  0.00    -0.045 C 
ATOM     13  C   UNL     1      12.676  17.367  23.297  1.00  0.00     0.011 C 
ATOM     14  C   UNL     1      14.522  17.842  24.899  1.00  0.00     0.140 C 
ATOM     15  C   UNL     1      15.314  17.203  26.080  1.00  0.00     0.044 C 
ENDROOT
BRANCH  14  16
ATOM     16  O   UNL     1      15.399  18.122  23.835  1.00  0.00    -0.389 OA
ATOM     17  H   UNL     1      15.764  17.254  23.515  1.00  0.00     0.211 HD
ENDBRANCH  14  16
TORSDOF 1
ENDMDL
MODEL 2
REMARK VINA RESULT:    -0.323      1.846      4.093
REMARK INTER + INTRA:          -0.333
REMARK INTER:                  -0.333
REMARK INTRA:                   0.000
REMARK UNBOUND:                 0.000
REMARK SMILES C=C1[C@H](O)C[C@]23C[C@H]1C(C)(C)[C@H]2CC[C@H]3C
REMARK SMILES IDX 16 1 15 2 14 3 13 4 12 5 6 6 7 7 8 8 9 9 10 10 11 11 2 12
REMARK SMILES IDX 1 13 3 14 5 15 4 16
REMARK H PARENT 4 17
REMARK Flexibility Score: inf
ROOT
ATOM      1  C   UNL     1      15.270  18.125  24.387  1.00  0.00     0.008 C 
ATOM      2  C   UNL     1      14.571  16.763  24.537  1.00  0.00    -0.008 C 
ATOM      3  C   UNL     1      13.347  16.663  23.618  1.00  0.00     0.004 C 
ATOM      4  C   UNL     1      12.142  16.880  24.511  1.00  0.00     0.005 C 
ATOM      5  C   UNL     1      12.527  16.233  25.848  1.00  0.00     0.002 C 
ATOM      6  C   UNL     1      14.053  16.425  25.974  1.00  0.00    -0.020 C 
ATOM      7  C   UNL     1      14.198  17.517  27.044  1.00  0.00     0.016 C 
ATOM      8  C   UNL     1      13.137  17.102  28.052  1.00  0.00     0.023 C 
ATOM      9  C   UNL     1      11.891  16.809  27.164  1.00  0.00    -0.025 C 
ATOM     10  C   UNL     1      10.914  15.784  27.796  1.00  0.00     0.012 C 
ATOM     11  C   UNL     1      11.088  18.123  26.970  1.00  0.00     0.012 C 
ATOM     12  C   UNL     1      13.648  15.855  28.766  1.00  0.00    -0.045 C 
ATOM     13  C   UNL     1      13.386  15.679  30.071  1.00  0.00     0.011 C 
ATOM     14  C   UNL     1      14.306  14.731  27.960  1.00  0.00     0.140 C 
ATOM     15  C   UNL     1      14.746  15.143  26.522  1.00  0.00     0.044 C 
ENDROOT
BRANCH  14  16
ATOM     16  O   UNL     1      15.404  14.193  28.657  1.00  0.00    -0.389 OA
ATOM     17  H   UNL     1      15.953  13.688  28.001  1.00  0.00     0.211 HD
ENDBRANCH  14  16
TORSDOF 1
ENDMDL
MODEL 3
REMARK VINA RESULT:    -0.145      2.131      4.689
REMARK INTER + INTRA:          -0.149
REMARK INTER:                  -0.149
REMARK INTRA:                   0.000
REMARK UNBOUND:                 0.000
REMARK SMILES C=C1[C@H](O)C[C@]23C[C@H]1C(C)(C)[C@H]2CC[C@H]3C
REMARK SMILES IDX 16 1 15 2 14 3 13 4 12 5 6 6 7 7 8 8 9 9 10 10 11 11 2 12
REMARK SMILES IDX 1 13 3 14 5 15 4 16
REMARK H PARENT 4 17
REMARK Flexibility Score: inf
ROOT
ATOM      1  C   UNL     1      10.621  16.999  25.002  1.00  0.00     0.008 C 
ATOM      2  C   UNL     1      11.812  17.732  25.642  1.00  0.00    -0.008 C 
ATOM      3  C   UNL     1      12.854  18.125  24.589  1.00  0.00     0.004 C 
ATOM      4  C   UNL     1      13.976  17.115  24.722  1.00  0.00     0.005 C 
ATOM      5  C   UNL     1      14.044  16.803  26.223  1.00  0.00     0.002 C 
ATOM      6  C   UNL     1      12.593  16.928  26.733  1.00  0.00    -0.020 C 
ATOM      7  C   UNL     1      12.162  15.472  26.971  1.00  0.00     0.016 C 
ATOM      8  C   UNL     1      13.415  14.879  27.597  1.00  0.00     0.023 C 
ATOM      9  C   UNL     1      14.558  15.388  26.666  1.00  0.00    -0.025 C 
ATOM     10  C   UNL     1      15.928  15.500  27.383  1.00  0.00     0.012 C 
ATOM     11  C   UNL     1      14.750  14.378  25.503  1.00  0.00     0.012 C 
ATOM     12  C   UNL     1      13.527  15.437  29.011  1.00  0.00    -0.045 C 
ATOM     13  C   UNL     1      13.995  14.658  30.001  1.00  0.00     0.011 C 
ATOM     14  C   UNL     1      13.270  16.925  29.267  1.00  0.00     0.140 C 
ATOM     15  C   UNL     1      12.533  17.659  28.107  1.00  0.00     0.044 C 
ENDROOT
BRANCH  14  16
ATOM     16  O   UNL     1      12.567  17.111  30.471  1.00  0.00    -0.389 OA
ATOM     17  H   UNL     1      11.600  16.995  30.271  1.00  0.00     0.211 HD
ENDBRANCH  14  16
TORSDOF 1
ENDMDL
