MODEL 1
REMARK VINA RESULT:    -4.129      0.000      0.000
REMARK INTER + INTRA:          -5.557
REMARK INTER:                  -5.336
REMARK INTRA:                  -0.221
REMARK UNBOUND:                -0.221
REMARK SMILES CCCCCCC(=O)[O-]
REMARK SMILES IDX 5 1 6 2 7 3 8 4 9 5 4 6 3 7 2 8 1 9
REMARK H PARENT
REMARK Flexibility Score: inf
ROOT
ATOM      1  C   UNL     1       3.397 -20.497   8.543  1.00  0.00     0.006 C 
ENDROOT
BRANCH   1   2
ATOM      2  C   UNL     1       4.125 -20.948   7.275  1.00  0.00     0.053 C 
BRANCH   2   3
ATOM      3  C   UNL     1       3.202 -20.912   6.098  1.00  0.00     0.041 C 
ATOM      4  O   UNL     1       3.644 -21.127   4.940  1.00  0.00    -0.550 OA
ATOM      5  O   UNL     1       1.862 -20.590   6.277  1.00  0.00    -0.550 OA
ENDBRANCH   2   3
ENDBRANCH   1   2
BRANCH   1   6
ATOM      6  C   UNL     1       3.322 -21.633   9.570  1.00  0.00     0.000 C 
BRANCH   6   7
ATOM      7  C   UNL     1       1.895 -22.184   9.679  1.00  0.00    -0.000 C 
BRANCH   7   8
ATOM      8  C   UNL     1       1.668 -23.320   8.675  1.00  0.00    -0.003 C 
ATOM      9  C   UNL     1       2.983 -23.999   8.304  1.00  0.00     0.004 C 
ENDBRANCH   7   8
ENDBRANCH   6   7
ENDBRANCH   1   6
TORSDOF 5
ENDMDL
MODEL 2
REMARK VINA RESULT:    -4.051      2.199      3.428
REMARK INTER + INTRA:          -5.456
REMARK INTER:                  -5.324
REMARK INTRA:                  -0.133
REMARK UNBOUND:                -0.221
REMARK SMILES CCCCCCC(=O)[O-]
REMARK SMILES IDX 5 1 6 2 7 3 8 4 9 5 4 6 3 7 2 8 1 9
REMARK H PARENT
REMARK Flexibility Score: inf
ROOT
ATOM      1  C   UNL     1       3.191 -21.890   9.674  1.00  0.00     0.006 C 
ENDROOT
BRANCH   1   2
ATOM      2  C   UNL     1       4.080 -23.017   9.141  1.00  0.00     0.053 C 
BRANCH   2   3
ATOM      3  C   UNL     1       3.262 -24.021   8.393  1.00  0.00     0.041 C 
ATOM      4  O   UNL     1       3.814 -25.026   7.872  1.00  0.00    -0.550 OA
ATOM      5  O   UNL     1       1.897 -23.823   8.230  1.00  0.00    -0.550 OA
ENDBRANCH   2   3
ENDBRANCH   1   2
BRANCH   1   6
ATOM      6  C   UNL     1       3.302 -20.638   8.796  1.00  0.00     0.000 C 
BRANCH   6   7
ATOM      7  C   UNL     1       4.125 -20.922   7.533  1.00  0.00    -0.000 C 
BRANCH   7   8
ATOM      8  C   UNL     1       3.220 -21.025   6.300  1.00  0.00    -0.003 C 
ATOM      9  C   UNL     1       1.786 -20.620   6.633  1.00  0.00     0.004 C 
ENDBRANCH   7   8
ENDBRANCH   6   7
ENDBRANCH   1   6
TORSDOF 5
ENDMDL
MODEL 3
REMARK VINA RESULT:    -3.811      0.984      2.087
REMARK INTER + INTRA:          -5.147
REMARK INTER:                  -4.909
REMARK INTRA:                  -0.238
REMARK UNBOUND:                -0.221
REMARK SMILES CCCCCCC(=O)[O-]
REMARK SMILES IDX 5 1 6 2 7 3 8 4 9 5 4 6 3 7 2 8 1 9
REMARK H PARENT
REMARK Flexibility Score: inf
ROOT
ATOM      1  C   UNL     1       4.103 -23.075   7.205  1.00  0.00     0.006 C 
ENDROOT
BRANCH   1   2
ATOM      2  C   UNL     1       4.122 -21.544   7.202  1.00  0.00     0.053 C 
BRANCH   2   3
ATOM      3  C   UNL     1       3.387 -21.013   6.012  1.00  0.00     0.041 C 
ATOM      4  O   UNL     1       2.249 -20.493   6.151  1.00  0.00    -0.550 OA
ATOM      5  O   UNL     1       3.939 -21.136   4.743  1.00  0.00    -0.550 OA
ENDBRANCH   2   3
ENDBRANCH   1   2
BRANCH   1   6
ATOM      6  C   UNL     1       3.410 -23.615   8.461  1.00  0.00     0.000 C 
BRANCH   6   7
ATOM      7  C   UNL     1       2.184 -22.766   8.822  1.00  0.00    -0.000 C 
BRANCH   7   8
ATOM      8  C   UNL     1       2.220 -22.349  10.296  1.00  0.00    -0.003 C 
ATOM      9  C   UNL     1       3.537 -22.755  10.952  1.00  0.00     0.004 C 
ENDBRANCH   7   8
ENDBRANCH   6   7
ENDBRANCH   1   6
TORSDOF 5
ENDMDL
MODEL 4
REMARK VINA RESULT:    -3.763      2.747      4.230
REMARK INTER + INTRA:          -5.085
REMARK INTER:                  -4.862
REMARK INTRA:                  -0.223
REMARK UNBOUND:                -0.221
REMARK SMILES CCCCCCC(=O)[O-]
REMARK SMILES IDX 5 1 6 2 7 3 8 4 9 5 4 6 3 7 2 8 1 9
REMARK H PARENT
REMARK Flexibility Score: inf
ROOT
ATOM      1  C   UNL     1       3.020 -23.614   8.177  1.00  0.00     0.006 C 
ENDROOT
BRANCH   1   2
ATOM      2  C   UNL     1       2.055 -22.523   8.648  1.00  0.00     0.053 C 
BRANCH   2   3
ATOM      3  C   UNL     1       2.061 -22.426  10.140  1.00  0.00     0.041 C 
ATOM      4  O   UNL     1       0.976 -22.343  10.774  1.00  0.00    -0.550 OA
ATOM      5  O   UNL     1       3.266 -22.378  10.829  1.00  0.00    -0.550 OA
ENDBRANCH   2   3
ENDBRANCH   1   2
BRANCH   1   6
ATOM      6  C   UNL     1       4.125 -23.028   7.290  1.00  0.00     0.000 C 
BRANCH   6   7
ATOM      7  C   UNL     1       4.045 -21.497   7.251  1.00  0.00    -0.000 C 
BRANCH   7   8
ATOM      8  C   UNL     1       3.645 -21.003   5.856  1.00  0.00    -0.003 C 
ATOM      9  C   UNL     1       4.125 -21.965   4.772  1.00  0.00     0.004 C 
ENDBRANCH   7   8
ENDBRANCH   6   7
ENDBRANCH   1   6
TORSDOF 5
ENDMDL
MODEL 5
REMARK VINA RESULT:    -3.510     18.932     19.267
REMARK INTER + INTRA:          -4.758
REMARK INTER:                  -4.551
REMARK INTRA:                  -0.207
REMARK UNBOUND:                -0.221
REMARK SMILES CCCCCCC(=O)[O-]
REMARK SMILES IDX 5 1 6 2 7 3 8 4 9 5 4 6 3 7 2 8 1 9
REMARK H PARENT
REMARK Flexibility Score: inf
ROOT
ATOM      1  C   UNL     1      -3.748  -7.994  18.449  1.00  0.00     0.006 C 
ENDROOT
BRANCH   1   2
ATOM      2  C   UNL     1      -2.894  -8.446  19.637  1.00  0.00     0.053 C 
BRANCH   2   3
ATOM      3  C   UNL     1      -1.907  -7.385  20.007  1.00  0.00     0.041 C 
ATOM      4  O   UNL     1      -1.773  -6.364  19.282  1.00  0.00    -0.550 OA
ATOM      5  O   UNL     1      -1.098  -7.547  21.125  1.00  0.00    -0.550 OA
ENDBRANCH   2   3
ENDBRANCH   1   2
BRANCH   1   6
ATOM      6  C   UNL     1      -5.136  -8.645  18.490  1.00  0.00     0.000 C 
BRANCH   6   7
ATOM      7  C   UNL     1      -5.192  -9.758  19.544  1.00  0.00    -0.000 C 
BRANCH   7   8
ATOM      8  C   UNL     1      -6.643 -10.143  19.859  1.00  0.00    -0.003 C 
ATOM      9  C   UNL     1      -7.607  -9.532  18.846  1.00  0.00     0.004 C 
ENDBRANCH   7   8
ENDBRANCH   6   7
ENDBRANCH   1   6
TORSDOF 5
ENDMDL
MODEL 6
REMARK VINA RESULT:    -3.286     18.546     19.313
REMARK INTER + INTRA:          -4.468
REMARK INTER:                  -4.262
REMARK INTRA:                  -0.205
REMARK UNBOUND:                -0.221
REMARK SMILES CCCCCCC(=O)[O-]
REMARK SMILES IDX 5 1 6 2 7 3 8 4 9 5 4 6 3 7 2 8 1 9
REMARK H PARENT
REMARK Flexibility Score: inf
ROOT
ATOM      1  C   UNL     1      -5.603  -9.988  19.730  1.00  0.00     0.006 C 
ENDROOT
BRANCH   1   2
ATOM      2  C   UNL     1      -6.628  -9.329  18.803  1.00  0.00     0.053 C 
BRANCH   2   3
ATOM      3  C   UNL     1      -7.968  -9.976  18.957  1.00  0.00     0.041 C 
ATOM      4  O   UNL     1      -8.685  -9.715  19.958  1.00  0.00    -0.550 OA
ATOM      5  O   UNL     1      -8.403 -10.905  18.021  1.00  0.00    -0.550 OA
ENDBRANCH   2   3
ENDBRANCH   1   2
BRANCH   1   6
ATOM      6  C   UNL     1      -4.221  -9.344  19.570  1.00  0.00     0.000 C 
BRANCH   6   7
ATOM      7  C   UNL     1      -4.153  -8.496  18.293  1.00  0.00    -0.000 C 
BRANCH   7   8
ATOM      8  C   UNL     1      -3.072  -7.415  18.409  1.00  0.00    -0.003 C 
ATOM      9  C   UNL     1      -2.250  -7.592  19.683  1.00  0.00     0.004 C 
ENDBRANCH   7   8
ENDBRANCH   6   7
ENDBRANCH   1   6
TORSDOF 5
ENDMDL
MODEL 7
REMARK VINA RESULT:    -2.990      1.663      2.147
REMARK INTER + INTRA:          -4.085
REMARK INTER:                  -3.934
REMARK INTRA:                  -0.152
REMARK UNBOUND:                -0.221
REMARK SMILES CCCCCCC(=O)[O-]
REMARK SMILES IDX 5 1 6 2 7 3 8 4 9 5 4 6 3 7 2 8 1 9
REMARK H PARENT
REMARK Flexibility Score: inf
ROOT
ATOM      1  C   UNL     1       1.985 -20.721   6.696  1.00  0.00     0.006 C 
ENDROOT
BRANCH   1   2
ATOM      2  C   UNL     1       3.428 -20.567   6.208  1.00  0.00     0.053 C 
BRANCH   2   3
ATOM      3  C   UNL     1       3.926 -21.854   5.631  1.00  0.00     0.041 C 
ATOM      4  O   UNL     1       4.124 -21.958   4.392  1.00  0.00    -0.550 OA
ATOM      5  O   UNL     1       4.125 -22.954   6.455  1.00  0.00    -0.550 OA
ENDBRANCH   2   3
ENDBRANCH   1   2
BRANCH   1   6
ATOM      6  C   UNL     1       1.939 -21.380   8.080  1.00  0.00     0.000 C 
BRANCH   6   7
ATOM      7  C   UNL     1       2.926 -20.709   9.043  1.00  0.00    -0.000 C 
BRANCH   7   8
ATOM      8  C   UNL     1       3.711 -21.756   9.843  1.00  0.00    -0.003 C 
ATOM      9  C   UNL     1       2.823 -22.938  10.222  1.00  0.00     0.004 C 
ENDBRANCH   7   8
ENDBRANCH   6   7
ENDBRANCH   1   6
TORSDOF 5
ENDMDL
MODEL 8
REMARK VINA RESULT:    -2.984     16.499     17.518
REMARK INTER + INTRA:          -4.078
REMARK INTER:                  -3.910
REMARK INTRA:                  -0.168
REMARK UNBOUND:                -0.221
REMARK SMILES CCCCCCC(=O)[O-]
REMARK SMILES IDX 5 1 6 2 7 3 8 4 9 5 4 6 3 7 2 8 1 9
REMARK H PARENT
REMARK Flexibility Score: inf
ROOT
ATOM      1  C   UNL     1     -13.860 -19.130   6.144  1.00  0.00     0.006 C 
ENDROOT
BRANCH   1   2
ATOM      2  C   UNL     1     -15.337 -18.739   6.046  1.00  0.00     0.053 C 
BRANCH   2   3
ATOM      3  C   UNL     1     -15.625 -17.553   6.910  1.00  0.00     0.041 C 
ATOM      4  O   UNL     1     -15.741 -16.409   6.397  1.00  0.00    -0.550 OA
ATOM      5  O   UNL     1     -15.715 -17.703   8.288  1.00  0.00    -0.550 OA
ENDBRANCH   2   3
ENDBRANCH   1   2
BRANCH   1   6
ATOM      6  C   UNL     1     -13.487 -20.150   5.062  1.00  0.00     0.000 C 
BRANCH   6   7
ATOM      7  C   UNL     1     -12.342 -19.629   4.184  1.00  0.00    -0.000 C 
BRANCH   7   8
ATOM      8  C   UNL     1     -11.779 -18.315   4.740  1.00  0.00    -0.003 C 
ATOM      9  C   UNL     1     -10.378 -18.514   5.311  1.00  0.00     0.004 C 
ENDBRANCH   7   8
ENDBRANCH   6   7
ENDBRANCH   1   6
TORSDOF 5
ENDMDL
MODEL 9
REMARK VINA RESULT:    -2.885     16.711     17.583
REMARK INTER + INTRA:          -3.950
REMARK INTER:                  -3.617
REMARK INTRA:                  -0.332
REMARK UNBOUND:                -0.221
REMARK SMILES CCCCCCC(=O)[O-]
REMARK SMILES IDX 5 1 6 2 7 3 8 4 9 5 4 6 3 7 2 8 1 9
REMARK H PARENT
REMARK Flexibility Score: inf
ROOT
ATOM      1  C   UNL     1     -14.537 -18.762   5.514  1.00  0.00     0.006 C 
ENDROOT
BRANCH   1   2
ATOM      2  C   UNL     1     -13.111 -19.281   5.721  1.00  0.00     0.053 C 
BRANCH   2   3
ATOM      3  C   UNL     1     -12.145 -18.509   4.879  1.00  0.00     0.041 C 
ATOM      4  O   UNL     1     -12.533 -17.952   3.819  1.00  0.00    -0.550 OA
ATOM      5  O   UNL     1     -10.805 -18.447   5.240  1.00  0.00    -0.550 OA
ENDBRANCH   2   3
ENDBRANCH   1   2
BRANCH   1   6
ATOM      6  C   UNL     1     -15.032 -18.003   6.750  1.00  0.00     0.000 C 
BRANCH   6   7
ATOM      7  C   UNL     1     -15.780 -16.725   6.349  1.00  0.00    -0.000 C 
BRANCH   7   8
ATOM      8  C   UNL     1     -15.349 -16.252   4.955  1.00  0.00    -0.003 C 
ATOM      9  C   UNL     1     -14.553 -14.952   5.036  1.00  0.00     0.004 C 
ENDBRANCH   7   8
ENDBRANCH   6   7
ENDBRANCH   1   6
TORSDOF 5
ENDMDL
