MODEL 1
REMARK VINA RESULT:     7.209      0.000      0.000
REMARK INTER + INTRA:          13.919
REMARK INTER:                  10.791
REMARK INTRA:                   3.128
REMARK UNBOUND:                 3.128
REMARK SMILES C=C(CC[C@@H](C(=O)[O-])[C@H]1[C@H](O)C[C@@]2(C)C3=C(CC[C@@]12C)[C@@]1(C)CC[C@@H](OC(C)=O)C(C)(C)[C@H]1CC3)C(C)C
REMARK SMILES IDX 4 1 5 2 6 3 7 4 8 5 9 6 10 7 19 8 12 9 13 10 18 11 20 12
REMARK SMILES IDX 14 13 15 14 17 15 16 16 35 17 21 18 34 19 33 20 23 21 22 22
REMARK SMILES IDX 30 23 24 24 25 25 31 26 32 27 11 28 26 30 27 31 29 32 28 33
REMARK SMILES IDX 3 34 2 35 1 36 36 37 37 38 38 39
REMARK H PARENT 11 29
REMARK Flexibility Score: inf
ROOT
ATOM      1  C   UNL     1     -16.051  14.532   0.165  1.00  0.00     0.014 C 
ENDROOT
BRANCH   1   2
ATOM      2  C   UNL     1     -15.065  13.383  -0.210  1.00  0.00     0.042 C 
BRANCH   2   3
ATOM      3  C   UNL     1     -13.764  13.944  -0.749  1.00  0.00     0.045 C 
ATOM      4  O   UNL     1     -13.641  14.219  -1.974  1.00  0.00    -0.550 OA
ATOM      5  O   UNL     1     -12.687  14.191   0.100  1.00  0.00    -0.550 OA
ENDBRANCH   2   3
BRANCH   2   6
ATOM      6  C   UNL     1     -14.909  12.291   0.913  1.00  0.00     0.033 C 
ATOM      7  C   UNL     1     -14.070  11.068   0.452  1.00  0.00     0.119 C 
ATOM      8  C   UNL     1     -14.388  12.669   2.354  1.00  0.00    -0.017 C 
ATOM      9  C   UNL     1     -13.188  10.671   1.631  1.00  0.00     0.043 C 
ATOM     10  C   UNL     1     -13.815  11.308   2.884  1.00  0.00    -0.003 C 
ATOM     11  C   UNL     1     -13.237  13.706   2.327  1.00  0.00     0.012 C 
ATOM     12  C   UNL     1     -15.527  13.210   3.270  1.00  0.00     0.013 C 
ATOM     13  C   UNL     1     -14.938  10.373   3.430  1.00  0.00     0.017 C 
ATOM     14  C   UNL     1     -12.753  11.461   3.987  1.00  0.00    -0.064 C 
ATOM     15  C   UNL     1     -12.633  13.933   3.707  1.00  0.00     0.032 C 
ATOM     16  C   UNL     1     -12.430  12.660   4.533  1.00  0.00    -0.064 C 
ATOM     17  C   UNL     1     -12.011  10.251   4.471  1.00  0.00     0.032 C 
ATOM     18  C   UNL     1     -11.845  12.771   5.978  1.00  0.00    -0.008 C 
ATOM     19  C   UNL     1     -12.145  10.146   5.971  1.00  0.00     0.009 C 
ATOM     20  C   UNL     1     -11.506  11.363   6.687  1.00  0.00     0.009 C 
ATOM     21  C   UNL     1     -12.862  13.580   6.850  1.00  0.00     0.015 C 
ATOM     22  C   UNL     1     -10.534  13.586   5.879  1.00  0.00     0.016 C 
ATOM     23  C   UNL     1     -11.809  11.302   8.248  1.00  0.00     0.005 C 
ATOM     24  C   UNL     1     -13.904  12.672   7.482  1.00  0.00     0.047 C 
ATOM     25  C   UNL     1     -13.292  11.761   8.558  1.00  0.00     0.182 C 
ATOM     26  C   UNL     1     -11.551   9.879   8.818  1.00  0.00     0.015 C 
ATOM     27  C   UNL     1     -10.806  12.196   9.024  1.00  0.00     0.015 C 
BRANCH   7  28
ATOM     28  O   UNL     1     -14.917   9.996   0.118  1.00  0.00    -0.393 OA
ATOM     29  H   UNL     1     -15.836  10.367   0.050  1.00  0.00     0.210 HD
ENDBRANCH   7  28
BRANCH  25  30
ATOM     30  O   UNL     1     -14.173  10.642   8.701  1.00  0.00    -0.462 OA
BRANCH  30  31
ATOM     31  C   UNL     1     -15.570  10.720   8.597  1.00  0.00     0.302 C 
ATOM     32  O   UNL     1     -16.121  11.177   7.560  1.00  0.00    -0.253 OA
ATOM     33  C   UNL     1     -16.422  10.296   9.751  1.00  0.00     0.139 C 
ENDBRANCH  30  31
ENDBRANCH  25  30
ENDBRANCH   2   6
ENDBRANCH   1   2
BRANCH   1  34
ATOM     34  C   UNL     1     -15.565  15.458   1.303  1.00  0.00     0.031 C 
BRANCH  34  35
ATOM     35  C   UNL     1     -14.906  16.729   0.811  1.00  0.00    -0.075 C 
ATOM     36  C   UNL     1     -13.562  16.839   0.866  1.00  0.00     0.008 C 
BRANCH  35  37
ATOM     37  C   UNL     1     -15.769  17.889   0.313  1.00  0.00     0.008 C 
ATOM     38  C   UNL     1     -16.951  17.392  -0.548  1.00  0.00     0.012 C 
ATOM     39  C   UNL     1     -16.269  18.746   1.485  1.00  0.00     0.012 C 
ENDBRANCH  35  37
ENDBRANCH  34  35
ENDBRANCH   1  34
TORSDOF 9
ENDMDL
