MODEL 1
REMARK VINA RESULT:    -4.844      0.000      0.000
REMARK INTER + INTRA:          -7.477
REMARK INTER:                  -6.826
REMARK INTRA:                  -0.651
REMARK UNBOUND:                -0.651
REMARK SMILES OCC1=C[C@H](O)[C@H]2C=CO[C@H](O[C@@H]3O[C@@H](CO)[C@H](O)[C@H](O)[C@@H]3O)[C@@H]12
REMARK SMILES IDX 12 1 11 2 8 3 9 4 7 5 10 6 24 7 5 8 3 9 4 10 6 11 2 13 1 14
REMARK SMILES IDX 13 16 22 17 14 18 20 19 15 20 18 21 23 22 21 24 16 26 17 27
REMARK SMILES IDX 19 29
REMARK H PARENT 6 12 1 15 23 23 21 25 17 28 19 30
REMARK Flexibility Score: inf
ROOT
ATOM      1  O   UNL     1      -0.091 -18.563  16.340  1.00  0.00    -0.310 OA
ENDROOT
BRANCH   1   2
ATOM      2  C   UNL     1      -1.093 -18.297  17.309  1.00  0.00     0.316 C 
ATOM      3  C   UNL     1      -2.796 -20.400  16.444  1.00  0.00     0.018 C 
ATOM      4  C   UNL     1      -3.033 -19.149  16.058  1.00  0.00     0.186 C 
ATOM      5  C   UNL     1      -1.981 -20.716  17.678  1.00  0.00     0.061 C 
ATOM      6  O   UNL     1      -2.330 -18.092  16.636  1.00  0.00    -0.472 OA
ATOM      7  C   UNL     1      -1.205 -19.503  18.276  1.00  0.00     0.096 C 
ATOM      8  C   UNL     1      -2.938 -21.177  18.803  1.00  0.00     0.145 C 
ATOM      9  C   UNL     1      -1.954 -19.181  19.535  1.00  0.00    -0.036 C 
ATOM     10  C   UNL     1      -2.875 -20.090  19.817  1.00  0.00     0.007 C 
BRANCH   8  11
ATOM     11  O   UNL     1      -2.490 -22.373  19.383  1.00  0.00    -0.388 OA
ATOM     12  H   UNL     1      -3.196 -22.656  20.020  1.00  0.00     0.211 HD
ENDBRANCH   8  11
BRANCH   9  13
ATOM     13  C   UNL     1      -1.612 -18.056  20.470  1.00  0.00     0.187 C 
BRANCH  13  14
ATOM     14  O   UNL     1      -0.348 -18.285  21.027  1.00  0.00    -0.392 OA
ATOM     15  H   UNL     1      -0.061 -17.428  21.434  1.00  0.00     0.211 HD
ENDBRANCH  13  14
ENDBRANCH   9  13
ENDBRANCH   1   2
BRANCH   1  16
ATOM     16  C   UNL     1       1.059 -17.754  16.530  1.00  0.00     0.286 C 
ATOM     17  C   UNL     1       1.875 -17.775  15.227  1.00  0.00     0.202 C 
ATOM     18  O   UNL     1       0.625 -16.434  16.833  1.00  0.00    -0.341 OA
ATOM     19  C   UNL     1       3.096 -16.845  15.369  1.00  0.00     0.179 C 
ATOM     20  C   UNL     1       1.705 -15.533  17.055  1.00  0.00     0.178 C 
ATOM     21  C   UNL     1       2.658 -15.442  15.838  1.00  0.00     0.177 C 
BRANCH  17  22
ATOM     22  O   UNL     1       1.072 -17.355  14.149  1.00  0.00    -0.385 OA
ATOM     23  H   UNL     1       0.545 -16.575  14.459  1.00  0.00     0.211 HD
ENDBRANCH  17  22
BRANCH  19  24
ATOM     24  O   UNL     1       3.786 -16.748  14.150  1.00  0.00    -0.387 OA
ATOM     25  H   UNL     1       3.501 -15.896  13.725  1.00  0.00     0.211 HD
ENDBRANCH  19  24
BRANCH  20  26
ATOM     26  C   UNL     1       2.429 -15.801  18.394  1.00  0.00     0.191 C 
BRANCH  26  27
ATOM     27  O   UNL     1       3.251 -14.712  18.715  1.00  0.00    -0.394 OA
ATOM     28  H   UNL     1       3.884 -14.607  17.959  1.00  0.00     0.210 HD
ENDBRANCH  26  27
ENDBRANCH  20  26
BRANCH  21  29
ATOM     29  O   UNL     1       1.993 -14.770  14.794  1.00  0.00    -0.387 OA
ATOM     30  H   UNL     1       1.018 -14.866  14.960  1.00  0.00     0.211 HD
ENDBRANCH  21  29
ENDBRANCH   1  16
TORSDOF 10
ENDMDL
MODEL 2
REMARK VINA RESULT:    -4.627      1.621      6.334
REMARK INTER + INTRA:          -7.171
REMARK INTER:                  -7.058
REMARK INTRA:                  -0.113
REMARK UNBOUND:                -0.651
REMARK SMILES OCC1=C[C@H](O)[C@H]2C=CO[C@H](O[C@@H]3O[C@@H](CO)[C@H](O)[C@H](O)[C@@H]3O)[C@@H]12
REMARK SMILES IDX 12 1 11 2 8 3 9 4 7 5 10 6 24 7 5 8 3 9 4 10 6 11 2 13 1 14
REMARK SMILES IDX 13 16 22 17 14 18 20 19 15 20 18 21 23 22 21 24 16 26 17 27
REMARK SMILES IDX 19 29
REMARK H PARENT 6 12 1 15 23 23 21 25 17 28 19 30
REMARK Flexibility Score: inf
ROOT
ATOM      1  O   UNL     1      -1.687 -17.239  16.479  1.00  0.00    -0.310 OA
ENDROOT
BRANCH   1   2
ATOM      2  C   UNL     1      -0.593 -17.290  15.577  1.00  0.00     0.316 C 
ATOM      3  C   UNL     1       0.180 -14.592  16.016  1.00  0.00     0.018 C 
ATOM      4  C   UNL     1      -0.540 -14.913  14.945  1.00  0.00     0.186 C 
ATOM      5  C   UNL     1       1.012 -15.615  16.756  1.00  0.00     0.061 C 
ATOM      6  O   UNL     1      -0.750 -16.252  14.616  1.00  0.00    -0.472 OA
ATOM      7  C   UNL     1       0.730 -17.096  16.361  1.00  0.00     0.096 C 
ATOM      8  C   UNL     1       2.504 -15.384  16.417  1.00  0.00     0.145 C 
ATOM      9  C   UNL     1       1.944 -17.498  15.577  1.00  0.00    -0.036 C 
ATOM     10  C   UNL     1       2.896 -16.579  15.622  1.00  0.00     0.007 C 
BRANCH   8  11
ATOM     11  O   UNL     1       3.281 -15.333  17.583  1.00  0.00    -0.388 OA
ATOM     12  H   UNL     1       3.029 -16.128  18.121  1.00  0.00     0.211 HD
ENDBRANCH   8  11
BRANCH   9  13
ATOM     13  C   UNL     1       2.145 -18.846  14.944  1.00  0.00     0.187 C 
BRANCH  13  14
ATOM     14  O   UNL     1       1.719 -19.842  15.830  1.00  0.00    -0.392 OA
ATOM     15  H   UNL     1       2.286 -20.636  15.653  1.00  0.00     0.211 HD
ENDBRANCH  13  14
ENDBRANCH   9  13
ENDBRANCH   1   2
BRANCH   1  16
ATOM     16  C   UNL     1      -1.613 -18.259  17.462  1.00  0.00     0.286 C 
ATOM     17  C   UNL     1      -0.932 -17.671  18.708  1.00  0.00     0.202 C 
ATOM     18  O   UNL     1      -2.938 -18.680  17.761  1.00  0.00    -0.341 OA
ATOM     19  C   UNL     1      -0.902 -18.730  19.827  1.00  0.00     0.179 C 
ATOM     20  C   UNL     1      -2.984 -19.717  18.735  1.00  0.00     0.178 C 
ATOM     21  C   UNL     1      -2.313 -19.304  20.069  1.00  0.00     0.177 C 
BRANCH  17  22
ATOM     22  O   UNL     1      -1.630 -16.528  19.145  1.00  0.00    -0.385 OA
ATOM     23  H   UNL     1      -0.973 -15.931  19.585  1.00  0.00     0.211 HD
ENDBRANCH  17  22
BRANCH  19  24
ATOM     24  O   UNL     1      -0.401 -18.177  21.017  1.00  0.00    -0.387 OA
ATOM     25  H   UNL     1       0.585 -18.303  21.000  1.00  0.00     0.211 HD
ENDBRANCH  19  24
BRANCH  20  26
ATOM     26  C   UNL     1      -2.482 -21.069  18.179  1.00  0.00     0.191 C 
BRANCH  26  27
ATOM     27  O   UNL     1      -2.340 -21.989  19.227  1.00  0.00    -0.394 OA
ATOM     28  H   UNL     1      -2.908 -21.657  19.969  1.00  0.00     0.210 HD
ENDBRANCH  26  27
ENDBRANCH  20  26
BRANCH  21  29
ATOM     29  O   UNL     1      -3.124 -18.343  20.702  1.00  0.00    -0.387 OA
ATOM     30  H   UNL     1      -3.718 -18.832  21.332  1.00  0.00     0.211 HD
ENDBRANCH  21  29
ENDBRANCH   1  16
TORSDOF 10
ENDMDL
MODEL 3
REMARK VINA RESULT:    -4.611      1.332      2.216
REMARK INTER + INTRA:          -7.148
REMARK INTER:                  -6.512
REMARK INTRA:                  -0.636
REMARK UNBOUND:                -0.651
REMARK SMILES OCC1=C[C@H](O)[C@H]2C=CO[C@H](O[C@@H]3O[C@@H](CO)[C@H](O)[C@H](O)[C@@H]3O)[C@@H]12
REMARK SMILES IDX 12 1 11 2 8 3 9 4 7 5 10 6 24 7 5 8 3 9 4 10 6 11 2 13 1 14
REMARK SMILES IDX 13 16 22 17 14 18 20 19 15 20 18 21 23 22 21 24 16 26 17 27
REMARK SMILES IDX 19 29
REMARK H PARENT 6 12 1 15 23 23 21 25 17 28 19 30
REMARK Flexibility Score: inf
ROOT
ATOM      1  O   UNL     1      -0.377 -18.264  15.761  1.00  0.00    -0.310 OA
ENDROOT
BRANCH   1   2
ATOM      2  C   UNL     1      -1.338 -18.317  16.803  1.00  0.00     0.316 C 
ATOM      3  C   UNL     1      -2.579 -20.683  15.834  1.00  0.00     0.018 C 
ATOM      4  C   UNL     1      -3.121 -19.494  15.582  1.00  0.00     0.186 C 
ATOM      5  C   UNL     1      -1.625 -20.897  16.988  1.00  0.00     0.061 C 
ATOM      6  O   UNL     1      -2.636 -18.352  16.219  1.00  0.00    -0.472 OA
ATOM      7  C   UNL     1      -1.102 -19.590  17.656  1.00  0.00     0.096 C 
ATOM      8  C   UNL     1      -2.366 -21.658  18.114  1.00  0.00     0.145 C 
ATOM      9  C   UNL     1      -1.810 -19.552  18.978  1.00  0.00    -0.036 C 
ATOM     10  C   UNL     1      -2.477 -20.670  19.221  1.00  0.00     0.007 C 
BRANCH   8  11
ATOM     11  O   UNL     1      -1.617 -22.759  18.552  1.00  0.00    -0.388 OA
ATOM     12  H   UNL     1      -1.077 -23.056  17.775  1.00  0.00     0.211 HD
ENDBRANCH   8  11
BRANCH   9  13
ATOM     13  C   UNL     1      -1.663 -18.457  19.996  1.00  0.00     0.187 C 
BRANCH  13  14
ATOM     14  O   UNL     1      -0.848 -18.903  21.042  1.00  0.00    -0.392 OA
ATOM     15  H   UNL     1       0.068 -18.577  20.843  1.00  0.00     0.211 HD
ENDBRANCH  13  14
ENDBRANCH   9  13
ENDBRANCH   1   2
BRANCH   1  16
ATOM     16  C   UNL     1       0.159 -16.960  15.598  1.00  0.00     0.286 C 
ATOM     17  C   UNL     1       1.292 -16.780  16.621  1.00  0.00     0.202 C 
ATOM     18  O   UNL     1       0.654 -16.849  14.270  1.00  0.00    -0.341 OA
ATOM     19  C   UNL     1       1.949 -15.400  16.424  1.00  0.00     0.179 C 
ATOM     20  C   UNL     1       1.208 -15.568  13.990  1.00  0.00     0.178 C 
ATOM     21  C   UNL     1       2.366 -15.204  14.951  1.00  0.00     0.177 C 
BRANCH  17  22
ATOM     22  O   UNL     1       2.252 -17.799  16.461  1.00  0.00    -0.385 OA
ATOM     23  H   UNL     1       2.004 -18.314  15.651  1.00  0.00     0.211 HD
ENDBRANCH  17  22
BRANCH  19  24
ATOM     24  O   UNL     1       3.070 -15.264  17.260  1.00  0.00    -0.387 OA
ATOM     25  H   UNL     1       2.822 -14.612  17.969  1.00  0.00     0.211 HD
ENDBRANCH  19  24
BRANCH  20  26
ATOM     26  C   UNL     1       0.126 -14.471  13.875  1.00  0.00     0.191 C 
BRANCH  26  27
ATOM     27  O   UNL     1       0.728 -13.206  13.902  1.00  0.00    -0.394 OA
ATOM     28  H   UNL     1       0.059 -12.586  14.293  1.00  0.00     0.210 HD
ENDBRANCH  26  27
ENDBRANCH  20  26
BRANCH  21  29
ATOM     29  O   UNL     1       3.475 -16.017  14.650  1.00  0.00    -0.387 OA
ATOM     30  H   UNL     1       3.376 -16.853  15.179  1.00  0.00     0.211 HD
ENDBRANCH  21  29
ENDBRANCH   1  16
TORSDOF 10
ENDMDL
MODEL 4
REMARK VINA RESULT:    -4.428      1.681      2.545
REMARK INTER + INTRA:          -6.891
REMARK INTER:                  -6.925
REMARK INTRA:                   0.034
REMARK UNBOUND:                -0.651
REMARK SMILES OCC1=C[C@H](O)[C@H]2C=CO[C@H](O[C@@H]3O[C@@H](CO)[C@H](O)[C@H](O)[C@@H]3O)[C@@H]12
REMARK SMILES IDX 12 1 11 2 8 3 9 4 7 5 10 6 24 7 5 8 3 9 4 10 6 11 2 13 1 14
REMARK SMILES IDX 13 16 22 17 14 18 20 19 15 20 18 21 23 22 21 24 16 26 17 27
REMARK SMILES IDX 19 29
REMARK H PARENT 6 12 1 15 23 23 21 25 17 28 19 30
REMARK Flexibility Score: inf
ROOT
ATOM      1  O   UNL     1      -0.452 -17.584  15.524  1.00  0.00    -0.310 OA
ENDROOT
BRANCH   1   2
ATOM      2  C   UNL     1      -0.586 -17.120  16.858  1.00  0.00     0.316 C 
ATOM      3  C   UNL     1      -3.120 -18.342  17.258  1.00  0.00     0.018 C 
ATOM      4  C   UNL     1      -3.043 -17.047  16.963  1.00  0.00     0.186 C 
ATOM      5  C   UNL     1      -1.954 -19.095  17.859  1.00  0.00     0.061 C 
ATOM      6  O   UNL     1      -1.808 -16.399  16.964  1.00  0.00    -0.472 OA
ATOM      7  C   UNL     1      -0.596 -18.332  17.824  1.00  0.00     0.096 C 
ATOM      8  C   UNL     1      -2.241 -19.342  19.360  1.00  0.00     0.145 C 
ATOM      9  C   UNL     1      -0.362 -17.946  19.255  1.00  0.00    -0.036 C 
ATOM     10  C   UNL     1      -1.242 -18.501  20.074  1.00  0.00     0.007 C 
BRANCH   8  11
ATOM     11  O   UNL     1      -2.033 -20.688  19.695  1.00  0.00    -0.388 OA
ATOM     12  H   UNL     1      -1.532 -21.089  18.938  1.00  0.00     0.211 HD
ENDBRANCH   8  11
BRANCH   9  13
ATOM     13  C   UNL     1       0.819 -17.158  19.746  1.00  0.00     0.187 C 
BRANCH  13  14
ATOM     14  O   UNL     1       1.196 -17.628  21.009  1.00  0.00    -0.392 OA
ATOM     15  H   UNL     1       0.612 -17.169  21.666  1.00  0.00     0.211 HD
ENDBRANCH  13  14
ENDBRANCH   9  13
ENDBRANCH   1   2
BRANCH   1  16
ATOM     16  C   UNL     1       0.801 -17.225  14.961  1.00  0.00     0.286 C 
ATOM     17  C   UNL     1       0.759 -15.726  14.624  1.00  0.00     0.202 C 
ATOM     18  O   UNL     1       1.812 -17.500  15.922  1.00  0.00    -0.341 OA
ATOM     19  C   UNL     1       2.130 -15.282  14.079  1.00  0.00     0.179 C 
ATOM     20  C   UNL     1       3.120 -17.186  15.456  1.00  0.00     0.178 C 
ATOM     21  C   UNL     1       3.259 -15.699  15.044  1.00  0.00     0.177 C 
BRANCH  17  22
ATOM     22  O   UNL     1       0.434 -14.982  15.776  1.00  0.00    -0.385 OA
ATOM     23  H   UNL     1       0.835 -14.082  15.669  1.00  0.00     0.211 HD
ENDBRANCH  17  22
BRANCH  19  24
ATOM     24  O   UNL     1       2.157 -13.891  13.885  1.00  0.00    -0.387 OA
ATOM     25  H   UNL     1       2.862 -13.708  13.208  1.00  0.00     0.211 HD
ENDBRANCH  19  24
BRANCH  20  26
ATOM     26  C   UNL     1       3.615 -18.179  14.380  1.00  0.00     0.191 C 
BRANCH  26  27
ATOM     27  O   UNL     1       4.347 -19.208  14.986  1.00  0.00    -0.394 OA
ATOM     28  H   UNL     1       3.744 -19.624  15.654  1.00  0.00     0.210 HD
ENDBRANCH  26  27
ENDBRANCH  20  26
BRANCH  21  29
ATOM     29  O   UNL     1       3.220 -14.905  16.206  1.00  0.00    -0.387 OA
ATOM     30  H   UNL     1       2.335 -15.056  16.633  1.00  0.00     0.211 HD
ENDBRANCH  21  29
ENDBRANCH   1  16
TORSDOF 10
ENDMDL
MODEL 5
REMARK VINA RESULT:    -3.818     14.531     18.171
REMARK INTER + INTRA:          -6.031
REMARK INTER:                  -5.614
REMARK INTRA:                  -0.417
REMARK UNBOUND:                -0.651
REMARK SMILES OCC1=C[C@H](O)[C@H]2C=CO[C@H](O[C@@H]3O[C@@H](CO)[C@H](O)[C@H](O)[C@@H]3O)[C@@H]12
REMARK SMILES IDX 12 1 11 2 8 3 9 4 7 5 10 6 24 7 5 8 3 9 4 10 6 11 2 13 1 14
REMARK SMILES IDX 13 16 22 17 14 18 20 19 15 20 18 21 23 22 21 24 16 26 17 27
REMARK SMILES IDX 19 29
REMARK H PARENT 6 12 1 15 23 23 21 25 17 28 19 30
REMARK Flexibility Score: inf
ROOT
ATOM      1  O   UNL     1      15.561  -7.699  15.216  1.00  0.00    -0.310 OA
ENDROOT
BRANCH   1   2
ATOM      2  C   UNL     1      14.956  -8.956  15.476  1.00  0.00     0.316 C 
ATOM      3  C   UNL     1      15.992  -9.156  18.114  1.00  0.00     0.018 C 
ATOM      4  C   UNL     1      16.584  -9.804  17.114  1.00  0.00     0.186 C 
ATOM      5  C   UNL     1      14.547  -8.712  18.034  1.00  0.00     0.061 C 
ATOM      6  O   UNL     1      15.971  -9.875  15.863  1.00  0.00    -0.472 OA
ATOM      7  C   UNL     1      13.914  -8.799  16.613  1.00  0.00     0.096 C 
ATOM      8  C   UNL     1      13.688  -9.649  18.918  1.00  0.00     0.145 C 
ATOM      9  C   UNL     1      12.969  -9.960  16.710  1.00  0.00    -0.036 C 
ATOM     10  C   UNL     1      12.845 -10.403  17.952  1.00  0.00     0.007 C 
BRANCH   8  11
ATOM     11  O   UNL     1      12.859  -8.910  19.773  1.00  0.00    -0.388 OA
ATOM     12  H   UNL     1      13.014  -9.265  20.687  1.00  0.00     0.211 HD
ENDBRANCH   8  11
BRANCH   9  13
ATOM     13  C   UNL     1      12.126 -10.474  15.577  1.00  0.00     0.187 C 
BRANCH  13  14
ATOM     14  O   UNL     1      11.716 -11.781  15.861  1.00  0.00    -0.392 OA
ATOM     15  H   UNL     1      11.742 -11.876  16.847  1.00  0.00     0.211 HD
ENDBRANCH  13  14
ENDBRANCH   9  13
ENDBRANCH   1   2
BRANCH   1  16
ATOM     16  C   UNL     1      14.655  -6.624  15.405  1.00  0.00     0.286 C 
ATOM     17  C   UNL     1      15.433  -5.447  16.016  1.00  0.00     0.202 C 
ATOM     18  O   UNL     1      14.119  -6.270  14.136  1.00  0.00    -0.341 OA
ATOM     19  C   UNL     1      14.498  -4.233  16.167  1.00  0.00     0.179 C 
ATOM     20  C   UNL     1      13.182  -5.200  14.209  1.00  0.00     0.178 C 
ATOM     21  C   UNL     1      13.795  -3.921  14.829  1.00  0.00     0.177 C 
BRANCH  17  22
ATOM     22  O   UNL     1      16.528  -5.115  15.194  1.00  0.00    -0.385 OA
ATOM     23  H   UNL     1      17.335  -5.097  15.769  1.00  0.00     0.211 HD
ENDBRANCH  17  22
BRANCH  19  24
ATOM     24  O   UNL     1      15.216  -3.108  16.603  1.00  0.00    -0.387 OA
ATOM     25  H   UNL     1      16.018  -3.033  16.019  1.00  0.00     0.211 HD
ENDBRANCH  19  24
BRANCH  20  26
ATOM     26  C   UNL     1      11.848  -5.630  14.860  1.00  0.00     0.191 C 
BRANCH  26  27
ATOM     27  O   UNL     1      11.509  -4.734  15.883  1.00  0.00    -0.394 OA
ATOM     28  H   UNL     1      11.696  -5.203  16.737  1.00  0.00     0.210 HD
ENDBRANCH  26  27
ENDBRANCH  20  26
BRANCH  21  29
ATOM     29  O   UNL     1      14.715  -3.373  13.915  1.00  0.00    -0.387 OA
ATOM     30  H   UNL     1      14.937  -2.459  14.237  1.00  0.00     0.211 HD
ENDBRANCH  21  29
ENDBRANCH   1  16
TORSDOF 10
ENDMDL
MODEL 6
REMARK VINA RESULT:    -3.802     14.694     19.295
REMARK INTER + INTRA:          -6.009
REMARK INTER:                  -5.507
REMARK INTRA:                  -0.501
REMARK UNBOUND:                -0.651
REMARK SMILES OCC1=C[C@H](O)[C@H]2C=CO[C@H](O[C@@H]3O[C@@H](CO)[C@H](O)[C@H](O)[C@@H]3O)[C@@H]12
REMARK SMILES IDX 12 1 11 2 8 3 9 4 7 5 10 6 24 7 5 8 3 9 4 10 6 11 2 13 1 14
REMARK SMILES IDX 13 16 22 17 14 18 20 19 15 20 18 21 23 22 21 24 16 26 17 27
REMARK SMILES IDX 19 29
REMARK H PARENT 6 12 1 15 23 23 21 25 17 28 19 30
REMARK Flexibility Score: inf
ROOT
ATOM      1  O   UNL     1      14.271  -7.675  16.676  1.00  0.00    -0.310 OA
ENDROOT
BRANCH   1   2
ATOM      2  C   UNL     1      15.528  -7.056  16.898  1.00  0.00     0.316 C 
ATOM      3  C   UNL     1      15.934  -6.397  14.164  1.00  0.00     0.018 C 
ATOM      4  C   UNL     1      16.525  -7.469  14.687  1.00  0.00     0.186 C 
ATOM      5  C   UNL     1      15.452  -5.250  15.025  1.00  0.00     0.061 C 
ATOM      6  O   UNL     1      16.496  -7.684  16.064  1.00  0.00    -0.472 OA
ATOM      7  C   UNL     1      15.426  -5.548  16.554  1.00  0.00     0.096 C 
ATOM      8  C   UNL     1      16.427  -4.060  14.861  1.00  0.00     0.145 C 
ATOM      9  C   UNL     1      16.569  -4.741  17.098  1.00  0.00    -0.036 C 
ATOM     10  C   UNL     1      17.092  -3.937  16.186  1.00  0.00     0.007 C 
BRANCH   8  11
ATOM     11  O   UNL     1      15.729  -2.875  14.585  1.00  0.00    -0.388 OA
ATOM     12  H   UNL     1      15.011  -2.810  15.266  1.00  0.00     0.211 HD
ENDBRANCH   8  11
BRANCH   9  13
ATOM     13  C   UNL     1      16.983  -4.710  18.542  1.00  0.00     0.187 C 
BRANCH  13  14
ATOM     14  O   UNL     1      16.783  -3.423  19.053  1.00  0.00    -0.392 OA
ATOM     15  H   UNL     1      15.933  -3.451  19.562  1.00  0.00     0.211 HD
ENDBRANCH  13  14
ENDBRANCH   9  13
ENDBRANCH   1   2
BRANCH   1  16
ATOM     16  C   UNL     1      14.330  -9.080  16.868  1.00  0.00     0.286 C 
ATOM     17  C   UNL     1      13.219  -9.472  17.855  1.00  0.00     0.202 C 
ATOM     18  O   UNL     1      14.129  -9.706  15.607  1.00  0.00    -0.341 OA
ATOM     19  C   UNL     1      13.202 -11.002  18.032  1.00  0.00     0.179 C 
ATOM     20  C   UNL     1      14.179 -11.127  15.679  1.00  0.00     0.178 C 
ATOM     21  C   UNL     1      13.129 -11.705  16.660  1.00  0.00     0.177 C 
BRANCH  17  22
ATOM     22  O   UNL     1      11.971  -9.027  17.378  1.00  0.00    -0.385 OA
ATOM     23  H   UNL     1      11.554  -9.784  16.892  1.00  0.00     0.211 HD
ENDBRANCH  17  22
BRANCH  19  24
ATOM     24  O   UNL     1      12.115 -11.395  18.829  1.00  0.00    -0.387 OA
ATOM     25  H   UNL     1      12.406 -12.199  19.337  1.00  0.00     0.211 HD
ENDBRANCH  19  24
BRANCH  20  26
ATOM     26  C   UNL     1      15.612 -11.654  15.921  1.00  0.00     0.191 C 
BRANCH  26  27
ATOM     27  O   UNL     1      16.358 -11.557  14.738  1.00  0.00    -0.394 OA
ATOM     28  H   UNL     1      17.005 -12.309  14.754  1.00  0.00     0.210 HD
ENDBRANCH  26  27
ENDBRANCH  20  26
BRANCH  21  29
ATOM     29  O   UNL     1      11.848 -11.537  16.099  1.00  0.00    -0.387 OA
ATOM     30  H   UNL     1      11.763 -10.579  15.848  1.00  0.00     0.211 HD
ENDBRANCH  21  29
ENDBRANCH   1  16
TORSDOF 10
ENDMDL
MODEL 7
REMARK VINA RESULT:    -3.779     12.421     15.642
REMARK INTER + INTRA:          -5.976
REMARK INTER:                  -5.387
REMARK INTRA:                  -0.589
REMARK UNBOUND:                -0.651
REMARK SMILES OCC1=C[C@H](O)[C@H]2C=CO[C@H](O[C@@H]3O[C@@H](CO)[C@H](O)[C@H](O)[C@@H]3O)[C@@H]12
REMARK SMILES IDX 12 1 11 2 8 3 9 4 7 5 10 6 24 7 5 8 3 9 4 10 6 11 2 13 1 14
REMARK SMILES IDX 13 16 22 17 14 18 20 19 15 20 18 21 23 22 21 24 16 26 17 27
REMARK SMILES IDX 19 29
REMARK H PARENT 6 12 1 15 23 23 21 25 17 28 19 30
REMARK Flexibility Score: inf
ROOT
ATOM      1  O   UNL     1       2.510 -18.455  31.512  1.00  0.00    -0.310 OA
ENDROOT
BRANCH   1   2
ATOM      2  C   UNL     1       2.004 -17.133  31.414  1.00  0.00     0.316 C 
ATOM      3  C   UNL     1       4.556 -15.956  30.991  1.00  0.00     0.018 C 
ATOM      4  C   UNL     1       4.002 -15.930  32.200  1.00  0.00     0.186 C 
ATOM      5  C   UNL     1       3.730 -16.141  29.737  1.00  0.00     0.061 C 
ATOM      6  O   UNL     1       2.674 -16.321  32.372  1.00  0.00    -0.472 OA
ATOM      7  C   UNL     1       2.259 -16.591  29.984  1.00  0.00     0.096 C 
ATOM      8  C   UNL     1       3.619 -14.780  29.008  1.00  0.00     0.145 C 
ATOM      9  C   UNL     1       1.449 -15.369  29.665  1.00  0.00    -0.036 C 
ATOM     10  C   UNL     1       2.185 -14.406  29.131  1.00  0.00     0.007 C 
BRANCH   8  11
ATOM     11  O   UNL     1       3.945 -14.911  27.650  1.00  0.00    -0.388 OA
ATOM     12  H   UNL     1       3.144 -15.292  27.207  1.00  0.00     0.211 HD
ENDBRANCH   8  11
BRANCH   9  13
ATOM     13  C   UNL     1      -0.047 -15.280  29.777  1.00  0.00     0.187 C 
BRANCH  13  14
ATOM     14  O   UNL     1      -0.623 -15.615  28.547  1.00  0.00    -0.392 OA
ATOM     15  H   UNL     1      -1.347 -16.264  28.742  1.00  0.00     0.211 HD
ENDBRANCH  13  14
ENDBRANCH   9  13
ENDBRANCH   1   2
BRANCH   1  16
ATOM     16  C   UNL     1       1.503 -19.382  31.886  1.00  0.00     0.286 C 
ATOM     17  C   UNL     1       1.948 -20.780  31.425  1.00  0.00     0.202 C 
ATOM     18  O   UNL     1       1.364 -19.337  33.300  1.00  0.00    -0.341 OA
ATOM     19  C   UNL     1       0.913 -21.827  31.880  1.00  0.00     0.179 C 
ATOM     20  C   UNL     1       0.366 -20.226  33.789  1.00  0.00     0.178 C 
ATOM     21  C   UNL     1       0.642 -21.698  33.394  1.00  0.00     0.177 C 
BRANCH  17  22
ATOM     22  O   UNL     1       3.213 -21.085  31.964  1.00  0.00    -0.385 OA
ATOM     23  H   UNL     1       3.191 -22.034  32.250  1.00  0.00     0.211 HD
ENDBRANCH  17  22
BRANCH  19  24
ATOM     24  O   UNL     1       1.360 -23.124  31.584  1.00  0.00    -0.387 OA
ATOM     25  H   UNL     1       0.690 -23.528  30.970  1.00  0.00     0.211 HD
ENDBRANCH  19  24
BRANCH  20  26
ATOM     26  C   UNL     1      -1.064 -19.749  33.448  1.00  0.00     0.191 C 
BRANCH  26  27
ATOM     27  O   UNL     1      -1.949 -20.836  33.486  1.00  0.00    -0.394 OA
ATOM     28  H   UNL     1      -2.863 -20.454  33.433  1.00  0.00     0.210 HD
ENDBRANCH  26  27
ENDBRANCH  20  26
BRANCH  21  29
ATOM     29  O   UNL     1       1.753 -22.159  34.125  1.00  0.00    -0.387 OA
ATOM     30  H   UNL     1       2.564 -21.947  33.589  1.00  0.00     0.211 HD
ENDBRANCH  21  29
ENDBRANCH   1  16
TORSDOF 10
ENDMDL
MODEL 8
REMARK VINA RESULT:    -3.620     14.981     17.690
REMARK INTER + INTRA:          -5.753
REMARK INTER:                  -4.662
REMARK INTRA:                  -1.091
REMARK UNBOUND:                -0.651
REMARK SMILES OCC1=C[C@H](O)[C@H]2C=CO[C@H](O[C@@H]3O[C@@H](CO)[C@H](O)[C@H](O)[C@@H]3O)[C@@H]12
REMARK SMILES IDX 12 1 11 2 8 3 9 4 7 5 10 6 24 7 5 8 3 9 4 10 6 11 2 13 1 14
REMARK SMILES IDX 13 16 22 17 14 18 20 19 15 20 18 21 23 22 21 24 16 26 17 27
REMARK SMILES IDX 19 29
REMARK H PARENT 6 12 1 15 23 23 21 25 17 28 19 30
REMARK Flexibility Score: inf
ROOT
ATOM      1  O   UNL     1      12.430  -8.112  14.798  1.00  0.00    -0.310 OA
ENDROOT
BRANCH   1   2
ATOM      2  C   UNL     1      13.083  -8.536  15.984  1.00  0.00     0.316 C 
ATOM      3  C   UNL     1      13.195 -11.267  15.207  1.00  0.00     0.018 C 
ATOM      4  C   UNL     1      12.247 -10.849  16.042  1.00  0.00     0.186 C 
ATOM      5  C   UNL     1      14.487 -10.503  15.018  1.00  0.00     0.061 C 
ATOM      6  O   UNL     1      12.305  -9.565  16.584  1.00  0.00    -0.472 OA
ATOM      7  C   UNL     1      14.495  -9.070  15.631  1.00  0.00     0.096 C 
ATOM      8  C   UNL     1      15.624 -11.259  15.746  1.00  0.00     0.145 C 
ATOM      9  C   UNL     1      15.393  -9.193  16.826  1.00  0.00    -0.036 C 
ATOM     10  C   UNL     1      16.004 -10.366  16.874  1.00  0.00     0.007 C 
BRANCH   8  11
ATOM     11  O   UNL     1      16.731 -11.432  14.903  1.00  0.00    -0.388 OA
ATOM     12  H   UNL     1      17.139 -10.534  14.791  1.00  0.00     0.211 HD
ENDBRANCH   8  11
BRANCH   9  13
ATOM     13  C   UNL     1      15.706  -8.075  17.779  1.00  0.00     0.187 C 
BRANCH  13  14
ATOM     14  O   UNL     1      15.907  -6.893  17.057  1.00  0.00    -0.392 OA
ATOM     15  H   UNL     1      15.192  -6.858  16.371  1.00  0.00     0.211 HD
ENDBRANCH  13  14
ENDBRANCH   9  13
ENDBRANCH   1   2
BRANCH   1  16
ATOM     16  C   UNL     1      12.590  -6.720  14.572  1.00  0.00     0.286 C 
ATOM     17  C   UNL     1      11.195  -6.108  14.364  1.00  0.00     0.202 C 
ATOM     18  O   UNL     1      13.223  -6.157  15.714  1.00  0.00    -0.341 OA
ATOM     19  C   UNL     1      11.322  -4.583  14.190  1.00  0.00     0.179 C 
ATOM     20  C   UNL     1      13.445  -4.756  15.591  1.00  0.00     0.178 C 
ATOM     21  C   UNL     1      12.132  -3.970  15.351  1.00  0.00     0.177 C 
BRANCH  17  22
ATOM     22  O   UNL     1      10.371  -6.402  15.468  1.00  0.00    -0.385 OA
ATOM     23  H   UNL     1      10.960  -6.713  16.202  1.00  0.00     0.211 HD
ENDBRANCH  17  22
BRANCH  19  24
ATOM     24  O   UNL     1      10.052  -3.987  14.126  1.00  0.00    -0.387 OA
ATOM     25  H   UNL     1       9.845  -3.652  15.040  1.00  0.00     0.211 HD
ENDBRANCH  19  24
BRANCH  20  26
ATOM     26  C   UNL     1      14.564  -4.424  14.578  1.00  0.00     0.191 C 
BRANCH  26  27
ATOM     27  O   UNL     1      15.812  -4.738  15.131  1.00  0.00    -0.394 OA
ATOM     28  H   UNL     1      16.489  -4.273  14.574  1.00  0.00     0.210 HD
ENDBRANCH  26  27
ENDBRANCH  20  26
BRANCH  21  29
ATOM     29  O   UNL     1      11.371  -3.991  16.535  1.00  0.00    -0.387 OA
ATOM     30  H   UNL     1      10.546  -4.510  16.342  1.00  0.00     0.211 HD
ENDBRANCH  21  29
ENDBRANCH   1  16
TORSDOF 10
ENDMDL
