MODEL 1
REMARK VINA RESULT:    -2.532      0.000      0.000
REMARK INTER + INTRA:          -2.843
REMARK INTER:                  -2.828
REMARK INTRA:                  -0.015
REMARK UNBOUND:                -0.015
REMARK SMILES CCCC(=O)[O-]
REMARK SMILES IDX 3 1 4 2 5 3 6 4 2 5 1 6
REMARK H PARENT
REMARK Flexibility Score: inf
ROOT
ATOM      1  C   UNL     1      63.863  35.588  62.365  1.00  0.00     0.052 C 
ENDROOT
BRANCH   1   2
ATOM      2  C   UNL     1      63.123  34.881  61.271  1.00  0.00     0.041 C 
ATOM      3  O   UNL     1      62.002  35.307  60.887  1.00  0.00    -0.550 OA
ATOM      4  O   UNL     1      63.687  33.772  60.654  1.00  0.00    -0.550 OA
ENDBRANCH   1   2
BRANCH   1   5
ATOM      5  C   UNL     1      63.003  36.675  63.024  1.00  0.00     0.003 C 
ATOM      6  C   UNL     1      63.265  36.794  64.524  1.00  0.00     0.004 C 
ENDBRANCH   1   5
TORSDOF 2
ENDMDL
MODEL 2
REMARK VINA RESULT:    -2.452     15.849     16.405
REMARK INTER + INTRA:          -2.754
REMARK INTER:                  -2.745
REMARK INTRA:                  -0.009
REMARK UNBOUND:                -0.015
REMARK SMILES CCCC(=O)[O-]
REMARK SMILES IDX 3 1 4 2 5 3 6 4 2 5 1 6
REMARK H PARENT
REMARK Flexibility Score: inf
ROOT
ATOM      1  C   UNL     1      55.342  28.202  50.741  1.00  0.00     0.052 C 
ENDROOT
BRANCH   1   2
ATOM      2  C   UNL     1      55.585  26.771  50.372  1.00  0.00     0.041 C 
ATOM      3  O   UNL     1      56.668  26.212  50.687  1.00  0.00    -0.550 OA
ATOM      4  O   UNL     1      54.603  26.045  49.711  1.00  0.00    -0.550 OA
ENDBRANCH   1   2
BRANCH   1   5
ATOM      5  C   UNL     1      53.925  28.654  50.364  1.00  0.00     0.003 C 
ATOM      6  C   UNL     1      53.658  30.110  50.744  1.00  0.00     0.004 C 
ENDBRANCH   1   5
TORSDOF 2
ENDMDL
MODEL 3
REMARK VINA RESULT:    -2.419      9.460     10.390
REMARK INTER + INTRA:          -2.717
REMARK INTER:                  -2.649
REMARK INTRA:                  -0.068
REMARK UNBOUND:                -0.015
REMARK SMILES CCCC(=O)[O-]
REMARK SMILES IDX 3 1 4 2 5 3 6 4 2 5 1 6
REMARK H PARENT
REMARK Flexibility Score: inf
ROOT
ATOM      1  C   UNL     1      72.766  30.681  60.706  1.00  0.00     0.052 C 
ENDROOT
BRANCH   1   2
ATOM      2  C   UNL     1      72.389  30.357  62.119  1.00  0.00     0.041 C 
ATOM      3  O   UNL     1      73.125  30.726  63.071  1.00  0.00    -0.550 OA
ATOM      4  O   UNL     1      71.207  29.679  62.386  1.00  0.00    -0.550 OA
ENDBRANCH   1   2
BRANCH   1   5
ATOM      5  C   UNL     1      71.600  31.314  59.936  1.00  0.00     0.003 C 
ATOM      6  C   UNL     1      71.229  32.695  60.474  1.00  0.00     0.004 C 
ENDBRANCH   1   5
TORSDOF 2
ENDMDL
MODEL 4
REMARK VINA RESULT:    -2.407     14.113     14.748
REMARK INTER + INTRA:          -2.704
REMARK INTER:                  -2.674
REMARK INTRA:                  -0.030
REMARK UNBOUND:                -0.015
REMARK SMILES CCCC(=O)[O-]
REMARK SMILES IDX 3 1 4 2 5 3 6 4 2 5 1 6
REMARK H PARENT
REMARK Flexibility Score: inf
ROOT
ATOM      1  C   UNL     1      58.811  29.300  49.544  1.00  0.00     0.052 C 
ENDROOT
BRANCH   1   2
ATOM      2  C   UNL     1      59.704  28.100  49.633  1.00  0.00     0.041 C 
ATOM      3  O   UNL     1      59.209  26.943  49.654  1.00  0.00    -0.550 OA
ATOM      4  O   UNL     1      61.083  28.260  49.657  1.00  0.00    -0.550 OA
ENDBRANCH   1   2
BRANCH   1   5
ATOM      5  C   UNL     1      58.015  29.513  50.838  1.00  0.00     0.003 C 
ATOM      6  C   UNL     1      56.580  28.998  50.730  1.00  0.00     0.004 C 
ENDBRANCH   1   5
TORSDOF 2
ENDMDL
MODEL 5
REMARK VINA RESULT:    -2.390     14.705     14.962
REMARK INTER + INTRA:          -2.684
REMARK INTER:                  -2.664
REMARK INTRA:                  -0.021
REMARK UNBOUND:                -0.015
REMARK SMILES CCCC(=O)[O-]
REMARK SMILES IDX 3 1 4 2 5 3 6 4 2 5 1 6
REMARK H PARENT
REMARK Flexibility Score: inf
ROOT
ATOM      1  C   UNL     1      57.676  28.123  50.584  1.00  0.00     0.052 C 
ENDROOT
BRANCH   1   2
ATOM      2  C   UNL     1      58.768  28.741  49.766  1.00  0.00     0.041 C 
ATOM      3  O   UNL     1      58.657  29.926  49.354  1.00  0.00    -0.550 OA
ATOM      4  O   UNL     1      59.922  28.021  49.488  1.00  0.00    -0.550 OA
ENDBRANCH   1   2
BRANCH   1   5
ATOM      5  C   UNL     1      56.518  29.101  50.819  1.00  0.00     0.003 C 
ATOM      6  C   UNL     1      55.152  28.433  50.664  1.00  0.00     0.004 C 
ENDBRANCH   1   5
TORSDOF 2
ENDMDL
MODEL 6
REMARK VINA RESULT:    -2.364      2.264      3.401
REMARK INTER + INTRA:          -2.656
REMARK INTER:                  -2.647
REMARK INTRA:                  -0.009
REMARK UNBOUND:                -0.015
REMARK SMILES CCCC(=O)[O-]
REMARK SMILES IDX 3 1 4 2 5 3 6 4 2 5 1 6
REMARK H PARENT
REMARK Flexibility Score: inf
ROOT
ATOM      1  C   UNL     1      62.172  36.341  61.761  1.00  0.00     0.052 C 
ENDROOT
BRANCH   1   2
ATOM      2  C   UNL     1      63.380  35.964  62.562  1.00  0.00     0.041 C 
ATOM      3  O   UNL     1      64.330  35.340  62.021  1.00  0.00    -0.550 OA
ATOM      4  O   UNL     1      63.471  36.333  63.898  1.00  0.00    -0.550 OA
ENDBRANCH   1   2
BRANCH   1   5
ATOM      5  C   UNL     1      61.940  35.374  60.592  1.00  0.00     0.003 C 
ATOM      6  C   UNL     1      60.660  35.689  59.820  1.00  0.00     0.004 C 
ENDBRANCH   1   5
TORSDOF 2
ENDMDL
MODEL 7
REMARK VINA RESULT:    -2.275     21.079     21.881
REMARK INTER + INTRA:          -2.556
REMARK INTER:                  -2.525
REMARK INTRA:                  -0.031
REMARK UNBOUND:                -0.015
REMARK SMILES CCCC(=O)[O-]
REMARK SMILES IDX 3 1 4 2 5 3 6 4 2 5 1 6
REMARK H PARENT
REMARK Flexibility Score: inf
ROOT
ATOM      1  C   UNL     1      57.512  17.512  50.236  1.00  0.00     0.052 C 
ENDROOT
BRANCH   1   2
ATOM      2  C   UNL     1      58.661  17.900  49.357  1.00  0.00     0.041 C 
ATOM      3  O   UNL     1      59.207  17.042  48.615  1.00  0.00    -0.550 OA
ATOM      4  O   UNL     1      59.107  19.215  49.333  1.00  0.00    -0.550 OA
ENDBRANCH   1   2
BRANCH   1   5
ATOM      5  C   UNL     1      57.106  18.653  51.179  1.00  0.00     0.003 C 
ATOM      6  C   UNL     1      55.645  19.064  50.999  1.00  0.00     0.004 C 
ENDBRANCH   1   5
TORSDOF 2
ENDMDL
MODEL 8
REMARK VINA RESULT:    -2.271     15.189     15.586
REMARK INTER + INTRA:          -2.552
REMARK INTER:                  -2.537
REMARK INTRA:                  -0.014
REMARK UNBOUND:                -0.015
REMARK SMILES CCCC(=O)[O-]
REMARK SMILES IDX 3 1 4 2 5 3 6 4 2 5 1 6
REMARK H PARENT
REMARK Flexibility Score: inf
ROOT
ATOM      1  C   UNL     1      56.409  28.956  50.753  1.00  0.00     0.052 C 
ENDROOT
BRANCH   1   2
ATOM      2  C   UNL     1      55.454  27.839  50.462  1.00  0.00     0.041 C 
ATOM      3  O   UNL     1      55.860  26.648  50.440  1.00  0.00    -0.550 OA
ATOM      4  O   UNL     1      54.108  28.112  50.251  1.00  0.00    -0.550 OA
ENDBRANCH   1   2
BRANCH   1   5
ATOM      5  C   UNL     1      57.857  28.564  50.430  1.00  0.00     0.003 C 
ATOM      6  C   UNL     1      58.602  29.663  49.673  1.00  0.00     0.004 C 
ENDBRANCH   1   5
TORSDOF 2
ENDMDL
MODEL 9
REMARK VINA RESULT:    -2.242     15.436     16.640
REMARK INTER + INTRA:          -2.519
REMARK INTER:                  -2.487
REMARK INTRA:                  -0.032
REMARK UNBOUND:                -0.015
REMARK SMILES CCCC(=O)[O-]
REMARK SMILES IDX 3 1 4 2 5 3 6 4 2 5 1 6
REMARK H PARENT
REMARK Flexibility Score: inf
ROOT
ATOM      1  C   UNL     1      54.713  27.339  51.144  1.00  0.00     0.052 C 
ENDROOT
BRANCH   1   2
ATOM      2  C   UNL     1      54.982  28.741  50.688  1.00  0.00     0.041 C 
ATOM      3  O   UNL     1      54.033  29.476  50.309  1.00  0.00    -0.550 OA
ATOM      4  O   UNL     1      56.275  29.246  50.716  1.00  0.00    -0.550 OA
ENDBRANCH   1   2
BRANCH   1   5
ATOM      5  C   UNL     1      54.863  26.330  49.999  1.00  0.00     0.003 C 
ATOM      6  C   UNL     1      53.520  25.763  49.542  1.00  0.00     0.004 C 
ENDBRANCH   1   5
TORSDOF 2
ENDMDL
