MODEL 1
REMARK VINA RESULT:    -3.067      0.000      0.000
REMARK INTER + INTRA:          -3.554
REMARK INTER:                  -4.143
REMARK INTRA:                   0.588
REMARK UNBOUND:                 0.588
REMARK SMILES C=CC(C)=CCC=C(C)CCC=C(C)C
REMARK SMILES IDX 8 1 7 2 9 3 10 4 11 5 12 6 14 7 13 8 15 9 6 10 5 11 3 12
REMARK SMILES IDX 4 13 2 14 1 15
REMARK H PARENT
REMARK Flexibility Score: inf
ROOT
ATOM      1  C   UNL     1     -15.500  -1.887  17.290  1.00  0.00    -0.077 C 
ATOM      2  C   UNL     1     -14.835  -2.360  18.368  1.00  0.00    -0.024 C 
ATOM      3  C   UNL     1     -16.419  -0.691  17.384  1.00  0.00     0.039 C 
ENDROOT
BRANCH   1   4
ATOM      4  C   UNL     1     -15.320  -2.581  15.958  1.00  0.00     0.034 C 
BRANCH   4   5
ATOM      5  C   UNL     1     -13.914  -3.185  15.853  1.00  0.00     0.032 C 
BRANCH   5   6
ATOM      6  C   UNL     1     -13.963  -4.691  15.775  1.00  0.00    -0.028 C 
ATOM      7  C   UNL     1     -16.293  -4.652  14.875  1.00  0.00     0.039 C 
ATOM      8  C   UNL     1     -15.042  -5.369  15.330  1.00  0.00    -0.080 C 
ATOM      9  C   UNL     1     -14.989  -6.874  15.293  1.00  0.00     0.039 C 
ENDBRANCH   5   6
ENDBRANCH   4   5
ENDBRANCH   1   4
BRANCH   2  10
ATOM     10  C   UNL     1     -14.989  -1.826  19.770  1.00  0.00     0.055 C 
BRANCH  10  11
ATOM     11  C   UNL     1     -13.796  -2.157  20.630  1.00  0.00    -0.020 C 
ATOM     12  C   UNL     1     -13.749  -2.019  21.971  1.00  0.00    -0.055 C 
ATOM     13  C   UNL     1     -12.454  -2.311  22.683  1.00  0.00     0.044 C 
BRANCH  12  14
ATOM     14  C   UNL     1     -14.925  -1.537  22.744  1.00  0.00    -0.005 C 
ATOM     15  C   UNL     1     -14.851  -0.544  23.631  1.00  0.00     0.009 C 
ENDBRANCH  12  14
ENDBRANCH  10  11
ENDBRANCH   2  10
TORSDOF 6
ENDMDL
MODEL 2
REMARK VINA RESULT:    -2.001      1.001      1.786
REMARK INTER + INTRA:          -2.114
REMARK INTER:                  -2.414
REMARK INTRA:                   0.300
REMARK UNBOUND:                 0.588
REMARK SMILES C=CC(C)=CCC=C(C)CCC=C(C)C
REMARK SMILES IDX 8 1 7 2 9 3 10 4 11 5 12 6 14 7 13 8 15 9 6 10 5 11 3 12
REMARK SMILES IDX 4 13 2 14 1 15
REMARK H PARENT
REMARK Flexibility Score: inf
ROOT
ATOM      1  C   UNL     1     -16.446  -0.821  17.167  1.00  0.00    -0.077 C 
ATOM      2  C   UNL     1     -15.729  -1.592  18.015  1.00  0.00    -0.024 C 
ATOM      3  C   UNL     1     -16.851   0.591  17.526  1.00  0.00     0.039 C 
ENDROOT
BRANCH   1   4
ATOM      4  C   UNL     1     -16.856  -1.392  15.827  1.00  0.00     0.034 C 
BRANCH   4   5
ATOM      5  C   UNL     1     -16.222  -2.773  15.617  1.00  0.00     0.032 C 
BRANCH   5   6
ATOM      6  C   UNL     1     -14.752  -2.765  15.960  1.00  0.00    -0.028 C 
ATOM      7  C   UNL     1     -14.555  -5.219  15.541  1.00  0.00     0.039 C 
ATOM      8  C   UNL     1     -13.984  -3.874  15.927  1.00  0.00    -0.080 C 
ATOM      9  C   UNL     1     -12.526  -3.757  16.289  1.00  0.00     0.039 C 
ENDBRANCH   5   6
ENDBRANCH   4   5
ENDBRANCH   1   4
BRANCH   2  10
ATOM     10  C   UNL     1     -15.332  -1.187  19.413  1.00  0.00     0.055 C 
BRANCH  10  11
ATOM     11  C   UNL     1     -14.177  -2.009  19.927  1.00  0.00    -0.020 C 
ATOM     12  C   UNL     1     -13.921  -2.248  21.229  1.00  0.00    -0.055 C 
ATOM     13  C   UNL     1     -12.676  -3.018  21.591  1.00  0.00     0.044 C 
BRANCH  12  14
ATOM     14  C   UNL     1     -14.805  -1.725  22.305  1.00  0.00    -0.005 C 
ATOM     15  C   UNL     1     -14.356  -0.974  23.310  1.00  0.00     0.009 C 
ENDBRANCH  12  14
ENDBRANCH  10  11
ENDBRANCH   2  10
TORSDOF 6
ENDMDL
MODEL 3
REMARK VINA RESULT:    -1.682      0.846      7.010
REMARK INTER + INTRA:          -1.684
REMARK INTER:                  -1.875
REMARK INTRA:                   0.191
REMARK UNBOUND:                 0.588
REMARK SMILES C=CC(C)=CCC=C(C)CCC=C(C)C
REMARK SMILES IDX 8 1 7 2 9 3 10 4 11 5 12 6 14 7 13 8 15 9 6 10 5 11 3 12
REMARK SMILES IDX 4 13 2 14 1 15
REMARK H PARENT
REMARK Flexibility Score: inf
ROOT
ATOM      1  C   UNL     1     -14.219  -2.142  18.218  1.00  0.00    -0.077 C 
ATOM      2  C   UNL     1     -13.434  -2.895  17.414  1.00  0.00    -0.024 C 
ATOM      3  C   UNL     1     -15.458  -1.450  17.698  1.00  0.00     0.039 C 
ENDROOT
BRANCH   1   4
ATOM      4  C   UNL     1     -13.840  -1.989  19.675  1.00  0.00     0.034 C 
BRANCH   4   5
ATOM      5  C   UNL     1     -14.885  -2.660  20.575  1.00  0.00     0.032 C 
BRANCH   5   6
ATOM      6  C   UNL     1     -15.257  -1.778  21.742  1.00  0.00    -0.028 C 
ATOM      7  C   UNL     1     -12.956  -1.931  22.700  1.00  0.00     0.039 C 
ATOM      8  C   UNL     1     -14.385  -1.440  22.715  1.00  0.00    -0.080 C 
ATOM      9  C   UNL     1     -14.860  -0.554  23.838  1.00  0.00     0.039 C 
ENDBRANCH   5   6
ENDBRANCH   4   5
ENDBRANCH   1   4
BRANCH   2  10
ATOM     10  C   UNL     1     -13.640  -3.060  15.929  1.00  0.00     0.055 C 
BRANCH  10  11
ATOM     11  C   UNL     1     -15.051  -3.479  15.603  1.00  0.00    -0.020 C 
ATOM     12  C   UNL     1     -15.424  -4.728  15.257  1.00  0.00    -0.055 C 
ATOM     13  C   UNL     1     -16.861  -4.974  14.875  1.00  0.00     0.044 C 
BRANCH  12  14
ATOM     14  C   UNL     1     -14.442  -5.843  15.193  1.00  0.00    -0.005 C 
ATOM     15  C   UNL     1     -14.804  -7.124  15.111  1.00  0.00     0.009 C 
ENDBRANCH  12  14
ENDBRANCH  10  11
ENDBRANCH   2  10
TORSDOF 6
ENDMDL
MODEL 4
REMARK VINA RESULT:    -1.657      1.707      4.048
REMARK INTER + INTRA:          -1.650
REMARK INTER:                  -1.338
REMARK INTRA:                  -0.312
REMARK UNBOUND:                 0.588
REMARK SMILES C=CC(C)=CCC=C(C)CCC=C(C)C
REMARK SMILES IDX 8 1 7 2 9 3 10 4 11 5 12 6 14 7 13 8 15 9 6 10 5 11 3 12
REMARK SMILES IDX 4 13 2 14 1 15
REMARK H PARENT
REMARK Flexibility Score: inf
ROOT
ATOM      1  C   UNL     1     -14.628  -2.708  17.044  1.00  0.00    -0.077 C 
ATOM      2  C   UNL     1     -15.013  -2.517  18.327  1.00  0.00    -0.024 C 
ATOM      3  C   UNL     1     -13.176  -2.888  16.668  1.00  0.00     0.039 C 
ENDROOT
BRANCH   1   4
ATOM      4  C   UNL     1     -15.684  -2.737  15.961  1.00  0.00     0.034 C 
BRANCH   4   5
ATOM      5  C   UNL     1     -16.623  -1.531  16.095  1.00  0.00     0.032 C 
BRANCH   5   6
ATOM      6  C   UNL     1     -15.884  -0.307  16.577  1.00  0.00    -0.028 C 
ATOM      7  C   UNL     1     -17.932   0.595  17.686  1.00  0.00     0.039 C 
ATOM      8  C   UNL     1     -16.472   0.668  17.302  1.00  0.00    -0.080 C 
ATOM      9  C   UNL     1     -15.644   1.851  17.733  1.00  0.00     0.039 C 
ENDBRANCH   5   6
ENDBRANCH   4   5
ENDBRANCH   1   4
BRANCH   2  10
ATOM     10  C   UNL     1     -14.065  -2.376  19.492  1.00  0.00     0.055 C 
BRANCH  10  11
ATOM     11  C   UNL     1     -14.771  -1.885  20.731  1.00  0.00    -0.020 C 
ATOM     12  C   UNL     1     -14.179  -1.680  21.925  1.00  0.00    -0.055 C 
ATOM     13  C   UNL     1     -15.035  -1.270  23.095  1.00  0.00     0.044 C 
BRANCH  12  14
ATOM     14  C   UNL     1     -12.721  -1.902  22.119  1.00  0.00    -0.005 C 
ATOM     15  C   UNL     1     -12.185  -3.115  22.252  1.00  0.00     0.009 C 
ENDBRANCH  12  14
ENDBRANCH  10  11
ENDBRANCH   2  10
TORSDOF 6
ENDMDL
MODEL 5
REMARK VINA RESULT:    -1.448      0.960      2.274
REMARK INTER + INTRA:          -1.368
REMARK INTER:                  -0.893
REMARK INTRA:                  -0.475
REMARK UNBOUND:                 0.588
REMARK SMILES C=CC(C)=CCC=C(C)CCC=C(C)C
REMARK SMILES IDX 8 1 7 2 9 3 10 4 11 5 12 6 14 7 13 8 15 9 6 10 5 11 3 12
REMARK SMILES IDX 4 13 2 14 1 15
REMARK H PARENT
REMARK Flexibility Score: inf
ROOT
ATOM      1  C   UNL     1     -15.152  -2.035  18.586  1.00  0.00    -0.077 C 
ATOM      2  C   UNL     1     -15.829  -2.387  19.702  1.00  0.00    -0.024 C 
ATOM      3  C   UNL     1     -13.663  -2.259  18.456  1.00  0.00     0.039 C 
ENDROOT
BRANCH   1   4
ATOM      4  C   UNL     1     -15.909  -1.395  17.443  1.00  0.00     0.034 C 
BRANCH   4   5
ATOM      5  C   UNL     1     -15.350  -1.872  16.096  1.00  0.00     0.032 C 
BRANCH   5   6
ATOM      6  C   UNL     1     -15.639  -3.335  15.865  1.00  0.00    -0.028 C 
ATOM      7  C   UNL     1     -13.213  -3.856  15.582  1.00  0.00     0.039 C 
ATOM      8  C   UNL     1     -14.672  -4.247  15.631  1.00  0.00    -0.080 C 
ATOM      9  C   UNL     1     -15.068  -5.684  15.412  1.00  0.00     0.039 C 
ENDBRANCH   5   6
ENDBRANCH   4   5
ENDBRANCH   1   4
BRANCH   2  10
ATOM     10  C   UNL     1     -15.192  -2.948  20.949  1.00  0.00     0.055 C 
BRANCH  10  11
ATOM     11  C   UNL     1     -15.375  -2.031  22.132  1.00  0.00    -0.020 C 
ATOM     12  C   UNL     1     -14.386  -1.329  22.723  1.00  0.00    -0.055 C 
ATOM     13  C   UNL     1     -14.710  -0.520  23.952  1.00  0.00     0.044 C 
BRANCH  12  14
ATOM     14  C   UNL     1     -12.987  -1.382  22.220  1.00  0.00    -0.005 C 
ATOM     15  C   UNL     1     -12.338  -2.525  22.003  1.00  0.00     0.009 C 
ENDBRANCH  12  14
ENDBRANCH  10  11
ENDBRANCH   2  10
TORSDOF 6
ENDMDL
MODEL 6
REMARK VINA RESULT:    -1.222      0.911      6.420
REMARK INTER + INTRA:          -1.063
REMARK INTER:                  -1.419
REMARK INTRA:                   0.356
REMARK UNBOUND:                 0.588
REMARK SMILES C=CC(C)=CCC=C(C)CCC=C(C)C
REMARK SMILES IDX 8 1 7 2 9 3 10 4 11 5 12 6 14 7 13 8 15 9 6 10 5 11 3 12
REMARK SMILES IDX 4 13 2 14 1 15
REMARK H PARENT
REMARK Flexibility Score: inf
ROOT
ATOM      1  C   UNL     1     -15.746  -1.205  17.657  1.00  0.00    -0.077 C 
ATOM      2  C   UNL     1     -15.576  -2.351  16.958  1.00  0.00    -0.024 C 
ATOM      3  C   UNL     1     -16.723  -0.141  17.213  1.00  0.00     0.039 C 
ENDROOT
BRANCH   1   4
ATOM      4  C   UNL     1     -14.930  -0.986  18.912  1.00  0.00     0.034 C 
BRANCH   4   5
ATOM      5  C   UNL     1     -14.940  -2.247  19.786  1.00  0.00     0.032 C 
BRANCH   5   6
ATOM      6  C   UNL     1     -15.092  -1.904  21.248  1.00  0.00    -0.028 C 
ATOM      7  C   UNL     1     -12.621  -1.969  21.605  1.00  0.00     0.039 C 
ATOM      8  C   UNL     1     -14.041  -1.775  22.085  1.00  0.00    -0.080 C 
ATOM      9  C   UNL     1     -14.302  -1.430  23.528  1.00  0.00     0.039 C 
ENDBRANCH   5   6
ENDBRANCH   4   5
ENDBRANCH   1   4
BRANCH   2  10
ATOM     10  C   UNL     1     -16.253  -2.662  15.647  1.00  0.00     0.055 C 
BRANCH  10  11
ATOM     11  C   UNL     1     -16.074  -4.106  15.253  1.00  0.00    -0.020 C 
ATOM     12  C   UNL     1     -14.941  -4.817  15.426  1.00  0.00    -0.055 C 
ATOM     13  C   UNL     1     -14.887  -6.230  14.902  1.00  0.00     0.044 C 
BRANCH  12  14
ATOM     14  C   UNL     1     -13.739  -4.221  16.068  1.00  0.00    -0.005 C 
ATOM     15  C   UNL     1     -12.914  -3.390  15.431  1.00  0.00     0.009 C 
ENDBRANCH  12  14
ENDBRANCH  10  11
ENDBRANCH   2  10
TORSDOF 6
ENDMDL
MODEL 7
REMARK VINA RESULT:    -0.288      2.204      6.391
REMARK INTER + INTRA:           0.199
REMARK INTER:                  -0.175
REMARK INTRA:                   0.374
REMARK UNBOUND:                 0.588
REMARK SMILES C=CC(C)=CCC=C(C)CCC=C(C)C
REMARK SMILES IDX 8 1 7 2 9 3 10 4 11 5 12 6 14 7 13 8 15 9 6 10 5 11 3 12
REMARK SMILES IDX 4 13 2 14 1 15
REMARK H PARENT
REMARK Flexibility Score: inf
ROOT
ATOM      1  C   UNL     1     -14.619  -2.252  18.849  1.00  0.00    -0.077 C 
ATOM      2  C   UNL     1     -14.319  -1.915  17.574  1.00  0.00    -0.024 C 
ATOM      3  C   UNL     1     -15.998  -2.730  19.241  1.00  0.00     0.039 C 
ENDROOT
BRANCH   1   4
ATOM      4  C   UNL     1     -13.543  -2.143  19.907  1.00  0.00     0.034 C 
BRANCH   4   5
ATOM      5  C   UNL     1     -13.988  -2.838  21.200  1.00  0.00     0.032 C 
BRANCH   5   6
ATOM      6  C   UNL     1     -14.843  -1.930  22.050  1.00  0.00    -0.028 C 
ATOM      7  C   UNL     1     -12.877  -1.217  23.414  1.00  0.00     0.039 C 
ATOM      8  C   UNL     1     -14.346  -1.187  23.060  1.00  0.00    -0.080 C 
ATOM      9  C   UNL     1     -15.287  -0.313  23.849  1.00  0.00     0.039 C 
ENDBRANCH   5   6
ENDBRANCH   4   5
ENDBRANCH   1   4
BRANCH   2  10
ATOM     10  C   UNL     1     -15.312  -1.889  16.440  1.00  0.00     0.055 C 
BRANCH  10  11
ATOM     11  C   UNL     1     -16.579  -1.165  16.822  1.00  0.00    -0.020 C 
ATOM     12  C   UNL     1     -16.645   0.129  17.196  1.00  0.00    -0.055 C 
ATOM     13  C   UNL     1     -17.974   0.689  17.632  1.00  0.00     0.044 C 
BRANCH  12  14
ATOM     14  C   UNL     1     -15.432   0.989  17.236  1.00  0.00    -0.005 C 
ATOM     15  C   UNL     1     -15.429   2.213  17.764  1.00  0.00     0.009 C 
ENDBRANCH  12  14
ENDBRANCH  10  11
ENDBRANCH   2  10
TORSDOF 6
ENDMDL
MODEL 8
REMARK VINA RESULT:    -0.285      2.954      5.991
REMARK INTER + INTRA:           0.203
REMARK INTER:                   0.727
REMARK INTRA:                  -0.524
REMARK UNBOUND:                 0.588
REMARK SMILES C=CC(C)=CCC=C(C)CCC=C(C)C
REMARK SMILES IDX 8 1 7 2 9 3 10 4 11 5 12 6 14 7 13 8 15 9 6 10 5 11 3 12
REMARK SMILES IDX 4 13 2 14 1 15
REMARK H PARENT
REMARK Flexibility Score: inf
ROOT
ATOM      1  C   UNL     1     -13.140  -2.723  21.515  1.00  0.00    -0.077 C 
ATOM      2  C   UNL     1     -13.621  -2.857  20.259  1.00  0.00    -0.024 C 
ATOM      3  C   UNL     1     -13.622  -1.628  22.438  1.00  0.00     0.039 C 
ENDROOT
BRANCH   1   4
ATOM      4  C   UNL     1     -12.087  -3.694  22.003  1.00  0.00     0.034 C 
BRANCH   4   5
ATOM      5  C   UNL     1     -12.146  -4.999  21.197  1.00  0.00     0.032 C 
BRANCH   5   6
ATOM      6  C   UNL     1     -11.161  -6.016  21.720  1.00  0.00    -0.028 C 
ATOM      7  C   UNL     1     -10.876  -7.028  19.455  1.00  0.00     0.039 C 
ATOM      8  C   UNL     1     -10.577  -6.944  20.934  1.00  0.00    -0.080 C 
ATOM      9  C   UNL     1      -9.607  -7.915  21.557  1.00  0.00     0.039 C 
ENDBRANCH   5   6
ENDBRANCH   4   5
ENDBRANCH   1   4
BRANCH   2  10
ATOM     10  C   UNL     1     -14.601  -1.911  19.612  1.00  0.00     0.055 C 
BRANCH  10  11
ATOM     11  C   UNL     1     -14.917  -2.315  18.194  1.00  0.00    -0.020 C 
ATOM     12  C   UNL     1     -15.582  -1.549  17.304  1.00  0.00    -0.055 C 
ATOM     13  C   UNL     1     -15.898  -2.127  15.948  1.00  0.00     0.044 C 
BRANCH  12  14
ATOM     14  C   UNL     1     -16.052  -0.182  17.653  1.00  0.00    -0.005 C 
ATOM     15  C   UNL     1     -17.150   0.362  17.129  1.00  0.00     0.009 C 
ENDBRANCH  12  14
ENDBRANCH  10  11
ENDBRANCH   2  10
TORSDOF 6
ENDMDL
