MODEL 1
REMARK VINA RESULT:    -7.905      0.000      0.000
REMARK INTER + INTRA:         -10.921
REMARK INTER:                  -9.984
REMARK INTRA:                  -0.937
REMARK UNBOUND:                -0.937
REMARK SMILES CC(C)[C@@H](C)C=C[C@@H](C)[C@@H]1CC[C@@H]2C3=CC=C4C[C@@H](O)CC[C@@]4(C)[C@H]3CC[C@]21C
REMARK SMILES IDX 8 1 9 2 7 3 6 4 4 5 5 6 2 7 1 8 3 9 10 10 11 11 28 12 12 13
REMARK SMILES IDX 13 14 27 15 29 16 14 17 26 18 25 19 15 20 23 21 16 22 17 23
REMARK SMILES IDX 22 24 24 25 18 26 21 27 19 28 20 29
REMARK H PARENT 20 30
REMARK Flexibility Score: inf
ROOT
ATOM      1  C   UNL     1      -6.419  29.337  47.714  1.00  0.00     0.012 C 
ATOM      2  C   UNL     1      -6.122  30.352  48.838  1.00  0.00     0.012 C 
ENDROOT
BRANCH   1   3
ATOM      3  C   UNL     1      -7.674  29.757  46.970  1.00  0.00    -0.028 C 
ATOM      4  C   UNL     1      -8.579  28.871  46.517  1.00  0.00    -0.028 C 
BRANCH   4   5
ATOM      5  C   UNL     1      -9.831  29.323  45.791  1.00  0.00     0.011 C 
ATOM      6  C   UNL     1      -9.758  30.848  45.603  1.00  0.00     0.012 C 
BRANCH   5   7
ATOM      7  C   UNL     1     -11.112  28.881  46.563  1.00  0.00    -0.011 C 
ATOM      8  C   UNL     1     -10.759  27.944  47.734  1.00  0.00     0.008 C 
ATOM      9  C   UNL     1     -12.125  28.170  45.647  1.00  0.00     0.008 C 
ENDBRANCH   5   7
ENDBRANCH   4   5
ENDBRANCH   1   3
BRANCH   1  10
ATOM     10  C   UNL     1      -6.495  27.819  48.101  1.00  0.00     0.002 C 
ATOM     11  C   UNL     1      -7.121  27.443  49.471  1.00  0.00     0.005 C 
ATOM     12  C   UNL     1      -5.185  26.983  48.042  1.00  0.00    -0.023 C 
ATOM     13  C   UNL     1      -6.499  26.090  49.873  1.00  0.00     0.009 C 
ATOM     14  C   UNL     1      -5.701  25.670  48.642  1.00  0.00     0.021 C 
ATOM     15  C   UNL     1      -4.656  26.698  46.597  1.00  0.00     0.008 C 
ATOM     16  C   UNL     1      -4.082  27.640  48.939  1.00  0.00     0.012 C 
ATOM     17  C   UNL     1      -4.644  24.587  48.735  1.00  0.00    -0.063 C 
ATOM     18  C   UNL     1      -4.036  25.277  46.403  1.00  0.00     0.009 C 
ATOM     19  C   UNL     1      -3.493  24.649  47.722  1.00  0.00     0.025 C 
ATOM     20  C   UNL     1      -4.976  23.444  49.347  1.00  0.00    -0.000 C 
ATOM     21  C   UNL     1      -2.627  23.311  47.615  1.00  0.00    -0.005 C 
ATOM     22  C   UNL     1      -4.361  22.167  48.994  1.00  0.00    -0.000 C 
ATOM     23  C   UNL     1      -3.390  22.068  48.080  1.00  0.00    -0.061 C 
ATOM     24  C   UNL     1      -2.100  23.075  46.162  1.00  0.00     0.014 C 
ATOM     25  C   UNL     1      -1.408  23.465  48.571  1.00  0.00     0.017 C 
ATOM     26  C   UNL     1      -2.830  20.691  47.784  1.00  0.00     0.063 C 
ATOM     27  C   UNL     1      -1.415  21.715  45.963  1.00  0.00     0.033 C 
ATOM     28  C   UNL     1      -2.363  20.563  46.330  1.00  0.00     0.118 C 
BRANCH  28  29
ATOM     29  O   UNL     1      -3.482  20.552  45.479  1.00  0.00    -0.393 OA
ATOM     30  H   UNL     1      -4.114  19.878  45.844  1.00  0.00     0.210 HD
ENDBRANCH  28  29
ENDBRANCH   1  10
TORSDOF 5
ENDMDL
MODEL 2
REMARK VINA RESULT:    -7.503      4.592      8.126
REMARK INTER + INTRA:         -10.413
REMARK INTER:                  -9.436
REMARK INTRA:                  -0.977
REMARK UNBOUND:                -0.937
REMARK SMILES CC(C)[C@@H](C)C=C[C@@H](C)[C@@H]1CC[C@@H]2C3=CC=C4C[C@@H](O)CC[C@@]4(C)[C@H]3CC[C@]21C
REMARK SMILES IDX 8 1 9 2 7 3 6 4 4 5 5 6 2 7 1 8 3 9 10 10 11 11 28 12 12 13
REMARK SMILES IDX 13 14 27 15 29 16 14 17 26 18 25 19 15 20 23 21 16 22 17 23
REMARK SMILES IDX 22 24 24 25 18 26 21 27 19 28 20 29
REMARK H PARENT 20 30
REMARK Flexibility Score: inf
ROOT
ATOM      1  C   UNL     1      -4.674  23.473  48.688  1.00  0.00     0.012 C 
ATOM      2  C   UNL     1      -6.041  24.168  48.522  1.00  0.00     0.012 C 
ENDROOT
BRANCH   1   3
ATOM      3  C   UNL     1      -4.771  22.038  48.204  1.00  0.00    -0.028 C 
ATOM      4  C   UNL     1      -3.775  21.148  48.365  1.00  0.00    -0.028 C 
BRANCH   4   5
ATOM      5  C   UNL     1      -3.910  19.716  47.886  1.00  0.00     0.011 C 
ATOM      6  C   UNL     1      -3.472  18.780  49.026  1.00  0.00     0.012 C 
BRANCH   5   7
ATOM      7  C   UNL     1      -3.089  19.486  46.581  1.00  0.00    -0.011 C 
ATOM      8  C   UNL     1      -2.831  17.986  46.344  1.00  0.00     0.008 C 
ATOM      9  C   UNL     1      -1.737  20.223  46.609  1.00  0.00     0.008 C 
ENDBRANCH   5   7
ENDBRANCH   4   5
ENDBRANCH   1   3
BRANCH   1  10
ATOM     10  C   UNL     1      -3.991  23.528  50.100  1.00  0.00     0.002 C 
ATOM     11  C   UNL     1      -4.769  24.204  51.262  1.00  0.00     0.005 C 
ATOM     12  C   UNL     1      -2.563  24.134  50.198  1.00  0.00    -0.023 C 
ATOM     13  C   UNL     1      -3.704  24.704  52.260  1.00  0.00     0.009 C 
ATOM     14  C   UNL     1      -2.395  24.131  51.722  1.00  0.00     0.021 C 
ATOM     15  C   UNL     1      -1.434  23.251  49.570  1.00  0.00     0.008 C 
ATOM     16  C   UNL     1      -2.547  25.587  49.614  1.00  0.00     0.012 C 
ATOM     17  C   UNL     1      -1.060  24.675  52.190  1.00  0.00    -0.063 C 
ATOM     18  C   UNL     1      -0.086  23.263  50.360  1.00  0.00     0.009 C 
ATOM     19  C   UNL     1       0.122  24.548  51.217  1.00  0.00     0.025 C 
ATOM     20  C   UNL     1      -0.870  24.812  53.507  1.00  0.00    -0.000 C 
ATOM     21  C   UNL     1       1.556  24.787  51.878  1.00  0.00    -0.005 C 
ATOM     22  C   UNL     1       0.455  24.714  54.114  1.00  0.00    -0.000 C 
ATOM     23  C   UNL     1       1.565  24.540  53.389  1.00  0.00    -0.061 C 
ATOM     24  C   UNL     1       2.657  23.902  51.209  1.00  0.00     0.014 C 
ATOM     25  C   UNL     1       1.923  26.286  51.673  1.00  0.00     0.017 C 
ATOM     26  C   UNL     1       2.887  24.443  54.125  1.00  0.00     0.063 C 
ATOM     27  C   UNL     1       4.017  23.957  51.922  1.00  0.00     0.033 C 
ATOM     28  C   UNL     1       3.884  23.537  53.393  1.00  0.00     0.118 C 
BRANCH  28  29
ATOM     29  O   UNL     1       3.459  22.201  53.489  1.00  0.00    -0.393 OA
ATOM     30  H   UNL     1       2.536  22.218  53.856  1.00  0.00     0.210 HD
ENDBRANCH  28  29
ENDBRANCH   1  10
TORSDOF 5
ENDMDL
MODEL 3
REMARK VINA RESULT:    -7.450      3.723      6.084
REMARK INTER + INTRA:         -10.347
REMARK INTER:                  -8.993
REMARK INTRA:                  -1.354
REMARK UNBOUND:                -0.937
REMARK SMILES CC(C)[C@@H](C)C=C[C@@H](C)[C@@H]1CC[C@@H]2C3=CC=C4C[C@@H](O)CC[C@@]4(C)[C@H]3CC[C@]21C
REMARK SMILES IDX 8 1 9 2 7 3 6 4 4 5 5 6 2 7 1 8 3 9 10 10 11 11 28 12 12 13
REMARK SMILES IDX 13 14 27 15 29 16 14 17 26 18 25 19 15 20 23 21 16 22 17 23
REMARK SMILES IDX 22 24 24 25 18 26 21 27 19 28 20 29
REMARK H PARENT 20 30
REMARK Flexibility Score: inf
ROOT
ATOM      1  C   UNL     1      -1.821  27.736  44.133  1.00  0.00     0.012 C 
ATOM      2  C   UNL     1      -2.141  29.241  44.245  1.00  0.00     0.012 C 
ENDROOT
BRANCH   1   3
ATOM      3  C   UNL     1      -1.353  27.420  42.725  1.00  0.00    -0.028 C 
ATOM      4  C   UNL     1      -2.014  26.574  41.912  1.00  0.00    -0.028 C 
BRANCH   4   5
ATOM      5  C   UNL     1      -1.530  26.292  40.504  1.00  0.00     0.011 C 
ATOM      6  C   UNL     1      -2.385  27.114  39.524  1.00  0.00     0.012 C 
BRANCH   5   7
ATOM      7  C   UNL     1      -1.576  24.765  40.194  1.00  0.00    -0.011 C 
ATOM      8  C   UNL     1      -2.429  24.013  41.235  1.00  0.00     0.008 C 
ATOM      9  C   UNL     1      -0.170  24.137  40.159  1.00  0.00     0.008 C 
ENDBRANCH   5   7
ENDBRANCH   4   5
ENDBRANCH   1   3
BRANCH   1  10
ATOM     10  C   UNL     1      -2.926  26.717  44.583  1.00  0.00     0.002 C 
ATOM     11  C   UNL     1      -4.263  27.284  45.133  1.00  0.00     0.005 C 
ATOM     12  C   UNL     1      -2.532  25.617  45.608  1.00  0.00    -0.023 C 
ATOM     13  C   UNL     1      -4.841  26.199  46.066  1.00  0.00     0.009 C 
ATOM     14  C   UNL     1      -3.915  25.004  45.859  1.00  0.00     0.021 C 
ATOM     15  C   UNL     1      -1.588  24.505  45.042  1.00  0.00     0.008 C 
ATOM     16  C   UNL     1      -1.940  26.268  46.904  1.00  0.00     0.012 C 
ATOM     17  C   UNL     1      -3.901  23.854  46.847  1.00  0.00    -0.063 C 
ATOM     18  C   UNL     1      -1.888  23.066  45.576  1.00  0.00     0.009 C 
ATOM     19  C   UNL     1      -2.596  23.053  46.964  1.00  0.00     0.025 C 
ATOM     20  C   UNL     1      -5.078  23.330  47.209  1.00  0.00    -0.000 C 
ATOM     21  C   UNL     1      -2.740  21.653  47.720  1.00  0.00    -0.005 C 
ATOM     22  C   UNL     1      -5.216  21.931  47.607  1.00  0.00    -0.000 C 
ATOM     23  C   UNL     1      -4.169  21.104  47.690  1.00  0.00    -0.061 C 
ATOM     24  C   UNL     1      -1.766  20.578  47.139  1.00  0.00     0.014 C 
ATOM     25  C   UNL     1      -2.389  21.891  49.218  1.00  0.00     0.017 C 
ATOM     26  C   UNL     1      -4.428  19.668  48.105  1.00  0.00     0.063 C 
ATOM     27  C   UNL     1      -1.988  19.167  47.706  1.00  0.00     0.033 C 
ATOM     28  C   UNL     1      -3.431  18.698  47.464  1.00  0.00     0.118 C 
BRANCH  28  29
ATOM     29  O   UNL     1      -3.694  18.599  46.086  1.00  0.00    -0.393 OA
ATOM     30  H   UNL     1      -2.880  18.918  45.614  1.00  0.00     0.210 HD
ENDBRANCH  28  29
ENDBRANCH   1  10
TORSDOF 5
ENDMDL
MODEL 4
REMARK VINA RESULT:    -7.423      3.426      6.300
REMARK INTER + INTRA:         -10.313
REMARK INTER:                  -9.273
REMARK INTRA:                  -1.040
REMARK UNBOUND:                -0.937
REMARK SMILES CC(C)[C@@H](C)C=C[C@@H](C)[C@@H]1CC[C@@H]2C3=CC=C4C[C@@H](O)CC[C@@]4(C)[C@H]3CC[C@]21C
REMARK SMILES IDX 8 1 9 2 7 3 6 4 4 5 5 6 2 7 1 8 3 9 10 10 11 11 28 12 12 13
REMARK SMILES IDX 13 14 27 15 29 16 14 17 26 18 25 19 15 20 23 21 16 22 17 23
REMARK SMILES IDX 22 24 24 25 18 26 21 27 19 28 20 29
REMARK H PARENT 20 30
REMARK Flexibility Score: inf
ROOT
ATOM      1  C   UNL     1      -4.655  26.599  50.132  1.00  0.00     0.012 C 
ATOM      2  C   UNL     1      -5.269  27.960  49.741  1.00  0.00     0.012 C 
ENDROOT
BRANCH   1   3
ATOM      3  C   UNL     1      -3.673  26.793  51.272  1.00  0.00    -0.028 C 
ATOM      4  C   UNL     1      -3.780  26.136  52.441  1.00  0.00    -0.028 C 
BRANCH   4   5
ATOM      5  C   UNL     1      -2.773  26.338  53.556  1.00  0.00     0.011 C 
ATOM      6  C   UNL     1      -2.357  27.820  53.570  1.00  0.00     0.012 C 
BRANCH   5   7
ATOM      7  C   UNL     1      -1.553  25.382  53.385  1.00  0.00    -0.011 C 
ATOM      8  C   UNL     1      -0.567  25.923  52.332  1.00  0.00     0.008 C 
ATOM      9  C   UNL     1      -1.983  23.961  52.979  1.00  0.00     0.008 C 
ENDBRANCH   5   7
ENDBRANCH   4   5
ENDBRANCH   1   3
BRANCH   1  10
ATOM     10  C   UNL     1      -4.007  25.735  48.994  1.00  0.00     0.002 C 
ATOM     11  C   UNL     1      -4.189  26.206  47.525  1.00  0.00     0.005 C 
ATOM     12  C   UNL     1      -4.339  24.217  48.948  1.00  0.00    -0.023 C 
ATOM     13  C   UNL     1      -4.073  24.940  46.649  1.00  0.00     0.009 C 
ATOM     14  C   UNL     1      -3.648  23.850  47.630  1.00  0.00     0.021 C 
ATOM     15  C   UNL     1      -3.698  23.373  50.100  1.00  0.00     0.008 C 
ATOM     16  C   UNL     1      -5.888  24.002  48.873  1.00  0.00     0.012 C 
ATOM     17  C   UNL     1      -3.775  22.385  47.263  1.00  0.00    -0.063 C 
ATOM     18  C   UNL     1      -3.207  21.954  49.667  1.00  0.00     0.009 C 
ATOM     19  C   UNL     1      -3.953  21.391  48.419  1.00  0.00     0.025 C 
ATOM     20  C   UNL     1      -3.297  21.997  46.075  1.00  0.00    -0.000 C 
ATOM     21  C   UNL     1      -3.710  19.862  48.027  1.00  0.00    -0.005 C 
ATOM     22  C   UNL     1      -2.791  20.646  45.845  1.00  0.00    -0.000 C 
ATOM     23  C   UNL     1      -2.827  19.698  46.787  1.00  0.00    -0.061 C 
ATOM     24  C   UNL     1      -3.089  19.051  49.209  1.00  0.00     0.014 C 
ATOM     25  C   UNL     1      -5.094  19.246  47.667  1.00  0.00     0.017 C 
ATOM     26  C   UNL     1      -2.265  18.332  46.443  1.00  0.00     0.063 C 
ATOM     27  C   UNL     1      -2.669  17.623  48.830  1.00  0.00     0.033 C 
ATOM     28  C   UNL     1      -1.664  17.635  47.668  1.00  0.00     0.118 C 
BRANCH  28  29
ATOM     29  O   UNL     1      -0.480  18.291  48.046  1.00  0.00    -0.393 OA
ATOM     30  H   UNL     1       0.274  17.708  47.765  1.00  0.00     0.210 HD
ENDBRANCH  28  29
ENDBRANCH   1  10
TORSDOF 5
ENDMDL
MODEL 5
REMARK VINA RESULT:    -6.970      2.556      4.852
REMARK INTER + INTRA:          -9.741
REMARK INTER:                  -9.526
REMARK INTRA:                  -0.215
REMARK UNBOUND:                -0.937
REMARK SMILES CC(C)[C@@H](C)C=C[C@@H](C)[C@@H]1CC[C@@H]2C3=CC=C4C[C@@H](O)CC[C@@]4(C)[C@H]3CC[C@]21C
REMARK SMILES IDX 8 1 9 2 7 3 6 4 4 5 5 6 2 7 1 8 3 9 10 10 11 11 28 12 12 13
REMARK SMILES IDX 13 14 27 15 29 16 14 17 26 18 25 19 15 20 23 21 16 22 17 23
REMARK SMILES IDX 22 24 24 25 18 26 21 27 19 28 20 29
REMARK H PARENT 20 30
REMARK Flexibility Score: inf
ROOT
ATOM      1  C   UNL     1      -3.474  26.300  51.324  1.00  0.00     0.012 C 
ATOM      2  C   UNL     1      -3.841  26.304  52.823  1.00  0.00     0.012 C 
ENDROOT
BRANCH   1   3
ATOM      3  C   UNL     1      -4.733  26.134  50.493  1.00  0.00    -0.028 C 
ATOM      4  C   UNL     1      -5.742  27.024  50.518  1.00  0.00    -0.028 C 
BRANCH   4   5
ATOM      5  C   UNL     1      -6.980  26.838  49.663  1.00  0.00     0.011 C 
ATOM      6  C   UNL     1      -7.082  25.353  49.274  1.00  0.00     0.012 C 
BRANCH   5   7
ATOM      7  C   UNL     1      -6.942  27.776  48.418  1.00  0.00    -0.011 C 
ATOM      8  C   UNL     1      -6.323  27.060  47.202  1.00  0.00     0.008 C 
ATOM      9  C   UNL     1      -6.150  29.068  48.689  1.00  0.00     0.008 C 
ENDBRANCH   5   7
ENDBRANCH   4   5
ENDBRANCH   1   3
BRANCH   1  10
ATOM     10  C   UNL     1      -2.367  25.298  50.844  1.00  0.00     0.002 C 
ATOM     11  C   UNL     1      -0.971  25.870  50.478  1.00  0.00     0.005 C 
ATOM     12  C   UNL     1      -2.706  24.344  49.664  1.00  0.00    -0.023 C 
ATOM     13  C   UNL     1      -0.350  24.881  49.470  1.00  0.00     0.009 C 
ATOM     14  C   UNL     1      -1.327  23.708  49.453  1.00  0.00     0.021 C 
ATOM     15  C   UNL     1      -3.730  23.212  50.011  1.00  0.00     0.008 C 
ATOM     16  C   UNL     1      -3.164  25.168  48.414  1.00  0.00     0.012 C 
ATOM     17  C   UNL     1      -1.291  22.685  48.335  1.00  0.00    -0.063 C 
ATOM     18  C   UNL     1      -3.430  21.836  49.333  1.00  0.00     0.009 C 
ATOM     19  C   UNL     1      -2.606  21.959  48.016  1.00  0.00     0.025 C 
ATOM     20  C   UNL     1      -0.105  22.160  48.009  1.00  0.00    -0.000 C 
ATOM     21  C   UNL     1      -2.442  20.654  47.110  1.00  0.00    -0.005 C 
ATOM     22  C   UNL     1       0.023  20.815  47.456  1.00  0.00    -0.000 C 
ATOM     23  C   UNL     1      -1.038  20.046  47.187  1.00  0.00    -0.061 C 
ATOM     24  C   UNL     1      -3.495  19.558  47.474  1.00  0.00     0.014 C 
ATOM     25  C   UNL     1      -2.655  21.082  45.628  1.00  0.00     0.017 C 
ATOM     26  C   UNL     1      -0.789  18.661  46.624  1.00  0.00     0.063 C 
ATOM     27  C   UNL     1      -3.269  18.217  46.760  1.00  0.00     0.033 C 
ATOM     28  C   UNL     1      -1.867  17.663  47.059  1.00  0.00     0.118 C 
BRANCH  28  29
ATOM     29  O   UNL     1      -1.726  17.391  48.431  1.00  0.00    -0.393 OA
ATOM     30  H   UNL     1      -1.617  16.407  48.519  1.00  0.00     0.210 HD
ENDBRANCH  28  29
ENDBRANCH   1  10
TORSDOF 5
ENDMDL
MODEL 6
REMARK VINA RESULT:    -6.952      3.823      8.703
REMARK INTER + INTRA:          -9.718
REMARK INTER:                  -9.424
REMARK INTRA:                  -0.294
REMARK UNBOUND:                -0.937
REMARK SMILES CC(C)[C@@H](C)C=C[C@@H](C)[C@@H]1CC[C@@H]2C3=CC=C4C[C@@H](O)CC[C@@]4(C)[C@H]3CC[C@]21C
REMARK SMILES IDX 8 1 9 2 7 3 6 4 4 5 5 6 2 7 1 8 3 9 10 10 11 11 28 12 12 13
REMARK SMILES IDX 13 14 27 15 29 16 14 17 26 18 25 19 15 20 23 21 16 22 17 23
REMARK SMILES IDX 22 24 24 25 18 26 21 27 19 28 20 29
REMARK H PARENT 20 30
REMARK Flexibility Score: inf
ROOT
ATOM      1  C   UNL     1      -5.296  24.347  50.771  1.00  0.00     0.012 C 
ATOM      2  C   UNL     1      -4.063  24.289  51.698  1.00  0.00     0.012 C 
ENDROOT
BRANCH   1   3
ATOM      3  C   UNL     1      -5.022  23.546  49.512  1.00  0.00    -0.028 C 
ATOM      4  C   UNL     1      -3.977  22.707  49.397  1.00  0.00    -0.028 C 
BRANCH   4   5
ATOM      5  C   UNL     1      -3.740  21.909  48.130  1.00  0.00     0.011 C 
ATOM      6  C   UNL     1      -5.068  21.821  47.358  1.00  0.00     0.012 C 
BRANCH   5   7
ATOM      7  C   UNL     1      -3.152  20.503  48.460  1.00  0.00    -0.011 C 
ATOM      8  C   UNL     1      -2.023  20.129  47.480  1.00  0.00     0.008 C 
ATOM      9  C   UNL     1      -4.227  19.401  48.421  1.00  0.00     0.008 C 
ENDBRANCH   5   7
ENDBRANCH   4   5
ENDBRANCH   1   3
BRANCH   1  10
ATOM     10  C   UNL     1      -5.872  25.760  50.406  1.00  0.00     0.002 C 
ATOM     11  C   UNL     1      -6.888  25.855  49.236  1.00  0.00     0.005 C 
ATOM     12  C   UNL     1      -4.864  26.910  50.127  1.00  0.00    -0.023 C 
ATOM     13  C   UNL     1      -6.772  27.291  48.681  1.00  0.00     0.009 C 
ATOM     14  C   UNL     1      -5.845  27.995  49.668  1.00  0.00     0.021 C 
ATOM     15  C   UNL     1      -4.099  27.430  51.390  1.00  0.00     0.008 C 
ATOM     16  C   UNL     1      -3.874  26.500  48.985  1.00  0.00     0.012 C 
ATOM     17  C   UNL     1      -5.177  29.306  49.304  1.00  0.00    -0.063 C 
ATOM     18  C   UNL     1      -3.861  28.975  51.412  1.00  0.00     0.009 C 
ATOM     19  C   UNL     1      -3.843  29.623  49.995  1.00  0.00     0.025 C 
ATOM     20  C   UNL     1      -5.945  30.274  48.789  1.00  0.00    -0.000 C 
ATOM     21  C   UNL     1      -3.373  31.144  49.871  1.00  0.00    -0.005 C 
ATOM     22  C   UNL     1      -5.633  31.689  48.967  1.00  0.00    -0.000 C 
ATOM     23  C   UNL     1      -4.534  32.106  49.605  1.00  0.00    -0.061 C 
ATOM     24  C   UNL     1      -2.597  31.617  51.141  1.00  0.00     0.014 C 
ATOM     25  C   UNL     1      -2.427  31.243  48.638  1.00  0.00     0.017 C 
ATOM     26  C   UNL     1      -4.315  33.601  49.741  1.00  0.00     0.063 C 
ATOM     27  C   UNL     1      -2.280  33.120  51.152  1.00  0.00     0.033 C 
ATOM     28  C   UNL     1      -3.564  33.954  51.029  1.00  0.00     0.118 C 
BRANCH  28  29
ATOM     29  O   UNL     1      -4.404  33.735  52.135  1.00  0.00    -0.393 OA
ATOM     30  H   UNL     1      -4.193  32.828  52.480  1.00  0.00     0.210 HD
ENDBRANCH  28  29
ENDBRANCH   1  10
TORSDOF 5
ENDMDL
MODEL 7
REMARK VINA RESULT:    -6.878      5.275      6.789
REMARK INTER + INTRA:          -9.625
REMARK INTER:                  -8.490
REMARK INTRA:                  -1.134
REMARK UNBOUND:                -0.937
REMARK SMILES CC(C)[C@@H](C)C=C[C@@H](C)[C@@H]1CC[C@@H]2C3=CC=C4C[C@@H](O)CC[C@@]4(C)[C@H]3CC[C@]21C
REMARK SMILES IDX 8 1 9 2 7 3 6 4 4 5 5 6 2 7 1 8 3 9 10 10 11 11 28 12 12 13
REMARK SMILES IDX 13 14 27 15 29 16 14 17 26 18 25 19 15 20 23 21 16 22 17 23
REMARK SMILES IDX 22 24 24 25 18 26 21 27 19 28 20 29
REMARK H PARENT 20 30
REMARK Flexibility Score: inf
ROOT
ATOM      1  C   UNL     1      -0.542  26.848  49.454  1.00  0.00     0.012 C 
ATOM      2  C   UNL     1       0.397  28.061  49.284  1.00  0.00     0.012 C 
ENDROOT
BRANCH   1   3
ATOM      3  C   UNL     1      -1.164  26.877  50.838  1.00  0.00    -0.028 C 
ATOM      4  C   UNL     1      -2.495  26.886  51.036  1.00  0.00    -0.028 C 
BRANCH   4   5
ATOM      5  C   UNL     1      -3.086  26.898  52.432  1.00  0.00     0.011 C 
ATOM      6  C   UNL     1      -2.062  27.540  53.385  1.00  0.00     0.012 C 
BRANCH   5   7
ATOM      7  C   UNL     1      -3.490  25.460  52.878  1.00  0.00    -0.011 C 
ATOM      8  C   UNL     1      -2.249  24.568  53.068  1.00  0.00     0.008 C 
ATOM      9  C   UNL     1      -4.437  24.785  51.869  1.00  0.00     0.008 C 
ENDBRANCH   5   7
ENDBRANCH   4   5
ENDBRANCH   1   3
BRANCH   1  10
ATOM     10  C   UNL     1       0.039  25.423  49.147  1.00  0.00     0.002 C 
ATOM     11  C   UNL     1       1.339  25.331  48.302  1.00  0.00     0.005 C 
ATOM     12  C   UNL     1      -0.907  24.372  48.501  1.00  0.00    -0.023 C 
ATOM     13  C   UNL     1       1.311  23.948  47.618  1.00  0.00     0.009 C 
ATOM     14  C   UNL     1       0.107  23.250  48.244  1.00  0.00     0.021 C 
ATOM     15  C   UNL     1      -2.024  23.827  49.452  1.00  0.00     0.008 C 
ATOM     16  C   UNL     1      -1.509  24.929  47.167  1.00  0.00     0.012 C 
ATOM     17  C   UNL     1      -0.498  22.019  47.599  1.00  0.00    -0.063 C 
ATOM     18  C   UNL     1      -2.340  22.306  49.277  1.00  0.00     0.009 C 
ATOM     19  C   UNL     1      -1.988  21.757  47.861  1.00  0.00     0.025 C 
ATOM     20  C   UNL     1       0.332  21.034  47.238  1.00  0.00    -0.000 C 
ATOM     21  C   UNL     1      -2.483  20.286  47.483  1.00  0.00    -0.005 C 
ATOM     22  C   UNL     1      -0.091  19.636  47.203  1.00  0.00    -0.000 C 
ATOM     23  C   UNL     1      -1.346  19.260  47.471  1.00  0.00    -0.061 C 
ATOM     24  C   UNL     1      -3.611  19.789  48.442  1.00  0.00     0.014 C 
ATOM     25  C   UNL     1      -3.044  20.339  46.032  1.00  0.00     0.017 C 
ATOM     26  C   UNL     1      -1.673  17.781  47.414  1.00  0.00     0.063 C 
ATOM     27  C   UNL     1      -3.997  18.316  48.238  1.00  0.00     0.033 C 
ATOM     28  C   UNL     1      -2.776  17.399  48.407  1.00  0.00     0.118 C 
BRANCH  28  29
ATOM     29  O   UNL     1      -2.274  17.481  49.717  1.00  0.00    -0.393 OA
ATOM     30  H   UNL     1      -2.983  17.132  50.319  1.00  0.00     0.210 HD
ENDBRANCH  28  29
ENDBRANCH   1  10
TORSDOF 5
ENDMDL
MODEL 8
REMARK VINA RESULT:    -6.857      1.837      4.000
REMARK INTER + INTRA:          -9.598
REMARK INTER:                  -9.342
REMARK INTRA:                  -0.256
REMARK UNBOUND:                -0.937
REMARK SMILES CC(C)[C@@H](C)C=C[C@@H](C)[C@@H]1CC[C@@H]2C3=CC=C4C[C@@H](O)CC[C@@]4(C)[C@H]3CC[C@]21C
REMARK SMILES IDX 8 1 9 2 7 3 6 4 4 5 5 6 2 7 1 8 3 9 10 10 11 11 28 12 12 13
REMARK SMILES IDX 13 14 27 15 29 16 14 17 26 18 25 19 15 20 23 21 16 22 17 23
REMARK SMILES IDX 22 24 24 25 18 26 21 27 19 28 20 29
REMARK H PARENT 20 30
REMARK Flexibility Score: inf
ROOT
ATOM      1  C   UNL     1      -5.234  26.440  49.909  1.00  0.00     0.012 C 
ATOM      2  C   UNL     1      -6.589  25.706  49.836  1.00  0.00     0.012 C 
ENDROOT
BRANCH   1   3
ATOM      3  C   UNL     1      -5.251  27.635  48.974  1.00  0.00    -0.028 C 
ATOM      4  C   UNL     1      -6.312  28.454  48.863  1.00  0.00    -0.028 C 
BRANCH   4   5
ATOM      5  C   UNL     1      -6.292  29.650  47.931  1.00  0.00     0.011 C 
ATOM      6  C   UNL     1      -5.979  30.907  48.763  1.00  0.00     0.012 C 
BRANCH   5   7
ATOM      7  C   UNL     1      -7.638  29.774  47.154  1.00  0.00    -0.011 C 
ATOM      8  C   UNL     1      -7.941  28.489  46.361  1.00  0.00     0.008 C 
ATOM      9  C   UNL     1      -7.639  30.969  46.182  1.00  0.00     0.008 C 
ENDBRANCH   5   7
ENDBRANCH   4   5
ENDBRANCH   1   3
BRANCH   1  10
ATOM     10  C   UNL     1      -3.931  25.594  49.691  1.00  0.00     0.002 C 
ATOM     11  C   UNL     1      -2.635  26.341  49.275  1.00  0.00     0.005 C 
ATOM     12  C   UNL     1      -3.999  24.385  48.716  1.00  0.00    -0.023 C 
ATOM     13  C   UNL     1      -1.768  25.314  48.517  1.00  0.00     0.009 C 
ATOM     14  C   UNL     1      -2.516  23.996  48.698  1.00  0.00     0.021 C 
ATOM     15  C   UNL     1      -4.829  23.167  49.242  1.00  0.00     0.008 C 
ATOM     16  C   UNL     1      -4.496  24.851  47.306  1.00  0.00     0.012 C 
ATOM     17  C   UNL     1      -2.210  22.803  47.814  1.00  0.00    -0.063 C 
ATOM     18  C   UNL     1      -4.235  21.769  48.871  1.00  0.00     0.009 C 
ATOM     19  C   UNL     1      -3.344  21.791  47.593  1.00  0.00     0.025 C 
ATOM     20  C   UNL     1      -0.927  22.461  47.651  1.00  0.00    -0.000 C 
ATOM     21  C   UNL     1      -2.878  20.393  46.978  1.00  0.00    -0.005 C 
ATOM     22  C   UNL     1      -0.518  21.084  47.389  1.00  0.00    -0.000 C 
ATOM     23  C   UNL     1      -1.400  20.090  47.238  1.00  0.00    -0.061 C 
ATOM     24  C   UNL     1      -3.745  19.207  47.513  1.00  0.00     0.014 C 
ATOM     25  C   UNL     1      -3.046  20.480  45.433  1.00  0.00     0.017 C 
ATOM     26  C   UNL     1      -0.863  18.696  46.978  1.00  0.00     0.063 C 
ATOM     27  C   UNL     1      -3.227  17.822  47.096  1.00  0.00     0.033 C 
ATOM     28  C   UNL     1      -1.778  17.613  47.561  1.00  0.00     0.118 C 
BRANCH  28  29
ATOM     29  O   UNL     1      -1.700  17.641  48.964  1.00  0.00    -0.393 OA
ATOM     30  H   UNL     1      -1.038  18.343  49.202  1.00  0.00     0.210 HD
ENDBRANCH  28  29
ENDBRANCH   1  10
TORSDOF 5
ENDMDL
MODEL 9
REMARK VINA RESULT:    -6.753      3.011      4.950
REMARK INTER + INTRA:          -9.467
REMARK INTER:                  -8.318
REMARK INTRA:                  -1.149
REMARK UNBOUND:                -0.937
REMARK SMILES CC(C)[C@@H](C)C=C[C@@H](C)[C@@H]1CC[C@@H]2C3=CC=C4C[C@@H](O)CC[C@@]4(C)[C@H]3CC[C@]21C
REMARK SMILES IDX 8 1 9 2 7 3 6 4 4 5 5 6 2 7 1 8 3 9 10 10 11 11 28 12 12 13
REMARK SMILES IDX 13 14 27 15 29 16 14 17 26 18 25 19 15 20 23 21 16 22 17 23
REMARK SMILES IDX 22 24 24 25 18 26 21 27 19 28 20 29
REMARK H PARENT 20 30
REMARK Flexibility Score: inf
ROOT
ATOM      1  C   UNL     1      -8.012  29.262  47.237  1.00  0.00     0.012 C 
ATOM      2  C   UNL     1      -9.228  28.859  46.376  1.00  0.00     0.012 C 
ENDROOT
BRANCH   1   3
ATOM      3  C   UNL     1      -7.633  30.700  46.938  1.00  0.00    -0.028 C 
ATOM      4  C   UNL     1      -6.460  31.237  47.321  1.00  0.00    -0.028 C 
BRANCH   4   5
ATOM      5  C   UNL     1      -6.103  32.673  46.992  1.00  0.00     0.011 C 
ATOM      6  C   UNL     1      -4.724  32.685  46.310  1.00  0.00     0.012 C 
BRANCH   5   7
ATOM      7  C   UNL     1      -6.140  33.563  48.271  1.00  0.00    -0.011 C 
ATOM      8  C   UNL     1      -5.628  32.789  49.501  1.00  0.00     0.008 C 
ATOM      9  C   UNL     1      -7.555  34.090  48.571  1.00  0.00     0.008 C 
ENDBRANCH   5   7
ENDBRANCH   4   5
ENDBRANCH   1   3
BRANCH   1  10
ATOM     10  C   UNL     1      -6.743  28.341  47.188  1.00  0.00     0.002 C 
ATOM     11  C   UNL     1      -6.625  27.319  46.025  1.00  0.00     0.005 C 
ATOM     12  C   UNL     1      -6.393  27.512  48.457  1.00  0.00    -0.023 C 
ATOM     13  C   UNL     1      -5.731  26.174  46.546  1.00  0.00     0.009 C 
ATOM     14  C   UNL     1      -5.233  26.679  47.897  1.00  0.00     0.021 C 
ATOM     15  C   UNL     1      -5.865  28.357  49.664  1.00  0.00     0.008 C 
ATOM     16  C   UNL     1      -7.607  26.614  48.871  1.00  0.00     0.012 C 
ATOM     17  C   UNL     1      -4.626  25.725  48.906  1.00  0.00    -0.063 C 
ATOM     18  C   UNL     1      -4.727  27.670  50.487  1.00  0.00     0.009 C 
ATOM     19  C   UNL     1      -4.739  26.114  50.387  1.00  0.00     0.025 C 
ATOM     20  C   UNL     1      -3.682  24.881  48.475  1.00  0.00    -0.000 C 
ATOM     21  C   UNL     1      -3.782  25.293  51.367  1.00  0.00    -0.005 C 
ATOM     22  C   UNL     1      -2.624  24.387  49.353  1.00  0.00    -0.000 C 
ATOM     23  C   UNL     1      -2.566  24.699  50.652  1.00  0.00    -0.061 C 
ATOM     24  C   UNL     1      -3.295  26.165  52.568  1.00  0.00     0.014 C 
ATOM     25  C   UNL     1      -4.600  24.089  51.920  1.00  0.00     0.017 C 
ATOM     26  C   UNL     1      -1.417  24.137  51.467  1.00  0.00     0.063 C 
ATOM     27  C   UNL     1      -2.231  25.481  53.441  1.00  0.00     0.033 C 
ATOM     28  C   UNL     1      -1.007  25.079  52.604  1.00  0.00     0.118 C 
BRANCH  28  29
ATOM     29  O   UNL     1      -0.382  26.217  52.065  1.00  0.00    -0.393 OA
ATOM     30  H   UNL     1      -0.553  26.203  51.086  1.00  0.00     0.210 HD
ENDBRANCH  28  29
ENDBRANCH   1  10
TORSDOF 5
ENDMDL
