MODEL 1
REMARK VINA RESULT:    -5.142      0.000      0.000
REMARK INTER + INTRA:          -5.755
REMARK INTER:                  -5.593
REMARK INTRA:                  -0.162
REMARK UNBOUND:                -0.162
REMARK SMILES C=C(C)[C@@H]1CC[C@H](C)C[C@@H]1O
REMARK SMILES IDX 8 1 7 2 6 3 5 4 4 5 10 6 9 7 11 8 2 10 1 11 3 12
REMARK H PARENT 11 9
REMARK Flexibility Score: inf
ROOT
ATOM      1  C   UNL     1      -1.064  17.416  47.373  1.00  0.00     0.008 C 
ATOM      2  C   UNL     1      -2.579  17.201  47.233  1.00  0.00    -0.012 C 
ATOM      3  C   UNL     1      -3.321  17.419  48.569  1.00  0.00     0.004 C 
ATOM      4  C   UNL     1      -3.466  18.904  48.927  1.00  0.00     0.011 C 
ATOM      5  C   UNL     1      -4.158  19.677  47.788  1.00  0.00     0.043 C 
ATOM      6  C   UNL     1      -3.384  19.536  46.456  1.00  0.00     0.121 C 
ATOM      7  C   UNL     1      -3.198  18.046  46.094  1.00  0.00     0.035 C 
ENDROOT
BRANCH   6   8
ATOM      8  O   UNL     1      -2.139  20.182  46.526  1.00  0.00    -0.392 OA
ATOM      9  H   UNL     1      -1.518  19.673  45.944  1.00  0.00     0.210 HD
ENDBRANCH   6   8
BRANCH   5  10
ATOM     10  C   UNL     1      -4.415  21.137  48.152  1.00  0.00    -0.075 C 
ATOM     11  C   UNL     1      -5.374  21.860  47.547  1.00  0.00     0.008 C 
ATOM     12  C   UNL     1      -3.576  21.807  49.211  1.00  0.00     0.039 C 
ENDBRANCH   5  10
TORSDOF 2
ENDMDL
MODEL 2
REMARK VINA RESULT:    -5.107      1.450      4.163
REMARK INTER + INTRA:          -5.717
REMARK INTER:                  -5.559
REMARK INTRA:                  -0.158
REMARK UNBOUND:                -0.162
REMARK SMILES C=C(C)[C@@H]1CC[C@H](C)C[C@@H]1O
REMARK SMILES IDX 8 1 7 2 6 3 5 4 4 5 10 6 9 7 11 8 2 10 1 11 3 12
REMARK H PARENT 11 9
REMARK Flexibility Score: inf
ROOT
ATOM      1  C   UNL     1      -4.565  20.939  47.661  1.00  0.00     0.008 C 
ATOM      2  C   UNL     1      -3.604  20.064  48.482  1.00  0.00    -0.012 C 
ATOM      3  C   UNL     1      -4.103  18.608  48.597  1.00  0.00     0.004 C 
ATOM      4  C   UNL     1      -3.885  17.806  47.306  1.00  0.00     0.011 C 
ATOM      5  C   UNL     1      -2.404  17.843  46.882  1.00  0.00     0.043 C 
ATOM      6  C   UNL     1      -1.909  19.295  46.684  1.00  0.00     0.121 C 
ATOM      7  C   UNL     1      -2.149  20.128  47.962  1.00  0.00     0.035 C 
ENDROOT
BRANCH   6   8
ATOM      8  O   UNL     1      -2.538  19.896  45.582  1.00  0.00    -0.392 OA
ATOM      9  H   UNL     1      -3.218  20.520  45.944  1.00  0.00     0.210 HD
ENDBRANCH   6   8
BRANCH   5  10
ATOM     10  C   UNL     1      -2.131  16.970  45.660  1.00  0.00    -0.075 C 
ATOM     11  C   UNL     1      -0.907  16.475  45.404  1.00  0.00     0.008 C 
ATOM     12  C   UNL     1      -3.248  16.648  44.700  1.00  0.00     0.039 C 
ENDBRANCH   5  10
TORSDOF 2
ENDMDL
MODEL 3
REMARK VINA RESULT:    -4.779      1.365      2.045
REMARK INTER + INTRA:          -5.360
REMARK INTER:                  -5.622
REMARK INTRA:                   0.263
REMARK UNBOUND:                -0.162
REMARK SMILES C=C(C)[C@@H]1CC[C@H](C)C[C@@H]1O
REMARK SMILES IDX 8 1 7 2 6 3 5 4 4 5 10 6 9 7 11 8 2 10 1 11 3 12
REMARK H PARENT 11 9
REMARK Flexibility Score: inf
ROOT
ATOM      1  C   UNL     1      -2.875  16.996  46.146  1.00  0.00     0.008 C 
ATOM      2  C   UNL     1      -2.126  17.578  47.355  1.00  0.00    -0.012 C 
ATOM      3  C   UNL     1      -1.472  18.938  47.031  1.00  0.00     0.004 C 
ATOM      4  C   UNL     1      -2.490  20.086  46.986  1.00  0.00     0.011 C 
ATOM      5  C   UNL     1      -3.286  20.164  48.303  1.00  0.00     0.043 C 
ATOM      6  C   UNL     1      -4.013  18.833  48.604  1.00  0.00     0.121 C 
ATOM      7  C   UNL     1      -3.010  17.659  48.621  1.00  0.00     0.035 C 
ENDROOT
BRANCH   6   8
ATOM      8  O   UNL     1      -5.032  18.593  47.668  1.00  0.00    -0.392 OA
ATOM      9  H   UNL     1      -5.057  19.378  47.063  1.00  0.00     0.210 HD
ENDBRANCH   6   8
BRANCH   5  10
ATOM     10  C   UNL     1      -4.234  21.359  48.336  1.00  0.00    -0.075 C 
ATOM     11  C   UNL     1      -5.232  21.496  47.445  1.00  0.00     0.008 C 
ATOM     12  C   UNL     1      -4.059  22.430  49.384  1.00  0.00     0.039 C 
ENDBRANCH   5  10
TORSDOF 2
ENDMDL
MODEL 4
REMARK VINA RESULT:    -4.668      2.706      3.873
REMARK INTER + INTRA:          -5.239
REMARK INTER:                  -5.051
REMARK INTRA:                  -0.188
REMARK UNBOUND:                -0.162
REMARK SMILES C=C(C)[C@@H]1CC[C@H](C)C[C@@H]1O
REMARK SMILES IDX 8 1 7 2 6 3 5 4 4 5 10 6 9 7 11 8 2 10 1 11 3 12
REMARK H PARENT 11 9
REMARK Flexibility Score: inf
ROOT
ATOM      1  C   UNL     1      -2.837  21.088  46.296  1.00  0.00     0.008 C 
ATOM      2  C   UNL     1      -3.515  20.719  47.624  1.00  0.00    -0.012 C 
ATOM      3  C   UNL     1      -2.837  21.404  48.830  1.00  0.00     0.004 C 
ATOM      4  C   UNL     1      -3.203  22.891  48.945  1.00  0.00     0.011 C 
ATOM      5  C   UNL     1      -4.732  23.075  49.001  1.00  0.00     0.043 C 
ATOM      6  C   UNL     1      -5.422  22.463  47.760  1.00  0.00     0.121 C 
ATOM      7  C   UNL     1      -5.040  20.974  47.607  1.00  0.00     0.035 C 
ENDROOT
BRANCH   6   8
ATOM      8  O   UNL     1      -5.090  23.176  46.596  1.00  0.00    -0.392 OA
ATOM      9  H   UNL     1      -5.737  23.924  46.522  1.00  0.00     0.210 HD
ENDBRANCH   6   8
BRANCH   5  10
ATOM     10  C   UNL     1      -5.131  24.532  49.222  1.00  0.00    -0.075 C 
ATOM     11  C   UNL     1      -6.402  24.887  49.481  1.00  0.00     0.008 C 
ATOM     12  C   UNL     1      -4.087  25.618  49.144  1.00  0.00     0.039 C 
ENDBRANCH   5  10
TORSDOF 2
ENDMDL
MODEL 5
REMARK VINA RESULT:    -4.589      1.389      4.517
REMARK INTER + INTRA:          -5.154
REMARK INTER:                  -4.967
REMARK INTRA:                  -0.187
REMARK UNBOUND:                -0.162
REMARK SMILES C=C(C)[C@@H]1CC[C@H](C)C[C@@H]1O
REMARK SMILES IDX 8 1 7 2 6 3 5 4 4 5 10 6 9 7 11 8 2 10 1 11 3 12
REMARK H PARENT 11 9
REMARK Flexibility Score: inf
ROOT
ATOM      1  C   UNL     1      -3.719  23.989  47.288  1.00  0.00     0.008 C 
ATOM      2  C   UNL     1      -4.541  23.319  48.401  1.00  0.00    -0.012 C 
ATOM      3  C   UNL     1      -5.531  22.275  47.841  1.00  0.00     0.004 C 
ATOM      4  C   UNL     1      -4.838  20.967  47.432  1.00  0.00     0.011 C 
ATOM      5  C   UNL     1      -4.035  20.381  48.609  1.00  0.00     0.043 C 
ATOM      6  C   UNL     1      -2.983  21.386  49.132  1.00  0.00     0.121 C 
ATOM      7  C   UNL     1      -3.655  22.722  49.519  1.00  0.00     0.035 C 
ENDROOT
BRANCH   6   8
ATOM      8  O   UNL     1      -1.976  21.603  48.178  1.00  0.00    -0.392 OA
ATOM      9  H   UNL     1      -1.420  22.355  48.511  1.00  0.00     0.210 HD
ENDBRANCH   6   8
BRANCH   5  10
ATOM     10  C   UNL     1      -3.419  19.026  48.271  1.00  0.00    -0.075 C 
ATOM     11  C   UNL     1      -2.939  18.209  49.224  1.00  0.00     0.008 C 
ATOM     12  C   UNL     1      -3.330  18.578  46.834  1.00  0.00     0.039 C 
ENDBRANCH   5  10
TORSDOF 2
ENDMDL
MODEL 6
REMARK VINA RESULT:    -4.526      1.435      4.152
REMARK INTER + INTRA:          -5.085
REMARK INTER:                  -4.895
REMARK INTRA:                  -0.190
REMARK UNBOUND:                -0.162
REMARK SMILES C=C(C)[C@@H]1CC[C@H](C)C[C@@H]1O
REMARK SMILES IDX 8 1 7 2 6 3 5 4 4 5 10 6 9 7 11 8 2 10 1 11 3 12
REMARK H PARENT 11 9
REMARK Flexibility Score: inf
ROOT
ATOM      1  C   UNL     1      -3.110  22.819  47.434  1.00  0.00     0.008 C 
ATOM      2  C   UNL     1      -4.025  21.780  46.766  1.00  0.00    -0.012 C 
ATOM      3  C   UNL     1      -3.264  20.912  45.742  1.00  0.00     0.004 C 
ATOM      4  C   UNL     1      -2.382  19.848  46.411  1.00  0.00     0.011 C 
ATOM      5  C   UNL     1      -3.214  18.966  47.361  1.00  0.00     0.043 C 
ATOM      6  C   UNL     1      -3.922  19.813  48.445  1.00  0.00     0.121 C 
ATOM      7  C   UNL     1      -4.790  20.912  47.793  1.00  0.00     0.035 C 
ENDROOT
BRANCH   6   8
ATOM      8  O   UNL     1      -2.989  20.384  49.326  1.00  0.00    -0.392 OA
ATOM      9  H   UNL     1      -2.620  19.644  49.873  1.00  0.00     0.210 HD
ENDBRANCH   6   8
BRANCH   5  10
ATOM     10  C   UNL     1      -2.392  17.830  47.964  1.00  0.00    -0.075 C 
ATOM     11  C   UNL     1      -1.076  17.702  47.720  1.00  0.00     0.008 C 
ATOM     12  C   UNL     1      -3.057  16.809  48.853  1.00  0.00     0.039 C 
ENDBRANCH   5  10
TORSDOF 2
ENDMDL
MODEL 7
REMARK VINA RESULT:    -4.487      4.860      6.608
REMARK INTER + INTRA:          -5.042
REMARK INTER:                  -4.910
REMARK INTRA:                  -0.132
REMARK UNBOUND:                -0.162
REMARK SMILES C=C(C)[C@@H]1CC[C@H](C)C[C@@H]1O
REMARK SMILES IDX 8 1 7 2 6 3 5 4 4 5 10 6 9 7 11 8 2 10 1 11 3 12
REMARK H PARENT 11 9
REMARK Flexibility Score: inf
ROOT
ATOM      1  C   UNL     1      -4.750  24.534  47.250  1.00  0.00     0.008 C 
ATOM      2  C   UNL     1      -5.518  23.856  48.396  1.00  0.00    -0.012 C 
ATOM      3  C   UNL     1      -4.657  22.804  49.127  1.00  0.00     0.004 C 
ATOM      4  C   UNL     1      -3.622  23.439  50.066  1.00  0.00     0.011 C 
ATOM      5  C   UNL     1      -4.305  24.381  51.076  1.00  0.00     0.043 C 
ATOM      6  C   UNL     1      -5.110  25.491  50.360  1.00  0.00     0.121 C 
ATOM      7  C   UNL     1      -6.135  24.873  49.384  1.00  0.00     0.035 C 
ENDROOT
BRANCH   6   8
ATOM      8  O   UNL     1      -4.255  26.372  49.678  1.00  0.00    -0.392 OA
ATOM      9  H   UNL     1      -4.793  27.172  49.444  1.00  0.00     0.210 HD
ENDBRANCH   6   8
BRANCH   5  10
ATOM     10  C   UNL     1      -3.320  24.950  52.094  1.00  0.00    -0.075 C 
ATOM     11  C   UNL     1      -2.073  24.464  52.219  1.00  0.00     0.008 C 
ATOM     12  C   UNL     1      -3.742  26.080  52.998  1.00  0.00     0.039 C 
ENDBRANCH   5  10
TORSDOF 2
ENDMDL
MODEL 8
REMARK VINA RESULT:    -4.460      3.174      6.241
REMARK INTER + INTRA:          -5.014
REMARK INTER:                  -4.871
REMARK INTRA:                  -0.143
REMARK UNBOUND:                -0.162
REMARK SMILES C=C(C)[C@@H]1CC[C@H](C)C[C@@H]1O
REMARK SMILES IDX 8 1 7 2 6 3 5 4 4 5 10 6 9 7 11 8 2 10 1 11 3 12
REMARK H PARENT 11 9
REMARK Flexibility Score: inf
ROOT
ATOM      1  C   UNL     1      -3.856  26.735  49.866  1.00  0.00     0.008 C 
ATOM      2  C   UNL     1      -4.611  25.725  50.744  1.00  0.00    -0.012 C 
ATOM      3  C   UNL     1      -5.874  25.180  50.043  1.00  0.00     0.004 C 
ATOM      4  C   UNL     1      -5.545  24.141  48.961  1.00  0.00     0.011 C 
ATOM      5  C   UNL     1      -4.705  22.989  49.546  1.00  0.00     0.043 C 
ATOM      6  C   UNL     1      -3.396  23.510  50.183  1.00  0.00     0.121 C 
ATOM      7  C   UNL     1      -3.704  24.581  51.253  1.00  0.00     0.035 C 
ENDROOT
BRANCH   6   8
ATOM      8  O   UNL     1      -2.531  24.027  49.206  1.00  0.00    -0.392 OA
ATOM      9  H   UNL     1      -2.907  23.770  48.324  1.00  0.00     0.210 HD
ENDBRANCH   6   8
BRANCH   5  10
ATOM     10  C   UNL     1      -4.449  21.884  48.524  1.00  0.00    -0.075 C 
ATOM     11  C   UNL     1      -5.085  21.854  47.340  1.00  0.00     0.008 C 
ATOM     12  C   UNL     1      -3.465  20.784  48.836  1.00  0.00     0.039 C 
ENDBRANCH   5  10
TORSDOF 2
ENDMDL
MODEL 9
REMARK VINA RESULT:    -4.381      1.493      2.233
REMARK INTER + INTRA:          -4.927
REMARK INTER:                  -4.790
REMARK INTRA:                  -0.137
REMARK UNBOUND:                -0.162
REMARK SMILES C=C(C)[C@@H]1CC[C@H](C)C[C@@H]1O
REMARK SMILES IDX 8 1 7 2 6 3 5 4 4 5 10 6 9 7 11 8 2 10 1 11 3 12
REMARK H PARENT 11 9
REMARK Flexibility Score: inf
ROOT
ATOM      1  C   UNL     1      -1.363  19.250  47.141  1.00  0.00     0.008 C 
ATOM      2  C   UNL     1      -2.843  19.271  46.728  1.00  0.00    -0.012 C 
ATOM      3  C   UNL     1      -3.784  19.094  47.939  1.00  0.00     0.004 C 
ATOM      4  C   UNL     1      -3.901  20.369  48.785  1.00  0.00     0.011 C 
ATOM      5  C   UNL     1      -4.347  21.563  47.918  1.00  0.00     0.043 C 
ATOM      6  C   UNL     1      -3.370  21.805  46.744  1.00  0.00     0.121 C 
ATOM      7  C   UNL     1      -3.213  20.522  45.898  1.00  0.00     0.035 C 
ENDROOT
BRANCH   6   8
ATOM      8  O   UNL     1      -2.120  22.241  47.211  1.00  0.00    -0.392 OA
ATOM      9  H   UNL     1      -1.458  22.027  46.503  1.00  0.00     0.210 HD
ENDBRANCH   6   8
BRANCH   5  10
ATOM     10  C   UNL     1      -4.577  22.824  48.746  1.00  0.00    -0.075 C 
ATOM     11  C   UNL     1      -3.984  23.006  49.939  1.00  0.00     0.008 C 
ATOM     12  C   UNL     1      -5.495  23.904  48.232  1.00  0.00     0.039 C 
ENDBRANCH   5  10
TORSDOF 2
ENDMDL
