MODEL 1
REMARK VINA RESULT:    -6.461      0.000      0.000
REMARK INTER + INTRA:          -7.912
REMARK INTER:                  -7.594
REMARK INTRA:                  -0.318
REMARK UNBOUND:                -0.318
REMARK SMILES O=c1c(O)c(-c2ccc(O)c(O)c2)oc2cc(O)ccc12
REMARK SMILES IDX 5 1 3 2 2 3 1 4 21 5 15 6 14 7 16 8 17 9 19 10 20 11 6 12
REMARK SMILES IDX 7 13 8 14 9 15 13 16 11 17 10 18 12 20 4 22 18 24
REMARK H PARENT 10 19 12 21 4 23 18 25
REMARK Flexibility Score: inf
ROOT
ATOM      1  C   UNL     1     -16.877   6.936 -26.949  1.00  0.00     0.180 A 
ATOM      2  C   UNL     1     -15.862   7.829 -27.352  1.00  0.00     0.208 A 
ATOM      3  C   UNL     1     -14.594   7.724 -26.761  1.00  0.00     0.235 A 
ATOM      4  O   UNL     1     -13.673   8.517 -27.098  1.00  0.00    -0.285 OA
ATOM      5  C   UNL     1     -14.359   6.725 -25.803  1.00  0.00     0.069 A 
ATOM      6  C   UNL     1     -15.420   5.855 -25.470  1.00  0.00     0.142 A 
ATOM      7  O   UNL     1     -16.609   5.994 -26.046  1.00  0.00    -0.452 OA
ATOM      8  C   UNL     1     -15.224   4.841 -24.526  1.00  0.00     0.094 A 
ATOM      9  C   UNL     1     -13.976   4.686 -23.907  1.00  0.00     0.119 A 
ATOM     10  C   UNL     1     -12.925   5.547 -24.234  1.00  0.00     0.047 A 
ATOM     11  C   UNL     1     -13.110   6.563 -25.177  1.00  0.00     0.020 A 
ENDROOT
BRANCH   1  12
ATOM     12  C   UNL     1     -18.246   6.995 -27.511  1.00  0.00     0.025 A 
ATOM     13  C   UNL     1     -18.609   6.109 -28.537  1.00  0.00     0.016 A 
ATOM     14  C   UNL     1     -19.900   6.133 -29.069  1.00  0.00     0.051 A 
ATOM     15  C   UNL     1     -20.852   7.029 -28.573  1.00  0.00     0.157 A 
ATOM     16  C   UNL     1     -19.210   7.882 -26.999  1.00  0.00     0.062 A 
ATOM     17  C   UNL     1     -20.508   7.906 -27.531  1.00  0.00     0.158 A 
BRANCH  15  18
ATOM     18  O   UNL     1     -22.132   7.032 -29.125  1.00  0.00    -0.504 OA
ATOM     19  H   UNL     1     -22.698   7.871 -29.168  1.00  0.00     0.293 HD
ENDBRANCH  15  18
BRANCH  17  20
ATOM     20  O   UNL     1     -21.456   8.792 -27.022  1.00  0.00    -0.504 OA
ATOM     21  H   UNL     1     -22.365   8.474 -26.705  1.00  0.00     0.293 HD
ENDBRANCH  17  20
ENDBRANCH   1  12
BRANCH   2  22
ATOM     22  O   UNL     1     -16.110   8.781 -28.344  1.00  0.00    -0.502 OA
ATOM     23  H   UNL     1     -17.043   9.111 -28.557  1.00  0.00     0.293 HD
ENDBRANCH   2  22
BRANCH   9  24
ATOM     24  O   UNL     1     -13.772   3.680 -22.966  1.00  0.00    -0.508 OA
ATOM     25  H   UNL     1     -13.281   3.858 -22.098  1.00  0.00     0.293 HD
ENDBRANCH   9  24
TORSDOF 5
ENDMDL
MODEL 2
REMARK VINA RESULT:    -5.673      9.495     13.181
REMARK INTER + INTRA:          -6.986
REMARK INTER:                  -6.728
REMARK INTRA:                  -0.258
REMARK UNBOUND:                -0.318
REMARK SMILES O=c1c(O)c(-c2ccc(O)c(O)c2)oc2cc(O)ccc12
REMARK SMILES IDX 5 1 3 2 2 3 1 4 21 5 15 6 14 7 16 8 17 9 19 10 20 11 6 12
REMARK SMILES IDX 7 13 8 14 9 15 13 16 11 17 10 18 12 20 4 22 18 24
REMARK H PARENT 10 19 12 21 4 23 18 25
REMARK Flexibility Score: inf
ROOT
ATOM      1  C   UNL     1     -28.155   9.411 -25.027  1.00  0.00     0.180 A 
ATOM      2  C   UNL     1     -28.219   9.048 -23.665  1.00  0.00     0.208 A 
ATOM      3  C   UNL     1     -28.646  10.002 -22.730  1.00  0.00     0.235 A 
ATOM      4  O   UNL     1     -28.701   9.705 -21.505  1.00  0.00    -0.285 OA
ATOM      5  C   UNL     1     -29.017  11.283 -23.170  1.00  0.00     0.069 A 
ATOM      6  C   UNL     1     -28.948  11.561 -24.552  1.00  0.00     0.142 A 
ATOM      7  O   UNL     1     -28.530  10.632 -25.404  1.00  0.00    -0.452 OA
ATOM      8  C   UNL     1     -29.318  12.823 -25.032  1.00  0.00     0.094 A 
ATOM      9  C   UNL     1     -29.757  13.814 -24.143  1.00  0.00     0.119 A 
ATOM     10  C   UNL     1     -29.824  13.541 -22.774  1.00  0.00     0.047 A 
ATOM     11  C   UNL     1     -29.458  12.283 -22.285  1.00  0.00     0.020 A 
ENDROOT
BRANCH   1  12
ATOM     12  C   UNL     1     -27.697   8.467 -26.072  1.00  0.00     0.025 A 
ATOM     13  C   UNL     1     -28.624   7.955 -26.993  1.00  0.00     0.016 A 
ATOM     14  C   UNL     1     -28.212   7.079 -28.000  1.00  0.00     0.051 A 
ATOM     15  C   UNL     1     -26.866   6.714 -28.112  1.00  0.00     0.157 A 
ATOM     16  C   UNL     1     -26.341   8.116 -26.199  1.00  0.00     0.062 A 
ATOM     17  C   UNL     1     -25.925   7.237 -27.210  1.00  0.00     0.158 A 
BRANCH  15  18
ATOM     18  O   UNL     1     -26.484   5.836 -29.125  1.00  0.00    -0.504 OA
ATOM     19  H   UNL     1     -26.644   6.042 -30.104  1.00  0.00     0.293 HD
ENDBRANCH  15  18
BRANCH  17  20
ATOM     20  O   UNL     1     -24.580   6.890 -27.325  1.00  0.00    -0.504 OA
ATOM     21  H   UNL     1     -24.182   6.587 -28.207  1.00  0.00     0.293 HD
ENDBRANCH  17  20
ENDBRANCH   1  12
BRANCH   2  22
ATOM     22  O   UNL     1     -27.891   7.751 -23.263  1.00  0.00    -0.502 OA
ATOM     23  H   UNL     1     -28.250   7.341 -22.410  1.00  0.00     0.293 HD
ENDBRANCH   2  22
BRANCH   9  24
ATOM     24  O   UNL     1     -30.126  15.072 -24.612  1.00  0.00    -0.508 OA
ATOM     25  H   UNL     1     -31.018  15.227 -25.069  1.00  0.00     0.293 HD
ENDBRANCH   9  24
TORSDOF 5
ENDMDL
MODEL 3
REMARK VINA RESULT:    -5.503      1.378      6.721
REMARK INTER + INTRA:          -6.786
REMARK INTER:                  -7.288
REMARK INTRA:                   0.501
REMARK UNBOUND:                -0.318
REMARK SMILES O=c1c(O)c(-c2ccc(O)c(O)c2)oc2cc(O)ccc12
REMARK SMILES IDX 5 1 3 2 2 3 1 4 21 5 15 6 14 7 16 8 17 9 19 10 20 11 6 12
REMARK SMILES IDX 7 13 8 14 9 15 13 16 11 17 10 18 12 20 4 22 18 24
REMARK H PARENT 10 19 12 21 4 23 18 25
REMARK Flexibility Score: inf
ROOT
ATOM      1  C   UNL     1     -14.955   7.321 -26.500  1.00  0.00     0.180 A 
ATOM      2  C   UNL     1     -14.598   8.361 -27.384  1.00  0.00     0.208 A 
ATOM      3  C   UNL     1     -15.562   8.850 -28.278  1.00  0.00     0.235 A 
ATOM      4  O   UNL     1     -15.264   9.772 -29.085  1.00  0.00    -0.285 OA
ATOM      5  C   UNL     1     -16.859   8.311 -28.258  1.00  0.00     0.069 A 
ATOM      6  C   UNL     1     -17.144   7.288 -27.328  1.00  0.00     0.142 A 
ATOM      7  O   UNL     1     -16.200   6.847 -26.504  1.00  0.00    -0.452 OA
ATOM      8  C   UNL     1     -18.427   6.732 -27.271  1.00  0.00     0.094 A 
ATOM      9  C   UNL     1     -19.431   7.185 -28.137  1.00  0.00     0.119 A 
ATOM     10  C   UNL     1     -19.150   8.196 -29.061  1.00  0.00     0.047 A 
ATOM     11  C   UNL     1     -17.872   8.760 -29.125  1.00  0.00     0.020 A 
ENDROOT
BRANCH   1  12
ATOM     12  C   UNL     1     -13.990   6.739 -25.540  1.00  0.00     0.025 A 
ATOM     13  C   UNL     1     -12.784   7.409 -25.282  1.00  0.00     0.016 A 
ATOM     14  C   UNL     1     -11.867   6.888 -24.366  1.00  0.00     0.051 A 
ATOM     15  C   UNL     1     -12.148   5.702 -23.681  1.00  0.00     0.157 A 
ATOM     16  C   UNL     1     -14.280   5.557 -24.835  1.00  0.00     0.062 A 
ATOM     17  C   UNL     1     -13.361   5.033 -23.913  1.00  0.00     0.158 A 
BRANCH  15  18
ATOM     18  O   UNL     1     -11.213   5.205 -22.774  1.00  0.00    -0.504 OA
ATOM     19  H   UNL     1     -10.462   5.777 -22.407  1.00  0.00     0.293 HD
ENDBRANCH  15  18
BRANCH  17  20
ATOM     20  O   UNL     1     -13.654   3.858 -23.223  1.00  0.00    -0.504 OA
ATOM     21  H   UNL     1     -13.365   2.951 -23.571  1.00  0.00     0.293 HD
ENDBRANCH  17  20
ENDBRANCH   1  12
BRANCH   2  22
ATOM     22  O   UNL     1     -13.315   8.912 -27.346  1.00  0.00    -0.502 OA
ATOM     23  H   UNL     1     -12.480   8.349 -27.450  1.00  0.00     0.293 HD
ENDBRANCH   2  22
BRANCH   9  24
ATOM     24  O   UNL     1     -20.710   6.636 -28.088  1.00  0.00    -0.508 OA
ATOM     25  H   UNL     1     -21.079   6.227 -27.237  1.00  0.00     0.293 HD
ENDBRANCH   9  24
TORSDOF 5
ENDMDL
MODEL 4
REMARK VINA RESULT:    -5.417     11.414     13.661
REMARK INTER + INTRA:          -6.685
REMARK INTER:                  -6.489
REMARK INTRA:                  -0.196
REMARK UNBOUND:                -0.318
REMARK SMILES O=c1c(O)c(-c2ccc(O)c(O)c2)oc2cc(O)ccc12
REMARK SMILES IDX 5 1 3 2 2 3 1 4 21 5 15 6 14 7 16 8 17 9 19 10 20 11 6 12
REMARK SMILES IDX 7 13 8 14 9 15 13 16 11 17 10 18 12 20 4 22 18 24
REMARK H PARENT 10 19 12 21 4 23 18 25
REMARK Flexibility Score: inf
ROOT
ATOM      1  C   UNL     1     -29.126  12.105 -25.150  1.00  0.00     0.180 A 
ATOM      2  C   UNL     1     -29.295  12.390 -23.779  1.00  0.00     0.208 A 
ATOM      3  C   UNL     1     -28.987  11.396 -22.838  1.00  0.00     0.235 A 
ATOM      4  O   UNL     1     -29.139  11.624 -21.607  1.00  0.00    -0.285 OA
ATOM      5  C   UNL     1     -28.500  10.155 -23.279  1.00  0.00     0.069 A 
ATOM      6  C   UNL     1     -28.336   9.955 -24.667  1.00  0.00     0.142 A 
ATOM      7  O   UNL     1     -28.648  10.920 -25.525  1.00  0.00    -0.452 OA
ATOM      8  C   UNL     1     -27.845   8.736 -25.145  1.00  0.00     0.094 A 
ATOM      9  C   UNL     1     -27.516   7.708 -24.251  1.00  0.00     0.119 A 
ATOM     10  C   UNL     1     -27.679   7.903 -22.876  1.00  0.00     0.047 A 
ATOM     11  C   UNL     1     -28.168   9.119 -22.387  1.00  0.00     0.020 A 
ENDROOT
BRANCH   1  12
ATOM     12  C   UNL     1     -29.447  13.094 -26.204  1.00  0.00     0.025 A 
ATOM     13  C   UNL     1     -30.784  13.466 -26.417  1.00  0.00     0.016 A 
ATOM     14  C   UNL     1     -31.108  14.411 -27.393  1.00  0.00     0.051 A 
ATOM     15  C   UNL     1     -30.103  15.012 -28.157  1.00  0.00     0.157 A 
ATOM     16  C   UNL     1     -28.435  13.715 -26.959  1.00  0.00     0.062 A 
ATOM     17  C   UNL     1     -28.759  14.666 -27.938  1.00  0.00     0.158 A 
BRANCH  15  18
ATOM     18  O   UNL     1     -30.457  15.951 -29.125  1.00  0.00    -0.504 OA
ATOM     19  H   UNL     1     -31.389  16.343 -29.180  1.00  0.00     0.293 HD
ENDBRANCH  15  18
BRANCH  17  20
ATOM     20  O   UNL     1     -27.751  15.271 -28.686  1.00  0.00    -0.504 OA
ATOM     21  H   UNL     1     -27.691  16.279 -28.781  1.00  0.00     0.293 HD
ENDBRANCH  17  20
ENDBRANCH   1  12
BRANCH   2  22
ATOM     22  O   UNL     1     -29.734  13.651 -23.367  1.00  0.00    -0.502 OA
ATOM     23  H   UNL     1     -30.544  14.102 -23.773  1.00  0.00     0.293 HD
ENDBRANCH   2  22
BRANCH   9  24
ATOM     24  O   UNL     1     -27.028   6.491 -24.718  1.00  0.00    -0.508 OA
ATOM     25  H   UNL     1     -26.401   5.922 -24.161  1.00  0.00     0.293 HD
ENDBRANCH   9  24
TORSDOF 5
ENDMDL
MODEL 5
REMARK VINA RESULT:    -5.359      6.498     10.493
REMARK INTER + INTRA:          -6.617
REMARK INTER:                  -6.336
REMARK INTRA:                  -0.282
REMARK UNBOUND:                -0.318
REMARK SMILES O=c1c(O)c(-c2ccc(O)c(O)c2)oc2cc(O)ccc12
REMARK SMILES IDX 5 1 3 2 2 3 1 4 21 5 15 6 14 7 16 8 17 9 19 10 20 11 6 12
REMARK SMILES IDX 7 13 8 14 9 15 13 16 11 17 10 18 12 20 4 22 18 24
REMARK H PARENT 10 19 12 21 4 23 18 25
REMARK Flexibility Score: inf
ROOT
ATOM      1  C   UNL     1     -26.435   8.281 -25.737  1.00  0.00     0.180 A 
ATOM      2  C   UNL     1     -27.032   7.521 -26.764  1.00  0.00     0.208 A 
ATOM      3  C   UNL     1     -26.243   7.115 -27.851  1.00  0.00     0.235 A 
ATOM      4  O   UNL     1     -26.757   6.443 -28.787  1.00  0.00    -0.285 OA
ATOM      5  C   UNL     1     -24.881   7.453 -27.880  1.00  0.00     0.069 A 
ATOM      6  C   UNL     1     -24.352   8.195 -26.802  1.00  0.00     0.142 A 
ATOM      7  O   UNL     1     -25.136   8.569 -25.797  1.00  0.00    -0.452 OA
ATOM      8  C   UNL     1     -22.997   8.544 -26.790  1.00  0.00     0.094 A 
ATOM      9  C   UNL     1     -22.161   8.161 -27.847  1.00  0.00     0.119 A 
ATOM     10  C   UNL     1     -22.682   7.427 -28.917  1.00  0.00     0.047 A 
ATOM     11  C   UNL     1     -24.035   7.072 -28.938  1.00  0.00     0.020 A 
ENDROOT
BRANCH   1  12
ATOM     12  C   UNL     1     -27.204   8.764 -24.567  1.00  0.00     0.025 A 
ATOM     13  C   UNL     1     -27.692  10.080 -24.558  1.00  0.00     0.016 A 
ATOM     14  C   UNL     1     -28.437  10.551 -23.474  1.00  0.00     0.051 A 
ATOM     15  C   UNL     1     -28.720   9.711 -22.393  1.00  0.00     0.157 A 
ATOM     16  C   UNL     1     -27.507   7.914 -23.488  1.00  0.00     0.062 A 
ATOM     17  C   UNL     1     -28.257   8.385 -22.400  1.00  0.00     0.158 A 
BRANCH  15  18
ATOM     18  O   UNL     1     -29.464  10.209 -21.324  1.00  0.00    -0.504 OA
ATOM     19  H   UNL     1     -29.596  11.202 -21.176  1.00  0.00     0.293 HD
ENDBRANCH  15  18
BRANCH  17  20
ATOM     20  O   UNL     1     -28.547   7.538 -21.332  1.00  0.00    -0.504 OA
ATOM     21  H   UNL     1     -29.478   7.161 -21.190  1.00  0.00     0.293 HD
ENDBRANCH  17  20
ENDBRANCH   1  12
BRANCH   2  22
ATOM     22  O   UNL     1     -28.378   7.157 -26.684  1.00  0.00    -0.502 OA
ATOM     23  H   UNL     1     -29.070   7.737 -26.226  1.00  0.00     0.293 HD
ENDBRANCH   2  22
BRANCH   9  24
ATOM     24  O   UNL     1     -20.812   8.505 -27.843  1.00  0.00    -0.508 OA
ATOM     25  H   UNL     1     -20.104   7.880 -28.213  1.00  0.00     0.293 HD
ENDBRANCH   9  24
TORSDOF 5
ENDMDL
MODEL 6
REMARK VINA RESULT:    -5.343      2.876      6.466
REMARK INTER + INTRA:          -6.599
REMARK INTER:                  -6.311
REMARK INTRA:                  -0.288
REMARK UNBOUND:                -0.318
REMARK SMILES O=c1c(O)c(-c2ccc(O)c(O)c2)oc2cc(O)ccc12
REMARK SMILES IDX 5 1 3 2 2 3 1 4 21 5 15 6 14 7 16 8 17 9 19 10 20 11 6 12
REMARK SMILES IDX 7 13 8 14 9 15 13 16 11 17 10 18 12 20 4 22 18 24
REMARK H PARENT 10 19 12 21 4 23 18 25
REMARK Flexibility Score: inf
ROOT
ATOM      1  C   UNL     1     -13.927   8.159 -26.145  1.00  0.00     0.180 A 
ATOM      2  C   UNL     1     -13.488   7.252 -25.159  1.00  0.00     0.208 A 
ATOM      3  C   UNL     1     -14.300   6.153 -24.842  1.00  0.00     0.235 A 
ATOM      4  O   UNL     1     -13.934   5.332 -23.956  1.00  0.00    -0.285 OA
ATOM      5  C   UNL     1     -15.515   5.971 -25.524  1.00  0.00     0.069 A 
ATOM      6  C   UNL     1     -15.872   6.911 -26.514  1.00  0.00     0.142 A 
ATOM      7  O   UNL     1     -15.079   7.943 -26.778  1.00  0.00    -0.452 OA
ATOM      8  C   UNL     1     -17.070   6.760 -27.222  1.00  0.00     0.094 A 
ATOM      9  C   UNL     1     -17.918   5.678 -26.950  1.00  0.00     0.119 A 
ATOM     10  C   UNL     1     -17.567   4.747 -25.968  1.00  0.00     0.047 A 
ATOM     11  C   UNL     1     -16.371   4.888 -25.256  1.00  0.00     0.020 A 
ENDROOT
BRANCH   1  12
ATOM     12  C   UNL     1     -13.137   9.353 -26.523  1.00  0.00     0.025 A 
ATOM     13  C   UNL     1     -12.073   9.218 -27.430  1.00  0.00     0.016 A 
ATOM     14  C   UNL     1     -11.326  10.333 -27.815  1.00  0.00     0.051 A 
ATOM     15  C   UNL     1     -11.640  11.602 -27.317  1.00  0.00     0.157 A 
ATOM     16  C   UNL     1     -13.464  10.633 -26.039  1.00  0.00     0.062 A 
ATOM     17  C   UNL     1     -12.717  11.754 -26.427  1.00  0.00     0.158 A 
BRANCH  15  18
ATOM     18  O   UNL     1     -10.876  12.696 -27.718  1.00  0.00    -0.504 OA
ATOM     19  H   UNL     1     -10.655  13.458 -27.089  1.00  0.00     0.293 HD
ENDBRANCH  15  18
BRANCH  17  20
ATOM     20  O   UNL     1     -13.044  13.017 -25.937  1.00  0.00    -0.504 OA
ATOM     21  H   UNL     1     -13.128  13.197 -24.943  1.00  0.00     0.293 HD
ENDBRANCH  17  20
ENDBRANCH   1  12
BRANCH   2  22
ATOM     22  O   UNL     1     -12.252   7.430 -24.533  1.00  0.00    -0.502 OA
ATOM     23  H   UNL     1     -11.407   6.984 -24.865  1.00  0.00     0.293 HD
ENDBRANCH   2  22
BRANCH   9  24
ATOM     24  O   UNL     1     -19.112   5.521 -27.650  1.00  0.00    -0.508 OA
ATOM     25  H   UNL     1     -19.122   5.301 -28.639  1.00  0.00     0.293 HD
ENDBRANCH   9  24
TORSDOF 5
ENDMDL
MODEL 7
REMARK VINA RESULT:    -5.299      2.842      5.969
REMARK INTER + INTRA:          -6.546
REMARK INTER:                  -6.243
REMARK INTRA:                  -0.303
REMARK UNBOUND:                -0.318
REMARK SMILES O=c1c(O)c(-c2ccc(O)c(O)c2)oc2cc(O)ccc12
REMARK SMILES IDX 5 1 3 2 2 3 1 4 21 5 15 6 14 7 16 8 17 9 19 10 20 11 6 12
REMARK SMILES IDX 7 13 8 14 9 15 13 16 11 17 10 18 12 20 4 22 18 24
REMARK H PARENT 10 19 12 21 4 23 18 25
REMARK Flexibility Score: inf
ROOT
ATOM      1  C   UNL     1     -14.012   8.590 -26.470  1.00  0.00     0.180 A 
ATOM      2  C   UNL     1     -15.241   8.344 -27.116  1.00  0.00     0.208 A 
ATOM      3  C   UNL     1     -15.949   7.174 -26.801  1.00  0.00     0.235 A 
ATOM      4  O   UNL     1     -17.046   6.926 -27.372  1.00  0.00    -0.285 OA
ATOM      5  C   UNL     1     -15.430   6.290 -25.840  1.00  0.00     0.069 A 
ATOM      6  C   UNL     1     -14.205   6.620 -25.221  1.00  0.00     0.142 A 
ATOM      7  O   UNL     1     -13.562   7.733 -25.555  1.00  0.00    -0.452 OA
ATOM      8  C   UNL     1     -13.659   5.770 -24.252  1.00  0.00     0.094 A 
ATOM      9  C   UNL     1     -14.325   4.590 -23.894  1.00  0.00     0.119 A 
ATOM     10  C   UNL     1     -15.538   4.261 -24.507  1.00  0.00     0.047 A 
ATOM     11  C   UNL     1     -16.092   5.104 -25.476  1.00  0.00     0.020 A 
ENDROOT
BRANCH   1  12
ATOM     12  C   UNL     1     -13.197   9.791 -26.762  1.00  0.00     0.025 A 
ATOM     13  C   UNL     1     -12.175   9.716 -27.721  1.00  0.00     0.016 A 
ATOM     14  C   UNL     1     -11.407  10.842 -28.027  1.00  0.00     0.051 A 
ATOM     15  C   UNL     1     -11.659  12.063 -27.393  1.00  0.00     0.157 A 
ATOM     16  C   UNL     1     -13.463  11.025 -26.141  1.00  0.00     0.062 A 
ATOM     17  C   UNL     1     -12.694  12.158 -26.448  1.00  0.00     0.158 A 
BRANCH  15  18
ATOM     18  O   UNL     1     -10.875  13.169 -27.717  1.00  0.00    -0.504 OA
ATOM     19  H   UNL     1     -11.266  14.100 -27.802  1.00  0.00     0.293 HD
ENDBRANCH  15  18
BRANCH  17  20
ATOM     20  O   UNL     1     -12.960  13.375 -25.823  1.00  0.00    -0.504 OA
ATOM     21  H   UNL     1     -12.817  13.504 -24.828  1.00  0.00     0.293 HD
ENDBRANCH  17  20
ENDBRANCH   1  12
BRANCH   2  22
ATOM     22  O   UNL     1     -15.757   9.265 -28.031  1.00  0.00    -0.502 OA
ATOM     23  H   UNL     1     -15.647  10.264 -27.914  1.00  0.00     0.293 HD
ENDBRANCH   2  22
BRANCH   9  24
ATOM     24  O   UNL     1     -13.789   3.738 -22.932  1.00  0.00    -0.508 OA
ATOM     25  H   UNL     1     -14.307   3.489 -22.097  1.00  0.00     0.293 HD
ENDBRANCH   9  24
TORSDOF 5
ENDMDL
MODEL 8
REMARK VINA RESULT:    -5.157      1.295      2.960
REMARK INTER + INTRA:          -6.379
REMARK INTER:                  -6.097
REMARK INTRA:                  -0.282
REMARK UNBOUND:                -0.318
REMARK SMILES O=c1c(O)c(-c2ccc(O)c(O)c2)oc2cc(O)ccc12
REMARK SMILES IDX 5 1 3 2 2 3 1 4 21 5 15 6 14 7 16 8 17 9 19 10 20 11 6 12
REMARK SMILES IDX 7 13 8 14 9 15 13 16 11 17 10 18 12 20 4 22 18 24
REMARK H PARENT 10 19 12 21 4 23 18 25
REMARK Flexibility Score: inf
ROOT
ATOM      1  C   UNL     1     -16.402   6.313 -26.318  1.00  0.00     0.180 A 
ATOM      2  C   UNL     1     -16.213   5.382 -25.275  1.00  0.00     0.208 A 
ATOM      3  C   UNL     1     -14.962   5.321 -24.643  1.00  0.00     0.235 A 
ATOM      4  O   UNL     1     -14.765   4.490 -23.714  1.00  0.00    -0.285 OA
ATOM      5  C   UNL     1     -13.940   6.197 -25.045  1.00  0.00     0.069 A 
ATOM      6  C   UNL     1     -14.217   7.116 -26.080  1.00  0.00     0.142 A 
ATOM      7  O   UNL     1     -15.412   7.135 -26.659  1.00  0.00    -0.452 OA
ATOM      8  C   UNL     1     -13.228   8.011 -26.503  1.00  0.00     0.094 A 
ATOM      9  C   UNL     1     -11.962   7.998 -25.904  1.00  0.00     0.119 A 
ATOM     10  C   UNL     1     -11.685   7.087 -24.879  1.00  0.00     0.047 A 
ATOM     11  C   UNL     1     -12.667   6.189 -24.448  1.00  0.00     0.020 A 
ENDROOT
BRANCH   1  12
ATOM     12  C   UNL     1     -17.686   6.426 -27.047  1.00  0.00     0.025 A 
ATOM     13  C   UNL     1     -18.002   5.483 -28.038  1.00  0.00     0.016 A 
ATOM     14  C   UNL     1     -19.216   5.559 -28.725  1.00  0.00     0.051 A 
ATOM     15  C   UNL     1     -20.139   6.564 -28.422  1.00  0.00     0.157 A 
ATOM     16  C   UNL     1     -18.625   7.424 -26.728  1.00  0.00     0.062 A 
ATOM     17  C   UNL     1     -19.845   7.500 -27.416  1.00  0.00     0.158 A 
BRANCH  15  18
ATOM     18  O   UNL     1     -21.342   6.615 -29.125  1.00  0.00    -0.504 OA
ATOM     19  H   UNL     1     -22.238   6.497 -28.668  1.00  0.00     0.293 HD
ENDBRANCH  15  18
BRANCH  17  20
ATOM     20  O   UNL     1     -20.767   8.496 -27.098  1.00  0.00    -0.504 OA
ATOM     21  H   UNL     1     -20.915   8.798 -26.142  1.00  0.00     0.293 HD
ENDBRANCH  17  20
ENDBRANCH   1  12
BRANCH   2  22
ATOM     22  O   UNL     1     -17.263   4.558 -24.863  1.00  0.00    -0.502 OA
ATOM     23  H   UNL     1     -17.533   3.728 -25.375  1.00  0.00     0.293 HD
ENDBRANCH   2  22
BRANCH   9  24
ATOM     24  O   UNL     1     -10.972   8.885 -26.319  1.00  0.00    -0.508 OA
ATOM     25  H   UNL     1     -11.123   9.887 -26.317  1.00  0.00     0.293 HD
ENDBRANCH   9  24
TORSDOF 5
ENDMDL
