MODEL 1
REMARK VINA RESULT:     0.000      0.000      0.000
REMARK INTER + INTRA:          -0.283
REMARK INTER:                   0.000
REMARK INTRA:                  -0.283
REMARK UNBOUND:                -0.283
REMARK SMILES CCCCCC(=O)[O-]
REMARK SMILES IDX 4 1 5 2 6 3 7 4 8 5 3 6 2 7 1 8
REMARK H PARENT
REMARK Flexibility Score: inf
ROOT
ATOM      1  C   UNL     1     171.138 193.570 193.453  1.00  0.00     0.006 C 
ENDROOT
BRANCH   1   2
ATOM      2  C   UNL     1     170.857 192.088 193.716  1.00  0.00     0.053 C 
BRANCH   2   3
ATOM      3  C   UNL     1     172.136 191.316 193.790  1.00  0.00     0.041 C 
ATOM      4  O   UNL     1     172.335 190.345 193.012  1.00  0.00    -0.550 OA
ATOM      5  O   UNL     1     173.129 191.699 194.682  1.00  0.00    -0.550 OA
ENDBRANCH   2   3
ENDBRANCH   1   2
BRANCH   1   6
ATOM      6  C   UNL     1     171.775 193.772 192.073  1.00  0.00     0.000 C 
BRANCH   6   7
ATOM      7  C   UNL     1     173.069 194.586 192.179  1.00  0.00    -0.003 C 
ATOM      8  C   UNL     1     173.279 195.108 193.599  1.00  0.00     0.004 C 
ENDBRANCH   6   7
ENDBRANCH   1   6
TORSDOF 4
ENDMDL
MODEL 2
REMARK VINA RESULT:     0.000      5.575      6.821
REMARK INTER + INTRA:          -0.283
REMARK INTER:                   0.000
REMARK INTRA:                  -0.283
REMARK UNBOUND:                -0.283
REMARK SMILES CCCCCC(=O)[O-]
REMARK SMILES IDX 4 1 5 2 6 3 7 4 8 5 3 6 2 7 1 8
REMARK H PARENT
REMARK Flexibility Score: inf
ROOT
ATOM      1  C   UNL     1     172.600 196.859 188.512  1.00  0.00     0.006 C 
ENDROOT
BRANCH   1   2
ATOM      2  C   UNL     1     173.646 197.905 188.907  1.00  0.00     0.053 C 
BRANCH   2   3
ATOM      3  C   UNL     1     175.004 197.282 188.994  1.00  0.00     0.041 C 
ATOM      4  O   UNL     1     175.662 197.345 190.067  1.00  0.00    -0.550 OA
ATOM      5  O   UNL     1     175.522 196.589 187.908  1.00  0.00    -0.550 OA
ENDBRANCH   2   3
ENDBRANCH   1   2
BRANCH   1   6
ATOM      6  C   UNL     1     172.451 195.791 189.601  1.00  0.00     0.000 C 
BRANCH   6   7
ATOM      7  C   UNL     1     172.605 194.383 189.016  1.00  0.00    -0.003 C 
ATOM      8  C   UNL     1     172.700 194.425 187.493  1.00  0.00     0.004 C 
ENDBRANCH   6   7
ENDBRANCH   1   6
TORSDOF 4
ENDMDL
MODEL 3
REMARK VINA RESULT:     0.000      9.601     10.877
REMARK INTER + INTRA:          -0.283
REMARK INTER:                   0.000
REMARK INTRA:                  -0.283
REMARK UNBOUND:                -0.283
REMARK SMILES CCCCCC(=O)[O-]
REMARK SMILES IDX 4 1 5 2 6 3 7 4 8 5 3 6 2 7 1 8
REMARK H PARENT
REMARK Flexibility Score: inf
ROOT
ATOM      1  C   UNL     1     180.524 186.666 197.396  1.00  0.00     0.006 C 
ENDROOT
BRANCH   1   2
ATOM      2  C   UNL     1     180.841 187.095 195.960  1.00  0.00     0.053 C 
BRANCH   2   3
ATOM      3  C   UNL     1     179.641 186.921 195.084  1.00  0.00     0.041 C 
ATOM      4  O   UNL     1     179.706 186.191 194.059  1.00  0.00    -0.550 OA
ATOM      5  O   UNL     1     178.437 187.523 195.425  1.00  0.00    -0.550 OA
ENDBRANCH   2   3
ENDBRANCH   1   2
BRANCH   1   6
ATOM      6  C   UNL     1     180.224 185.165 197.468  1.00  0.00     0.000 C 
BRANCH   6   7
ATOM      7  C   UNL     1     178.887 184.905 198.170  1.00  0.00    -0.003 C 
ATOM      8  C   UNL     1     178.306 186.194 198.747  1.00  0.00     0.004 C 
ENDBRANCH   6   7
ENDBRANCH   1   6
TORSDOF 4
ENDMDL
MODEL 4
REMARK VINA RESULT:     0.000      5.588      6.519
REMARK INTER + INTRA:          -0.283
REMARK INTER:                   0.000
REMARK INTRA:                  -0.283
REMARK UNBOUND:                -0.283
REMARK SMILES CCCCCC(=O)[O-]
REMARK SMILES IDX 4 1 5 2 6 3 7 4 8 5 3 6 2 7 1 8
REMARK H PARENT
REMARK Flexibility Score: inf
ROOT
ATOM      1  C   UNL     1     173.793 186.748 190.752  1.00  0.00     0.006 C 
ENDROOT
BRANCH   1   2
ATOM      2  C   UNL     1     173.172 186.988 189.373  1.00  0.00     0.053 C 
BRANCH   2   3
ATOM      3  C   UNL     1     172.505 188.325 189.323  1.00  0.00     0.041 C 
ATOM      4  O   UNL     1     171.282 188.413 189.035  1.00  0.00    -0.550 OA
ATOM      5  O   UNL     1     173.221 189.472 189.644  1.00  0.00    -0.550 OA
ENDBRANCH   2   3
ENDBRANCH   1   2
BRANCH   1   6
ATOM      6  C   UNL     1     172.712 186.666 191.835  1.00  0.00     0.000 C 
BRANCH   6   7
ATOM      7  C   UNL     1     173.013 187.633 192.986  1.00  0.00    -0.003 C 
ATOM      8  C   UNL     1     174.382 188.285 192.815  1.00  0.00     0.004 C 
ENDBRANCH   6   7
ENDBRANCH   1   6
TORSDOF 4
ENDMDL
MODEL 5
REMARK VINA RESULT:     0.000      2.664      4.166
REMARK INTER + INTRA:          -0.283
REMARK INTER:                   0.000
REMARK INTRA:                  -0.283
REMARK UNBOUND:                -0.283
REMARK SMILES CCCCCC(=O)[O-]
REMARK SMILES IDX 4 1 5 2 6 3 7 4 8 5 3 6 2 7 1 8
REMARK H PARENT
REMARK Flexibility Score: inf
ROOT
ATOM      1  C   UNL     1     174.875 193.946 194.291  1.00  0.00     0.006 C 
ENDROOT
BRANCH   1   2
ATOM      2  C   UNL     1     174.967 194.829 195.538  1.00  0.00     0.053 C 
BRANCH   2   3
ATOM      3  C   UNL     1     173.608 195.301 195.948  1.00  0.00     0.041 C 
ATOM      4  O   UNL     1     173.365 196.534 196.037  1.00  0.00    -0.550 OA
ATOM      5  O   UNL     1     172.594 194.381 196.184  1.00  0.00    -0.550 OA
ENDBRANCH   2   3
ENDBRANCH   1   2
BRANCH   1   6
ATOM      6  C   UNL     1     174.379 194.749 193.084  1.00  0.00     0.000 C 
BRANCH   6   7
ATOM      7  C   UNL     1     173.180 194.062 192.421  1.00  0.00    -0.003 C 
ATOM      8  C   UNL     1     172.914 192.693 193.043  1.00  0.00     0.004 C 
ENDBRANCH   6   7
ENDBRANCH   1   6
TORSDOF 4
ENDMDL
MODEL 6
REMARK VINA RESULT:     0.000      7.215      7.994
REMARK INTER + INTRA:          -0.283
REMARK INTER:                   0.000
REMARK INTRA:                  -0.283
REMARK UNBOUND:                -0.283
REMARK SMILES CCCCCC(=O)[O-]
REMARK SMILES IDX 4 1 5 2 6 3 7 4 8 5 3 6 2 7 1 8
REMARK H PARENT
REMARK Flexibility Score: inf
ROOT
ATOM      1  C   UNL     1     166.476 191.095 188.949  1.00  0.00     0.006 C 
ENDROOT
BRANCH   1   2
ATOM      2  C   UNL     1     166.334 190.015 187.874  1.00  0.00     0.053 C 
BRANCH   2   3
ATOM      3  C   UNL     1     167.105 190.391 186.648  1.00  0.00     0.041 C 
ATOM      4  O   UNL     1     166.521 190.485 185.536  1.00  0.00    -0.550 OA
ATOM      5  O   UNL     1     168.459 190.687 186.741  1.00  0.00    -0.550 OA
ENDBRANCH   2   3
ENDBRANCH   1   2
BRANCH   1   6
ATOM      6  C   UNL     1     165.836 192.411 188.495  1.00  0.00     0.000 C 
BRANCH   6   7
ATOM      7  C   UNL     1     166.822 193.577 188.629  1.00  0.00    -0.003 C 
ATOM      8  C   UNL     1     168.106 193.136 189.328  1.00  0.00     0.004 C 
ENDBRANCH   6   7
ENDBRANCH   1   6
TORSDOF 4
ENDMDL
MODEL 7
REMARK VINA RESULT:     0.000      6.872      7.922
REMARK INTER + INTRA:          -0.283
REMARK INTER:                   0.000
REMARK INTRA:                  -0.283
REMARK UNBOUND:                -0.283
REMARK SMILES CCCCCC(=O)[O-]
REMARK SMILES IDX 4 1 5 2 6 3 7 4 8 5 3 6 2 7 1 8
REMARK H PARENT
REMARK Flexibility Score: inf
ROOT
ATOM      1  C   UNL     1     171.317 191.277 199.784  1.00  0.00     0.006 C 
ENDROOT
BRANCH   1   2
ATOM      2  C   UNL     1     172.811 191.329 200.114  1.00  0.00     0.053 C 
BRANCH   2   3
ATOM      3  C   UNL     1     173.375 189.947 200.212  1.00  0.00     0.041 C 
ATOM      4  O   UNL     1     173.943 189.568 201.271  1.00  0.00    -0.550 OA
ATOM      5  O   UNL     1     173.231 189.060 199.153  1.00  0.00    -0.550 OA
ENDBRANCH   2   3
ENDBRANCH   1   2
BRANCH   1   6
ATOM      6  C   UNL     1     170.524 190.630 200.924  1.00  0.00     0.000 C 
BRANCH   6   7
ATOM      7  C   UNL     1     169.646 189.487 200.403  1.00  0.00    -0.003 C 
ATOM      8  C   UNL     1     169.679 189.415 198.879  1.00  0.00     0.004 C 
ENDBRANCH   6   7
ENDBRANCH   1   6
TORSDOF 4
ENDMDL
MODEL 8
REMARK VINA RESULT:     0.000      9.703     10.286
REMARK INTER + INTRA:          -0.283
REMARK INTER:                   0.000
REMARK INTRA:                  -0.283
REMARK UNBOUND:                -0.283
REMARK SMILES CCCCCC(=O)[O-]
REMARK SMILES IDX 4 1 5 2 6 3 7 4 8 5 3 6 2 7 1 8
REMARK H PARENT
REMARK Flexibility Score: inf
ROOT
ATOM      1  C   UNL     1     168.583 184.394 199.812  1.00  0.00     0.006 C 
ENDROOT
BRANCH   1   2
ATOM      2  C   UNL     1     169.456 183.711 198.756  1.00  0.00     0.053 C 
BRANCH   2   3
ATOM      3  C   UNL     1     170.575 184.611 198.337  1.00  0.00     0.041 C 
ATOM      4  O   UNL     1     170.711 184.933 197.127  1.00  0.00    -0.550 OA
ATOM      5  O   UNL     1     171.438 185.137 199.290  1.00  0.00    -0.550 OA
ENDBRANCH   2   3
ENDBRANCH   1   2
BRANCH   1   6
ATOM      6  C   UNL     1     167.876 185.623 199.231  1.00  0.00     0.000 C 
BRANCH   6   7
ATOM      7  C   UNL     1     168.126 186.863 200.096  1.00  0.00    -0.003 C 
ATOM      8  C   UNL     1     168.870 186.500 201.379  1.00  0.00     0.004 C 
ENDBRANCH   6   7
ENDBRANCH   1   6
TORSDOF 4
ENDMDL
MODEL 9
REMARK VINA RESULT:     0.000      5.398      6.632
REMARK INTER + INTRA:          -0.283
REMARK INTER:                   0.000
REMARK INTRA:                  -0.283
REMARK UNBOUND:                -0.283
REMARK SMILES CCCCCC(=O)[O-]
REMARK SMILES IDX 4 1 5 2 6 3 7 4 8 5 3 6 2 7 1 8
REMARK H PARENT
REMARK Flexibility Score: inf
ROOT
ATOM      1  C   UNL     1     176.331 192.447 195.967  1.00  0.00     0.006 C 
ENDROOT
BRANCH   1   2
ATOM      2  C   UNL     1     177.176 193.708 196.166  1.00  0.00     0.053 C 
BRANCH   2   3
ATOM      3  C   UNL     1     178.291 193.755 195.170  1.00  0.00     0.041 C 
ATOM      4  O   UNL     1     179.487 193.827 195.560  1.00  0.00    -0.550 OA
ATOM      5  O   UNL     1     178.015 193.669 193.812  1.00  0.00    -0.550 OA
ENDBRANCH   2   3
ENDBRANCH   1   2
BRANCH   1   6
ATOM      6  C   UNL     1     177.149 191.185 196.263  1.00  0.00     0.000 C 
BRANCH   6   7
ATOM      7  C   UNL     1     177.075 190.195 195.095  1.00  0.00    -0.003 C 
ATOM      8  C   UNL     1     176.081 190.665 194.035  1.00  0.00     0.004 C 
ENDBRANCH   6   7
ENDBRANCH   1   6
TORSDOF 4
ENDMDL
