MODEL 1
REMARK VINA RESULT:     4.798      0.000      0.000
REMARK INTER + INTRA:           6.766
REMARK INTER:                   6.200
REMARK INTRA:                   0.566
REMARK UNBOUND:                 0.566
REMARK SMILES CCCCCCC(=O)[O-]
REMARK SMILES IDX 5 1 6 2 7 3 8 4 9 5 4 6 3 7 2 8 1 9
REMARK H PARENT
REMARK Flexibility Score: inf
ROOT
ATOM      1  C   UNL     1      56.097  56.373  24.378  1.00  0.00     0.006 C 
ENDROOT
BRANCH   1   2
ATOM      2  C   UNL     1      54.746  56.783  23.777  1.00  0.00     0.053 C 
BRANCH   2   3
ATOM      3  C   UNL     1      53.638  55.887  24.237  1.00  0.00     0.041 C 
ATOM      4  O   UNL     1      53.563  54.702  23.817  1.00  0.00    -0.550 OA
ATOM      5  O   UNL     1      52.670  56.369  25.111  1.00  0.00    -0.550 OA
ENDBRANCH   2   3
ENDBRANCH   1   2
BRANCH   1   6
ATOM      6  C   UNL     1      56.339  57.018  25.754  1.00  0.00     0.000 C 
BRANCH   6   7
ATOM      7  C   UNL     1      57.833  57.125  26.111  1.00  0.00    -0.000 C 
BRANCH   7   8
ATOM      8  C   UNL     1      58.519  55.785  26.434  1.00  0.00    -0.003 C 
ATOM      9  C   UNL     1      57.853  54.591  25.751  1.00  0.00     0.004 C 
ENDBRANCH   7   8
ENDBRANCH   6   7
ENDBRANCH   1   6
TORSDOF 5
ENDMDL
MODEL 2
REMARK VINA RESULT:     5.115      2.737      4.589
REMARK INTER + INTRA:           7.176
REMARK INTER:                   7.344
REMARK INTRA:                  -0.168
REMARK UNBOUND:                 0.566
REMARK SMILES CCCCCCC(=O)[O-]
REMARK SMILES IDX 5 1 6 2 7 3 8 4 9 5 4 6 3 7 2 8 1 9
REMARK H PARENT
REMARK Flexibility Score: inf
ROOT
ATOM      1  C   UNL     1      55.911  56.336  24.189  1.00  0.00     0.006 C 
ENDROOT
BRANCH   1   2
ATOM      2  C   UNL     1      56.475  57.125  25.377  1.00  0.00     0.053 C 
BRANCH   2   3
ATOM      3  C   UNL     1      57.595  56.391  26.050  1.00  0.00     0.041 C 
ATOM      4  O   UNL     1      58.338  56.985  26.874  1.00  0.00    -0.550 OA
ATOM      5  O   UNL     1      57.834  55.057  25.745  1.00  0.00    -0.550 OA
ENDBRANCH   2   3
ENDBRANCH   1   2
BRANCH   1   6
ATOM      6  C   UNL     1      54.532  56.858  23.747  1.00  0.00     0.000 C 
BRANCH   6   7
ATOM      7  C   UNL     1      53.373  55.957  24.212  1.00  0.00    -0.000 C 
BRANCH   7   8
ATOM      8  C   UNL     1      53.539  54.464  23.874  1.00  0.00    -0.003 C 
ATOM      9  C   UNL     1      53.169  54.132  22.429  1.00  0.00     0.004 C 
ENDBRANCH   7   8
ENDBRANCH   6   7
ENDBRANCH   1   6
TORSDOF 5
ENDMDL
MODEL 3
REMARK VINA RESULT:     5.669      0.936      1.952
REMARK INTER + INTRA:           7.892
REMARK INTER:                   7.979
REMARK INTRA:                  -0.086
REMARK UNBOUND:                 0.566
REMARK SMILES CCCCCCC(=O)[O-]
REMARK SMILES IDX 5 1 6 2 7 3 8 4 9 5 4 6 3 7 2 8 1 9
REMARK H PARENT
REMARK Flexibility Score: inf
ROOT
ATOM      1  C   UNL     1      55.367  57.067  23.848  1.00  0.00     0.006 C 
ENDROOT
BRANCH   1   2
ATOM      2  C   UNL     1      53.867  56.823  23.639  1.00  0.00     0.053 C 
BRANCH   2   3
ATOM      3  C   UNL     1      53.276  56.005  24.746  1.00  0.00     0.041 C 
ATOM      4  O   UNL     1      52.631  56.562  25.673  1.00  0.00    -0.550 OA
ATOM      5  O   UNL     1      53.462  54.628  24.768  1.00  0.00    -0.550 OA
ENDBRANCH   2   3
ENDBRANCH   1   2
BRANCH   1   6
ATOM      6  C   UNL     1      56.182  55.765  23.777  1.00  0.00     0.000 C 
BRANCH   6   7
ATOM      7  C   UNL     1      57.062  55.539  25.020  1.00  0.00    -0.000 C 
BRANCH   7   8
ATOM      8  C   UNL     1      57.011  56.670  26.063  1.00  0.00    -0.003 C 
ATOM      9  C   UNL     1      58.396  57.110  26.537  1.00  0.00     0.004 C 
ENDBRANCH   7   8
ENDBRANCH   6   7
ENDBRANCH   1   6
TORSDOF 5
ENDMDL
MODEL 4
REMARK VINA RESULT:     6.611      9.962     11.034
REMARK INTER + INTRA:           9.110
REMARK INTER:                   9.238
REMARK INTRA:                  -0.129
REMARK UNBOUND:                 0.566
REMARK SMILES CCCCCCC(=O)[O-]
REMARK SMILES IDX 5 1 6 2 7 3 8 4 9 5 4 6 3 7 2 8 1 9
REMARK H PARENT
REMARK Flexibility Score: inf
ROOT
ATOM      1  C   UNL     1      57.165  47.760  18.288  1.00  0.00     0.006 C 
ENDROOT
BRANCH   1   2
ATOM      2  C   UNL     1      56.082  48.098  19.322  1.00  0.00     0.053 C 
BRANCH   2   3
ATOM      3  C   UNL     1      56.210  47.257  20.555  1.00  0.00     0.041 C 
ATOM      4  O   UNL     1      55.820  46.060  20.550  1.00  0.00    -0.550 OA
ATOM      5  O   UNL     1      56.736  47.804  21.719  1.00  0.00    -0.550 OA
ENDBRANCH   2   3
ENDBRANCH   1   2
BRANCH   1   6
ATOM      6  C   UNL     1      56.997  48.565  16.988  1.00  0.00     0.000 C 
BRANCH   6   7
ATOM      7  C   UNL     1      55.619  49.242  16.875  1.00  0.00    -0.000 C 
BRANCH   7   8
ATOM      8  C   UNL     1      55.535  50.369  15.830  1.00  0.00    -0.003 C 
ATOM      9  C   UNL     1      54.287  50.279  14.951  1.00  0.00     0.004 C 
ENDBRANCH   7   8
ENDBRANCH   6   7
ENDBRANCH   1   6
TORSDOF 5
ENDMDL
MODEL 5
REMARK VINA RESULT:     6.737      9.698     10.599
REMARK INTER + INTRA:           9.272
REMARK INTER:                   9.405
REMARK INTRA:                  -0.133
REMARK UNBOUND:                 0.566
REMARK SMILES CCCCCCC(=O)[O-]
REMARK SMILES IDX 5 1 6 2 7 3 8 4 9 5 4 6 3 7 2 8 1 9
REMARK H PARENT
REMARK Flexibility Score: inf
ROOT
ATOM      1  C   UNL     1      56.977  48.532  17.012  1.00  0.00     0.006 C 
ENDROOT
BRANCH   1   2
ATOM      2  C   UNL     1      55.594  49.196  17.000  1.00  0.00     0.053 C 
BRANCH   2   3
ATOM      3  C   UNL     1      55.465  50.190  15.887  1.00  0.00     0.041 C 
ATOM      4  O   UNL     1      56.303  51.123  15.768  1.00  0.00    -0.550 OA
ATOM      5  O   UNL     1      54.402  50.103  14.996  1.00  0.00    -0.550 OA
ENDBRANCH   2   3
ENDBRANCH   1   2
BRANCH   1   6
ATOM      6  C   UNL     1      57.203  47.683  18.275  1.00  0.00     0.000 C 
BRANCH   6   7
ATOM      7  C   UNL     1      56.205  48.008  19.402  1.00  0.00    -0.000 C 
BRANCH   7   8
ATOM      8  C   UNL     1      56.227  47.028  20.588  1.00  0.00    -0.003 C 
ATOM      9  C   UNL     1      56.779  47.651  21.870  1.00  0.00     0.004 C 
ENDBRANCH   7   8
ENDBRANCH   6   7
ENDBRANCH   1   6
TORSDOF 5
ENDMDL
