MODEL 1
REMARK VINA RESULT:    -2.724      0.000      0.000
REMARK INTER + INTRA:          -4.001
REMARK INTER:                  -3.679
REMARK INTRA:                  -0.322
REMARK UNBOUND:                -0.322
REMARK SMILES CCCCCCCC(=O)[O-]
REMARK SMILES IDX 5 1 6 2 7 3 8 4 9 5 10 6 4 7 3 8 2 9 1 10
REMARK H PARENT
REMARK Flexibility Score: inf
ROOT
ATOM      1  C   UNL     1      19.196  22.960  47.112  1.00  0.00     0.000 C 
ENDROOT
BRANCH   1   2
ATOM      2  C   UNL     1      19.957  22.300  45.956  1.00  0.00     0.006 C 
BRANCH   2   3
ATOM      3  C   UNL     1      21.426  22.070  46.324  1.00  0.00     0.053 C 
BRANCH   3   4
ATOM      4  C   UNL     1      22.322  22.836  45.404  1.00  0.00     0.041 C 
ATOM      5  O   UNL     1      23.549  22.954  45.666  1.00  0.00    -0.550 OA
ATOM      6  O   UNL     1      21.796  23.462  44.281  1.00  0.00    -0.550 OA
ENDBRANCH   3   4
ENDBRANCH   2   3
ENDBRANCH   1   2
BRANCH   1   7
ATOM      7  C   UNL     1      18.152  23.958  46.588  1.00  0.00     0.000 C 
BRANCH   7   8
ATOM      8  C   UNL     1      18.495  24.475  45.175  1.00  0.00    -0.000 C 
BRANCH   8   9
ATOM      9  C   UNL     1      17.323  24.382  44.184  1.00  0.00    -0.003 C 
ATOM     10  C   UNL     1      17.719  24.737  42.752  1.00  0.00     0.004 C 
ENDBRANCH   8   9
ENDBRANCH   7   8
ENDBRANCH   1   7
TORSDOF 6
ENDMDL
MODEL 2
REMARK VINA RESULT:    -2.273     17.731     19.317
REMARK INTER + INTRA:          -3.393
REMARK INTER:                  -3.172
REMARK INTRA:                  -0.221
REMARK UNBOUND:                -0.322
REMARK SMILES CCCCCCCC(=O)[O-]
REMARK SMILES IDX 5 1 6 2 7 3 8 4 9 5 10 6 4 7 3 8 2 9 1 10
REMARK H PARENT
REMARK Flexibility Score: inf
ROOT
ATOM      1  C   UNL     1      30.094  24.247  30.915  1.00  0.00     0.000 C 
ENDROOT
BRANCH   1   2
ATOM      2  C   UNL     1      30.157  24.497  29.403  1.00  0.00     0.006 C 
BRANCH   2   3
ATOM      3  C   UNL     1      30.801  23.314  28.676  1.00  0.00     0.053 C 
BRANCH   3   4
ATOM      4  C   UNL     1      32.078  23.734  28.022  1.00  0.00     0.041 C 
ATOM      5  O   UNL     1      32.059  24.289  26.891  1.00  0.00    -0.550 OA
ATOM      6  O   UNL     1      33.295  23.471  28.637  1.00  0.00    -0.550 OA
ENDBRANCH   3   4
ENDBRANCH   2   3
ENDBRANCH   1   2
BRANCH   1   7
ATOM      7  C   UNL     1      31.236  24.971  31.643  1.00  0.00     0.000 C 
BRANCH   7   8
ATOM      8  C   UNL     1      30.960  25.125  33.154  1.00  0.00    -0.000 C 
BRANCH   8   9
ATOM      9  C   UNL     1      32.234  25.114  34.016  1.00  0.00    -0.003 C 
ATOM     10  C   UNL     1      33.517  25.047  33.190  1.00  0.00     0.004 C 
ENDBRANCH   8   9
ENDBRANCH   7   8
ENDBRANCH   1   7
TORSDOF 6
ENDMDL
MODEL 3
REMARK VINA RESULT:    -1.996     18.371     20.052
REMARK INTER + INTRA:          -3.018
REMARK INTER:                  -2.738
REMARK INTRA:                  -0.280
REMARK UNBOUND:                -0.322
REMARK SMILES CCCCCCCC(=O)[O-]
REMARK SMILES IDX 5 1 6 2 7 3 8 4 9 5 10 6 4 7 3 8 2 9 1 10
REMARK H PARENT
REMARK Flexibility Score: inf
ROOT
ATOM      1  C   UNL     1      31.097  23.698  28.667  1.00  0.00     0.000 C 
ENDROOT
BRANCH   1   2
ATOM      2  C   UNL     1      31.332  24.590  29.892  1.00  0.00     0.006 C 
BRANCH   2   3
ATOM      3  C   UNL     1      30.009  25.125  30.445  1.00  0.00     0.053 C 
BRANCH   3   4
ATOM      4  C   UNL     1      29.964  24.973  31.932  1.00  0.00     0.041 C 
ATOM      5  O   UNL     1      28.867  24.764  32.516  1.00  0.00    -0.550 OA
ATOM      6  O   UNL     1      31.126  25.109  32.681  1.00  0.00    -0.550 OA
ENDBRANCH   3   4
ENDBRANCH   2   3
ENDBRANCH   1   2
BRANCH   1   7
ATOM      7  C   UNL     1      32.330  22.832  28.368  1.00  0.00     0.000 C 
BRANCH   7   8
ATOM      8  C   UNL     1      33.202  23.428  27.242  1.00  0.00    -0.000 C 
BRANCH   8   9
ATOM      9  C   UNL     1      34.669  23.649  27.651  1.00  0.00    -0.003 C 
ATOM     10  C   UNL     1      34.835  24.706  28.741  1.00  0.00     0.004 C 
ENDBRANCH   8   9
ENDBRANCH   7   8
ENDBRANCH   1   7
TORSDOF 6
ENDMDL
MODEL 4
REMARK VINA RESULT:    -1.960     18.688     20.094
REMARK INTER + INTRA:          -2.969
REMARK INTER:                  -2.715
REMARK INTRA:                  -0.254
REMARK UNBOUND:                -0.322
REMARK SMILES CCCCCCCC(=O)[O-]
REMARK SMILES IDX 5 1 6 2 7 3 8 4 9 5 10 6 4 7 3 8 2 9 1 10
REMARK H PARENT
REMARK Flexibility Score: inf
ROOT
ATOM      1  C   UNL     1      31.065  23.517  29.427  1.00  0.00     0.000 C 
ENDROOT
BRANCH   1   2
ATOM      2  C   UNL     1      30.765  23.843  27.959  1.00  0.00     0.006 C 
BRANCH   2   3
ATOM      3  C   UNL     1      31.865  24.720  27.354  1.00  0.00     0.053 C 
BRANCH   3   4
ATOM      4  C   UNL     1      33.137  23.946  27.220  1.00  0.00     0.041 C 
ATOM      5  O   UNL     1      34.248  24.519  27.374  1.00  0.00    -0.550 OA
ATOM      6  O   UNL     1      33.099  22.600  26.876  1.00  0.00    -0.550 OA
ENDBRANCH   3   4
ENDBRANCH   2   3
ENDBRANCH   1   2
BRANCH   1   7
ATOM      7  C   UNL     1      31.157  24.798  30.270  1.00  0.00     0.000 C 
BRANCH   7   8
ATOM      8  C   UNL     1      29.830  25.122  30.988  1.00  0.00    -0.000 C 
BRANCH   8   9
ATOM      9  C   UNL     1      29.844  24.784  32.489  1.00  0.00    -0.003 C 
ATOM     10  C   UNL     1      31.170  25.124  33.167  1.00  0.00     0.004 C 
ENDBRANCH   8   9
ENDBRANCH   7   8
ENDBRANCH   1   7
TORSDOF 6
ENDMDL
MODEL 5
REMARK VINA RESULT:    -1.923     17.327     18.969
REMARK INTER + INTRA:          -2.920
REMARK INTER:                  -2.680
REMARK INTRA:                  -0.239
REMARK UNBOUND:                -0.322
REMARK SMILES CCCCCCCC(=O)[O-]
REMARK SMILES IDX 5 1 6 2 7 3 8 4 9 5 10 6 4 7 3 8 2 9 1 10
REMARK H PARENT
REMARK Flexibility Score: inf
ROOT
ATOM      1  C   UNL     1      30.312  24.737  30.701  1.00  0.00     0.000 C 
ENDROOT
BRANCH   1   2
ATOM      2  C   UNL     1      31.637  24.392  30.011  1.00  0.00     0.006 C 
BRANCH   2   3
ATOM      3  C   UNL     1      31.428  23.352  28.907  1.00  0.00     0.053 C 
BRANCH   3   4
ATOM      4  C   UNL     1      30.655  23.942  27.771  1.00  0.00     0.041 C 
ATOM      5  O   UNL     1      31.202  24.768  26.993  1.00  0.00    -0.550 OA
ATOM      6  O   UNL     1      29.315  23.618  27.598  1.00  0.00    -0.550 OA
ENDBRANCH   3   4
ENDBRANCH   2   3
ENDBRANCH   1   2
BRANCH   1   7
ATOM      7  C   UNL     1      30.467  24.735  32.229  1.00  0.00     0.000 C 
BRANCH   7   8
ATOM      8  C   UNL     1      31.893  25.125  32.672  1.00  0.00    -0.000 C 
BRANCH   8   9
ATOM      9  C   UNL     1      32.328  24.472  33.996  1.00  0.00    -0.003 C 
ATOM     10  C   UNL     1      31.663  25.099  35.220  1.00  0.00     0.004 C 
ENDBRANCH   8   9
ENDBRANCH   7   8
ENDBRANCH   1   7
TORSDOF 6
ENDMDL
MODEL 6
REMARK VINA RESULT:    -1.271     17.214     18.584
REMARK INTER + INTRA:          -2.039
REMARK INTER:                  -1.933
REMARK INTRA:                  -0.106
REMARK UNBOUND:                -0.322
REMARK SMILES CCCCCCCC(=O)[O-]
REMARK SMILES IDX 5 1 6 2 7 3 8 4 9 5 10 6 4 7 3 8 2 9 1 10
REMARK H PARENT
REMARK Flexibility Score: inf
ROOT
ATOM      1  C   UNL     1      30.074  24.039  31.007  1.00  0.00     0.000 C 
ENDROOT
BRANCH   1   2
ATOM      2  C   UNL     1      30.117  25.124  32.090  1.00  0.00     0.006 C 
BRANCH   2   3
ATOM      3  C   UNL     1      30.719  24.581  33.389  1.00  0.00     0.053 C 
BRANCH   3   4
ATOM      4  C   UNL     1      32.178  24.901  33.463  1.00  0.00     0.041 C 
ATOM      5  O   UNL     1      32.747  25.012  34.581  1.00  0.00    -0.550 OA
ATOM      6  O   UNL     1      32.901  25.125  32.298  1.00  0.00    -0.550 OA
ENDBRANCH   3   4
ENDBRANCH   2   3
ENDBRANCH   1   2
BRANCH   1   7
ATOM      7  C   UNL     1      30.703  24.540  29.698  1.00  0.00     0.000 C 
BRANCH   7   8
ATOM      8  C   UNL     1      30.098  23.848  28.458  1.00  0.00    -0.000 C 
BRANCH   8   9
ATOM      9  C   UNL     1      30.843  24.168  27.150  1.00  0.00    -0.003 C 
ATOM     10  C   UNL     1      32.342  23.888  27.230  1.00  0.00     0.004 C 
ENDBRANCH   8   9
ENDBRANCH   7   8
ENDBRANCH   1   7
TORSDOF 6
ENDMDL
