MODEL 1
REMARK VINA RESULT:    -4.381      0.000      0.000
REMARK INTER + INTRA:          -5.619
REMARK INTER:                  -5.405
REMARK INTRA:                  -0.214
REMARK UNBOUND:                -0.214
REMARK SMILES C=CC[C@H](C)C(=O)CC
REMARK SMILES IDX 4 1 5 2 6 3 7 4 8 5 9 6 3 7 2 8 1 9
REMARK H PARENT
REMARK Flexibility Score: inf
ROOT
ATOM      1  C   UNL     1     123.762 176.983 118.093  1.00  0.00     0.057 C 
ATOM      2  C   UNL     1     124.414 178.203 118.758  1.00  0.00     0.016 C 
ENDROOT
BRANCH   1   3
ATOM      3  C   UNL     1     122.975 177.420 116.876  1.00  0.00     0.135 C 
ATOM      4  O   UNL     1     122.015 176.757 116.505  1.00  0.00    -0.299 OA
BRANCH   3   5
ATOM      5  C   UNL     1     123.346 178.663 116.111  1.00  0.00     0.072 C 
ATOM      6  C   UNL     1     122.156 179.184 115.315  1.00  0.00     0.012 C 
ENDBRANCH   3   5
ENDBRANCH   1   3
BRANCH   1   7
ATOM      7  C   UNL     1     122.842 176.225 119.070  1.00  0.00     0.038 C 
BRANCH   7   8
ATOM      8  C   UNL     1     122.507 177.059 120.278  1.00  0.00    -0.034 C 
ATOM      9  C   UNL     1     122.570 176.565 121.518  1.00  0.00     0.004 C 
ENDBRANCH   7   8
ENDBRANCH   1   7
TORSDOF 4
ENDMDL
MODEL 2
REMARK VINA RESULT:    -4.284      6.916      9.041
REMARK INTER + INTRA:          -5.499
REMARK INTER:                  -5.295
REMARK INTRA:                  -0.204
REMARK UNBOUND:                -0.214
REMARK SMILES C=CC[C@H](C)C(=O)CC
REMARK SMILES IDX 4 1 5 2 6 3 7 4 8 5 9 6 3 7 2 8 1 9
REMARK H PARENT
REMARK Flexibility Score: inf
ROOT
ATOM      1  C   UNL     1     118.296 179.140 125.769  1.00  0.00     0.057 C 
ATOM      2  C   UNL     1     116.892 179.369 126.346  1.00  0.00     0.016 C 
ENDROOT
BRANCH   1   3
ATOM      3  C   UNL     1     118.212 178.242 124.553  1.00  0.00     0.135 C 
ATOM      4  O   UNL     1     117.135 177.760 124.229  1.00  0.00    -0.299 OA
BRANCH   3   5
ATOM      5  C   UNL     1     119.433 177.932 123.727  1.00  0.00     0.072 C 
ATOM      6  C   UNL     1     119.444 178.761 122.448  1.00  0.00     0.012 C 
ENDBRANCH   3   5
ENDBRANCH   1   3
BRANCH   1   7
ATOM      7  C   UNL     1     119.249 178.525 126.812  1.00  0.00     0.038 C 
BRANCH   7   8
ATOM      8  C   UNL     1     118.523 178.165 128.082  1.00  0.00    -0.034 C 
ATOM      9  C   UNL     1     119.173 177.762 129.177  1.00  0.00     0.004 C 
ENDBRANCH   7   8
ENDBRANCH   1   7
TORSDOF 4
ENDMDL
MODEL 3
REMARK VINA RESULT:    -4.268      1.636      4.424
REMARK INTER + INTRA:          -5.479
REMARK INTER:                  -5.266
REMARK INTRA:                  -0.214
REMARK UNBOUND:                -0.214
REMARK SMILES C=CC[C@H](C)C(=O)CC
REMARK SMILES IDX 4 1 5 2 6 3 7 4 8 5 9 6 3 7 2 8 1 9
REMARK H PARENT
REMARK Flexibility Score: inf
ROOT
ATOM      1  C   UNL     1     123.868 177.353 117.646  1.00  0.00     0.057 C 
ATOM      2  C   UNL     1     122.770 176.354 117.258  1.00  0.00     0.016 C 
ENDROOT
BRANCH   1   3
ATOM      3  C   UNL     1     123.817 177.621 119.136  1.00  0.00     0.135 C 
ATOM      4  O   UNL     1     124.198 178.699 119.571  1.00  0.00    -0.299 OA
BRANCH   3   5
ATOM      5  C   UNL     1     123.300 176.583 120.097  1.00  0.00     0.072 C 
ATOM      6  C   UNL     1     122.192 177.161 120.971  1.00  0.00     0.012 C 
ENDBRANCH   3   5
ENDBRANCH   1   3
BRANCH   1   7
ATOM      7  C   UNL     1     123.736 178.677 116.869  1.00  0.00     0.038 C 
BRANCH   7   8
ATOM      8  C   UNL     1     122.811 178.538 115.689  1.00  0.00    -0.034 C 
ATOM      9  C   UNL     1     122.452 179.587 114.944  1.00  0.00     0.004 C 
ENDBRANCH   7   8
ENDBRANCH   1   7
TORSDOF 4
ENDMDL
MODEL 4
REMARK VINA RESULT:    -4.213     14.037     15.326
REMARK INTER + INTRA:          -5.412
REMARK INTER:                  -5.246
REMARK INTRA:                  -0.165
REMARK UNBOUND:                -0.214
REMARK SMILES C=CC[C@H](C)C(=O)CC
REMARK SMILES IDX 4 1 5 2 6 3 7 4 8 5 9 6 3 7 2 8 1 9
REMARK H PARENT
REMARK Flexibility Score: inf
ROOT
ATOM      1  C   UNL     1     116.167 164.215 120.339  1.00  0.00     0.057 C 
ATOM      2  C   UNL     1     116.088 162.695 120.530  1.00  0.00     0.016 C 
ENDROOT
BRANCH   1   3
ATOM      3  C   UNL     1     115.754 164.916 121.616  1.00  0.00     0.135 C 
ATOM      4  O   UNL     1     116.610 165.293 122.405  1.00  0.00    -0.299 OA
BRANCH   3   5
ATOM      5  C   UNL     1     114.303 165.167 121.934  1.00  0.00     0.072 C 
ATOM      6  C   UNL     1     114.160 166.288 122.956  1.00  0.00     0.012 C 
ENDBRANCH   3   5
ENDBRANCH   1   3
BRANCH   1   7
ATOM      7  C   UNL     1     115.284 164.691 119.169  1.00  0.00     0.038 C 
BRANCH   7   8
ATOM      8  C   UNL     1     116.112 165.069 117.969  1.00  0.00    -0.034 C 
ATOM      9  C   UNL     1     115.647 165.886 117.019  1.00  0.00     0.004 C 
ENDBRANCH   7   8
ENDBRANCH   1   7
TORSDOF 4
ENDMDL
MODEL 5
REMARK VINA RESULT:    -4.199      7.606      9.921
REMARK INTER + INTRA:          -5.395
REMARK INTER:                  -4.897
REMARK INTRA:                  -0.498
REMARK UNBOUND:                -0.214
REMARK SMILES C=CC[C@H](C)C(=O)CC
REMARK SMILES IDX 4 1 5 2 6 3 7 4 8 5 9 6 3 7 2 8 1 9
REMARK H PARENT
REMARK Flexibility Score: inf
ROOT
ATOM      1  C   UNL     1     117.691 178.720 126.575  1.00  0.00     0.057 C 
ATOM      2  C   UNL     1     118.024 177.248 126.852  1.00  0.00     0.016 C 
ENDROOT
BRANCH   1   3
ATOM      3  C   UNL     1     116.270 178.839 126.065  1.00  0.00     0.135 C 
ATOM      4  O   UNL     1     115.692 179.916 126.129  1.00  0.00    -0.299 OA
BRANCH   3   5
ATOM      5  C   UNL     1     115.552 177.655 125.473  1.00  0.00     0.072 C 
ATOM      6  C   UNL     1     115.270 177.880 123.992  1.00  0.00     0.012 C 
ENDBRANCH   3   5
ENDBRANCH   1   3
BRANCH   1   7
ATOM      7  C   UNL     1     118.668 179.345 125.560  1.00  0.00     0.038 C 
BRANCH   7   8
ATOM      8  C   UNL     1     119.211 178.314 124.606  1.00  0.00    -0.034 C 
ATOM      9  C   UNL     1     119.134 178.467 123.281  1.00  0.00     0.004 C 
ENDBRANCH   7   8
ENDBRANCH   1   7
TORSDOF 4
ENDMDL
MODEL 6
REMARK VINA RESULT:    -4.128      7.320      9.440
REMARK INTER + INTRA:          -5.307
REMARK INTER:                  -5.000
REMARK INTRA:                  -0.307
REMARK UNBOUND:                -0.214
REMARK SMILES C=CC[C@H](C)C(=O)CC
REMARK SMILES IDX 4 1 5 2 6 3 7 4 8 5 9 6 3 7 2 8 1 9
REMARK H PARENT
REMARK Flexibility Score: inf
ROOT
ATOM      1  C   UNL     1     117.022 178.285 126.060  1.00  0.00     0.057 C 
ATOM      2  C   UNL     1     116.336 179.609 126.425  1.00  0.00     0.016 C 
ENDROOT
BRANCH   1   3
ATOM      3  C   UNL     1     118.225 178.552 125.181  1.00  0.00     0.135 C 
ATOM      4  O   UNL     1     119.026 179.421 125.498  1.00  0.00    -0.299 OA
BRANCH   3   5
ATOM      5  C   UNL     1     118.460 177.764 123.920  1.00  0.00     0.072 C 
ATOM      6  C   UNL     1     119.271 178.577 122.917  1.00  0.00     0.012 C 
ENDBRANCH   3   5
ENDBRANCH   1   3
BRANCH   1   7
ATOM      7  C   UNL     1     116.055 177.319 125.348  1.00  0.00     0.038 C 
BRANCH   7   8
ATOM      8  C   UNL     1     115.880 176.039 126.123  1.00  0.00    -0.034 C 
ATOM      9  C   UNL     1     116.911 175.238 126.407  1.00  0.00     0.004 C 
ENDBRANCH   7   8
ENDBRANCH   1   7
TORSDOF 4
ENDMDL
MODEL 7
REMARK VINA RESULT:    -4.107      7.763      9.963
REMARK INTER + INTRA:          -5.281
REMARK INTER:                  -4.781
REMARK INTRA:                  -0.500
REMARK UNBOUND:                -0.214
REMARK SMILES C=CC[C@H](C)C(=O)CC
REMARK SMILES IDX 4 1 5 2 6 3 7 4 8 5 9 6 3 7 2 8 1 9
REMARK H PARENT
REMARK Flexibility Score: inf
ROOT
ATOM      1  C   UNL     1     116.703 178.311 126.641  1.00  0.00     0.057 C 
ATOM      2  C   UNL     1     116.421 179.811 126.484  1.00  0.00     0.016 C 
ENDROOT
BRANCH   1   3
ATOM      3  C   UNL     1     118.068 177.981 126.076  1.00  0.00     0.135 C 
ATOM      4  O   UNL     1     118.574 176.892 126.311  1.00  0.00    -0.299 OA
BRANCH   3   5
ATOM      5  C   UNL     1     118.817 178.967 125.219  1.00  0.00     0.072 C 
ATOM      6  C   UNL     1     119.012 178.421 123.810  1.00  0.00     0.012 C 
ENDBRANCH   3   5
ENDBRANCH   1   3
BRANCH   1   7
ATOM      7  C   UNL     1     115.625 177.452 125.951  1.00  0.00     0.038 C 
BRANCH   7   8
ATOM      8  C   UNL     1     114.972 178.192 124.814  1.00  0.00    -0.034 C 
ATOM      9  C   UNL     1     115.224 177.891 123.537  1.00  0.00     0.004 C 
ENDBRANCH   7   8
ENDBRANCH   1   7
TORSDOF 4
ENDMDL
MODEL 8
REMARK VINA RESULT:    -4.082      9.002      9.870
REMARK INTER + INTRA:          -5.250
REMARK INTER:                  -4.983
REMARK INTRA:                  -0.267
REMARK UNBOUND:                -0.214
REMARK SMILES C=CC[C@H](C)C(=O)CC
REMARK SMILES IDX 4 1 5 2 6 3 7 4 8 5 9 6 3 7 2 8 1 9
REMARK H PARENT
REMARK Flexibility Score: inf
ROOT
ATOM      1  C   UNL     1     117.873 179.093 125.849  1.00  0.00     0.057 C 
ATOM      2  C   UNL     1     116.700 179.623 126.685  1.00  0.00     0.016 C 
ENDROOT
BRANCH   1   3
ATOM      3  C   UNL     1     117.387 178.011 124.908  1.00  0.00     0.135 C 
ATOM      4  O   UNL     1     118.135 177.586 124.037  1.00  0.00    -0.299 OA
BRANCH   3   5
ATOM      5  C   UNL     1     115.999 177.441 125.025  1.00  0.00     0.072 C 
ATOM      6  C   UNL     1     115.137 177.869 123.842  1.00  0.00     0.012 C 
ENDBRANCH   3   5
ENDBRANCH   1   3
BRANCH   1   7
ATOM      7  C   UNL     1     119.007 178.546 126.739  1.00  0.00     0.038 C 
BRANCH   7   8
ATOM      8  C   UNL     1     118.466 177.824 127.945  1.00  0.00    -0.034 C 
ATOM      9  C   UNL     1     119.105 177.829 129.118  1.00  0.00     0.004 C 
ENDBRANCH   7   8
ENDBRANCH   1   7
TORSDOF 4
ENDMDL
MODEL 9
REMARK VINA RESULT:    -4.053      7.052      9.438
REMARK INTER + INTRA:          -5.214
REMARK INTER:                  -4.892
REMARK INTRA:                  -0.322
REMARK UNBOUND:                -0.214
REMARK SMILES C=CC[C@H](C)C(=O)CC
REMARK SMILES IDX 4 1 5 2 6 3 7 4 8 5 9 6 3 7 2 8 1 9
REMARK H PARENT
REMARK Flexibility Score: inf
ROOT
ATOM      1  C   UNL     1     118.885 177.712 126.407  1.00  0.00     0.057 C 
ATOM      2  C   UNL     1     118.244 178.276 127.682  1.00  0.00     0.016 C 
ENDROOT
BRANCH   1   3
ATOM      3  C   UNL     1     120.268 177.182 126.716  1.00  0.00     0.135 C 
ATOM      4  O   UNL     1     120.394 176.068 127.208  1.00  0.00    -0.299 OA
BRANCH   3   5
ATOM      5  C   UNL     1     121.500 177.998 126.424  1.00  0.00     0.072 C 
ATOM      6  C   UNL     1     121.987 178.710 127.682  1.00  0.00     0.012 C 
ENDBRANCH   3   5
ENDBRANCH   1   3
BRANCH   1   7
ATOM      7  C   UNL     1     118.965 178.774 125.292  1.00  0.00     0.038 C 
BRANCH   7   8
ATOM      8  C   UNL     1     118.721 178.170 123.934  1.00  0.00    -0.034 C 
ATOM      9  C   UNL     1     119.364 178.600 122.844  1.00  0.00     0.004 C 
ENDBRANCH   7   8
ENDBRANCH   1   7
TORSDOF 4
ENDMDL
