MODEL 1
REMARK VINA RESULT:    -1.982      0.000      0.000
REMARK INTER + INTRA:          -2.156
REMARK INTER:                  -2.156
REMARK INTRA:                   0.000
REMARK UNBOUND:                 0.000
REMARK SMILES [NH3+]CC(=O)[O-]
REMARK SMILES IDX 2 1 1 2 3 6 4 7 5 8
REMARK H PARENT 1 3 1 4 1 5
REMARK Flexibility Score: inf
ROOT
ATOM      1  C   UNL     1       3.363  -0.084  -6.103  1.00  0.00     0.312 C 
ENDROOT
BRANCH   1   2
ATOM      2  N   UNL     1       4.487  -0.118  -7.037  1.00  0.00    -0.353 N 
ATOM      3  H   UNL     1       4.146   0.138  -7.992  1.00  0.00     0.344 HD
ATOM      4  H   UNL     1       4.897  -1.080  -7.071  1.00  0.00     0.344 HD
ATOM      5  H   UNL     1       5.219   0.568  -6.743  1.00  0.00     0.344 HD
ENDBRANCH   1   2
BRANCH   1   6
ATOM      6  C   UNL     1       2.109   0.346  -6.801  1.00  0.00     0.096 C 
ATOM      7  O   UNL     1       1.856  -0.072  -7.961  1.00  0.00    -0.544 OA
ATOM      8  O   UNL     1       1.198   1.166  -6.149  1.00  0.00    -0.544 OA
ENDBRANCH   1   6
TORSDOF 2
ENDMDL
MODEL 2
REMARK VINA RESULT:    -1.971      0.420      1.506
REMARK INTER + INTRA:          -2.144
REMARK INTER:                  -2.144
REMARK INTRA:                   0.000
REMARK UNBOUND:                 0.000
REMARK SMILES [NH3+]CC(=O)[O-]
REMARK SMILES IDX 2 1 1 2 3 6 4 7 5 8
REMARK H PARENT 1 3 1 4 1 5
REMARK Flexibility Score: inf
ROOT
ATOM      1  C   UNL     1       2.957   0.051  -5.775  1.00  0.00     0.312 C 
ENDROOT
BRANCH   1   2
ATOM      2  N   UNL     1       4.143  -0.313  -6.548  1.00  0.00    -0.353 N 
ATOM      3  H   UNL     1       3.843  -0.720  -7.463  1.00  0.00     0.344 HD
ATOM      4  H   UNL     1       4.706  -1.026  -6.029  1.00  0.00     0.344 HD
ATOM      5  H   UNL     1       4.727   0.535  -6.730  1.00  0.00     0.344 HD
ENDBRANCH   1   2
BRANCH   1   6
ATOM      6  C   UNL     1       1.840   0.465  -6.683  1.00  0.00     0.096 C 
ATOM      7  O   UNL     1       0.949   1.254  -6.271  1.00  0.00    -0.544 OA
ATOM      8  O   UNL     1       1.813   0.021  -7.998  1.00  0.00    -0.544 OA
ENDBRANCH   1   6
TORSDOF 2
ENDMDL
MODEL 3
REMARK VINA RESULT:    -1.840      1.924      2.528
REMARK INTER + INTRA:          -2.001
REMARK INTER:                  -2.001
REMARK INTRA:                   0.000
REMARK UNBOUND:                 0.000
REMARK SMILES [NH3+]CC(=O)[O-]
REMARK SMILES IDX 2 1 1 2 3 6 4 7 5 8
REMARK H PARENT 1 3 1 4 1 5
REMARK Flexibility Score: inf
ROOT
ATOM      1  C   UNL     1       1.700   0.263  -7.041  1.00  0.00     0.312 C 
ENDROOT
BRANCH   1   2
ATOM      2  N   UNL     1       2.297   0.056  -8.359  1.00  0.00    -0.353 N 
ATOM      3  H   UNL     1       1.639   0.408  -9.091  1.00  0.00     0.344 HD
ATOM      4  H   UNL     1       2.467  -0.964  -8.519  1.00  0.00     0.344 HD
ATOM      5  H   UNL     1       3.198   0.581  -8.431  1.00  0.00     0.344 HD
ENDBRANCH   1   2
BRANCH   1   6
ATOM      6  C   UNL     1       2.763   0.413  -5.997  1.00  0.00     0.096 C 
ATOM      7  O   UNL     1       2.560   1.136  -4.986  1.00  0.00    -0.544 OA
ATOM      8  O   UNL     1       3.958  -0.285  -6.116  1.00  0.00    -0.544 OA
ENDBRANCH   1   6
TORSDOF 2
ENDMDL
MODEL 4
REMARK VINA RESULT:    -1.837      6.772      7.378
REMARK INTER + INTRA:          -1.998
REMARK INTER:                  -1.998
REMARK INTRA:                   0.000
REMARK UNBOUND:                 0.000
REMARK SMILES [NH3+]CC(=O)[O-]
REMARK SMILES IDX 2 1 1 2 3 6 4 7 5 8
REMARK H PARENT 1 3 1 4 1 5
REMARK Flexibility Score: inf
ROOT
ATOM      1  C   UNL     1      -1.970   5.775  -4.514  1.00  0.00     0.312 C 
ENDROOT
BRANCH   1   2
ATOM      2  N   UNL     1      -1.598   6.803  -3.543  1.00  0.00    -0.353 N 
ATOM      3  H   UNL     1      -2.248   7.616  -3.642  1.00  0.00     0.344 HD
ATOM      4  H   UNL     1      -0.620   7.128  -3.722  1.00  0.00     0.344 HD
ATOM      5  H   UNL     1      -1.674   6.424  -2.572  1.00  0.00     0.344 HD
ENDBRANCH   1   2
BRANCH   1   6
ATOM      6  C   UNL     1      -1.660   4.409  -3.981  1.00  0.00     0.096 C 
ATOM      7  O   UNL     1      -1.891   4.133  -2.775  1.00  0.00    -0.544 OA
ATOM      8  O   UNL     1      -1.164   3.428  -4.830  1.00  0.00    -0.544 OA
ENDBRANCH   1   6
TORSDOF 2
ENDMDL
MODEL 5
REMARK VINA RESULT:    -1.753      6.417      6.775
REMARK INTER + INTRA:          -1.907
REMARK INTER:                  -1.907
REMARK INTRA:                   0.000
REMARK UNBOUND:                 0.000
REMARK SMILES [NH3+]CC(=O)[O-]
REMARK SMILES IDX 2 1 1 2 3 6 4 7 5 8
REMARK H PARENT 1 3 1 4 1 5
REMARK Flexibility Score: inf
ROOT
ATOM      1  C   UNL     1      -1.585   4.404  -5.288  1.00  0.00     0.312 C 
ENDROOT
BRANCH   1   2
ATOM      2  N   UNL     1      -0.874   3.127  -5.293  1.00  0.00    -0.353 N 
ATOM      3  H   UNL     1      -1.339   2.474  -4.624  1.00  0.00     0.344 HD
ATOM      4  H   UNL     1       0.119   3.268  -4.995  1.00  0.00     0.344 HD
ATOM      5  H   UNL     1      -0.899   2.706  -6.251  1.00  0.00     0.344 HD
ENDBRANCH   1   2
BRANCH   1   6
ATOM      6  C   UNL     1      -1.770   4.899  -3.886  1.00  0.00     0.096 C 
ATOM      7  O   UNL     1      -1.977   4.083  -2.949  1.00  0.00    -0.544 OA
ATOM      8  O   UNL     1      -1.664   6.256  -3.608  1.00  0.00    -0.544 OA
ENDBRANCH   1   6
TORSDOF 2
ENDMDL
MODEL 6
REMARK VINA RESULT:    -1.647      1.599      1.872
REMARK INTER + INTRA:          -1.791
REMARK INTER:                  -1.791
REMARK INTRA:                   0.000
REMARK UNBOUND:                 0.000
REMARK SMILES [NH3+]CC(=O)[O-]
REMARK SMILES IDX 2 1 1 2 3 6 4 7 5 8
REMARK H PARENT 1 3 1 4 1 5
REMARK Flexibility Score: inf
ROOT
ATOM      1  C   UNL     1       2.283   0.071  -6.659  1.00  0.00     0.312 C 
ENDROOT
BRANCH   1   2
ATOM      2  N   UNL     1       3.672  -0.330  -6.442  1.00  0.00    -0.353 N 
ATOM      3  H   UNL     1       3.945  -1.025  -7.174  1.00  0.00     0.344 HD
ATOM      4  H   UNL     1       3.775  -0.771  -5.500  1.00  0.00     0.344 HD
ATOM      5  H   UNL     1       4.301   0.503  -6.514  1.00  0.00     0.344 HD
ENDBRANCH   1   2
BRANCH   1   6
ATOM      6  C   UNL     1       1.914  -0.062  -8.105  1.00  0.00     0.096 C 
ATOM      7  O   UNL     1       0.832  -0.615  -8.434  1.00  0.00    -0.544 OA
ATOM      8  O   UNL     1       2.741   0.471  -9.085  1.00  0.00    -0.544 OA
ENDBRANCH   1   6
TORSDOF 2
ENDMDL
MODEL 7
REMARK VINA RESULT:    -1.376      8.036      8.405
REMARK INTER + INTRA:          -1.497
REMARK INTER:                  -1.497
REMARK INTRA:                   0.000
REMARK UNBOUND:                 0.000
REMARK SMILES [NH3+]CC(=O)[O-]
REMARK SMILES IDX 2 1 1 2 3 6 4 7 5 8
REMARK H PARENT 1 3 1 4 1 5
REMARK Flexibility Score: inf
ROOT
ATOM      1  C   UNL     1      -1.918  -4.555 -10.942  1.00  0.00     0.312 C 
ENDROOT
BRANCH   1   2
ATOM      2  N   UNL     1      -0.892  -3.924 -10.114  1.00  0.00    -0.353 N 
ATOM      3  H   UNL     1       0.050  -4.146 -10.509  1.00  0.00     0.344 HD
ATOM      4  H   UNL     1      -0.944  -4.291  -9.136  1.00  0.00     0.344 HD
ATOM      5  H   UNL     1      -1.022  -2.886 -10.111  1.00  0.00     0.344 HD
ENDBRANCH   1   2
BRANCH   1   6
ATOM      6  C   UNL     1      -1.291  -5.407 -12.003  1.00  0.00     0.096 C 
ATOM      7  O   UNL     1      -0.696  -4.871 -12.975  1.00  0.00    -0.544 OA
ATOM      8  O   UNL     1      -1.320  -6.791 -11.891  1.00  0.00    -0.544 OA
ENDBRANCH   1   6
TORSDOF 2
ENDMDL
MODEL 8
REMARK VINA RESULT:    -1.271      1.991      2.342
REMARK INTER + INTRA:          -1.383
REMARK INTER:                  -1.383
REMARK INTRA:                   0.000
REMARK UNBOUND:                 0.000
REMARK SMILES [NH3+]CC(=O)[O-]
REMARK SMILES IDX 2 1 1 2 3 6 4 7 5 8
REMARK H PARENT 1 3 1 4 1 5
REMARK Flexibility Score: inf
ROOT
ATOM      1  C   UNL     1       1.425   1.190  -5.885  1.00  0.00     0.312 C 
ENDROOT
BRANCH   1   2
ATOM      2  N   UNL     1       2.392   1.831  -4.996  1.00  0.00    -0.353 N 
ATOM      3  H   UNL     1       2.288   2.869  -5.070  1.00  0.00     0.344 HD
ATOM      4  H   UNL     1       3.365   1.568  -5.275  1.00  0.00     0.344 HD
ATOM      5  H   UNL     1       2.217   1.542  -4.006  1.00  0.00     0.344 HD
ENDBRANCH   1   2
BRANCH   1   6
ATOM      6  C   UNL     1       2.102   0.181  -6.762  1.00  0.00     0.096 C 
ATOM      7  O   UNL     1       3.063  -0.500  -6.318  1.00  0.00    -0.544 OA
ATOM      8  O   UNL     1       1.637  -0.041  -8.052  1.00  0.00    -0.544 OA
ENDBRANCH   1   6
TORSDOF 2
ENDMDL
MODEL 9
REMARK VINA RESULT:    -0.484      7.409      7.811
REMARK INTER + INTRA:          -0.526
REMARK INTER:                  -0.526
REMARK INTRA:                   0.000
REMARK UNBOUND:                 0.000
REMARK SMILES [NH3+]CC(=O)[O-]
REMARK SMILES IDX 2 1 1 2 3 6 4 7 5 8
REMARK H PARENT 1 3 1 4 1 5
REMARK Flexibility Score: inf
ROOT
ATOM      1  C   UNL     1      -1.489  -4.580 -12.076  1.00  0.00     0.312 C 
ENDROOT
BRANCH   1   2
ATOM      2  N   UNL     1      -1.173  -5.969 -12.401  1.00  0.00    -0.353 N 
ATOM      3  H   UNL     1      -1.368  -6.568 -11.567  1.00  0.00     0.344 HD
ATOM      4  H   UNL     1      -0.161  -6.057 -12.652  1.00  0.00     0.344 HD
ATOM      5  H   UNL     1      -1.765  -6.295 -13.198  1.00  0.00     0.344 HD
ENDBRANCH   1   2
BRANCH   1   6
ATOM      6  C   UNL     1      -1.424  -4.355 -10.596  1.00  0.00     0.096 C 
ATOM      7  O   UNL     1      -1.403  -5.336  -9.807  1.00  0.00    -0.544 OA
ATOM      8  O   UNL     1      -1.336  -3.063 -10.093  1.00  0.00    -0.544 OA
ENDBRANCH   1   6
TORSDOF 2
ENDMDL
