MODEL 1
REMARK VINA RESULT:    -6.421      0.000      0.000
REMARK INTER + INTRA:          -8.870
REMARK INTER:                  -8.673
REMARK INTRA:                  -0.197
REMARK UNBOUND:                -0.197
REMARK SMILES CC[C@@H](CC[C@@H](C)[C@H]1CC[C@@H]2[C@H]3CC(=O)C4=CC(=O)CC[C@@]4(C)[C@@H]3CC[C@]21C)C(C)C
REMARK SMILES IDX 4 1 3 2 2 3 1 4 29 5 30 6 31 7 5 8 6 9 7 10 8 11 9 12 27 13
REMARK SMILES IDX 10 14 11 15 26 16 28 17 12 18 25 19 24 20 13 21 22 22 14 23
REMARK SMILES IDX 16 24 21 25 23 26 15 27 17 28 20 29 18 30 19 31
REMARK H PARENT
REMARK Flexibility Score: inf
ROOT
ATOM      1  C   UNL     1       2.493  48.356  19.368  1.00  0.00     0.004 C 
ENDROOT
BRANCH   1   2
ATOM      2  C   UNL     1       1.989  47.622  20.652  1.00  0.00    -0.009 C 
BRANCH   2   3
ATOM      3  C   UNL     1       0.652  48.251  21.138  1.00  0.00     0.000 C 
ATOM      4  C   UNL     1       0.676  48.736  22.591  1.00  0.00     0.004 C 
ENDBRANCH   2   3
BRANCH   2   5
ATOM      5  C   UNL     1       3.084  47.565  21.773  1.00  0.00    -0.014 C 
ATOM      6  C   UNL     1       3.763  46.185  21.853  1.00  0.00     0.007 C 
ATOM      7  C   UNL     1       4.172  48.639  21.584  1.00  0.00     0.007 C 
ENDBRANCH   2   5
ENDBRANCH   1   2
BRANCH   1   8
ATOM      8  C   UNL     1       1.376  48.626  18.327  1.00  0.00     0.004 C 
BRANCH   8   9
ATOM      9  C   UNL     1       0.739  47.336  17.694  1.00  0.00    -0.011 C 
ATOM     10  C   UNL     1      -0.806  47.475  17.754  1.00  0.00     0.008 C 
BRANCH   9  11
ATOM     11  C   UNL     1       1.241  47.111  16.214  1.00  0.00    -0.002 C 
ATOM     12  C   UNL     1       1.409  45.603  15.862  1.00  0.00     0.005 C 
ATOM     13  C   UNL     1       0.401  47.698  15.008  1.00  0.00    -0.026 C 
ATOM     14  C   UNL     1       0.807  45.377  14.479  1.00  0.00     0.005 C 
ATOM     15  C   UNL     1      -0.265  46.443  14.420  1.00  0.00    -0.001 C 
ATOM     16  C   UNL     1      -0.744  48.700  15.302  1.00  0.00     0.007 C 
ATOM     17  C   UNL     1       1.418  48.372  14.029  1.00  0.00     0.012 C 
ATOM     18  C   UNL     1      -0.980  46.688  13.071  1.00  0.00     0.004 C 
ATOM     19  C   UNL     1      -1.590  49.014  14.046  1.00  0.00     0.005 C 
ATOM     20  C   UNL     1      -2.112  47.746  13.295  1.00  0.00     0.003 C 
ATOM     21  C   UNL     1      -1.572  45.371  12.536  1.00  0.00     0.085 C 
ATOM     22  C   UNL     1      -2.909  48.080  11.971  1.00  0.00    -0.000 C 
ATOM     23  C   UNL     1      -2.453  45.599  11.348  1.00  0.00     0.159 C 
ATOM     24  C   UNL     1      -3.352  46.773  11.301  1.00  0.00     0.005 C 
ATOM     25  C   UNL     1      -4.165  48.939  12.331  1.00  0.00     0.020 C 
ATOM     26  C   UNL     1      -2.035  48.860  10.953  1.00  0.00     0.017 C 
ATOM     27  O   UNL     1      -2.479  44.734  10.431  1.00  0.00    -0.295 OA
ATOM     28  C   UNL     1      -4.497  46.690  10.598  1.00  0.00     0.055 C 
ATOM     29  C   UNL     1      -5.129  49.125  11.153  1.00  0.00     0.081 C 
ATOM     30  C   UNL     1      -5.444  47.809  10.517  1.00  0.00     0.156 C 
ATOM     31  O   UNL     1      -6.519  47.668   9.876  1.00  0.00    -0.295 OA
ENDBRANCH   9  11
ENDBRANCH   8   9
ENDBRANCH   1   8
TORSDOF 6
ENDMDL
MODEL 2
REMARK VINA RESULT:    -6.136      0.686      1.719
REMARK INTER + INTRA:          -8.485
REMARK INTER:                  -8.244
REMARK INTRA:                  -0.240
REMARK UNBOUND:                -0.197
REMARK SMILES CC[C@@H](CC[C@@H](C)[C@H]1CC[C@@H]2[C@H]3CC(=O)C4=CC(=O)CC[C@@]4(C)[C@@H]3CC[C@]21C)C(C)C
REMARK SMILES IDX 4 1 3 2 2 3 1 4 29 5 30 6 31 7 5 8 6 9 7 10 8 11 9 12 27 13
REMARK SMILES IDX 10 14 11 15 26 16 28 17 12 18 25 19 24 20 13 21 22 22 14 23
REMARK SMILES IDX 16 24 21 25 23 26 15 27 17 28 20 29 18 30 19 31
REMARK H PARENT
REMARK Flexibility Score: inf
ROOT
ATOM      1  C   UNL     1       0.844  46.570  19.989  1.00  0.00     0.004 C 
ENDROOT
BRANCH   1   2
ATOM      2  C   UNL     1       1.233  47.925  20.663  1.00  0.00    -0.009 C 
BRANCH   2   3
ATOM      3  C   UNL     1       2.516  47.748  21.522  1.00  0.00     0.000 C 
ATOM      4  C   UNL     1       3.767  48.405  20.929  1.00  0.00     0.004 C 
ENDBRANCH   2   3
BRANCH   2   5
ATOM      5  C   UNL     1       0.039  48.555  21.464  1.00  0.00    -0.014 C 
ATOM      6  C   UNL     1      -1.290  47.825  21.195  1.00  0.00     0.007 C 
ATOM      7  C   UNL     1       0.296  48.567  22.983  1.00  0.00     0.007 C 
ENDBRANCH   2   5
ENDBRANCH   1   2
BRANCH   1   8
ATOM      8  C   UNL     1       1.260  46.476  18.498  1.00  0.00     0.004 C 
BRANCH   8   9
ATOM      9  C   UNL     1       0.634  47.578  17.568  1.00  0.00    -0.011 C 
ATOM     10  C   UNL     1       1.004  48.971  18.145  1.00  0.00     0.008 C 
BRANCH   9  11
ATOM     11  C   UNL     1       1.127  47.422  16.076  1.00  0.00    -0.002 C 
ATOM     12  C   UNL     1       1.411  45.940  15.692  1.00  0.00     0.005 C 
ATOM     13  C   UNL     1       0.220  47.960  14.895  1.00  0.00    -0.026 C 
ATOM     14  C   UNL     1       0.806  45.690  14.315  1.00  0.00     0.005 C 
ATOM     15  C   UNL     1      -0.351  46.665  14.294  1.00  0.00    -0.001 C 
ATOM     16  C   UNL     1      -0.997  48.858  15.227  1.00  0.00     0.007 C 
ATOM     17  C   UNL     1       1.161  48.733  13.913  1.00  0.00     0.012 C 
ATOM     18  C   UNL     1      -1.107  46.875  12.961  1.00  0.00     0.004 C 
ATOM     19  C   UNL     1      -1.888  49.125  13.991  1.00  0.00     0.005 C 
ATOM     20  C   UNL     1      -2.318  47.832  13.224  1.00  0.00     0.003 C 
ATOM     21  C   UNL     1      -1.598  45.523  12.410  1.00  0.00     0.085 C 
ATOM     22  C   UNL     1      -3.163  48.124  11.920  1.00  0.00    -0.000 C 
ATOM     23  C   UNL     1      -2.515  45.700  11.241  1.00  0.00     0.159 C 
ATOM     24  C   UNL     1      -3.508  46.796  11.232  1.00  0.00     0.005 C 
ATOM     25  C   UNL     1      -4.479  48.869  12.317  1.00  0.00     0.020 C 
ATOM     26  C   UNL     1      -2.373  48.991  10.904  1.00  0.00     0.017 C 
ATOM     27  O   UNL     1      -2.487  44.852  10.308  1.00  0.00    -0.295 OA
ATOM     28  C   UNL     1      -4.654  46.633  10.546  1.00  0.00     0.055 C 
ATOM     29  C   UNL     1      -5.475  48.997  11.158  1.00  0.00     0.081 C 
ATOM     30  C   UNL     1      -5.692  47.671  10.501  1.00  0.00     0.156 C 
ATOM     31  O   UNL     1      -6.762  47.454   9.875  1.00  0.00    -0.295 OA
ENDBRANCH   9  11
ENDBRANCH   8   9
ENDBRANCH   1   8
TORSDOF 6
ENDMDL
MODEL 3
REMARK VINA RESULT:    -5.878      3.624      9.351
REMARK INTER + INTRA:          -8.136
REMARK INTER:                  -8.486
REMARK INTRA:                   0.350
REMARK UNBOUND:                -0.197
REMARK SMILES CC[C@@H](CC[C@@H](C)[C@H]1CC[C@@H]2[C@H]3CC(=O)C4=CC(=O)CC[C@@]4(C)[C@@H]3CC[C@]21C)C(C)C
REMARK SMILES IDX 4 1 3 2 2 3 1 4 29 5 30 6 31 7 5 8 6 9 7 10 8 11 9 12 27 13
REMARK SMILES IDX 10 14 11 15 26 16 28 17 12 18 25 19 24 20 13 21 22 22 14 23
REMARK SMILES IDX 16 24 21 25 23 26 15 27 17 28 20 29 18 30 19 31
REMARK H PARENT
REMARK Flexibility Score: inf
ROOT
ATOM      1  C   UNL     1      -3.133  47.922  11.781  1.00  0.00     0.004 C 
ENDROOT
BRANCH   1   2
ATOM      2  C   UNL     1      -3.562  47.575  10.319  1.00  0.00    -0.009 C 
BRANCH   2   3
ATOM      3  C   UNL     1      -4.870  48.330   9.950  1.00  0.00     0.000 C 
ATOM      4  C   UNL     1      -5.883  48.431  11.095  1.00  0.00     0.004 C 
ENDBRANCH   2   3
BRANCH   2   5
ATOM      5  C   UNL     1      -3.658  46.027  10.079  1.00  0.00    -0.014 C 
ATOM      6  C   UNL     1      -2.270  45.362  10.013  1.00  0.00     0.007 C 
ATOM      7  C   UNL     1      -4.493  45.318  11.162  1.00  0.00     0.007 C 
ENDBRANCH   2   5
ENDBRANCH   1   2
BRANCH   1   8
ATOM      8  C   UNL     1      -1.696  48.493  11.887  1.00  0.00     0.004 C 
BRANCH   8   9
ATOM      9  C   UNL     1      -1.239  48.863  13.345  1.00  0.00    -0.011 C 
ATOM     10  C   UNL     1      -2.508  49.106  14.206  1.00  0.00     0.008 C 
BRANCH   9  11
ATOM     11  C   UNL     1      -0.326  47.736  13.968  1.00  0.00    -0.002 C 
ATOM     12  C   UNL     1       1.193  48.040  13.808  1.00  0.00     0.005 C 
ATOM     13  C   UNL     1      -0.486  47.359  15.498  1.00  0.00    -0.026 C 
ATOM     14  C   UNL     1       1.873  47.733  15.138  1.00  0.00     0.005 C 
ATOM     15  C   UNL     1       0.762  47.995  16.132  1.00  0.00    -0.001 C 
ATOM     16  C   UNL     1      -1.701  47.907  16.287  1.00  0.00     0.007 C 
ATOM     17  C   UNL     1      -0.494  45.797  15.585  1.00  0.00     0.012 C 
ATOM     18  C   UNL     1       0.989  47.590  17.607  1.00  0.00     0.004 C 
ATOM     19  C   UNL     1      -1.598  47.619  17.803  1.00  0.00     0.005 C 
ATOM     20  C   UNL     1      -0.245  48.064  18.446  1.00  0.00     0.003 C 
ATOM     21  C   UNL     1       2.283  48.232  18.141  1.00  0.00     0.085 C 
ATOM     22  C   UNL     1      -0.122  47.694  19.979  1.00  0.00    -0.000 C 
ATOM     23  C   UNL     1       2.428  48.044  19.618  1.00  0.00     0.159 C 
ATOM     24  C   UNL     1       1.247  48.148  20.502  1.00  0.00     0.005 C 
ATOM     25  C   UNL     1      -1.257  48.417  20.774  1.00  0.00     0.020 C 
ATOM     26  C   UNL     1      -0.232  46.163  20.212  1.00  0.00     0.017 C 
ATOM     27  O   UNL     1       3.580  47.880  20.104  1.00  0.00    -0.295 OA
ATOM     28  C   UNL     1       1.417  48.559  21.773  1.00  0.00     0.055 C 
ATOM     29  C   UNL     1      -1.093  48.309  22.295  1.00  0.00     0.081 C 
ATOM     30  C   UNL     1       0.290  48.699  22.705  1.00  0.00     0.156 C 
ATOM     31  O   UNL     1       0.499  49.122  23.872  1.00  0.00    -0.295 OA
ENDBRANCH   9  11
ENDBRANCH   8   9
ENDBRANCH   1   8
TORSDOF 6
ENDMDL
MODEL 4
REMARK VINA RESULT:    -5.588      3.596      9.706
REMARK INTER + INTRA:          -7.744
REMARK INTER:                  -8.047
REMARK INTRA:                   0.303
REMARK UNBOUND:                -0.197
REMARK SMILES CC[C@@H](CC[C@@H](C)[C@H]1CC[C@@H]2[C@H]3CC(=O)C4=CC(=O)CC[C@@]4(C)[C@@H]3CC[C@]21C)C(C)C
REMARK SMILES IDX 4 1 3 2 2 3 1 4 29 5 30 6 31 7 5 8 6 9 7 10 8 11 9 12 27 13
REMARK SMILES IDX 10 14 11 15 26 16 28 17 12 18 25 19 24 20 13 21 22 22 14 23
REMARK SMILES IDX 16 24 21 25 23 26 15 27 17 28 20 29 18 30 19 31
REMARK H PARENT
REMARK Flexibility Score: inf
ROOT
ATOM      1  C   UNL     1      -3.401  46.179  12.366  1.00  0.00     0.004 C 
ENDROOT
BRANCH   1   2
ATOM      2  C   UNL     1      -3.631  46.588  10.875  1.00  0.00    -0.009 C 
BRANCH   2   3
ATOM      3  C   UNL     1      -2.266  46.775  10.155  1.00  0.00     0.000 C 
ATOM      4  C   UNL     1      -1.623  48.150  10.369  1.00  0.00     0.004 C 
ENDBRANCH   2   3
BRANCH   2   5
ATOM      5  C   UNL     1      -4.573  47.835  10.740  1.00  0.00    -0.014 C 
ATOM      6  C   UNL     1      -5.842  47.519   9.928  1.00  0.00     0.007 C 
ATOM      7  C   UNL     1      -4.992  48.404  12.108  1.00  0.00     0.007 C 
ENDBRANCH   2   5
ENDBRANCH   1   2
BRANCH   1   8
ATOM      8  C   UNL     1      -1.975  45.640  12.649  1.00  0.00     0.004 C 
BRANCH   8   9
ATOM      9  C   UNL     1      -1.601  45.534  14.172  1.00  0.00    -0.011 C 
ATOM     10  C   UNL     1      -0.186  44.905  14.284  1.00  0.00     0.008 C 
BRANCH   9  11
ATOM     11  C   UNL     1      -1.664  46.942  14.882  1.00  0.00    -0.002 C 
ATOM     12  C   UNL     1      -2.911  47.093  15.803  1.00  0.00     0.005 C 
ATOM     13  C   UNL     1      -0.455  47.414  15.789  1.00  0.00    -0.026 C 
ATOM     14  C   UNL     1      -2.452  47.729  17.110  1.00  0.00     0.005 C 
ATOM     15  C   UNL     1      -1.019  47.253  17.210  1.00  0.00    -0.001 C 
ATOM     16  C   UNL     1       0.871  46.614  15.755  1.00  0.00     0.007 C 
ATOM     17  C   UNL     1      -0.154  48.901  15.410  1.00  0.00     0.012 C 
ATOM     18  C   UNL     1      -0.121  47.862  18.312  1.00  0.00     0.004 C 
ATOM     19  C   UNL     1       1.868  47.079  16.842  1.00  0.00     0.005 C 
ATOM     20  C   UNL     1       1.263  47.132  18.282  1.00  0.00     0.003 C 
ATOM     21  C   UNL     1      -0.787  47.698  19.691  1.00  0.00     0.085 C 
ATOM     22  C   UNL     1       2.270  47.683  19.370  1.00  0.00    -0.000 C 
ATOM     23  C   UNL     1       0.139  48.077  20.804  1.00  0.00     0.159 C 
ATOM     24  C   UNL     1       1.572  47.718  20.736  1.00  0.00     0.005 C 
ATOM     25  C   UNL     1       3.516  46.741  19.439  1.00  0.00     0.020 C 
ATOM     26  C   UNL     1       2.740  49.125  19.042  1.00  0.00     0.017 C 
ATOM     27  O   UNL     1      -0.335  48.629  21.834  1.00  0.00    -0.295 OA
ATOM     28  C   UNL     1       2.249  47.515  21.881  1.00  0.00     0.055 C 
ATOM     29  C   UNL     1       4.446  47.053  20.618  1.00  0.00     0.081 C 
ATOM     30  C   UNL     1       3.670  47.143  21.892  1.00  0.00     0.156 C 
ATOM     31  O   UNL     1       4.248  46.928  22.990  1.00  0.00    -0.295 OA
ENDBRANCH   9  11
ENDBRANCH   8   9
ENDBRANCH   1   8
TORSDOF 6
ENDMDL
MODEL 5
REMARK VINA RESULT:    -5.223      3.615      9.157
REMARK INTER + INTRA:          -7.252
REMARK INTER:                  -6.977
REMARK INTRA:                  -0.275
REMARK UNBOUND:                -0.197
REMARK SMILES CC[C@@H](CC[C@@H](C)[C@H]1CC[C@@H]2[C@H]3CC(=O)C4=CC(=O)CC[C@@]4(C)[C@@H]3CC[C@]21C)C(C)C
REMARK SMILES IDX 4 1 3 2 2 3 1 4 29 5 30 6 31 7 5 8 6 9 7 10 8 11 9 12 27 13
REMARK SMILES IDX 10 14 11 15 26 16 28 17 12 18 25 19 24 20 13 21 22 22 14 23
REMARK SMILES IDX 16 24 21 25 23 26 15 27 17 28 20 29 18 30 19 31
REMARK H PARENT
REMARK Flexibility Score: inf
ROOT
ATOM      1  C   UNL     1      -4.112  47.975  12.569  1.00  0.00     0.004 C 
ENDROOT
BRANCH   1   2
ATOM      2  C   UNL     1      -4.050  48.365  11.057  1.00  0.00    -0.009 C 
BRANCH   2   3
ATOM      3  C   UNL     1      -5.107  47.558  10.252  1.00  0.00     0.000 C 
ATOM      4  C   UNL     1      -6.359  48.358   9.875  1.00  0.00     0.004 C 
ENDBRANCH   2   3
BRANCH   2   5
ATOM      5  C   UNL     1      -2.601  48.238  10.469  1.00  0.00    -0.014 C 
ATOM      6  C   UNL     1      -1.526  48.704  11.467  1.00  0.00     0.007 C 
ATOM      7  C   UNL     1      -2.273  46.800  10.026  1.00  0.00     0.007 C 
ENDBRANCH   2   5
ENDBRANCH   1   2
BRANCH   1   8
ATOM      8  C   UNL     1      -4.002  46.449  12.821  1.00  0.00     0.004 C 
BRANCH   8   9
ATOM      9  C   UNL     1      -3.016  46.041  13.976  1.00  0.00    -0.011 C 
ATOM     10  C   UNL     1      -1.794  45.322  13.343  1.00  0.00     0.008 C 
BRANCH   9  11
ATOM     11  C   UNL     1      -2.572  47.294  14.826  1.00  0.00    -0.002 C 
ATOM     12  C   UNL     1      -3.147  47.271  16.273  1.00  0.00     0.005 C 
ATOM     13  C   UNL     1      -1.030  47.592  15.028  1.00  0.00    -0.026 C 
ATOM     14  C   UNL     1      -2.023  47.656  17.228  1.00  0.00     0.005 C 
ATOM     15  C   UNL     1      -0.795  47.172  16.488  1.00  0.00    -0.001 C 
ATOM     16  C   UNL     1       0.007  46.814  14.180  1.00  0.00     0.007 C 
ATOM     17  C   UNL     1      -0.826  49.125  14.787  1.00  0.00     0.012 C 
ATOM     18  C   UNL     1       0.595  47.568  17.038  1.00  0.00     0.004 C 
ATOM     19  C   UNL     1       1.461  47.073  14.642  1.00  0.00     0.005 C 
ATOM     20  C   UNL     1       1.690  46.858  16.173  1.00  0.00     0.003 C 
ATOM     21  C   UNL     1       0.721  47.153  18.515  1.00  0.00     0.085 C 
ATOM     22  C   UNL     1       3.160  47.201  16.645  1.00  0.00    -0.000 C 
ATOM     23  C   UNL     1       2.118  47.322  19.023  1.00  0.00     0.159 C 
ATOM     24  C   UNL     1       3.270  46.983  18.160  1.00  0.00     0.005 C 
ATOM     25  C   UNL     1       4.168  46.264  15.903  1.00  0.00     0.020 C 
ATOM     26  C   UNL     1       3.529  48.679  16.352  1.00  0.00     0.017 C 
ATOM     27  O   UNL     1       2.296  47.674  20.220  1.00  0.00    -0.295 OA
ATOM     28  C   UNL     1       4.417  46.573  18.734  1.00  0.00     0.055 C 
ATOM     29  C   UNL     1       5.597  46.356  16.454  1.00  0.00     0.081 C 
ATOM     30  C   UNL     1       5.599  46.208  17.941  1.00  0.00     0.156 C 
ATOM     31  O   UNL     1       6.635  45.795  18.525  1.00  0.00    -0.295 OA
ENDBRANCH   9  11
ENDBRANCH   8   9
ENDBRANCH   1   8
TORSDOF 6
ENDMDL
MODEL 6
REMARK VINA RESULT:    -4.014      1.828      2.780
REMARK INTER + INTRA:          -5.619
REMARK INTER:                  -3.674
REMARK INTRA:                  -1.945
REMARK UNBOUND:                -0.197
REMARK SMILES CC[C@@H](CC[C@@H](C)[C@H]1CC[C@@H]2[C@H]3CC(=O)C4=CC(=O)CC[C@@]4(C)[C@@H]3CC[C@]21C)C(C)C
REMARK SMILES IDX 4 1 3 2 2 3 1 4 29 5 30 6 31 7 5 8 6 9 7 10 8 11 9 12 27 13
REMARK SMILES IDX 10 14 11 15 26 16 28 17 12 18 25 19 24 20 13 21 22 22 14 23
REMARK SMILES IDX 16 24 21 25 23 26 15 27 17 28 20 29 18 30 19 31
REMARK H PARENT
REMARK Flexibility Score: inf
ROOT
ATOM      1  C   UNL     1       0.496  49.124  18.794  1.00  0.00     0.004 C 
ENDROOT
BRANCH   1   2
ATOM      2  C   UNL     1      -0.791  48.238  18.836  1.00  0.00    -0.009 C 
BRANCH   2   3
ATOM      3  C   UNL     1      -1.993  49.008  18.220  1.00  0.00     0.000 C 
ATOM      4  C   UNL     1      -2.067  48.941  16.691  1.00  0.00     0.004 C 
ENDBRANCH   2   3
BRANCH   2   5
ATOM      5  C   UNL     1      -1.087  47.686  20.275  1.00  0.00    -0.014 C 
ATOM      6  C   UNL     1      -0.350  48.486  21.365  1.00  0.00     0.007 C 
ATOM      7  C   UNL     1      -2.592  47.679  20.600  1.00  0.00     0.007 C 
ENDBRANCH   2   5
ENDBRANCH   1   2
BRANCH   1   8
ATOM      8  C   UNL     1       1.751  48.374  18.280  1.00  0.00     0.004 C 
BRANCH   8   9
ATOM      9  C   UNL     1       2.084  48.608  16.762  1.00  0.00    -0.011 C 
ATOM     10  C   UNL     1       3.544  49.122  16.656  1.00  0.00     0.008 C 
BRANCH   9  11
ATOM     11  C   UNL     1       1.872  47.293  15.915  1.00  0.00    -0.002 C 
ATOM     12  C   UNL     1       1.112  46.187  16.706  1.00  0.00     0.005 C 
ATOM     13  C   UNL     1       1.108  47.371  14.530  1.00  0.00    -0.026 C 
ATOM     14  C   UNL     1       0.060  45.589  15.779  1.00  0.00     0.005 C 
ATOM     15  C   UNL     1      -0.259  46.753  14.866  1.00  0.00    -0.001 C 
ATOM     16  C   UNL     1       0.817  48.758  13.907  1.00  0.00     0.007 C 
ATOM     17  C   UNL     1       1.933  46.524  13.506  1.00  0.00     0.012 C 
ATOM     18  C   UNL     1      -1.147  46.490  13.628  1.00  0.00     0.004 C 
ATOM     19  C   UNL     1      -0.109  48.666  12.670  1.00  0.00     0.005 C 
ATOM     20  C   UNL     1      -1.423  47.857  12.917  1.00  0.00     0.003 C 
ATOM     21  C   UNL     1      -2.471  45.828  14.054  1.00  0.00     0.085 C 
ATOM     22  C   UNL     1      -2.322  47.705  11.625  1.00  0.00    -0.000 C 
ATOM     23  C   UNL     1      -3.445  45.752  12.921  1.00  0.00     0.159 C 
ATOM     24  C   UNL     1      -3.567  46.877  11.967  1.00  0.00     0.005 C 
ATOM     25  C   UNL     1      -2.754  49.124  11.130  1.00  0.00     0.020 C 
ATOM     26  C   UNL     1      -1.569  46.975  10.481  1.00  0.00     0.017 C 
ATOM     27  O   UNL     1      -4.216  44.758  12.841  1.00  0.00    -0.295 OA
ATOM     28  C   UNL     1      -4.749  47.090  11.359  1.00  0.00     0.055 C 
ATOM     29  C   UNL     1      -3.812  49.082  10.021  1.00  0.00     0.081 C 
ATOM     30  C   UNL     1      -4.949  48.194  10.411  1.00  0.00     0.156 C 
ATOM     31  O   UNL     1      -6.084  48.373   9.896  1.00  0.00    -0.295 OA
ENDBRANCH   9  11
ENDBRANCH   8   9
ENDBRANCH   1   8
TORSDOF 6
ENDMDL
MODEL 7
REMARK VINA RESULT:    -3.974      1.827      3.533
REMARK INTER + INTRA:          -5.564
REMARK INTER:                  -5.297
REMARK INTRA:                  -0.267
REMARK UNBOUND:                -0.197
REMARK SMILES CC[C@@H](CC[C@@H](C)[C@H]1CC[C@@H]2[C@H]3CC(=O)C4=CC(=O)CC[C@@]4(C)[C@@H]3CC[C@]21C)C(C)C
REMARK SMILES IDX 4 1 3 2 2 3 1 4 29 5 30 6 31 7 5 8 6 9 7 10 8 11 9 12 27 13
REMARK SMILES IDX 10 14 11 15 26 16 28 17 12 18 25 19 24 20 13 21 22 22 14 23
REMARK SMILES IDX 16 24 21 25 23 26 15 27 17 28 20 29 18 30 19 31
REMARK H PARENT
REMARK Flexibility Score: inf
ROOT
ATOM      1  C   UNL     1       0.272  47.298  19.943  1.00  0.00     0.004 C 
ENDROOT
BRANCH   1   2
ATOM      2  C   UNL     1      -1.167  47.403  20.544  1.00  0.00    -0.009 C 
BRANCH   2   3
ATOM      3  C   UNL     1      -2.230  47.216  19.425  1.00  0.00     0.000 C 
ATOM      4  C   UNL     1      -2.368  48.414  18.480  1.00  0.00     0.004 C 
ENDBRANCH   2   3
BRANCH   2   5
ATOM      5  C   UNL     1      -1.371  48.721  21.371  1.00  0.00    -0.014 C 
ATOM      6  C   UNL     1      -2.856  48.989  21.679  1.00  0.00     0.007 C 
ATOM      7  C   UNL     1      -0.587  48.708  22.697  1.00  0.00     0.007 C 
ENDBRANCH   2   5
ENDBRANCH   1   2
BRANCH   1   8
ATOM      8  C   UNL     1       0.962  48.672  19.741  1.00  0.00     0.004 C 
BRANCH   8   9
ATOM      9  C   UNL     1       2.533  48.622  19.702  1.00  0.00    -0.011 C 
ATOM     10  C   UNL     1       3.013  47.584  20.752  1.00  0.00     0.008 C 
BRANCH   9  11
ATOM     11  C   UNL     1       3.064  48.270  18.258  1.00  0.00    -0.002 C 
ATOM     12  C   UNL     1       3.608  46.814  18.159  1.00  0.00     0.005 C 
ATOM     13  C   UNL     1       2.091  48.403  17.016  1.00  0.00    -0.026 C 
ATOM     14  C   UNL     1       3.073  46.202  16.869  1.00  0.00     0.005 C 
ATOM     15  C   UNL     1       1.764  46.938  16.687  1.00  0.00    -0.001 C 
ATOM     16  C   UNL     1       0.732  49.123  17.196  1.00  0.00     0.007 C 
ATOM     17  C   UNL     1       2.894  49.125  15.883  1.00  0.00     0.012 C 
ATOM     18  C   UNL     1       0.999  46.752  15.355  1.00  0.00     0.004 C 
ATOM     19  C   UNL     1      -0.177  48.987  15.951  1.00  0.00     0.005 C 
ATOM     20  C   UNL     1      -0.364  47.516  15.456  1.00  0.00     0.003 C 
ATOM     21  C   UNL     1       0.759  45.255  15.085  1.00  0.00     0.085 C 
ATOM     22  C   UNL     1      -1.231  47.398  14.138  1.00  0.00    -0.000 C 
ATOM     23  C   UNL     1      -0.160  45.040  13.924  1.00  0.00     0.159 C 
ATOM     24  C   UNL     1      -1.330  45.924  13.726  1.00  0.00     0.005 C 
ATOM     25  C   UNL     1      -2.662  47.965  14.413  1.00  0.00     0.020 C 
ATOM     26  C   UNL     1      -0.592  48.178  12.958  1.00  0.00     0.017 C 
ATOM     27  O   UNL     1       0.028  44.047  13.170  1.00  0.00    -0.295 OA
ATOM     28  C   UNL     1      -2.421  45.434  13.109  1.00  0.00     0.055 C 
ATOM     29  C   UNL     1      -3.650  47.692  13.274  1.00  0.00     0.081 C 
ATOM     30  C   UNL     1      -3.624  46.248  12.888  1.00  0.00     0.156 C 
ATOM     31  O   UNL     1      -4.632  45.730  12.339  1.00  0.00    -0.295 OA
ENDBRANCH   9  11
ENDBRANCH   8   9
ENDBRANCH   1   8
TORSDOF 6
ENDMDL
