MODEL 1
REMARK VINA RESULT:    -0.885      0.000      0.000
REMARK INTER + INTRA:          -4.631
REMARK INTER:                  -2.334
REMARK INTRA:                  -2.297
REMARK UNBOUND:                -2.297
REMARK SMILES CCCCCCCCCCCCCCCCCCCCCCCCCCCCCC(=O)[O-]
REMARK SMILES IDX 16 1 17 2 18 3 19 4 20 5 21 6 22 7 23 8 24 9 25 10 26 11
REMARK SMILES IDX 27 12 28 13 29 14 30 15 31 16 32 17 15 18 14 19 13 20 12 21
REMARK SMILES IDX 11 22 10 23 9 24 8 25 7 26 6 27 5 28 4 29 3 30 2 31 1 32
REMARK H PARENT
REMARK Flexibility Score: inf
ROOT
ATOM      1  C   UNL     1      -0.617 -30.275  24.289  1.00  0.00     0.000 C 
ENDROOT
BRANCH   1   2
ATOM      2  C   UNL     1      -2.116 -30.505  24.551  1.00  0.00     0.000 C 
BRANCH   2   3
ATOM      3  C   UNL     1      -2.936 -30.784  23.273  1.00  0.00     0.000 C 
BRANCH   3   4
ATOM      4  C   UNL     1      -3.370 -32.254  23.165  1.00  0.00     0.000 C 
BRANCH   4   5
ATOM      5  C   UNL     1      -2.815 -33.079  24.336  1.00  0.00     0.000 C 
BRANCH   5   6
ATOM      6  C   UNL     1      -1.701 -34.055  23.914  1.00  0.00     0.000 C 
BRANCH   6   7
ATOM      7  C   UNL     1      -1.559 -34.267  22.396  1.00  0.00     0.000 C 
BRANCH   7   8
ATOM      8  C   UNL     1      -2.290 -35.521  21.892  1.00  0.00     0.000 C 
BRANCH   8   9
ATOM      9  C   UNL     1      -1.292 -36.541  21.326  1.00  0.00     0.000 C 
BRANCH   9  10
ATOM     10  C   UNL     1      -1.933 -37.499  20.309  1.00  0.00     0.000 C 
BRANCH  10  11
ATOM     11  C   UNL     1      -3.324 -37.986  20.746  1.00  0.00     0.000 C 
BRANCH  11  12
ATOM     12  C   UNL     1      -4.264 -38.123  19.543  1.00  0.00     0.000 C 
BRANCH  12  13
ATOM     13  C   UNL     1      -3.503 -37.932  18.225  1.00  0.00     0.006 C 
BRANCH  13  14
ATOM     14  C   UNL     1      -4.463 -37.595  17.078  1.00  0.00     0.053 C 
BRANCH  14  15
ATOM     15  C   UNL     1      -4.861 -36.152  17.123  1.00  0.00     0.041 C 
ATOM     16  O   UNL     1      -6.078 -35.828  17.102  1.00  0.00    -0.550 OA
ATOM     17  O   UNL     1      -3.886 -35.164  17.188  1.00  0.00    -0.550 OA
ENDBRANCH  14  15
ENDBRANCH  13  14
ENDBRANCH  12  13
ENDBRANCH  11  12
ENDBRANCH  10  11
ENDBRANCH   9  10
ENDBRANCH   8   9
ENDBRANCH   7   8
ENDBRANCH   6   7
ENDBRANCH   5   6
ENDBRANCH   4   5
ENDBRANCH   3   4
ENDBRANCH   2   3
ENDBRANCH   1   2
BRANCH   1  18
ATOM     18  C   UNL     1       0.060 -31.474  23.609  1.00  0.00     0.000 C 
BRANCH  18  19
ATOM     19  C   UNL     1       1.495 -31.720  24.112  1.00  0.00     0.000 C 
BRANCH  19  20
ATOM     20  C   UNL     1       1.857 -33.194  24.393  1.00  0.00     0.000 C 
BRANCH  20  21
ATOM     21  C   UNL     1       2.317 -34.006  23.168  1.00  0.00     0.000 C 
BRANCH  21  22
ATOM     22  C   UNL     1       3.624 -34.775  23.418  1.00  0.00     0.000 C 
BRANCH  22  23
ATOM     23  C   UNL     1       3.934 -35.798  22.310  1.00  0.00     0.000 C 
BRANCH  23  24
ATOM     24  C   UNL     1       4.190 -37.239  22.797  1.00  0.00    -0.000 C 
BRANCH  24  25
ATOM     25  C   UNL     1       5.586 -37.799  22.466  1.00  0.00    -0.000 C 
BRANCH  25  26
ATOM     26  C   UNL     1       6.095 -37.342  21.088  1.00  0.00    -0.000 C 
BRANCH  26  27
ATOM     27  C   UNL     1       5.207 -37.839  19.936  1.00  0.00    -0.000 C 
BRANCH  27  28
ATOM     28  C   UNL     1       5.519 -37.135  18.604  1.00  0.00    -0.000 C 
BRANCH  28  29
ATOM     29  C   UNL     1       4.346 -36.254  18.123  1.00  0.00    -0.000 C 
BRANCH  29  30
ATOM     30  C   UNL     1       3.283 -37.026  17.323  1.00  0.00    -0.000 C 
BRANCH  30  31
ATOM     31  C   UNL     1       2.061 -37.409  18.169  1.00  0.00    -0.003 C 
ATOM     32  C   UNL     1       1.926 -36.497  19.385  1.00  0.00     0.004 C 
ENDBRANCH  30  31
ENDBRANCH  29  30
ENDBRANCH  28  29
ENDBRANCH  27  28
ENDBRANCH  26  27
ENDBRANCH  25  26
ENDBRANCH  24  25
ENDBRANCH  23  24
ENDBRANCH  22  23
ENDBRANCH  21  22
ENDBRANCH  20  21
ENDBRANCH  19  20
ENDBRANCH  18  19
ENDBRANCH   1  18
TORSDOF 28
ENDMDL
MODEL 2
REMARK VINA RESULT:    -0.759      1.046      1.869
REMARK INTER + INTRA:          -4.299
REMARK INTER:                  -3.967
REMARK INTRA:                  -0.332
REMARK UNBOUND:                -2.297
REMARK SMILES CCCCCCCCCCCCCCCCCCCCCCCCCCCCCC(=O)[O-]
REMARK SMILES IDX 16 1 17 2 18 3 19 4 20 5 21 6 22 7 23 8 24 9 25 10 26 11
REMARK SMILES IDX 27 12 28 13 29 14 30 15 31 16 32 17 15 18 14 19 13 20 12 21
REMARK SMILES IDX 11 22 10 23 9 24 8 25 7 26 6 27 5 28 4 29 3 30 2 31 1 32
REMARK H PARENT
REMARK Flexibility Score: inf
ROOT
ATOM      1  C   UNL     1      -1.837 -31.460  24.132  1.00  0.00     0.000 C 
ENDROOT
BRANCH   1   2
ATOM      2  C   UNL     1      -2.251 -32.647  23.245  1.00  0.00     0.000 C 
BRANCH   2   3
ATOM      3  C   UNL     1      -1.657 -33.999  23.696  1.00  0.00     0.000 C 
BRANCH   3   4
ATOM      4  C   UNL     1      -1.636 -35.037  22.563  1.00  0.00     0.000 C 
BRANCH   4   5
ATOM      5  C   UNL     1      -1.058 -34.431  21.274  1.00  0.00     0.000 C 
BRANCH   5   6
ATOM      6  C   UNL     1       0.110 -35.250  20.692  1.00  0.00     0.000 C 
BRANCH   6   7
ATOM      7  C   UNL     1       0.629 -36.382  21.596  1.00  0.00     0.000 C 
BRANCH   7   8
ATOM      8  C   UNL     1       0.022 -37.752  21.255  1.00  0.00     0.000 C 
BRANCH   8   9
ATOM      9  C   UNL     1      -0.758 -37.687  19.933  1.00  0.00     0.000 C 
BRANCH   9  10
ATOM     10  C   UNL     1      -2.223 -38.125  20.086  1.00  0.00     0.000 C 
BRANCH  10  11
ATOM     11  C   UNL     1      -2.979 -37.311  21.146  1.00  0.00     0.000 C 
BRANCH  11  12
ATOM     12  C   UNL     1      -4.366 -36.897  20.640  1.00  0.00     0.000 C 
BRANCH  12  13
ATOM     13  C   UNL     1      -4.969 -37.982  19.737  1.00  0.00     0.006 C 
BRANCH  13  14
ATOM     14  C   UNL     1      -4.264 -38.019  18.376  1.00  0.00     0.053 C 
BRANCH  14  15
ATOM     15  C   UNL     1      -4.516 -36.758  17.610  1.00  0.00     0.041 C 
ATOM     16  O   UNL     1      -5.601 -36.597  16.991  1.00  0.00    -0.550 OA
ATOM     17  O   UNL     1      -3.552 -35.757  17.581  1.00  0.00    -0.550 OA
ENDBRANCH  14  15
ENDBRANCH  13  14
ENDBRANCH  12  13
ENDBRANCH  11  12
ENDBRANCH  10  11
ENDBRANCH   9  10
ENDBRANCH   8   9
ENDBRANCH   7   8
ENDBRANCH   6   7
ENDBRANCH   5   6
ENDBRANCH   4   5
ENDBRANCH   3   4
ENDBRANCH   2   3
ENDBRANCH   1   2
BRANCH   1  18
ATOM     18  C   UNL     1      -0.316 -31.246  24.167  1.00  0.00     0.000 C 
BRANCH  18  19
ATOM     19  C   UNL     1       0.476 -32.470  23.669  1.00  0.00     0.000 C 
BRANCH  19  20
ATOM     20  C   UNL     1       1.942 -32.550  24.143  1.00  0.00     0.000 C 
BRANCH  20  21
ATOM     21  C   UNL     1       2.620 -33.921  23.965  1.00  0.00     0.000 C 
BRANCH  21  22
ATOM     22  C   UNL     1       2.644 -34.390  22.501  1.00  0.00     0.000 C 
BRANCH  22  23
ATOM     23  C   UNL     1       3.885 -35.239  22.168  1.00  0.00     0.000 C 
BRANCH  23  24
ATOM     24  C   UNL     1       4.408 -36.121  23.321  1.00  0.00    -0.000 C 
BRANCH  24  25
ATOM     25  C   UNL     1       5.456 -37.171  22.911  1.00  0.00    -0.000 C 
BRANCH  25  26
ATOM     26  C   UNL     1       6.070 -36.886  21.530  1.00  0.00    -0.000 C 
BRANCH  26  27
ATOM     27  C   UNL     1       5.615 -37.893  20.462  1.00  0.00    -0.000 C 
BRANCH  27  28
ATOM     28  C   UNL     1       6.124 -37.534  19.055  1.00  0.00    -0.000 C 
BRANCH  28  29
ATOM     29  C   UNL     1       5.009 -36.944  18.166  1.00  0.00    -0.000 C 
BRANCH  29  30
ATOM     30  C   UNL     1       3.891 -37.947  17.833  1.00  0.00    -0.000 C 
BRANCH  30  31
ATOM     31  C   UNL     1       2.494 -37.424  18.192  1.00  0.00    -0.003 C 
ATOM     32  C   UNL     1       2.557 -35.983  18.690  1.00  0.00     0.004 C 
ENDBRANCH  30  31
ENDBRANCH  29  30
ENDBRANCH  28  29
ENDBRANCH  27  28
ENDBRANCH  26  27
ENDBRANCH  25  26
ENDBRANCH  24  25
ENDBRANCH  23  24
ENDBRANCH  22  23
ENDBRANCH  21  22
ENDBRANCH  20  21
ENDBRANCH  19  20
ENDBRANCH  18  19
ENDBRANCH   1  18
TORSDOF 28
ENDMDL
MODEL 3
REMARK VINA RESULT:    -0.628      1.925      6.994
REMARK INTER + INTRA:          -3.952
REMARK INTER:                  -3.382
REMARK INTRA:                  -0.570
REMARK UNBOUND:                -2.297
REMARK SMILES CCCCCCCCCCCCCCCCCCCCCCCCCCCCCC(=O)[O-]
REMARK SMILES IDX 16 1 17 2 18 3 19 4 20 5 21 6 22 7 23 8 24 9 25 10 26 11
REMARK SMILES IDX 27 12 28 13 29 14 30 15 31 16 32 17 15 18 14 19 13 20 12 21
REMARK SMILES IDX 11 22 10 23 9 24 8 25 7 26 6 27 5 28 4 29 3 30 2 31 1 32
REMARK H PARENT
REMARK Flexibility Score: inf
ROOT
ATOM      1  C   UNL     1       0.879 -31.799  24.490  1.00  0.00     0.000 C 
ENDROOT
BRANCH   1   2
ATOM      2  C   UNL     1       2.249 -32.395  24.124  1.00  0.00     0.000 C 
BRANCH   2   3
ATOM      3  C   UNL     1       2.194 -33.885  23.723  1.00  0.00     0.000 C 
BRANCH   3   4
ATOM      4  C   UNL     1       3.593 -34.499  23.556  1.00  0.00     0.000 C 
BRANCH   4   5
ATOM      5  C   UNL     1       3.585 -35.599  22.483  1.00  0.00     0.000 C 
BRANCH   5   6
ATOM      6  C   UNL     1       4.174 -36.933  22.981  1.00  0.00     0.000 C 
BRANCH   6   7
ATOM      7  C   UNL     1       5.667 -37.143  22.674  1.00  0.00     0.000 C 
BRANCH   7   8
ATOM      8  C   UNL     1       5.911 -37.861  21.337  1.00  0.00     0.000 C 
BRANCH   8   9
ATOM      9  C   UNL     1       5.909 -36.858  20.174  1.00  0.00     0.000 C 
BRANCH   9  10
ATOM     10  C   UNL     1       4.535 -36.736  19.497  1.00  0.00     0.000 C 
BRANCH  10  11
ATOM     11  C   UNL     1       4.636 -36.566  17.973  1.00  0.00     0.000 C 
BRANCH  11  12
ATOM     12  C   UNL     1       3.585 -37.418  17.252  1.00  0.00     0.000 C 
BRANCH  12  13
ATOM     13  C   UNL     1       2.175 -37.113  17.774  1.00  0.00     0.006 C 
BRANCH  13  14
ATOM     14  C   UNL     1       1.873 -37.913  19.046  1.00  0.00     0.053 C 
BRANCH  14  15
ATOM     15  C   UNL     1       1.353 -37.018  20.128  1.00  0.00     0.041 C 
ATOM     16  O   UNL     1       1.140 -37.474  21.282  1.00  0.00    -0.550 OA
ATOM     17  O   UNL     1       1.105 -35.677  19.861  1.00  0.00    -0.550 OA
ENDBRANCH  14  15
ENDBRANCH  13  14
ENDBRANCH  12  13
ENDBRANCH  11  12
ENDBRANCH  10  11
ENDBRANCH   9  10
ENDBRANCH   8   9
ENDBRANCH   7   8
ENDBRANCH   6   7
ENDBRANCH   5   6
ENDBRANCH   4   5
ENDBRANCH   3   4
ENDBRANCH   2   3
ENDBRANCH   1   2
BRANCH   1  18
ATOM     18  C   UNL     1      -0.118 -31.839  23.322  1.00  0.00     0.000 C 
BRANCH  18  19
ATOM     19  C   UNL     1      -1.587 -31.801  23.784  1.00  0.00     0.000 C 
BRANCH  19  20
ATOM     20  C   UNL     1      -2.474 -32.957  23.276  1.00  0.00     0.000 C 
BRANCH  20  21
ATOM     21  C   UNL     1      -1.941 -34.373  23.563  1.00  0.00     0.000 C 
BRANCH  21  22
ATOM     22  C   UNL     1      -1.306 -35.034  22.329  1.00  0.00     0.000 C 
BRANCH  22  23
ATOM     23  C   UNL     1      -2.269 -35.994  21.606  1.00  0.00     0.000 C 
BRANCH  23  24
ATOM     24  C   UNL     1      -3.717 -35.996  22.136  1.00  0.00    -0.000 C 
BRANCH  24  25
ATOM     25  C   UNL     1      -4.467 -37.331  21.973  1.00  0.00    -0.000 C 
BRANCH  25  26
ATOM     26  C   UNL     1      -4.271 -37.953  20.580  1.00  0.00    -0.000 C 
BRANCH  26  27
ATOM     27  C   UNL     1      -2.794 -38.012  20.161  1.00  0.00    -0.000 C 
BRANCH  27  28
ATOM     28  C   UNL     1      -2.613 -38.030  18.633  1.00  0.00    -0.000 C 
BRANCH  28  29
ATOM     29  C   UNL     1      -3.962 -38.124  17.889  1.00  0.00    -0.000 C 
BRANCH  29  30
ATOM     30  C   UNL     1      -4.261 -36.906  16.999  1.00  0.00    -0.000 C 
BRANCH  30  31
ATOM     31  C   UNL     1      -4.316 -35.590  17.786  1.00  0.00    -0.003 C 
ATOM     32  C   UNL     1      -5.364 -34.645  17.205  1.00  0.00     0.004 C 
ENDBRANCH  30  31
ENDBRANCH  29  30
ENDBRANCH  28  29
ENDBRANCH  27  28
ENDBRANCH  26  27
ENDBRANCH  25  26
ENDBRANCH  24  25
ENDBRANCH  23  24
ENDBRANCH  22  23
ENDBRANCH  21  22
ENDBRANCH  20  21
ENDBRANCH  19  20
ENDBRANCH  18  19
ENDBRANCH   1  18
TORSDOF 28
ENDMDL
MODEL 4
REMARK VINA RESULT:    -0.076      1.202      1.879
REMARK INTER + INTRA:          -2.497
REMARK INTER:                  -0.735
REMARK INTRA:                  -1.762
REMARK UNBOUND:                -2.297
REMARK SMILES CCCCCCCCCCCCCCCCCCCCCCCCCCCCCC(=O)[O-]
REMARK SMILES IDX 16 1 17 2 18 3 19 4 20 5 21 6 22 7 23 8 24 9 25 10 26 11
REMARK SMILES IDX 27 12 28 13 29 14 30 15 31 16 32 17 15 18 14 19 13 20 12 21
REMARK SMILES IDX 11 22 10 23 9 24 8 25 7 26 6 27 5 28 4 29 3 30 2 31 1 32
REMARK H PARENT
REMARK Flexibility Score: inf
ROOT
ATOM      1  C   UNL     1      -0.322 -32.509  24.759  1.00  0.00     0.000 C 
ENDROOT
BRANCH   1   2
ATOM      2  C   UNL     1      -0.755 -31.928  23.401  1.00  0.00     0.000 C 
BRANCH   2   3
ATOM      3  C   UNL     1      -2.009 -31.031  23.480  1.00  0.00     0.000 C 
BRANCH   3   4
ATOM      4  C   UNL     1      -3.281 -31.829  23.806  1.00  0.00     0.000 C 
BRANCH   4   5
ATOM      5  C   UNL     1      -2.996 -33.339  23.811  1.00  0.00     0.000 C 
BRANCH   5   6
ATOM      6  C   UNL     1      -4.081 -34.161  23.089  1.00  0.00     0.000 C 
BRANCH   6   7
ATOM      7  C   UNL     1      -3.584 -35.458  22.426  1.00  0.00     0.000 C 
BRANCH   7   8
ATOM      8  C   UNL     1      -2.089 -35.721  22.662  1.00  0.00     0.000 C 
BRANCH   8   9
ATOM      9  C   UNL     1      -1.237 -35.005  21.603  1.00  0.00     0.000 C 
BRANCH   9  10
ATOM     10  C   UNL     1      -0.957 -35.882  20.373  1.00  0.00     0.000 C 
BRANCH  10  11
ATOM     11  C   UNL     1      -1.046 -37.385  20.681  1.00  0.00     0.000 C 
BRANCH  11  12
ATOM     12  C   UNL     1      -1.894 -38.114  19.633  1.00  0.00     0.000 C 
BRANCH  12  13
ATOM     13  C   UNL     1      -3.386 -38.044  19.986  1.00  0.00     0.006 C 
BRANCH  13  14
ATOM     14  C   UNL     1      -4.006 -36.729  19.500  1.00  0.00     0.053 C 
BRANCH  14  15
ATOM     15  C   UNL     1      -4.088 -36.699  18.005  1.00  0.00     0.041 C 
ATOM     16  O   UNL     1      -4.359 -35.626  17.405  1.00  0.00    -0.550 OA
ATOM     17  O   UNL     1      -3.865 -37.859  17.273  1.00  0.00    -0.550 OA
ENDBRANCH  14  15
ENDBRANCH  13  14
ENDBRANCH  12  13
ENDBRANCH  11  12
ENDBRANCH  10  11
ENDBRANCH   9  10
ENDBRANCH   8   9
ENDBRANCH   7   8
ENDBRANCH   6   7
ENDBRANCH   5   6
ENDBRANCH   4   5
ENDBRANCH   3   4
ENDBRANCH   2   3
ENDBRANCH   1   2
BRANCH   1  18
ATOM     18  C   UNL     1       1.142 -32.976  24.765  1.00  0.00     0.000 C 
BRANCH  18  19
ATOM     19  C   UNL     1       1.560 -33.662  23.451  1.00  0.00     0.000 C 
BRANCH  19  20
ATOM     20  C   UNL     1       3.077 -33.878  23.268  1.00  0.00     0.000 C 
BRANCH  20  21
ATOM     21  C   UNL     1       3.514 -35.338  23.042  1.00  0.00     0.000 C 
BRANCH  21  22
ATOM     22  C   UNL     1       4.641 -35.777  23.991  1.00  0.00     0.000 C 
BRANCH  22  23
ATOM     23  C   UNL     1       5.935 -36.152  23.245  1.00  0.00     0.000 C 
BRANCH  23  24
ATOM     24  C   UNL     1       5.795 -37.293  22.217  1.00  0.00    -0.000 C 
BRANCH  24  25
ATOM     25  C   UNL     1       5.813 -36.846  20.743  1.00  0.00    -0.000 C 
BRANCH  25  26
ATOM     26  C   UNL     1       5.974 -38.026  19.770  1.00  0.00    -0.000 C 
BRANCH  26  27
ATOM     27  C   UNL     1       5.807 -37.607  18.301  1.00  0.00    -0.000 C 
BRANCH  27  28
ATOM     28  C   UNL     1       4.495 -38.124  17.684  1.00  0.00    -0.000 C 
BRANCH  28  29
ATOM     29  C   UNL     1       3.319 -38.059  18.680  1.00  0.00    -0.000 C 
BRANCH  29  30
ATOM     30  C   UNL     1       2.122 -37.239  18.168  1.00  0.00    -0.000 C 
BRANCH  30  31
ATOM     31  C   UNL     1       2.034 -35.848  18.808  1.00  0.00    -0.003 C 
ATOM     32  C   UNL     1       2.493 -35.881  20.264  1.00  0.00     0.004 C 
ENDBRANCH  30  31
ENDBRANCH  29  30
ENDBRANCH  28  29
ENDBRANCH  27  28
ENDBRANCH  26  27
ENDBRANCH  25  26
ENDBRANCH  24  25
ENDBRANCH  23  24
ENDBRANCH  22  23
ENDBRANCH  21  22
ENDBRANCH  20  21
ENDBRANCH  19  20
ENDBRANCH  18  19
ENDBRANCH   1  18
TORSDOF 28
ENDMDL
MODEL 5
REMARK VINA RESULT:     0.204      2.328      6.567
REMARK INTER + INTRA:          -1.758
REMARK INTER:                   0.488
REMARK INTRA:                  -2.246
REMARK UNBOUND:                -2.297
REMARK SMILES CCCCCCCCCCCCCCCCCCCCCCCCCCCCCC(=O)[O-]
REMARK SMILES IDX 16 1 17 2 18 3 19 4 20 5 21 6 22 7 23 8 24 9 25 10 26 11
REMARK SMILES IDX 27 12 28 13 29 14 30 15 31 16 32 17 15 18 14 19 13 20 12 21
REMARK SMILES IDX 11 22 10 23 9 24 8 25 7 26 6 27 5 28 4 29 3 30 2 31 1 32
REMARK H PARENT
REMARK Flexibility Score: inf
ROOT
ATOM      1  C   UNL     1      -2.112 -30.787  24.337  1.00  0.00     0.000 C 
ENDROOT
BRANCH   1   2
ATOM      2  C   UNL     1      -1.004 -30.253  23.412  1.00  0.00     0.000 C 
BRANCH   2   3
ATOM      3  C   UNL     1       0.423 -30.606  23.881  1.00  0.00     0.000 C 
BRANCH   3   4
ATOM      4  C   UNL     1       0.447 -31.824  24.818  1.00  0.00     0.000 C 
BRANCH   4   5
ATOM      5  C   UNL     1       1.124 -33.025  24.141  1.00  0.00     0.000 C 
BRANCH   5   6
ATOM      6  C   UNL     1       2.469 -32.668  23.480  1.00  0.00     0.000 C 
BRANCH   6   7
ATOM      7  C   UNL     1       3.378 -33.868  23.158  1.00  0.00     0.000 C 
BRANCH   7   8
ATOM      8  C   UNL     1       2.962 -35.152  23.892  1.00  0.00     0.000 C 
BRANCH   8   9
ATOM      9  C   UNL     1       4.021 -36.249  23.709  1.00  0.00     0.000 C 
BRANCH   9  10
ATOM     10  C   UNL     1       5.256 -35.761  22.936  1.00  0.00     0.000 C 
BRANCH  10  11
ATOM     11  C   UNL     1       6.125 -36.916  22.414  1.00  0.00     0.000 C 
BRANCH  11  12
ATOM     12  C   UNL     1       5.399 -37.701  21.316  1.00  0.00     0.000 C 
BRANCH  12  13
ATOM     13  C   UNL     1       4.492 -36.780  20.489  1.00  0.00     0.006 C 
BRANCH  13  14
ATOM     14  C   UNL     1       3.662 -37.584  19.481  1.00  0.00     0.053 C 
BRANCH  14  15
ATOM     15  C   UNL     1       3.930 -37.124  18.082  1.00  0.00     0.041 C 
ATOM     16  O   UNL     1       5.020 -36.562  17.796  1.00  0.00    -0.550 OA
ATOM     17  O   UNL     1       2.975 -37.317  17.091  1.00  0.00    -0.550 OA
ENDBRANCH  14  15
ENDBRANCH  13  14
ENDBRANCH  12  13
ENDBRANCH  11  12
ENDBRANCH  10  11
ENDBRANCH   9  10
ENDBRANCH   8   9
ENDBRANCH   7   8
ENDBRANCH   6   7
ENDBRANCH   5   6
ENDBRANCH   4   5
ENDBRANCH   3   4
ENDBRANCH   2   3
ENDBRANCH   1   2
BRANCH   1  18
ATOM     18  C   UNL     1      -2.930 -31.917  23.694  1.00  0.00     0.000 C 
BRANCH  18  19
ATOM     19  C   UNL     1      -2.161 -33.251  23.624  1.00  0.00     0.000 C 
BRANCH  19  20
ATOM     20  C   UNL     1      -1.586 -33.614  22.240  1.00  0.00     0.000 C 
BRANCH  20  21
ATOM     21  C   UNL     1      -1.616 -35.113  21.885  1.00  0.00     0.000 C 
BRANCH  21  22
ATOM     22  C   UNL     1      -0.313 -35.840  22.253  1.00  0.00     0.000 C 
BRANCH  22  23
ATOM     23  C   UNL     1       0.836 -35.537  21.272  1.00  0.00     0.000 C 
BRANCH  23  24
ATOM     24  C   UNL     1       0.694 -36.176  19.876  1.00  0.00    -0.000 C 
BRANCH  24  25
ATOM     25  C   UNL     1       0.286 -37.661  19.880  1.00  0.00    -0.000 C 
BRANCH  25  26
ATOM     26  C   UNL     1      -1.203 -37.865  19.550  1.00  0.00    -0.000 C 
BRANCH  26  27
ATOM     27  C   UNL     1      -2.059 -38.098  20.805  1.00  0.00    -0.000 C 
BRANCH  27  28
ATOM     28  C   UNL     1      -3.568 -38.048  20.508  1.00  0.00    -0.000 C 
BRANCH  28  29
ATOM     29  C   UNL     1      -3.894 -37.142  19.301  1.00  0.00    -0.000 C 
BRANCH  29  30
ATOM     30  C   UNL     1      -4.366 -37.916  18.059  1.00  0.00    -0.000 C 
BRANCH  30  31
ATOM     31  C   UNL     1      -4.699 -36.999  16.875  1.00  0.00    -0.003 C 
ATOM     32  C   UNL     1      -4.902 -35.558  17.336  1.00  0.00     0.004 C 
ENDBRANCH  30  31
ENDBRANCH  29  30
ENDBRANCH  28  29
ENDBRANCH  27  28
ENDBRANCH  26  27
ENDBRANCH  25  26
ENDBRANCH  24  25
ENDBRANCH  23  24
ENDBRANCH  22  23
ENDBRANCH  21  22
ENDBRANCH  20  21
ENDBRANCH  19  20
ENDBRANCH  18  19
ENDBRANCH   1  18
TORSDOF 28
ENDMDL
MODEL 6
REMARK VINA RESULT:     0.354      1.069      2.762
REMARK INTER + INTRA:          -1.364
REMARK INTER:                   0.488
REMARK INTRA:                  -1.851
REMARK UNBOUND:                -2.297
REMARK SMILES CCCCCCCCCCCCCCCCCCCCCCCCCCCCCC(=O)[O-]
REMARK SMILES IDX 16 1 17 2 18 3 19 4 20 5 21 6 22 7 23 8 24 9 25 10 26 11
REMARK SMILES IDX 27 12 28 13 29 14 30 15 31 16 32 17 15 18 14 19 13 20 12 21
REMARK SMILES IDX 11 22 10 23 9 24 8 25 7 26 6 27 5 28 4 29 3 30 2 31 1 32
REMARK H PARENT
REMARK Flexibility Score: inf
ROOT
ATOM      1  C   UNL     1       1.346 -32.949  24.678  1.00  0.00     0.000 C 
ENDROOT
BRANCH   1   2
ATOM      2  C   UNL     1       1.644 -31.441  24.738  1.00  0.00     0.000 C 
BRANCH   2   3
ATOM      3  C   UNL     1       0.631 -30.574  23.961  1.00  0.00     0.000 C 
BRANCH   3   4
ATOM      4  C   UNL     1      -0.475 -31.414  23.302  1.00  0.00     0.000 C 
BRANCH   4   5
ATOM      5  C   UNL     1      -1.763 -31.381  24.139  1.00  0.00     0.000 C 
BRANCH   5   6
ATOM      6  C   UNL     1      -2.891 -32.248  23.547  1.00  0.00     0.000 C 
BRANCH   6   7
ATOM      7  C   UNL     1      -2.423 -33.399  22.640  1.00  0.00     0.000 C 
BRANCH   7   8
ATOM      8  C   UNL     1      -2.465 -34.769  23.335  1.00  0.00     0.000 C 
BRANCH   8   9
ATOM      9  C   UNL     1      -2.514 -35.902  22.300  1.00  0.00     0.000 C 
BRANCH   9  10
ATOM     10  C   UNL     1      -3.841 -36.678  22.330  1.00  0.00     0.000 C 
BRANCH  10  11
ATOM     11  C   UNL     1      -4.408 -36.939  20.926  1.00  0.00     0.000 C 
BRANCH  11  12
ATOM     12  C   UNL     1      -3.559 -37.968  20.171  1.00  0.00     0.000 C 
BRANCH  12  13
ATOM     13  C   UNL     1      -3.084 -37.407  18.824  1.00  0.00     0.006 C 
BRANCH  13  14
ATOM     14  C   UNL     1      -4.142 -37.619  17.735  1.00  0.00     0.053 C 
BRANCH  14  15
ATOM     15  C   UNL     1      -4.707 -36.310  17.278  1.00  0.00     0.041 C 
ATOM     16  O   UNL     1      -5.909 -36.229  16.916  1.00  0.00    -0.550 OA
ATOM     17  O   UNL     1      -3.902 -35.177  17.254  1.00  0.00    -0.550 OA
ENDBRANCH  14  15
ENDBRANCH  13  14
ENDBRANCH  12  13
ENDBRANCH  11  12
ENDBRANCH  10  11
ENDBRANCH   9  10
ENDBRANCH   8   9
ENDBRANCH   7   8
ENDBRANCH   6   7
ENDBRANCH   5   6
ENDBRANCH   4   5
ENDBRANCH   3   4
ENDBRANCH   2   3
ENDBRANCH   1   2
BRANCH   1  18
ATOM     18  C   UNL     1       2.177 -33.679  23.612  1.00  0.00     0.000 C 
BRANCH  18  19
ATOM     19  C   UNL     1       3.590 -34.050  24.101  1.00  0.00     0.000 C 
BRANCH  19  20
ATOM     20  C   UNL     1       3.991 -35.528  23.913  1.00  0.00     0.000 C 
BRANCH  20  21
ATOM     21  C   UNL     1       3.974 -36.037  22.459  1.00  0.00     0.000 C 
BRANCH  21  22
ATOM     22  C   UNL     1       5.205 -36.891  22.112  1.00  0.00     0.000 C 
BRANCH  22  23
ATOM     23  C   UNL     1       6.058 -36.275  20.988  1.00  0.00     0.000 C 
BRANCH  23  24
ATOM     24  C   UNL     1       6.125 -37.098  19.685  1.00  0.00    -0.000 C 
BRANCH  24  25
ATOM     25  C   UNL     1       4.773 -37.650  19.196  1.00  0.00    -0.000 C 
BRANCH  25  26
ATOM     26  C   UNL     1       4.123 -36.758  18.125  1.00  0.00    -0.000 C 
BRANCH  26  27
ATOM     27  C   UNL     1       2.606 -36.610  18.319  1.00  0.00    -0.000 C 
BRANCH  27  28
ATOM     28  C   UNL     1       1.929 -37.935  18.714  1.00  0.00    -0.000 C 
BRANCH  28  29
ATOM     29  C   UNL     1       1.644 -38.013  20.229  1.00  0.00    -0.000 C 
BRANCH  29  30
ATOM     30  C   UNL     1       1.769 -36.660  20.950  1.00  0.00    -0.000 C 
BRANCH  30  31
ATOM     31  C   UNL     1       0.414 -36.091  21.390  1.00  0.00    -0.003 C 
ATOM     32  C   UNL     1      -0.271 -35.354  20.242  1.00  0.00     0.004 C 
ENDBRANCH  30  31
ENDBRANCH  29  30
ENDBRANCH  28  29
ENDBRANCH  27  28
ENDBRANCH  26  27
ENDBRANCH  25  26
ENDBRANCH  24  25
ENDBRANCH  23  24
ENDBRANCH  22  23
ENDBRANCH  21  22
ENDBRANCH  20  21
ENDBRANCH  19  20
ENDBRANCH  18  19
ENDBRANCH   1  18
TORSDOF 28
ENDMDL
MODEL 7
REMARK VINA RESULT:     1.017      2.792      8.905
REMARK INTER + INTRA:           0.384
REMARK INTER:                   0.642
REMARK INTRA:                  -0.258
REMARK UNBOUND:                -2.297
REMARK SMILES CCCCCCCCCCCCCCCCCCCCCCCCCCCCCC(=O)[O-]
REMARK SMILES IDX 16 1 17 2 18 3 19 4 20 5 21 6 22 7 23 8 24 9 25 10 26 11
REMARK SMILES IDX 27 12 28 13 29 14 30 15 31 16 32 17 15 18 14 19 13 20 12 21
REMARK SMILES IDX 11 22 10 23 9 24 8 25 7 26 6 27 5 28 4 29 3 30 2 31 1 32
REMARK H PARENT
REMARK Flexibility Score: inf
ROOT
ATOM      1  C   UNL     1      -0.436 -36.619  20.302  1.00  0.00     0.000 C 
ENDROOT
BRANCH   1   2
ATOM      2  C   UNL     1       0.972 -36.264  20.811  1.00  0.00     0.000 C 
BRANCH   2   3
ATOM      3  C   UNL     1       2.047 -36.234  19.703  1.00  0.00     0.000 C 
BRANCH   3   4
ATOM      4  C   UNL     1       1.942 -37.438  18.753  1.00  0.00     0.000 C 
BRANCH   4   5
ATOM      5  C   UNL     1       3.071 -37.416  17.712  1.00  0.00     0.000 C 
BRANCH   5   6
ATOM      6  C   UNL     1       4.388 -38.020  18.235  1.00  0.00     0.000 C 
BRANCH   6   7
ATOM      7  C   UNL     1       5.396 -37.001  18.797  1.00  0.00     0.000 C 
BRANCH   7   8
ATOM      8  C   UNL     1       5.714 -37.226  20.283  1.00  0.00     0.000 C 
BRANCH   8   9
ATOM      9  C   UNL     1       4.626 -38.082  20.949  1.00  0.00     0.000 C 
BRANCH   9  10
ATOM     10  C   UNL     1       4.400 -37.716  22.424  1.00  0.00     0.000 C 
BRANCH  10  11
ATOM     11  C   UNL     1       5.046 -36.375  22.809  1.00  0.00     0.000 C 
BRANCH  11  12
ATOM     12  C   UNL     1       4.155 -35.196  22.399  1.00  0.00     0.000 C 
BRANCH  12  13
ATOM     13  C   UNL     1       3.432 -34.604  23.616  1.00  0.00     0.006 C 
BRANCH  13  14
ATOM     14  C   UNL     1       2.121 -33.927  23.201  1.00  0.00     0.053 C 
BRANCH  14  15
ATOM     15  C   UNL     1       1.821 -32.757  24.086  1.00  0.00     0.041 C 
ATOM     16  O   UNL     1       1.101 -32.902  25.109  1.00  0.00    -0.550 OA
ATOM     17  O   UNL     1       2.340 -31.504  23.781  1.00  0.00    -0.550 OA
ENDBRANCH  14  15
ENDBRANCH  13  14
ENDBRANCH  12  13
ENDBRANCH  11  12
ENDBRANCH  10  11
ENDBRANCH   9  10
ENDBRANCH   8   9
ENDBRANCH   7   8
ENDBRANCH   6   7
ENDBRANCH   5   6
ENDBRANCH   4   5
ENDBRANCH   3   4
ENDBRANCH   2   3
ENDBRANCH   1   2
BRANCH   1  18
ATOM     18  C   UNL     1      -0.953 -37.952  20.866  1.00  0.00     0.000 C 
BRANCH  18  19
ATOM     19  C   UNL     1      -2.475 -38.125  20.697  1.00  0.00     0.000 C 
BRANCH  19  20
ATOM     20  C   UNL     1      -2.987 -38.125  19.242  1.00  0.00     0.000 C 
BRANCH  20  21
ATOM     21  C   UNL     1      -3.372 -36.745  18.677  1.00  0.00     0.000 C 
BRANCH  21  22
ATOM     22  C   UNL     1      -3.784 -35.746  19.771  1.00  0.00     0.000 C 
BRANCH  22  23
ATOM     23  C   UNL     1      -4.329 -36.439  21.034  1.00  0.00     0.000 C 
BRANCH  23  24
ATOM     24  C   UNL     1      -3.845 -35.843  22.372  1.00  0.00    -0.000 C 
BRANCH  24  25
ATOM     25  C   UNL     1      -2.322 -35.646  22.483  1.00  0.00    -0.000 C 
BRANCH  25  26
ATOM     26  C   UNL     1      -1.929 -34.171  22.675  1.00  0.00    -0.000 C 
BRANCH  26  27
ATOM     27  C   UNL     1      -2.107 -33.697  24.125  1.00  0.00    -0.000 C 
BRANCH  27  28
ATOM     28  C   UNL     1      -3.260 -32.689  24.281  1.00  0.00    -0.000 C 
BRANCH  28  29
ATOM     29  C   UNL     1      -2.967 -31.356  23.561  1.00  0.00    -0.000 C 
BRANCH  29  30
ATOM     30  C   UNL     1      -1.499 -31.196  23.132  1.00  0.00    -0.000 C 
BRANCH  30  31
ATOM     31  C   UNL     1      -0.847 -29.927  23.698  1.00  0.00    -0.003 C 
ATOM     32  C   UNL     1      -1.865 -29.075  24.452  1.00  0.00     0.004 C 
ENDBRANCH  30  31
ENDBRANCH  29  30
ENDBRANCH  28  29
ENDBRANCH  27  28
ENDBRANCH  26  27
ENDBRANCH  25  26
ENDBRANCH  24  25
ENDBRANCH  23  24
ENDBRANCH  22  23
ENDBRANCH  21  22
ENDBRANCH  20  21
ENDBRANCH  19  20
ENDBRANCH  18  19
ENDBRANCH   1  18
TORSDOF 28
ENDMDL
