MODEL 1
REMARK VINA RESULT:    -3.399      0.000      0.000
REMARK INTER + INTRA:          -4.015
REMARK INTER:                  -3.995
REMARK INTRA:                  -0.021
REMARK UNBOUND:                -0.021
REMARK SMILES CCCCC(=O)[O-]
REMARK SMILES IDX 4 1 5 2 6 3 7 4 3 5 2 6 1 7
REMARK H PARENT
REMARK Flexibility Score: inf
ROOT
ATOM      1  C   UNL     1      41.951  55.550  17.942  1.00  0.00     0.053 C 
ENDROOT
BRANCH   1   2
ATOM      2  C   UNL     1      42.981  55.021  16.994  1.00  0.00     0.041 C 
ATOM      3  O   UNL     1      42.627  54.395  15.959  1.00  0.00    -0.550 OA
ATOM      4  O   UNL     1      44.331  55.176  17.276  1.00  0.00    -0.550 OA
ENDBRANCH   1   2
BRANCH   1   5
ATOM      5  C   UNL     1      40.711  56.025  17.178  1.00  0.00     0.006 C 
BRANCH   5   6
ATOM      6  C   UNL     1      39.605  56.462  18.144  1.00  0.00    -0.003 C 
ATOM      7  C   UNL     1      38.302  56.739  17.402  1.00  0.00     0.004 C 
ENDBRANCH   5   6
ENDBRANCH   1   5
TORSDOF 3
ENDMDL
MODEL 2
REMARK VINA RESULT:    -3.363      4.697      6.216
REMARK INTER + INTRA:          -3.973
REMARK INTER:                  -3.950
REMARK INTRA:                  -0.023
REMARK UNBOUND:                -0.021
REMARK SMILES CCCCC(=O)[O-]
REMARK SMILES IDX 4 1 5 2 6 3 7 4 3 5 2 6 1 7
REMARK H PARENT
REMARK Flexibility Score: inf
ROOT
ATOM      1  C   UNL     1      36.408  57.164  17.141  1.00  0.00     0.053 C 
ENDROOT
BRANCH   1   2
ATOM      2  C   UNL     1      35.594  57.304  15.894  1.00  0.00     0.041 C 
ATOM      3  O   UNL     1      36.061  57.917  14.898  1.00  0.00    -0.550 OA
ATOM      4  O   UNL     1      34.301  56.801  15.848  1.00  0.00    -0.550 OA
ENDBRANCH   1   2
BRANCH   1   5
ATOM      5  C   UNL     1      37.831  56.705  16.805  1.00  0.00     0.006 C 
BRANCH   5   6
ATOM      6  C   UNL     1      38.800  57.042  17.943  1.00  0.00    -0.003 C 
ATOM      7  C   UNL     1      40.101  56.256  17.811  1.00  0.00     0.004 C 
ENDBRANCH   5   6
ENDBRANCH   1   5
TORSDOF 3
ENDMDL
MODEL 3
REMARK VINA RESULT:    -3.277      1.905      2.907
REMARK INTER + INTRA:          -3.872
REMARK INTER:                  -3.854
REMARK INTRA:                  -0.018
REMARK UNBOUND:                -0.021
REMARK SMILES CCCCC(=O)[O-]
REMARK SMILES IDX 4 1 5 2 6 3 7 4 3 5 2 6 1 7
REMARK H PARENT
REMARK Flexibility Score: inf
ROOT
ATOM      1  C   UNL     1      39.374  56.779  17.983  1.00  0.00     0.053 C 
ENDROOT
BRANCH   1   2
ATOM      2  C   UNL     1      40.607  55.980  17.698  1.00  0.00     0.041 C 
ATOM      3  O   UNL     1      41.353  55.608  18.642  1.00  0.00    -0.550 OA
ATOM      4  O   UNL     1      40.959  55.689  16.386  1.00  0.00    -0.550 OA
ENDBRANCH   1   2
BRANCH   1   5
ATOM      5  C   UNL     1      38.302  56.508  16.923  1.00  0.00     0.006 C 
BRANCH   5   6
ATOM      6  C   UNL     1      36.984  57.202  17.284  1.00  0.00    -0.003 C 
ATOM      7  C   UNL     1      36.236  57.651  16.033  1.00  0.00     0.004 C 
ENDBRANCH   5   6
ENDBRANCH   1   5
TORSDOF 3
ENDMDL
MODEL 4
REMARK VINA RESULT:    -3.122      2.760      4.277
REMARK INTER + INTRA:          -3.690
REMARK INTER:                  -3.667
REMARK INTRA:                  -0.023
REMARK UNBOUND:                -0.021
REMARK SMILES CCCCC(=O)[O-]
REMARK SMILES IDX 4 1 5 2 6 3 7 4 3 5 2 6 1 7
REMARK H PARENT
REMARK Flexibility Score: inf
ROOT
ATOM      1  C   UNL     1      40.778  56.038  17.044  1.00  0.00     0.053 C 
ENDROOT
BRANCH   1   2
ATOM      2  C   UNL     1      39.571  56.483  17.808  1.00  0.00     0.041 C 
ATOM      3  O   UNL     1      39.665  56.764  19.033  1.00  0.00    -0.550 OA
ATOM      4  O   UNL     1      38.334  56.541  17.181  1.00  0.00    -0.550 OA
ENDBRANCH   1   2
BRANCH   1   5
ATOM      5  C   UNL     1      41.839  55.476  17.996  1.00  0.00     0.006 C 
BRANCH   5   6
ATOM      6  C   UNL     1      43.153  55.205  17.255  1.00  0.00    -0.003 C 
ATOM      7  C   UNL     1      43.125  53.848  16.560  1.00  0.00     0.004 C 
ENDBRANCH   5   6
ENDBRANCH   1   5
TORSDOF 3
ENDMDL
MODEL 5
REMARK VINA RESULT:    -2.877      2.483      4.743
REMARK INTER + INTRA:          -3.403
REMARK INTER:                  -3.345
REMARK INTRA:                  -0.058
REMARK UNBOUND:                -0.021
REMARK SMILES CCCCC(=O)[O-]
REMARK SMILES IDX 4 1 5 2 6 3 7 4 3 5 2 6 1 7
REMARK H PARENT
REMARK Flexibility Score: inf
ROOT
ATOM      1  C   UNL     1      42.948  53.784  16.899  1.00  0.00     0.053 C 
ENDROOT
BRANCH   1   2
ATOM      2  C   UNL     1      42.517  55.217  16.903  1.00  0.00     0.041 C 
ATOM      3  O   UNL     1      43.293  56.110  17.334  1.00  0.00    -0.550 OA
ATOM      4  O   UNL     1      41.240  55.560  16.478  1.00  0.00    -0.550 OA
ENDBRANCH   1   2
BRANCH   1   5
ATOM      5  C   UNL     1      43.259  53.322  15.472  1.00  0.00     0.006 C 
BRANCH   5   6
ATOM      6  C   UNL     1      44.672  53.745  15.053  1.00  0.00    -0.003 C 
ATOM      7  C   UNL     1      45.448  52.571  14.466  1.00  0.00     0.004 C 
ENDBRANCH   5   6
ENDBRANCH   1   5
TORSDOF 3
ENDMDL
MODEL 6
REMARK VINA RESULT:    -2.860      4.335      5.597
REMARK INTER + INTRA:          -3.382
REMARK INTER:                  -3.297
REMARK INTRA:                  -0.084
REMARK UNBOUND:                -0.021
REMARK SMILES CCCCC(=O)[O-]
REMARK SMILES IDX 4 1 5 2 6 3 7 4 3 5 2 6 1 7
REMARK H PARENT
REMARK Flexibility Score: inf
ROOT
ATOM      1  C   UNL     1      36.222  57.125  16.901  1.00  0.00     0.053 C 
ENDROOT
BRANCH   1   2
ATOM      2  C   UNL     1      37.634  56.746  16.582  1.00  0.00     0.041 C 
ATOM      3  O   UNL     1      37.933  56.327  15.432  1.00  0.00    -0.550 OA
ATOM      4  O   UNL     1      38.610  56.808  17.568  1.00  0.00    -0.550 OA
ENDBRANCH   1   2
BRANCH   1   5
ATOM      5  C   UNL     1      35.531  57.707  15.664  1.00  0.00     0.006 C 
BRANCH   5   6
ATOM      6  C   UNL     1      34.407  56.785  15.179  1.00  0.00    -0.003 C 
ATOM      7  C   UNL     1      33.833  55.961  16.328  1.00  0.00     0.004 C 
ENDBRANCH   5   6
ENDBRANCH   1   5
TORSDOF 3
ENDMDL
MODEL 7
REMARK VINA RESULT:    -2.841      2.292      3.340
REMARK INTER + INTRA:          -3.359
REMARK INTER:                  -3.311
REMARK INTRA:                  -0.048
REMARK UNBOUND:                -0.021
REMARK SMILES CCCCC(=O)[O-]
REMARK SMILES IDX 4 1 5 2 6 3 7 4 3 5 2 6 1 7
REMARK H PARENT
REMARK Flexibility Score: inf
ROOT
ATOM      1  C   UNL     1      43.251  53.288  15.507  1.00  0.00     0.053 C 
ENDROOT
BRANCH   1   2
ATOM      2  C   UNL     1      44.664  53.428  15.035  1.00  0.00     0.041 C 
ATOM      3  O   UNL     1      45.195  54.568  14.957  1.00  0.00    -0.550 OA
ATOM      4  O   UNL     1      45.378  52.307  14.635  1.00  0.00    -0.550 OA
ENDBRANCH   1   2
BRANCH   1   5
ATOM      5  C   UNL     1      43.068  53.972  16.865  1.00  0.00     0.006 C 
BRANCH   5   6
ATOM      6  C   UNL     1      42.163  55.203  16.741  1.00  0.00    -0.003 C 
ATOM      7  C   UNL     1      41.522  55.553  18.081  1.00  0.00     0.004 C 
ENDBRANCH   5   6
ENDBRANCH   1   5
TORSDOF 3
ENDMDL
MODEL 8
REMARK VINA RESULT:    -2.725      7.176      8.567
REMARK INTER + INTRA:          -3.224
REMARK INTER:                  -3.189
REMARK INTRA:                  -0.035
REMARK UNBOUND:                -0.021
REMARK SMILES CCCCC(=O)[O-]
REMARK SMILES IDX 4 1 5 2 6 3 7 4 3 5 2 6 1 7
REMARK H PARENT
REMARK Flexibility Score: inf
ROOT
ATOM      1  C   UNL     1      33.389  55.846  16.473  1.00  0.00     0.053 C 
ENDROOT
BRANCH   1   2
ATOM      2  C   UNL     1      34.521  56.695  15.987  1.00  0.00     0.041 C 
ATOM      3  O   UNL     1      34.547  57.091  14.791  1.00  0.00    -0.550 OA
ATOM      4  O   UNL     1      35.571  57.008  16.839  1.00  0.00    -0.550 OA
ENDBRANCH   1   2
BRANCH   1   5
ATOM      5  C   UNL     1      32.060  56.338  15.891  1.00  0.00     0.006 C 
BRANCH   5   6
ATOM      6  C   UNL     1      31.115  56.810  17.002  1.00  0.00    -0.003 C 
ATOM      7  C   UNL     1      30.752  55.665  17.941  1.00  0.00     0.004 C 
ENDBRANCH   5   6
ENDBRANCH   1   5
TORSDOF 3
ENDMDL
