MODEL 1
REMARK VINA RESULT:    -3.687      0.000      0.000
REMARK INTER + INTRA:          -8.862
REMARK INTER:                  -6.704
REMARK INTRA:                  -2.158
REMARK UNBOUND:                -2.158
REMARK SMILES CCCCCCCCCCCCCCCC(=O)[O-]
REMARK SMILES IDX 9 1 10 2 11 3 12 4 13 5 14 6 15 7 16 8 17 9 18 10 8 11 7 12
REMARK SMILES IDX 6 13 5 14 4 15 3 16 2 17 1 18
REMARK H PARENT
REMARK Flexibility Score: inf
ROOT
ATOM      1  C   UNL     1     -23.426   3.300  25.214  1.00  0.00     0.000 C 
ENDROOT
BRANCH   1   2
ATOM      2  C   UNL     1     -23.426   4.789  24.824  1.00  0.00     0.000 C 
BRANCH   2   3
ATOM      3  C   UNL     1     -24.705   5.188  24.058  1.00  0.00     0.000 C 
BRANCH   3   4
ATOM      4  C   UNL     1     -24.479   6.303  23.021  1.00  0.00     0.000 C 
BRANCH   4   5
ATOM      5  C   UNL     1     -23.148   6.154  22.266  1.00  0.00     0.000 C 
BRANCH   5   6
ATOM      6  C   UNL     1     -22.448   7.503  22.036  1.00  0.00     0.006 C 
BRANCH   6   7
ATOM      7  C   UNL     1     -22.041   7.717  20.572  1.00  0.00     0.053 C 
BRANCH   7   8
ATOM      8  C   UNL     1     -21.078   6.658  20.139  1.00  0.00     0.041 C 
ATOM      9  O   UNL     1     -21.386   5.860  19.214  1.00  0.00    -0.550 OA
ATOM     10  O   UNL     1     -19.820   6.583  20.722  1.00  0.00    -0.550 OA
ENDBRANCH   7   8
ENDBRANCH   6   7
ENDBRANCH   5   6
ENDBRANCH   4   5
ENDBRANCH   3   4
ENDBRANCH   2   3
ENDBRANCH   1   2
BRANCH   1  11
ATOM     11  C   UNL     1     -24.797   2.637  25.008  1.00  0.00     0.000 C 
BRANCH  11  12
ATOM     12  C   UNL     1     -24.702   1.347  24.175  1.00  0.00    -0.000 C 
BRANCH  12  13
ATOM     13  C   UNL     1     -23.997   1.565  22.826  1.00  0.00    -0.000 C 
BRANCH  13  14
ATOM     14  C   UNL     1     -22.803   0.621  22.619  1.00  0.00    -0.000 C 
BRANCH  14  15
ATOM     15  C   UNL     1     -21.732   1.275  21.733  1.00  0.00    -0.000 C 
BRANCH  15  16
ATOM     16  C   UNL     1     -21.839   2.814  21.728  1.00  0.00    -0.000 C 
BRANCH  16  17
ATOM     17  C   UNL     1     -20.544   3.523  22.157  1.00  0.00    -0.003 C 
ATOM     18  C   UNL     1     -20.165   3.252  23.611  1.00  0.00     0.004 C 
ENDBRANCH  16  17
ENDBRANCH  15  16
ENDBRANCH  14  15
ENDBRANCH  13  14
ENDBRANCH  12  13
ENDBRANCH  11  12
ENDBRANCH   1  11
TORSDOF 14
ENDMDL
MODEL 2
REMARK VINA RESULT:    -3.647      2.888      5.751
REMARK INTER + INTRA:          -8.790
REMARK INTER:                  -7.209
REMARK INTRA:                  -1.582
REMARK UNBOUND:                -2.158
REMARK SMILES CCCCCCCCCCCCCCCC(=O)[O-]
REMARK SMILES IDX 9 1 10 2 11 3 12 4 13 5 14 6 15 7 16 8 17 9 18 10 8 11 7 12
REMARK SMILES IDX 6 13 5 14 4 15 3 16 2 17 1 18
REMARK H PARENT
REMARK Flexibility Score: inf
ROOT
ATOM      1  C   UNL     1     -24.624   5.586  23.603  1.00  0.00     0.000 C 
ENDROOT
BRANCH   1   2
ATOM      2  C   UNL     1     -24.449   4.525  24.705  1.00  0.00     0.000 C 
BRANCH   2   3
ATOM      3  C   UNL     1     -23.396   3.463  24.325  1.00  0.00     0.000 C 
BRANCH   3   4
ATOM      4  C   UNL     1     -24.004   2.174  23.744  1.00  0.00     0.000 C 
BRANCH   4   5
ATOM      5  C   UNL     1     -23.386   1.780  22.392  1.00  0.00     0.000 C 
BRANCH   5   6
ATOM      6  C   UNL     1     -22.270   0.733  22.538  1.00  0.00     0.006 C 
BRANCH   6   7
ATOM      7  C   UNL     1     -22.803  -0.706  22.532  1.00  0.00     0.053 C 
BRANCH   7   8
ATOM      8  C   UNL     1     -22.073  -1.527  21.518  1.00  0.00     0.041 C 
ATOM      9  O   UNL     1     -22.196  -1.275  20.289  1.00  0.00    -0.550 OA
ATOM     10  O   UNL     1     -21.216  -2.540  21.930  1.00  0.00    -0.550 OA
ENDBRANCH   7   8
ENDBRANCH   6   7
ENDBRANCH   5   6
ENDBRANCH   4   5
ENDBRANCH   3   4
ENDBRANCH   2   3
ENDBRANCH   1   2
BRANCH   1  11
ATOM     11  C   UNL     1     -23.317   5.870  22.846  1.00  0.00     0.000 C 
BRANCH  11  12
ATOM     12  C   UNL     1     -23.334   7.242  22.149  1.00  0.00    -0.000 C 
BRANCH  12  13
ATOM     13  C   UNL     1     -21.938   7.689  21.689  1.00  0.00    -0.000 C 
BRANCH  13  14
ATOM     14  C   UNL     1     -21.840   7.860  20.165  1.00  0.00    -0.000 C 
BRANCH  14  15
ATOM     15  C   UNL     1     -21.427   6.544  19.489  1.00  0.00    -0.000 C 
BRANCH  15  16
ATOM     16  C   UNL     1     -20.341   5.793  20.287  1.00  0.00    -0.000 C 
BRANCH  16  17
ATOM     17  C   UNL     1     -20.725   4.347  20.640  1.00  0.00    -0.003 C 
ATOM     18  C   UNL     1     -20.321   3.948  22.058  1.00  0.00     0.004 C 
ENDBRANCH  16  17
ENDBRANCH  15  16
ENDBRANCH  14  15
ENDBRANCH  13  14
ENDBRANCH  12  13
ENDBRANCH  11  12
ENDBRANCH   1  11
TORSDOF 14
ENDMDL
MODEL 3
REMARK VINA RESULT:    -3.611      2.943      5.479
REMARK INTER + INTRA:          -8.724
REMARK INTER:                  -6.755
REMARK INTRA:                  -1.969
REMARK UNBOUND:                -2.158
REMARK SMILES CCCCCCCCCCCCCCCC(=O)[O-]
REMARK SMILES IDX 9 1 10 2 11 3 12 4 13 5 14 6 15 7 16 8 17 9 18 10 8 11 7 12
REMARK SMILES IDX 6 13 5 14 4 15 3 16 2 17 1 18
REMARK H PARENT
REMARK Flexibility Score: inf
ROOT
ATOM      1  C   UNL     1     -23.979   6.559  22.580  1.00  0.00     0.000 C 
ENDROOT
BRANCH   1   2
ATOM      2  C   UNL     1     -24.207   5.417  23.586  1.00  0.00     0.000 C 
BRANCH   2   3
ATOM      3  C   UNL     1     -23.006   4.451  23.648  1.00  0.00     0.000 C 
BRANCH   3   4
ATOM      4  C   UNL     1     -23.411   2.971  23.768  1.00  0.00     0.000 C 
BRANCH   4   5
ATOM      5  C   UNL     1     -23.265   2.202  22.445  1.00  0.00     0.000 C 
BRANCH   5   6
ATOM      6  C   UNL     1     -22.672   0.798  22.641  1.00  0.00     0.006 C 
BRANCH   6   7
ATOM      7  C   UNL     1     -22.002   0.255  21.372  1.00  0.00     0.053 C 
BRANCH   7   8
ATOM      8  C   UNL     1     -22.300  -1.200  21.207  1.00  0.00     0.041 C 
ATOM      9  O   UNL     1     -22.303  -1.722  20.060  1.00  0.00    -0.550 OA
ATOM     10  O   UNL     1     -22.526  -1.994  22.325  1.00  0.00    -0.550 OA
ENDBRANCH   7   8
ENDBRANCH   6   7
ENDBRANCH   5   6
ENDBRANCH   4   5
ENDBRANCH   3   4
ENDBRANCH   2   3
ENDBRANCH   1   2
BRANCH   1  11
ATOM     11  C   UNL     1     -22.489   6.800  22.289  1.00  0.00     0.000 C 
BRANCH  11  12
ATOM     12  C   UNL     1     -22.269   7.570  20.975  1.00  0.00    -0.000 C 
BRANCH  12  13
ATOM     13  C   UNL     1     -21.382   6.803  19.982  1.00  0.00    -0.000 C 
BRANCH  13  14
ATOM     14  C   UNL     1     -21.423   5.283  20.200  1.00  0.00    -0.000 C 
BRANCH  14  15
ATOM     15  C   UNL     1     -20.032   4.742  20.566  1.00  0.00    -0.000 C 
BRANCH  15  16
ATOM     16  C   UNL     1     -20.107   3.549  21.542  1.00  0.00    -0.000 C 
BRANCH  16  17
ATOM     17  C   UNL     1     -19.346   3.780  22.857  1.00  0.00    -0.003 C 
ATOM     18  C   UNL     1     -19.628   2.710  23.909  1.00  0.00     0.004 C 
ENDBRANCH  16  17
ENDBRANCH  15  16
ENDBRANCH  14  15
ENDBRANCH  13  14
ENDBRANCH  12  13
ENDBRANCH  11  12
ENDBRANCH   1  11
TORSDOF 14
ENDMDL
MODEL 4
REMARK VINA RESULT:    -3.558      2.662      5.654
REMARK INTER + INTRA:          -8.627
REMARK INTER:                  -6.942
REMARK INTRA:                  -1.685
REMARK UNBOUND:                -2.158
REMARK SMILES CCCCCCCCCCCCCCCC(=O)[O-]
REMARK SMILES IDX 9 1 10 2 11 3 12 4 13 5 14 6 15 7 16 8 17 9 18 10 8 11 7 12
REMARK SMILES IDX 6 13 5 14 4 15 3 16 2 17 1 18
REMARK H PARENT
REMARK Flexibility Score: inf
ROOT
ATOM      1  C   UNL     1     -20.307   6.576  22.073  1.00  0.00     0.000 C 
ENDROOT
BRANCH   1   2
ATOM      2  C   UNL     1     -20.668   6.408  20.586  1.00  0.00     0.000 C 
BRANCH   2   3
ATOM      3  C   UNL     1     -20.953   4.935  20.221  1.00  0.00     0.000 C 
BRANCH   3   4
ATOM      4  C   UNL     1     -19.853   3.963  20.683  1.00  0.00     0.000 C 
BRANCH   4   5
ATOM      5  C   UNL     1     -20.417   2.678  21.311  1.00  0.00     0.000 C 
BRANCH   5   6
ATOM      6  C   UNL     1     -21.669   2.940  22.162  1.00  0.00     0.006 C 
BRANCH   6   7
ATOM      7  C   UNL     1     -22.756   1.875  21.961  1.00  0.00     0.053 C 
BRANCH   7   8
ATOM      8  C   UNL     1     -22.184   0.506  22.144  1.00  0.00     0.041 C 
ATOM      9  O   UNL     1     -22.127  -0.294  21.173  1.00  0.00    -0.550 OA
ATOM     10  O   UNL     1     -21.665   0.129  23.377  1.00  0.00    -0.550 OA
ENDBRANCH   7   8
ENDBRANCH   6   7
ENDBRANCH   5   6
ENDBRANCH   4   5
ENDBRANCH   3   4
ENDBRANCH   2   3
ENDBRANCH   1   2
BRANCH   1  11
ATOM     11  C   UNL     1     -21.533   6.894  22.945  1.00  0.00     0.000 C 
BRANCH  11  12
ATOM     12  C   UNL     1     -22.728   7.388  22.111  1.00  0.00    -0.000 C 
BRANCH  12  13
ATOM     13  C   UNL     1     -24.057   6.754  22.551  1.00  0.00    -0.000 C 
BRANCH  13  14
ATOM     14  C   UNL     1     -23.861   5.508  23.428  1.00  0.00    -0.000 C 
BRANCH  14  15
ATOM     15  C   UNL     1     -25.125   5.208  24.248  1.00  0.00    -0.000 C 
BRANCH  15  16
ATOM     16  C   UNL     1     -24.794   4.655  25.651  1.00  0.00    -0.000 C 
BRANCH  16  17
ATOM     17  C   UNL     1     -23.298   4.716  26.000  1.00  0.00    -0.003 C 
ATOM     18  C   UNL     1     -23.024   4.548  27.492  1.00  0.00     0.004 C 
ENDBRANCH  16  17
ENDBRANCH  15  16
ENDBRANCH  14  15
ENDBRANCH  13  14
ENDBRANCH  12  13
ENDBRANCH  11  12
ENDBRANCH   1  11
TORSDOF 14
ENDMDL
MODEL 5
REMARK VINA RESULT:    -3.554      1.366      2.422
REMARK INTER + INTRA:          -8.620
REMARK INTER:                  -7.525
REMARK INTRA:                  -1.095
REMARK UNBOUND:                -2.158
REMARK SMILES CCCCCCCCCCCCCCCC(=O)[O-]
REMARK SMILES IDX 9 1 10 2 11 3 12 4 13 5 14 6 15 7 16 8 17 9 18 10 8 11 7 12
REMARK SMILES IDX 6 13 5 14 4 15 3 16 2 17 1 18
REMARK H PARENT
REMARK Flexibility Score: inf
ROOT
ATOM      1  C   UNL     1     -23.774   3.432  24.885  1.00  0.00     0.000 C 
ENDROOT
BRANCH   1   2
ATOM      2  C   UNL     1     -25.023   4.317  25.048  1.00  0.00     0.000 C 
BRANCH   2   3
ATOM      3  C   UNL     1     -25.059   5.466  24.019  1.00  0.00     0.000 C 
BRANCH   3   4
ATOM      4  C   UNL     1     -23.762   5.600  23.201  1.00  0.00     0.000 C 
BRANCH   4   5
ATOM      5  C   UNL     1     -23.757   6.837  22.288  1.00  0.00     0.000 C 
BRANCH   5   6
ATOM      6  C   UNL     1     -22.361   7.467  22.158  1.00  0.00     0.006 C 
BRANCH   6   7
ATOM      7  C   UNL     1     -21.993   7.794  20.704  1.00  0.00     0.053 C 
BRANCH   7   8
ATOM      8  C   UNL     1     -21.160   6.699  20.119  1.00  0.00     0.041 C 
ATOM      9  O   UNL     1     -20.439   5.983  20.863  1.00  0.00    -0.550 OA
ATOM     10  O   UNL     1     -21.218   6.435  18.756  1.00  0.00    -0.550 OA
ENDBRANCH   7   8
ENDBRANCH   6   7
ENDBRANCH   5   6
ENDBRANCH   4   5
ENDBRANCH   3   4
ENDBRANCH   2   3
ENDBRANCH   1   2
BRANCH   1  11
ATOM     11  C   UNL     1     -24.109   1.932  24.901  1.00  0.00     0.000 C 
BRANCH  11  12
ATOM     12  C   UNL     1     -24.076   1.313  23.492  1.00  0.00    -0.000 C 
BRANCH  12  13
ATOM     13  C   UNL     1     -23.259   2.152  22.497  1.00  0.00    -0.000 C 
BRANCH  13  14
ATOM     14  C   UNL     1     -22.256   1.310  21.693  1.00  0.00    -0.000 C 
BRANCH  14  15
ATOM     15  C   UNL     1     -21.314   0.535  22.627  1.00  0.00    -0.000 C 
BRANCH  15  16
ATOM     16  C   UNL     1     -20.925  -0.843  22.052  1.00  0.00    -0.000 C 
BRANCH  16  17
ATOM     17  C   UNL     1     -22.117  -1.634  21.486  1.00  0.00    -0.003 C 
ATOM     18  C   UNL     1     -22.181  -1.611  19.960  1.00  0.00     0.004 C 
ENDBRANCH  16  17
ENDBRANCH  15  16
ENDBRANCH  14  15
ENDBRANCH  13  14
ENDBRANCH  12  13
ENDBRANCH  11  12
ENDBRANCH   1  11
TORSDOF 14
ENDMDL
MODEL 6
REMARK VINA RESULT:    -3.531      1.354      2.809
REMARK INTER + INTRA:          -8.579
REMARK INTER:                  -6.631
REMARK INTRA:                  -1.948
REMARK UNBOUND:                -2.158
REMARK SMILES CCCCCCCCCCCCCCCC(=O)[O-]
REMARK SMILES IDX 9 1 10 2 11 3 12 4 13 5 14 6 15 7 16 8 17 9 18 10 8 11 7 12
REMARK SMILES IDX 6 13 5 14 4 15 3 16 2 17 1 18
REMARK H PARENT
REMARK Flexibility Score: inf
ROOT
ATOM      1  C   UNL     1     -23.721   4.368  25.757  1.00  0.00     0.000 C 
ENDROOT
BRANCH   1   2
ATOM      2  C   UNL     1     -25.090   4.983  25.413  1.00  0.00     0.000 C 
BRANCH   2   3
ATOM      3  C   UNL     1     -25.125   5.557  23.981  1.00  0.00     0.000 C 
BRANCH   3   4
ATOM      4  C   UNL     1     -23.745   5.596  23.299  1.00  0.00     0.000 C 
BRANCH   4   5
ATOM      5  C   UNL     1     -23.636   6.702  22.237  1.00  0.00     0.000 C 
BRANCH   5   6
ATOM      6  C   UNL     1     -22.295   7.449  22.300  1.00  0.00     0.006 C 
BRANCH   6   7
ATOM      7  C   UNL     1     -21.873   8.025  20.942  1.00  0.00     0.053 C 
BRANCH   7   8
ATOM      8  C   UNL     1     -21.253   6.960  20.094  1.00  0.00     0.041 C 
ATOM      9  O   UNL     1     -21.457   6.939  18.851  1.00  0.00    -0.550 OA
ATOM     10  O   UNL     1     -20.408   6.019  20.669  1.00  0.00    -0.550 OA
ENDBRANCH   7   8
ENDBRANCH   6   7
ENDBRANCH   5   6
ENDBRANCH   4   5
ENDBRANCH   3   4
ENDBRANCH   2   3
ENDBRANCH   1   2
BRANCH   1  11
ATOM     11  C   UNL     1     -23.087   5.002  27.005  1.00  0.00     0.000 C 
BRANCH  11  12
ATOM     12  C   UNL     1     -21.550   5.028  26.928  1.00  0.00    -0.000 C 
BRANCH  12  13
ATOM     13  C   UNL     1     -21.034   5.347  25.515  1.00  0.00    -0.000 C 
BRANCH  13  14
ATOM     14  C   UNL     1     -20.126   4.244  24.951  1.00  0.00    -0.000 C 
BRANCH  14  15
ATOM     15  C   UNL     1     -20.515   3.897  23.506  1.00  0.00    -0.000 C 
BRANCH  15  16
ATOM     16  C   UNL     1     -21.302   2.572  23.415  1.00  0.00    -0.000 C 
BRANCH  16  17
ATOM     17  C   UNL     1     -22.178   2.462  22.157  1.00  0.00    -0.003 C 
ATOM     18  C   UNL     1     -23.522   1.787  22.420  1.00  0.00     0.004 C 
ENDBRANCH  16  17
ENDBRANCH  15  16
ENDBRANCH  14  15
ENDBRANCH  13  14
ENDBRANCH  12  13
ENDBRANCH  11  12
ENDBRANCH   1  11
TORSDOF 14
ENDMDL
MODEL 7
REMARK VINA RESULT:    -3.530      2.753      5.375
REMARK INTER + INTRA:          -8.576
REMARK INTER:                  -6.271
REMARK INTRA:                  -2.305
REMARK UNBOUND:                -2.158
REMARK SMILES CCCCCCCCCCCCCCCC(=O)[O-]
REMARK SMILES IDX 9 1 10 2 11 3 12 4 13 5 14 6 15 7 16 8 17 9 18 10 8 11 7 12
REMARK SMILES IDX 6 13 5 14 4 15 3 16 2 17 1 18
REMARK H PARENT
REMARK Flexibility Score: inf
ROOT
ATOM      1  C   UNL     1     -23.584   7.034  22.220  1.00  0.00     0.000 C 
ENDROOT
BRANCH   1   2
ATOM      2  C   UNL     1     -23.720   5.784  23.107  1.00  0.00     0.000 C 
BRANCH   2   3
ATOM      3  C   UNL     1     -22.469   5.554  23.981  1.00  0.00     0.000 C 
BRANCH   3   4
ATOM      4  C   UNL     1     -22.747   4.730  25.251  1.00  0.00     0.000 C 
BRANCH   4   5
ATOM      5  C   UNL     1     -24.249   4.573  25.543  1.00  0.00     0.000 C 
BRANCH   5   6
ATOM      6  C   UNL     1     -24.673   3.101  25.670  1.00  0.00     0.006 C 
BRANCH   6   7
ATOM      7  C   UNL     1     -24.612   2.351  24.333  1.00  0.00     0.053 C 
BRANCH   7   8
ATOM      8  C   UNL     1     -23.684   1.182  24.433  1.00  0.00     0.041 C 
ATOM      9  O   UNL     1     -23.732   0.258  23.578  1.00  0.00    -0.550 OA
ATOM     10  O   UNL     1     -22.730   1.138  25.442  1.00  0.00    -0.550 OA
ENDBRANCH   7   8
ENDBRANCH   6   7
ENDBRANCH   5   6
ENDBRANCH   4   5
ENDBRANCH   3   4
ENDBRANCH   2   3
ENDBRANCH   1   2
BRANCH   1  11
ATOM     11  C   UNL     1     -22.120   7.458  22.019  1.00  0.00     0.000 C 
BRANCH  11  12
ATOM     12  C   UNL     1     -21.794   7.745  20.543  1.00  0.00    -0.000 C 
BRANCH  12  13
ATOM     13  C   UNL     1     -21.089   6.567  19.853  1.00  0.00    -0.000 C 
BRANCH  13  14
ATOM     14  C   UNL     1     -19.932   5.996  20.686  1.00  0.00    -0.000 C 
BRANCH  14  15
ATOM     15  C   UNL     1     -20.002   4.462  20.746  1.00  0.00    -0.000 C 
BRANCH  15  16
ATOM     16  C   UNL     1     -21.448   3.949  20.915  1.00  0.00    -0.000 C 
BRANCH  16  17
ATOM     17  C   UNL     1     -21.551   2.657  21.741  1.00  0.00    -0.003 C 
ATOM     18  C   UNL     1     -20.556   2.604  22.898  1.00  0.00     0.004 C 
ENDBRANCH  16  17
ENDBRANCH  15  16
ENDBRANCH  14  15
ENDBRANCH  13  14
ENDBRANCH  12  13
ENDBRANCH  11  12
ENDBRANCH   1  11
TORSDOF 14
ENDMDL
MODEL 8
REMARK VINA RESULT:    -3.520     20.969     23.177
REMARK INTER + INTRA:          -8.560
REMARK INTER:                  -7.070
REMARK INTRA:                  -1.489
REMARK UNBOUND:                -2.158
REMARK SMILES CCCCCCCCCCCCCCCC(=O)[O-]
REMARK SMILES IDX 9 1 10 2 11 3 12 4 13 5 14 6 15 7 16 8 17 9 18 10 8 11 7 12
REMARK SMILES IDX 6 13 5 14 4 15 3 16 2 17 1 18
REMARK H PARENT
REMARK Flexibility Score: inf
ROOT
ATOM      1  C   UNL     1      -5.058  -9.516  31.611  1.00  0.00     0.000 C 
ENDROOT
BRANCH   1   2
ATOM      2  C   UNL     1      -5.241  -8.695  32.900  1.00  0.00     0.000 C 
BRANCH   2   3
ATOM      3  C   UNL     1      -6.466  -9.161  33.715  1.00  0.00     0.000 C 
BRANCH   3   4
ATOM      4  C   UNL     1      -6.289  -9.007  35.236  1.00  0.00     0.000 C 
BRANCH   4   5
ATOM      5  C   UNL     1      -5.155  -8.038  35.610  1.00  0.00     0.000 C 
BRANCH   5   6
ATOM      6  C   UNL     1      -5.676  -6.643  35.992  1.00  0.00     0.006 C 
BRANCH   6   7
ATOM      7  C   UNL     1      -5.496  -5.615  34.868  1.00  0.00     0.053 C 
BRANCH   7   8
ATOM      8  C   UNL     1      -6.826  -5.197  34.326  1.00  0.00     0.041 C 
ATOM      9  O   UNL     1      -7.381  -5.869  33.416  1.00  0.00    -0.550 OA
ATOM     10  O   UNL     1      -7.479  -4.094  34.862  1.00  0.00    -0.550 OA
ENDBRANCH   7   8
ENDBRANCH   6   7
ENDBRANCH   5   6
ENDBRANCH   4   5
ENDBRANCH   3   4
ENDBRANCH   2   3
ENDBRANCH   1   2
BRANCH   1  11
ATOM     11  C   UNL     1      -4.936 -11.024  31.884  1.00  0.00     0.000 C 
BRANCH  11  12
ATOM     12  C   UNL     1      -6.008 -11.839  31.140  1.00  0.00    -0.000 C 
BRANCH  12  13
ATOM     13  C   UNL     1      -7.154 -10.963  30.609  1.00  0.00    -0.000 C 
BRANCH  13  14
ATOM     14  C   UNL     1      -8.156 -11.751  29.751  1.00  0.00    -0.000 C 
BRANCH  14  15
ATOM     15  C   UNL     1      -9.559 -11.130  29.835  1.00  0.00    -0.000 C 
BRANCH  15  16
ATOM     16  C   UNL     1     -10.226 -11.376  31.204  1.00  0.00    -0.000 C 
BRANCH  16  17
ATOM     17  C   UNL     1     -10.902 -10.128  31.794  1.00  0.00    -0.003 C 
ATOM     18  C   UNL     1      -9.906  -9.116  32.355  1.00  0.00     0.004 C 
ENDBRANCH  16  17
ENDBRANCH  15  16
ENDBRANCH  14  15
ENDBRANCH  13  14
ENDBRANCH  12  13
ENDBRANCH  11  12
ENDBRANCH   1  11
TORSDOF 14
ENDMDL
MODEL 9
REMARK VINA RESULT:    -3.437      2.964      5.000
REMARK INTER + INTRA:          -8.409
REMARK INTER:                  -6.057
REMARK INTRA:                  -2.352
REMARK UNBOUND:                -2.158
REMARK SMILES CCCCCCCCCCCCCCCC(=O)[O-]
REMARK SMILES IDX 9 1 10 2 11 3 12 4 13 5 14 6 15 7 16 8 17 9 18 10 8 11 7 12
REMARK SMILES IDX 6 13 5 14 4 15 3 16 2 17 1 18
REMARK H PARENT
REMARK Flexibility Score: inf
ROOT
ATOM      1  C   UNL     1     -20.212   6.649  22.113  1.00  0.00     0.000 C 
ENDROOT
BRANCH   1   2
ATOM      2  C   UNL     1     -21.432   7.296  22.793  1.00  0.00     0.000 C 
BRANCH   2   3
ATOM      3  C   UNL     1     -22.640   7.401  21.838  1.00  0.00     0.000 C 
BRANCH   3   4
ATOM      4  C   UNL     1     -23.952   6.873  22.444  1.00  0.00     0.000 C 
BRANCH   4   5
ATOM      5  C   UNL     1     -23.758   5.581  23.255  1.00  0.00     0.000 C 
BRANCH   5   6
ATOM      6  C   UNL     1     -25.000   5.212  24.081  1.00  0.00     0.006 C 
BRANCH   6   7
ATOM      7  C   UNL     1     -24.652   4.757  25.504  1.00  0.00     0.053 C 
BRANCH   7   8
ATOM      8  C   UNL     1     -24.661   3.264  25.591  1.00  0.00     0.041 C 
ATOM      9  O   UNL     1     -25.105   2.575  24.633  1.00  0.00    -0.550 OA
ATOM     10  O   UNL     1     -24.132   2.630  26.707  1.00  0.00    -0.550 OA
ENDBRANCH   7   8
ENDBRANCH   6   7
ENDBRANCH   5   6
ENDBRANCH   4   5
ENDBRANCH   3   4
ENDBRANCH   2   3
ENDBRANCH   1   2
BRANCH   1  11
ATOM     11  C   UNL     1     -20.455   6.352  20.624  1.00  0.00     0.000 C 
BRANCH  11  12
ATOM     12  C   UNL     1     -20.368   4.849  20.308  1.00  0.00    -0.000 C 
BRANCH  12  13
ATOM     13  C   UNL     1     -21.486   4.038  20.983  1.00  0.00    -0.000 C 
BRANCH  13  14
ATOM     14  C   UNL     1     -20.967   2.763  21.666  1.00  0.00    -0.000 C 
BRANCH  14  15
ATOM     15  C   UNL     1     -21.430   2.695  23.129  1.00  0.00    -0.000 C 
BRANCH  15  16
ATOM     16  C   UNL     1     -20.407   3.326  24.096  1.00  0.00    -0.000 C 
BRANCH  16  17
ATOM     17  C   UNL     1     -21.048   3.991  25.325  1.00  0.00    -0.003 C 
ATOM     18  C   UNL     1     -20.395   5.320  25.696  1.00  0.00     0.004 C 
ENDBRANCH  16  17
ENDBRANCH  15  16
ENDBRANCH  14  15
ENDBRANCH  13  14
ENDBRANCH  12  13
ENDBRANCH  11  12
ENDBRANCH   1  11
TORSDOF 14
ENDMDL
