MODEL 1
REMARK VINA RESULT:    -5.309      0.000      0.000
REMARK INTER + INTRA:          -7.126
REMARK INTER:                  -7.171
REMARK INTRA:                   0.044
REMARK UNBOUND:                 0.044
REMARK SMILES O=c1c(-c2ccc(O)cc2)coc2c([C@H]3O[C@@H](CO)[C@@H](O)[C@H](O)[C@H]3O)c(O)ccc12
REMARK SMILES IDX 3 1 11 2 12 3 13 4 30 5 2 6 1 7 29 8 28 9 26 10 14 11 4 12
REMARK SMILES IDX 5 13 6 14 7 15 10 16 9 17 8 18 15 20 24 21 16 22 22 23 17 24
REMARK SMILES IDX 20 25 25 26 23 28 18 30 19 31 21 33 27 35
REMARK H PARENT 8 19 25 27 23 29 19 32 21 34 27 36
REMARK Flexibility Score: inf
ROOT
ATOM      1  C   UNL     1       6.840  19.096   1.981  1.00  0.00     0.065 A 
ATOM      2  C   UNL     1       7.351  20.049   2.871  1.00  0.00     0.208 A 
ATOM      3  O   UNL     1       7.400  19.807   4.177  1.00  0.00    -0.463 OA
ATOM      4  C   UNL     1       6.978  18.669   4.722  1.00  0.00     0.147 A 
ATOM      5  C   UNL     1       6.447  17.651   3.896  1.00  0.00     0.066 A 
ATOM      6  C   UNL     1       6.373  17.878   2.509  1.00  0.00     0.200 A 
ATOM      7  O   UNL     1       5.875  17.004   1.747  1.00  0.00    -0.288 OA
ATOM      8  C   UNL     1       6.013  16.447   4.471  1.00  0.00     0.020 A 
ATOM      9  C   UNL     1       6.117  16.250   5.845  1.00  0.00     0.047 A 
ATOM     10  C   UNL     1       6.645  17.248   6.674  1.00  0.00     0.125 A 
ATOM     11  C   UNL     1       7.063  18.483   6.122  1.00  0.00     0.069 A 
ENDROOT
BRANCH   1  12
ATOM     12  C   UNL     1       6.801  19.388   0.526  1.00  0.00    -0.011 A 
ATOM     13  C   UNL     1       6.244  18.464  -0.377  1.00  0.00     0.013 A 
ATOM     14  C   UNL     1       6.220  18.740  -1.747  1.00  0.00     0.047 A 
ATOM     15  C   UNL     1       6.754  19.940  -2.233  1.00  0.00     0.115 A 
ATOM     16  C   UNL     1       7.343  20.586   0.029  1.00  0.00     0.013 A 
ATOM     17  C   UNL     1       7.316  20.860  -1.342  1.00  0.00     0.047 A 
BRANCH  15  18
ATOM     18  O   UNL     1       6.734  20.226  -3.596  1.00  0.00    -0.508 OA
ATOM     19  H   UNL     1       5.863  20.301  -4.109  1.00  0.00     0.293 HD
ENDBRANCH  15  18
ENDBRANCH   1  12
BRANCH  11  20
ATOM     20  C   UNL     1       7.668  19.585   6.987  1.00  0.00     0.188 C 
ATOM     21  C   UNL     1       9.186  19.734   6.703  1.00  0.00     0.179 C 
ATOM     22  O   UNL     1       7.427  19.339   8.363  1.00  0.00    -0.362 OA
ATOM     23  C   UNL     1       9.813  20.814   7.618  1.00  0.00     0.177 C 
ATOM     24  C   UNL     1       7.826  20.451   9.149  1.00  0.00     0.176 C 
ATOM     25  C   UNL     1       9.361  20.655   9.083  1.00  0.00     0.177 C 
BRANCH  21  26
ATOM     26  O   UNL     1       9.873  18.511   6.821  1.00  0.00    -0.387 OA
ATOM     27  H   UNL     1       9.984  18.309   7.784  1.00  0.00     0.211 HD
ENDBRANCH  21  26
BRANCH  23  28
ATOM     28  O   UNL     1       9.441  22.092   7.164  1.00  0.00    -0.387 OA
ATOM     29  H   UNL     1       8.666  22.380   7.714  1.00  0.00     0.211 HD
ENDBRANCH  23  28
BRANCH  24  30
ATOM     30  C   UNL     1       7.329  20.256  10.588  1.00  0.00     0.191 C 
BRANCH  30  31
ATOM     31  O   UNL     1       7.445  18.914  10.974  1.00  0.00    -0.394 OA
ATOM     32  H   UNL     1       6.925  18.390  10.311  1.00  0.00     0.210 HD
ENDBRANCH  30  31
ENDBRANCH  24  30
BRANCH  25  33
ATOM     33  O   UNL     1      10.037  19.569   9.666  1.00  0.00    -0.388 OA
ATOM     34  H   UNL     1       9.426  19.163  10.335  1.00  0.00     0.211 HD
ENDBRANCH  25  33
ENDBRANCH  11  20
BRANCH  10  35
ATOM     35  O   UNL     1       6.754  17.002   8.043  1.00  0.00    -0.507 OA
ATOM     36  H   UNL     1       7.495  16.427   8.426  1.00  0.00     0.293 HD
ENDBRANCH  10  35
TORSDOF 9
ENDMDL
MODEL 2
REMARK VINA RESULT:    -4.115      1.567      2.145
REMARK INTER + INTRA:          -5.514
REMARK INTER:                  -4.975
REMARK INTRA:                  -0.539
REMARK UNBOUND:                 0.044
REMARK SMILES O=c1c(-c2ccc(O)cc2)coc2c([C@H]3O[C@@H](CO)[C@@H](O)[C@H](O)[C@H]3O)c(O)ccc12
REMARK SMILES IDX 3 1 11 2 12 3 13 4 30 5 2 6 1 7 29 8 28 9 26 10 14 11 4 12
REMARK SMILES IDX 5 13 6 14 7 15 10 16 9 17 8 18 15 20 24 21 16 22 22 23 17 24
REMARK SMILES IDX 20 25 25 26 23 28 18 30 19 31 21 33 27 35
REMARK H PARENT 8 19 25 27 23 29 19 32 21 34 27 36
REMARK Flexibility Score: inf
ROOT
ATOM      1  C   UNL     1       6.901  20.258   0.201  1.00  0.00     0.065 A 
ATOM      2  C   UNL     1       7.339  21.109   1.225  1.00  0.00     0.208 A 
ATOM      3  O   UNL     1       7.308  20.721   2.495  1.00  0.00    -0.463 OA
ATOM      4  C   UNL     1       6.869  19.525   2.880  1.00  0.00     0.147 A 
ATOM      5  C   UNL     1       6.409  18.603   1.913  1.00  0.00     0.066 A 
ATOM      6  C   UNL     1       6.420  18.985   0.558  1.00  0.00     0.200 A 
ATOM      7  O   UNL     1       5.985  18.199  -0.328  1.00  0.00    -0.288 OA
ATOM      8  C   UNL     1       5.957  17.339   2.320  1.00  0.00     0.020 A 
ATOM      9  C   UNL     1       5.976  16.989   3.667  1.00  0.00     0.047 A 
ATOM     10  C   UNL     1       6.435  17.890   4.635  1.00  0.00     0.125 A 
ATOM     11  C   UNL     1       6.868  19.184   4.254  1.00  0.00     0.069 A 
ENDROOT
BRANCH   1  12
ATOM     12  C   UNL     1       6.950  20.712  -1.211  1.00  0.00    -0.011 A 
ATOM     13  C   UNL     1       5.996  20.265  -2.142  1.00  0.00     0.013 A 
ATOM     14  C   UNL     1       6.054  20.689  -3.474  1.00  0.00     0.047 A 
ATOM     15  C   UNL     1       7.068  21.560  -3.891  1.00  0.00     0.115 A 
ATOM     16  C   UNL     1       7.969  21.581  -1.641  1.00  0.00     0.013 A 
ATOM     17  C   UNL     1       8.025  22.003  -2.973  1.00  0.00     0.047 A 
BRANCH  15  18
ATOM     18  O   UNL     1       7.135  21.989  -5.215  1.00  0.00    -0.508 OA
ATOM     19  H   UNL     1       7.084  21.335  -5.987  1.00  0.00     0.293 HD
ENDBRANCH  15  18
ENDBRANCH   1  12
BRANCH  11  20
ATOM     20  C   UNL     1       7.399  20.186   5.275  1.00  0.00     0.188 C 
ATOM     21  C   UNL     1       8.877  19.874   5.630  1.00  0.00     0.179 C 
ATOM     22  O   UNL     1       6.586  20.204   6.436  1.00  0.00    -0.362 OA
ATOM     23  C   UNL     1       9.401  20.856   6.706  1.00  0.00     0.177 C 
ATOM     24  C   UNL     1       6.971  21.261   7.301  1.00  0.00     0.176 C 
ATOM     25  C   UNL     1       8.397  21.028   7.863  1.00  0.00     0.177 C 
BRANCH  21  26
ATOM     26  O   UNL     1       9.057  18.538   6.035  1.00  0.00    -0.387 OA
ATOM     27  H   UNL     1       9.455  18.539   6.942  1.00  0.00     0.211 HD
ENDBRANCH  21  26
BRANCH  23  28
ATOM     28  O   UNL     1       9.641  22.113   6.122  1.00  0.00    -0.387 OA
ATOM     29  H   UNL     1      10.461  22.478   6.548  1.00  0.00     0.211 HD
ENDBRANCH  23  28
BRANCH  24  30
ATOM     30  C   UNL     1       5.927  21.408   8.416  1.00  0.00     0.191 C 
BRANCH  30  31
ATOM     31  O   UNL     1       6.510  21.941   9.574  1.00  0.00    -0.394 OA
ATOM     32  H   UNL     1       5.781  22.009  10.244  1.00  0.00     0.210 HD
ENDBRANCH  30  31
ENDBRANCH  24  30
BRANCH  25  33
ATOM     33  O   UNL     1       8.432  19.888   8.685  1.00  0.00    -0.388 OA
ATOM     34  H   UNL     1       8.016  19.142   8.178  1.00  0.00     0.211 HD
ENDBRANCH  25  33
ENDBRANCH  11  20
BRANCH  10  35
ATOM     35  O   UNL     1       6.460  17.493   5.972  1.00  0.00    -0.507 OA
ATOM     36  H   UNL     1       7.305  17.542   6.529  1.00  0.00     0.293 HD
ENDBRANCH  10  35
TORSDOF 9
ENDMDL
MODEL 3
REMARK VINA RESULT:    -3.624     21.840     23.916
REMARK INTER + INTRA:          -4.850
REMARK INTER:                  -4.041
REMARK INTRA:                  -0.810
REMARK UNBOUND:                 0.044
REMARK SMILES O=c1c(-c2ccc(O)cc2)coc2c([C@H]3O[C@@H](CO)[C@@H](O)[C@H](O)[C@H]3O)c(O)ccc12
REMARK SMILES IDX 3 1 11 2 12 3 13 4 30 5 2 6 1 7 29 8 28 9 26 10 14 11 4 12
REMARK SMILES IDX 5 13 6 14 7 15 10 16 9 17 8 18 15 20 24 21 16 22 22 23 17 24
REMARK SMILES IDX 20 25 25 26 23 28 18 30 19 31 21 33 27 35
REMARK H PARENT 8 19 25 27 23 29 19 32 21 34 27 36
REMARK Flexibility Score: inf
ROOT
ATOM      1  C   UNL     1      23.891  10.488  -7.661  1.00  0.00     0.065 A 
ATOM      2  C   UNL     1      24.789   9.439  -7.906  1.00  0.00     0.208 A 
ATOM      3  O   UNL     1      24.481   8.188  -7.583  1.00  0.00    -0.463 OA
ATOM      4  C   UNL     1      23.327   7.845  -7.017  1.00  0.00     0.147 A 
ATOM      5  C   UNL     1      22.362   8.840  -6.734  1.00  0.00     0.066 A 
ATOM      6  C   UNL     1      22.660  10.177  -7.055  1.00  0.00     0.200 A 
ATOM      7  O   UNL     1      21.835  11.095  -6.786  1.00  0.00    -0.288 OA
ATOM      8  C   UNL     1      21.142   8.475  -6.147  1.00  0.00     0.020 A 
ATOM      9  C   UNL     1      20.875   7.140  -5.857  1.00  0.00     0.047 A 
ATOM     10  C   UNL     1      21.819   6.144  -6.137  1.00  0.00     0.125 A 
ATOM     11  C   UNL     1      23.071   6.489  -6.703  1.00  0.00     0.069 A 
ENDROOT
BRANCH   1  12
ATOM     12  C   UNL     1      24.255  11.877  -8.036  1.00  0.00    -0.011 A 
ATOM     13  C   UNL     1      25.510  12.409  -7.687  1.00  0.00     0.013 A 
ATOM     14  C   UNL     1      25.842  13.722  -8.035  1.00  0.00     0.047 A 
ATOM     15  C   UNL     1      24.925  14.520  -8.731  1.00  0.00     0.115 A 
ATOM     16  C   UNL     1      23.338  12.687  -8.727  1.00  0.00     0.013 A 
ATOM     17  C   UNL     1      23.673  14.000  -9.074  1.00  0.00     0.047 A 
BRANCH  15  18
ATOM     18  O   UNL     1      25.246  15.829  -9.083  1.00  0.00    -0.508 OA
ATOM     19  H   UNL     1      24.528  16.529  -9.231  1.00  0.00     0.293 HD
ENDBRANCH  15  18
ENDBRANCH   1  12
BRANCH  11  20
ATOM     20  C   UNL     1      24.116   5.432  -7.047  1.00  0.00     0.188 C 
ATOM     21  C   UNL     1      23.851   4.838  -8.455  1.00  0.00     0.179 C 
ATOM     22  O   UNL     1      24.149   4.413  -6.060  1.00  0.00    -0.362 OA
ATOM     23  C   UNL     1      24.877   3.727  -8.784  1.00  0.00     0.177 C 
ATOM     24  C   UNL     1      25.240   3.534  -6.283  1.00  0.00     0.176 C 
ATOM     25  C   UNL     1      25.058   2.748  -7.607  1.00  0.00     0.177 C 
BRANCH  21  26
ATOM     26  O   UNL     1      22.533   4.366  -8.596  1.00  0.00    -0.387 OA
ATOM     27  H   UNL     1      22.556   3.532  -9.130  1.00  0.00     0.211 HD
ENDBRANCH  21  26
BRANCH  23  28
ATOM     28  O   UNL     1      26.122   4.307  -9.088  1.00  0.00    -0.387 OA
ATOM     29  H   UNL     1      25.990   4.864  -9.901  1.00  0.00     0.211 HD
ENDBRANCH  23  28
BRANCH  24  30
ATOM     30  C   UNL     1      25.394   2.602  -5.073  1.00  0.00     0.191 C 
BRANCH  30  31
ATOM     31  O   UNL     1      24.192   1.930  -4.811  1.00  0.00    -0.394 OA
ATOM     32  H   UNL     1      23.877   1.578  -5.683  1.00  0.00     0.210 HD
ENDBRANCH  30  31
ENDBRANCH  24  30
BRANCH  25  33
ATOM     33  O   UNL     1      23.945   1.893  -7.534  1.00  0.00    -0.388 OA
ATOM     34  H   UNL     1      23.511   2.045  -6.654  1.00  0.00     0.211 HD
ENDBRANCH  25  33
ENDBRANCH  11  20
BRANCH  10  35
ATOM     35  O   UNL     1      21.504   4.814  -5.854  1.00  0.00    -0.507 OA
ATOM     36  H   UNL     1      21.194   4.522  -4.935  1.00  0.00     0.293 HD
ENDBRANCH  10  35
TORSDOF 9
ENDMDL
MODEL 4
REMARK VINA RESULT:    -3.575     22.262     24.329
REMARK INTER + INTRA:          -4.784
REMARK INTER:                  -4.349
REMARK INTRA:                  -0.435
REMARK UNBOUND:                 0.044
REMARK SMILES O=c1c(-c2ccc(O)cc2)coc2c([C@H]3O[C@@H](CO)[C@@H](O)[C@H](O)[C@H]3O)c(O)ccc12
REMARK SMILES IDX 3 1 11 2 12 3 13 4 30 5 2 6 1 7 29 8 28 9 26 10 14 11 4 12
REMARK SMILES IDX 5 13 6 14 7 15 10 16 9 17 8 18 15 20 24 21 16 22 22 23 17 24
REMARK SMILES IDX 20 25 25 26 23 28 18 30 19 31 21 33 27 35
REMARK H PARENT 8 19 25 27 23 29 19 32 21 34 27 36
REMARK Flexibility Score: inf
ROOT
ATOM      1  C   UNL     1      24.743  10.776  -7.496  1.00  0.00     0.065 A 
ATOM      2  C   UNL     1      24.176   9.794  -8.319  1.00  0.00     0.208 A 
ATOM      3  O   UNL     1      24.185   8.515  -7.962  1.00  0.00    -0.463 OA
ATOM      4  C   UNL     1      24.721   8.081  -6.823  1.00  0.00     0.147 A 
ATOM      5  C   UNL     1      25.315   9.005  -5.932  1.00  0.00     0.066 A 
ATOM      6  C   UNL     1      25.329  10.367  -6.284  1.00  0.00     0.200 A 
ATOM      7  O   UNL     1      25.880  11.214  -5.527  1.00  0.00    -0.288 OA
ATOM      8  C   UNL     1      25.868   8.547  -4.727  1.00  0.00     0.020 A 
ATOM      9  C   UNL     1      25.821   7.194  -4.404  1.00  0.00     0.047 A 
ATOM     10  C   UNL     1      25.232   6.269  -5.274  1.00  0.00     0.125 A 
ATOM     11  C   UNL     1      24.692   6.701  -6.511  1.00  0.00     0.069 A 
ENDROOT
BRANCH   1  12
ATOM     12  C   UNL     1      24.714  12.200  -7.914  1.00  0.00    -0.011 A 
ATOM     13  C   UNL     1      25.723  13.089  -7.502  1.00  0.00     0.013 A 
ATOM     14  C   UNL     1      25.685  14.431  -7.892  1.00  0.00     0.047 A 
ATOM     15  C   UNL     1      24.638  14.902  -8.694  1.00  0.00     0.115 A 
ATOM     16  C   UNL     1      23.663  12.683  -8.713  1.00  0.00     0.013 A 
ATOM     17  C   UNL     1      23.628  14.026  -9.102  1.00  0.00     0.047 A 
BRANCH  15  18
ATOM     18  O   UNL     1      24.591  16.237  -9.088  1.00  0.00    -0.508 OA
ATOM     19  H   UNL     1      25.352  16.666  -9.603  1.00  0.00     0.293 HD
ENDBRANCH  15  18
ENDBRANCH   1  12
BRANCH  11  20
ATOM     20  C   UNL     1      24.018   5.730  -7.475  1.00  0.00     0.188 C 
ATOM     21  C   UNL     1      22.591   5.372  -6.985  1.00  0.00     0.179 C 
ATOM     22  O   UNL     1      24.806   4.563  -7.652  1.00  0.00    -0.362 OA
ATOM     23  C   UNL     1      21.925   4.345  -7.933  1.00  0.00     0.177 C 
ATOM     24  C   UNL     1      24.271   3.749  -8.683  1.00  0.00     0.176 C 
ATOM     25  C   UNL     1      22.882   3.189  -8.285  1.00  0.00     0.177 C 
BRANCH  21  26
ATOM     26  O   UNL     1      22.584   4.911  -5.655  1.00  0.00    -0.387 OA
ATOM     27  H   UNL     1      21.837   5.353  -5.177  1.00  0.00     0.211 HD
ENDBRANCH  21  26
BRANCH  23  28
ATOM     28  O   UNL     1      21.528   4.986  -9.120  1.00  0.00    -0.387 OA
ATOM     29  H   UNL     1      20.744   4.486  -9.470  1.00  0.00     0.211 HD
ENDBRANCH  23  28
BRANCH  24  30
ATOM     30  C   UNL     1      25.272   2.633  -9.015  1.00  0.00     0.191 C 
BRANCH  30  31
ATOM     31  O   UNL     1      26.003   2.270  -7.876  1.00  0.00    -0.394 OA
ATOM     32  H   UNL     1      26.810   2.849  -7.870  1.00  0.00     0.210 HD
ENDBRANCH  30  31
ENDBRANCH  24  30
BRANCH  25  33
ATOM     33  O   UNL     1      22.987   2.317  -7.187  1.00  0.00    -0.388 OA
ATOM     34  H   UNL     1      23.540   1.544  -7.474  1.00  0.00     0.211 HD
ENDBRANCH  25  33
ENDBRANCH  11  20
BRANCH  10  35
ATOM     35  O   UNL     1      25.184   4.925  -4.903  1.00  0.00    -0.507 OA
ATOM     36  H   UNL     1      24.613   4.604  -4.130  1.00  0.00     0.293 HD
ENDBRANCH  10  35
TORSDOF 9
ENDMDL
MODEL 5
REMARK VINA RESULT:    -2.341     22.000     24.008
REMARK INTER + INTRA:          -3.118
REMARK INTER:                  -3.733
REMARK INTRA:                   0.616
REMARK UNBOUND:                 0.044
REMARK SMILES O=c1c(-c2ccc(O)cc2)coc2c([C@H]3O[C@@H](CO)[C@@H](O)[C@H](O)[C@H]3O)c(O)ccc12
REMARK SMILES IDX 3 1 11 2 12 3 13 4 30 5 2 6 1 7 29 8 28 9 26 10 14 11 4 12
REMARK SMILES IDX 5 13 6 14 7 15 10 16 9 17 8 18 15 20 24 21 16 22 22 23 17 24
REMARK SMILES IDX 20 25 25 26 23 28 18 30 19 31 21 33 27 35
REMARK H PARENT 8 19 25 27 23 29 19 32 21 34 27 36
REMARK Flexibility Score: inf
ROOT
ATOM      1  C   UNL     1      23.768  10.950  -8.095  1.00  0.00     0.065 A 
ATOM      2  C   UNL     1      24.561   9.947  -7.521  1.00  0.00     0.208 A 
ATOM      3  O   UNL     1      24.147   8.685  -7.488  1.00  0.00    -0.463 OA
ATOM      4  C   UNL     1      22.977   8.289  -7.984  1.00  0.00     0.147 A 
ATOM      5  C   UNL     1      22.114   9.236  -8.583  1.00  0.00     0.066 A 
ATOM      6  C   UNL     1      22.518  10.583  -8.627  1.00  0.00     0.200 A 
ATOM      7  O   UNL     1      21.757  11.459  -9.125  1.00  0.00    -0.288 OA
ATOM      8  C   UNL     1      20.887   8.814  -9.115  1.00  0.00     0.020 A 
ATOM      9  C   UNL     1      20.527   7.470  -9.068  1.00  0.00     0.047 A 
ATOM     10  C   UNL     1      21.375   6.522  -8.483  1.00  0.00     0.125 A 
ATOM     11  C   UNL     1      22.606   6.925  -7.912  1.00  0.00     0.069 A 
ENDROOT
BRANCH   1  12
ATOM     12  C   UNL     1      24.255  12.352  -8.127  1.00  0.00    -0.011 A 
ATOM     13  C   UNL     1      25.280  12.775  -7.262  1.00  0.00     0.013 A 
ATOM     14  C   UNL     1      25.727  14.099  -7.289  1.00  0.00     0.047 A 
ATOM     15  C   UNL     1      25.153  15.017  -8.178  1.00  0.00     0.115 A 
ATOM     16  C   UNL     1      23.679  13.282  -9.010  1.00  0.00     0.013 A 
ATOM     17  C   UNL     1      24.128  14.606  -9.036  1.00  0.00     0.047 A 
BRANCH  15  18
ATOM     18  O   UNL     1      25.591  16.339  -8.214  1.00  0.00    -0.508 OA
ATOM     19  H   UNL     1      26.075  16.715  -9.021  1.00  0.00     0.293 HD
ENDBRANCH  15  18
ENDBRANCH   1  12
BRANCH  11  20
ATOM     20  C   UNL     1      23.570   5.920  -7.289  1.00  0.00     0.188 C 
ATOM     21  C   UNL     1      25.038   6.285  -7.629  1.00  0.00     0.179 C 
ATOM     22  O   UNL     1      23.261   4.599  -7.703  1.00  0.00    -0.362 OA
ATOM     23  C   UNL     1      26.015   5.236  -7.043  1.00  0.00     0.177 C 
ATOM     24  C   UNL     1      24.036   3.653  -6.983  1.00  0.00     0.176 C 
ATOM     25  C   UNL     1      25.542   3.796  -7.322  1.00  0.00     0.177 C 
BRANCH  21  26
ATOM     26  O   UNL     1      25.241   6.447  -9.012  1.00  0.00    -0.387 OA
ATOM     27  H   UNL     1      25.014   7.381  -9.252  1.00  0.00     0.211 HD
ENDBRANCH  21  26
BRANCH  23  28
ATOM     28  O   UNL     1      26.125   5.417  -5.653  1.00  0.00    -0.387 OA
ATOM     29  H   UNL     1      25.411   4.869  -5.233  1.00  0.00     0.211 HD
ENDBRANCH  23  28
BRANCH  24  30
ATOM     30  C   UNL     1      23.508   2.242  -7.274  1.00  0.00     0.191 C 
BRANCH  30  31
ATOM     31  O   UNL     1      23.071   2.141  -8.602  1.00  0.00    -0.394 OA
ATOM     32  H   UNL     1      23.659   2.739  -9.132  1.00  0.00     0.210 HD
ENDBRANCH  30  31
ENDBRANCH  24  30
BRANCH  25  33
ATOM     33  O   UNL     1      25.785   3.476  -8.670  1.00  0.00    -0.388 OA
ATOM     34  H   UNL     1      24.915   3.226  -9.077  1.00  0.00     0.211 HD
ENDBRANCH  25  33
ENDBRANCH  11  20
BRANCH  10  35
ATOM     35  O   UNL     1      20.988   5.181  -8.477  1.00  0.00    -0.507 OA
ATOM     36  H   UNL     1      21.398   4.509  -7.839  1.00  0.00     0.293 HD
ENDBRANCH  10  35
TORSDOF 9
ENDMDL
