MODEL 1
REMARK VINA RESULT:    -2.872      0.000      0.000
REMARK INTER + INTRA:          -3.521
REMARK INTER:                  -3.375
REMARK INTRA:                  -0.145
REMARK UNBOUND:                -0.145
REMARK SMILES O=C([O-])CCC(=O)[O-]
REMARK SMILES IDX 4 1 2 2 1 3 3 4 5 5 6 6 7 7 8 8
REMARK H PARENT
REMARK Flexibility Score: inf
ROOT
ATOM      1  C   UNL     1       7.048  -0.035   1.027  1.00  0.00     0.059 C 
ENDROOT
BRANCH   1   2
ATOM      2  C   UNL     1       5.919   0.423   1.901  1.00  0.00     0.042 C 
ATOM      3  O   UNL     1       5.347  -0.389   2.676  1.00  0.00    -0.550 OA
ATOM      4  O   UNL     1       5.526   1.755   1.887  1.00  0.00    -0.550 OA
ENDBRANCH   1   2
BRANCH   1   5
ATOM      5  C   UNL     1       6.566  -1.018  -0.045  1.00  0.00     0.059 C 
BRANCH   5   6
ATOM      6  C   UNL     1       5.892  -0.310  -1.180  1.00  0.00     0.042 C 
ATOM      7  O   UNL     1       4.925  -0.848  -1.778  1.00  0.00    -0.550 OA
ATOM      8  O   UNL     1       6.310   0.962  -1.551  1.00  0.00    -0.550 OA
ENDBRANCH   5   6
ENDBRANCH   1   5
TORSDOF 3
ENDMDL
MODEL 2
REMARK VINA RESULT:    -2.851      0.121      3.339
REMARK INTER + INTRA:          -3.497
REMARK INTER:                  -3.334
REMARK INTRA:                  -0.163
REMARK UNBOUND:                -0.145
REMARK SMILES O=C([O-])CCC(=O)[O-]
REMARK SMILES IDX 4 1 2 2 1 3 3 4 5 5 6 6 7 7 8 8
REMARK H PARENT
REMARK Flexibility Score: inf
ROOT
ATOM      1  C   UNL     1       6.694  -0.956  -0.020  1.00  0.00     0.059 C 
ENDROOT
BRANCH   1   2
ATOM      2  C   UNL     1       5.940  -0.244  -1.102  1.00  0.00     0.042 C 
ATOM      3  O   UNL     1       4.899  -0.755  -1.592  1.00  0.00    -0.550 OA
ATOM      4  O   UNL     1       6.365   1.004  -1.539  1.00  0.00    -0.550 OA
ENDBRANCH   1   2
BRANCH   1   5
ATOM      5  C   UNL     1       7.120   0.005   1.096  1.00  0.00     0.059 C 
BRANCH   5   6
ATOM      6  C   UNL     1       5.951   0.437   1.928  1.00  0.00     0.042 C 
ATOM      7  O   UNL     1       5.311  -0.405   2.608  1.00  0.00    -0.550 OA
ATOM      8  O   UNL     1       5.595   1.780   1.981  1.00  0.00    -0.550 OA
ENDBRANCH   5   6
ENDBRANCH   1   5
TORSDOF 3
ENDMDL
MODEL 3
REMARK VINA RESULT:    -2.615      3.244      4.300
REMARK INTER + INTRA:          -3.220
REMARK INTER:                  -3.132
REMARK INTRA:                  -0.087
REMARK UNBOUND:                -0.145
REMARK SMILES O=C([O-])CCC(=O)[O-]
REMARK SMILES IDX 4 1 2 2 1 3 3 4 5 5 6 6 7 7 8 8
REMARK H PARENT
REMARK Flexibility Score: inf
ROOT
ATOM      1  C   UNL     1       4.473   3.895   2.112  1.00  0.00     0.059 C 
ENDROOT
BRANCH   1   2
ATOM      2  C   UNL     1       2.975   3.925   2.154  1.00  0.00     0.042 C 
ATOM      3  O   UNL     1       2.313   4.092   1.096  1.00  0.00    -0.550 OA
ATOM      4  O   UNL     1       2.310   3.730   3.358  1.00  0.00    -0.550 OA
ENDBRANCH   1   2
BRANCH   1   5
ATOM      5  C   UNL     1       4.986   3.258   0.816  1.00  0.00     0.059 C 
BRANCH   5   6
ATOM      6  C   UNL     1       5.411   1.837   1.029  1.00  0.00     0.042 C 
ATOM      7  O   UNL     1       5.643   1.412   2.191  1.00  0.00    -0.550 OA
ATOM      8  O   UNL     1       5.513   0.973  -0.054  1.00  0.00    -0.550 OA
ENDBRANCH   5   6
ENDBRANCH   1   5
TORSDOF 3
ENDMDL
MODEL 4
REMARK VINA RESULT:    -2.608      1.621      1.729
REMARK INTER + INTRA:          -3.211
REMARK INTER:                  -3.035
REMARK INTRA:                  -0.176
REMARK UNBOUND:                -0.145
REMARK SMILES O=C([O-])CCC(=O)[O-]
REMARK SMILES IDX 4 1 2 2 1 3 3 4 5 5 6 6 7 7 8 8
REMARK H PARENT
REMARK Flexibility Score: inf
ROOT
ATOM      1  C   UNL     1       5.672   0.812   0.386  1.00  0.00     0.059 C 
ENDROOT
BRANCH   1   2
ATOM      2  C   UNL     1       6.071   0.355   1.756  1.00  0.00     0.042 C 
ATOM      3  O   UNL     1       5.267  -0.307   2.464  1.00  0.00    -0.550 OA
ATOM      4  O   UNL     1       7.347   0.626   2.235  1.00  0.00    -0.550 OA
ENDBRANCH   1   2
BRANCH   1   5
ATOM      5  C   UNL     1       5.559  -0.364  -0.590  1.00  0.00     0.059 C 
BRANCH   5   6
ATOM      6  C   UNL     1       6.872  -1.064  -0.765  1.00  0.00     0.042 C 
ATOM      7  O   UNL     1       6.990  -2.278  -0.458  1.00  0.00    -0.550 OA
ATOM      8  O   UNL     1       7.956  -0.381  -1.305  1.00  0.00    -0.550 OA
ENDBRANCH   5   6
ENDBRANCH   1   5
TORSDOF 3
ENDMDL
MODEL 5
REMARK VINA RESULT:    -2.606     13.045     13.667
REMARK INTER + INTRA:          -3.208
REMARK INTER:                  -3.100
REMARK INTRA:                  -0.108
REMARK UNBOUND:                -0.145
REMARK SMILES O=C([O-])CCC(=O)[O-]
REMARK SMILES IDX 4 1 2 2 1 3 3 4 5 5 6 6 7 7 8 8
REMARK H PARENT
REMARK Flexibility Score: inf
ROOT
ATOM      1  C   UNL     1      -3.761   8.670  -4.233  1.00  0.00     0.059 C 
ENDROOT
BRANCH   1   2
ATOM      2  C   UNL     1      -3.018   9.254  -3.070  1.00  0.00     0.042 C 
ATOM      3  O   UNL     1      -1.910   9.826  -3.248  1.00  0.00    -0.550 OA
ATOM      4  O   UNL     1      -3.568   9.201  -1.796  1.00  0.00    -0.550 OA
ENDBRANCH   1   2
BRANCH   1   5
ATOM      5  C   UNL     1      -5.179   8.243  -3.837  1.00  0.00     0.059 C 
BRANCH   5   6
ATOM      6  C   UNL     1      -5.341   6.755  -3.883  1.00  0.00     0.042 C 
ATOM      7  O   UNL     1      -6.416   6.246  -4.295  1.00  0.00    -0.550 OA
ATOM      8  O   UNL     1      -4.288   5.930  -3.508  1.00  0.00    -0.550 OA
ENDBRANCH   5   6
ENDBRANCH   1   5
TORSDOF 3
ENDMDL
MODEL 6
REMARK VINA RESULT:    -2.594      2.136      3.735
REMARK INTER + INTRA:          -3.194
REMARK INTER:                  -3.088
REMARK INTRA:                  -0.106
REMARK UNBOUND:                -0.145
REMARK SMILES O=C([O-])CCC(=O)[O-]
REMARK SMILES IDX 4 1 2 2 1 3 3 4 5 5 6 6 7 7 8 8
REMARK H PARENT
REMARK Flexibility Score: inf
ROOT
ATOM      1  C   UNL     1       6.329   1.532   1.475  1.00  0.00     0.059 C 
ENDROOT
BRANCH   1   2
ATOM      2  C   UNL     1       5.951   0.087   1.602  1.00  0.00     0.042 C 
ATOM      3  O   UNL     1       5.322  -0.319   2.615  1.00  0.00    -0.550 OA
ATOM      4  O   UNL     1       6.260  -0.803   0.581  1.00  0.00    -0.550 OA
ENDBRANCH   1   2
BRANCH   1   5
ATOM      5  C   UNL     1       5.264   2.327   0.711  1.00  0.00     0.059 C 
BRANCH   5   6
ATOM      6  C   UNL     1       4.494   3.234   1.620  1.00  0.00     0.042 C 
ATOM      7  O   UNL     1       4.854   3.389   2.816  1.00  0.00    -0.550 OA
ATOM      8  O   UNL     1       3.399   3.939   1.133  1.00  0.00    -0.550 OA
ENDBRANCH   5   6
ENDBRANCH   1   5
TORSDOF 3
ENDMDL
MODEL 7
REMARK VINA RESULT:    -2.555      2.379      3.583
REMARK INTER + INTRA:          -3.149
REMARK INTER:                  -3.048
REMARK INTRA:                  -0.101
REMARK UNBOUND:                -0.145
REMARK SMILES O=C([O-])CCC(=O)[O-]
REMARK SMILES IDX 4 1 2 2 1 3 3 4 5 5 6 6 7 7 8 8
REMARK H PARENT
REMARK Flexibility Score: inf
ROOT
ATOM      1  C   UNL     1       5.990   2.479   0.517  1.00  0.00     0.059 C 
ENDROOT
BRANCH   1   2
ATOM      2  C   UNL     1       4.849   3.353   0.941  1.00  0.00     0.042 C 
ATOM      3  O   UNL     1       4.487   4.320   0.219  1.00  0.00    -0.550 OA
ATOM      4  O   UNL     1       4.159   3.075   2.114  1.00  0.00    -0.550 OA
ENDBRANCH   1   2
BRANCH   1   5
ATOM      5  C   UNL     1       5.576   1.006   0.448  1.00  0.00     0.059 C 
BRANCH   5   6
ATOM      6  C   UNL     1       6.142   0.219   1.590  1.00  0.00     0.042 C 
ATOM      7  O   UNL     1       7.384   0.043   1.686  1.00  0.00    -0.550 OA
ATOM      8  O   UNL     1       5.297  -0.287   2.571  1.00  0.00    -0.550 OA
ENDBRANCH   5   6
ENDBRANCH   1   5
TORSDOF 3
ENDMDL
MODEL 8
REMARK VINA RESULT:    -2.506     12.197     13.053
REMARK INTER + INTRA:          -3.092
REMARK INTER:                  -2.998
REMARK INTRA:                  -0.093
REMARK UNBOUND:                -0.145
REMARK SMILES O=C([O-])CCC(=O)[O-]
REMARK SMILES IDX 4 1 2 2 1 3 3 4 5 5 6 6 7 7 8 8
REMARK H PARENT
REMARK Flexibility Score: inf
ROOT
ATOM      1  C   UNL     1      -4.180   7.940  -2.086  1.00  0.00     0.059 C 
ENDROOT
BRANCH   1   2
ATOM      2  C   UNL     1      -4.485   7.151  -3.324  1.00  0.00     0.042 C 
ATOM      3  O   UNL     1      -4.322   5.903  -3.337  1.00  0.00    -0.550 OA
ATOM      4  O   UNL     1      -4.986   7.793  -4.450  1.00  0.00    -0.550 OA
ENDBRANCH   1   2
BRANCH   1   5
ATOM      5  C   UNL     1      -4.923   7.382  -0.867  1.00  0.00     0.059 C 
BRANCH   5   6
ATOM      6  C   UNL     1      -3.973   6.960   0.212  1.00  0.00     0.042 C 
ATOM      7  O   UNL     1      -3.654   5.750   0.338  1.00  0.00    -0.550 OA
ATOM      8  O   UNL     1      -3.412   7.912   1.054  1.00  0.00    -0.550 OA
ENDBRANCH   5   6
ENDBRANCH   1   5
TORSDOF 3
ENDMDL
MODEL 9
REMARK VINA RESULT:    -2.506      5.955      6.715
REMARK INTER + INTRA:          -3.091
REMARK INTER:                  -2.970
REMARK INTRA:                  -0.121
REMARK UNBOUND:                -0.145
REMARK SMILES O=C([O-])CCC(=O)[O-]
REMARK SMILES IDX 4 1 2 2 1 3 3 4 5 5 6 6 7 7 8 8
REMARK H PARENT
REMARK Flexibility Score: inf
ROOT
ATOM      1  C   UNL     1       2.512  -2.026  -3.767  1.00  0.00     0.059 C 
ENDROOT
BRANCH   1   2
ATOM      2  C   UNL     1       1.803  -3.300  -4.115  1.00  0.00     0.042 C 
ATOM      3  O   UNL     1       1.063  -3.866  -3.268  1.00  0.00    -0.550 OA
ATOM      4  O   UNL     1       1.929  -3.840  -5.389  1.00  0.00    -0.550 OA
ENDBRANCH   1   2
BRANCH   1   5
ATOM      5  C   UNL     1       3.070  -1.334  -5.015  1.00  0.00     0.059 C 
BRANCH   5   6
ATOM      6  C   UNL     1       4.568  -1.369  -5.043  1.00  0.00     0.042 C 
ATOM      7  O   UNL     1       5.177  -2.469  -4.996  1.00  0.00    -0.550 OA
ATOM      8  O   UNL     1       5.288  -0.186  -5.160  1.00  0.00    -0.550 OA
ENDBRANCH   5   6
ENDBRANCH   1   5
TORSDOF 3
ENDMDL
