MODEL 1
REMARK VINA RESULT:    38.910      0.000      0.000
REMARK INTER + INTRA:          46.426
REMARK INTER:                  40.048
REMARK INTRA:                   6.378
REMARK UNBOUND:                 6.378
REMARK SMILES O=c1c(O[C@H]2O[C@@H](CO)[C@H](O)[C@H](O)[C@H]2O)c(-c2ccc(O)c(O)c2)oc2cc(O)cc(O)c12
REMARK SMILES IDX 4 1 3 2 16 3 25 4 2 5 26 6 1 7 33 8 27 9 31 10 28 11 30 12
REMARK SMILES IDX 17 13 18 14 19 15 20 16 24 17 22 18 21 19 23 21 32 23 29 25
REMARK SMILES IDX 5 27 14 28 6 29 12 30 7 31 10 32 15 33 13 35 8 37 9 38 11 40
REMARK H PARENT 21 20 23 22 32 24 29 26 15 34 13 36 9 39 11 41
REMARK Flexibility Score: inf
ROOT
ATOM      1  O   UNL     1      14.443 -12.131  30.331  1.00  0.00    -0.454 OA
ENDROOT
BRANCH   1   2
ATOM      2  C   UNL     1      12.732 -11.240  30.613  1.00  0.00     0.214 A 
ATOM      3  C   UNL     1      12.340  -9.638  29.667  1.00  0.00     0.180 A 
ATOM      4  O   UNL     1      11.745  -8.384  30.365  1.00  0.00    -0.452 OA
ATOM      5  C   UNL     1      11.554 -10.772  28.919  1.00  0.00     0.239 A 
ATOM      6  C   UNL     1      12.523  -9.429  29.157  1.00  0.00     0.146 A 
ATOM      7  O   UNL     1      10.198  -9.708  28.394  1.00  0.00    -0.285 OA
ATOM      8  C   UNL     1      12.657 -11.333  28.346  1.00  0.00     0.111 A 
ATOM      9  C   UNL     1      12.295  -9.179  27.498  1.00  0.00     0.094 A 
ATOM     10  C   UNL     1      14.665 -12.385  28.323  1.00  0.00     0.134 A 
ATOM     11  C   UNL     1      13.604 -11.959  26.451  1.00  0.00     0.123 A 
ATOM     12  C   UNL     1      14.617 -12.979  27.054  1.00  0.00     0.093 A 
BRANCH   3  13
ATOM     13  C   UNL     1      14.328 -10.059  26.980  1.00  0.00     0.025 A 
ATOM     14  C   UNL     1      14.521  -9.519  23.579  1.00  0.00     0.016 A 
ATOM     15  C   UNL     1      15.613  -8.669  23.237  1.00  0.00     0.051 A 
ATOM     16  C   UNL     1      15.428  -7.058  23.017  1.00  0.00     0.157 A 
ATOM     17  C   UNL     1      15.075  -7.684  27.186  1.00  0.00     0.062 A 
ATOM     18  C   UNL     1      15.261  -6.676  25.114  1.00  0.00     0.158 A 
BRANCH  16  19
ATOM     19  O   UNL     1      13.630  -7.023  21.642  1.00  0.00    -0.504 OA
ATOM     20  H   UNL     1      13.531  -8.171  22.013  1.00  0.00     0.293 HD
ENDBRANCH  16  19
BRANCH  18  21
ATOM     21  O   UNL     1      14.938  -4.953  24.691  1.00  0.00    -0.504 OA
ATOM     22  H   UNL     1      15.552  -3.897  24.620  1.00  0.00     0.293 HD
ENDBRANCH  18  21
ENDBRANCH   3  13
BRANCH  10  23
ATOM     23  O   UNL     1      16.170 -12.946  27.168  1.00  0.00    -0.507 OA
ATOM     24  H   UNL     1      17.316 -12.504  26.972  1.00  0.00     0.293 HD
ENDBRANCH  10  23
BRANCH  11  25
ATOM     25  O   UNL     1      12.748 -12.955  26.339  1.00  0.00    -0.508 OA
ATOM     26  H   UNL     1      13.338 -13.348  26.854  1.00  0.00     0.293 HD
ENDBRANCH  11  25
ENDBRANCH   1   2
BRANCH   1  27
ATOM     27  C   UNL     1      13.092 -13.842  30.264  1.00  0.00     0.339 C 
ATOM     28  C   UNL     1      14.805 -15.151  30.103  1.00  0.00     0.214 C 
ATOM     29  O   UNL     1      11.820 -14.169  28.840  1.00  0.00    -0.332 OA
ATOM     30  C   UNL     1      14.136 -15.138  27.470  1.00  0.00     0.180 C 
ATOM     31  C   UNL     1      10.640 -13.487  27.154  1.00  0.00     0.179 C 
ATOM     32  C   UNL     1      10.876 -14.527  25.370  1.00  0.00     0.177 C 
BRANCH  28  33
ATOM     33  O   UNL     1      16.199 -15.024  31.522  1.00  0.00    -0.384 OA
ATOM     34  H   UNL     1      16.542 -16.307  32.552  1.00  0.00     0.211 HD
ENDBRANCH  28  33
BRANCH  30  35
ATOM     35  O   UNL     1      15.197 -16.871  26.737  1.00  0.00    -0.387 OA
ATOM     36  H   UNL     1      14.847 -17.821  27.302  1.00  0.00     0.211 HD
ENDBRANCH  30  35
BRANCH  31  37
ATOM     37  C   UNL     1       9.888 -12.395  25.986  1.00  0.00     0.191 C 
BRANCH  37  38
ATOM     38  O   UNL     1       9.067 -12.290  27.789  1.00  0.00    -0.394 OA
ATOM     39  H   UNL     1       8.668 -10.854  28.258  1.00  0.00     0.210 HD
ENDBRANCH  37  38
ENDBRANCH  31  37
BRANCH  32  40
ATOM     40  O   UNL     1      11.274 -15.893  23.623  1.00  0.00    -0.387 OA
ATOM     41  H   UNL     1      12.570 -15.653  25.131  1.00  0.00     0.211 HD
ENDBRANCH  32  40
ENDBRANCH   1  27
TORSDOF 12
ENDMDL
MODEL 2
REMARK VINA RESULT:    41.331      2.345      8.146
REMARK INTER + INTRA:          48.917
REMARK INTER:                  42.793
REMARK INTRA:                   6.124
REMARK UNBOUND:                 6.378
REMARK SMILES O=c1c(O[C@H]2O[C@@H](CO)[C@H](O)[C@H](O)[C@H]2O)c(-c2ccc(O)c(O)c2)oc2cc(O)cc(O)c12
REMARK SMILES IDX 4 1 3 2 16 3 25 4 2 5 26 6 1 7 33 8 27 9 31 10 28 11 30 12
REMARK SMILES IDX 17 13 18 14 19 15 20 16 24 17 22 18 21 19 23 21 32 23 29 25
REMARK SMILES IDX 5 27 14 28 6 29 12 30 7 31 10 32 15 33 13 35 8 37 9 38 11 40
REMARK H PARENT 21 20 23 22 32 24 29 26 15 34 13 36 9 39 11 41
REMARK Flexibility Score: inf
ROOT
ATOM      1  O   UNL     1      14.629  -9.507  26.485  1.00  0.00    -0.454 OA
ENDROOT
BRANCH   1   2
ATOM      2  C   UNL     1      13.608  -8.889  28.026  1.00  0.00     0.214 A 
ATOM      3  C   UNL     1      12.026  -9.814  28.536  1.00  0.00     0.180 A 
ATOM      4  O   UNL     1      10.703  -9.074  28.876  1.00  0.00    -0.452 OA
ATOM      5  C   UNL     1      13.135 -10.289  29.541  1.00  0.00     0.239 A 
ATOM      6  C   UNL     1      11.855 -10.364  28.466  1.00  0.00     0.146 A 
ATOM      7  O   UNL     1      12.003 -10.547  30.918  1.00  0.00    -0.285 OA
ATOM      8  C   UNL     1      13.798 -11.067  28.638  1.00  0.00     0.111 A 
ATOM      9  C   UNL     1      11.664 -11.936  29.064  1.00  0.00     0.094 A 
ATOM     10  C   UNL     1      14.989 -11.492  26.757  1.00  0.00     0.134 A 
ATOM     11  C   UNL     1      14.574 -13.089  28.203  1.00  0.00     0.123 A 
ATOM     12  C   UNL     1      15.636 -12.677  27.137  1.00  0.00     0.093 A 
BRANCH   3  13
ATOM     13  C   UNL     1      12.708 -12.859  27.265  1.00  0.00     0.025 A 
ATOM     14  C   UNL     1      15.143 -15.295  27.096  1.00  0.00     0.016 A 
ATOM     15  C   UNL     1      14.702 -16.527  27.661  1.00  0.00     0.051 A 
ATOM     16  C   UNL     1      15.038 -16.948  29.206  1.00  0.00     0.157 A 
ATOM     17  C   UNL     1      12.131 -13.885  29.468  1.00  0.00     0.062 A 
ATOM     18  C   UNL     1      13.590 -15.595  30.009  1.00  0.00     0.158 A 
BRANCH  16  19
ATOM     19  O   UNL     1      17.259 -16.518  29.288  1.00  0.00    -0.504 OA
ATOM     20  H   UNL     1      17.220 -16.967  28.164  1.00  0.00     0.293 HD
ENDBRANCH  16  19
BRANCH  18  21
ATOM     21  O   UNL     1      14.173 -16.073  31.647  1.00  0.00    -0.504 OA
ATOM     22  H   UNL     1      15.204 -16.472  32.172  1.00  0.00     0.293 HD
ENDBRANCH  18  21
ENDBRANCH   3  13
BRANCH  10  23
ATOM     23  O   UNL     1      15.707 -12.929  25.602  1.00  0.00    -0.507 OA
ATOM     24  H   UNL     1      15.687 -13.139  24.376  1.00  0.00     0.293 HD
ENDBRANCH  10  23
BRANCH  11  25
ATOM     25  O   UNL     1      15.512 -12.938  29.118  1.00  0.00    -0.508 OA
ATOM     26  H   UNL     1      15.246 -12.105  29.065  1.00  0.00     0.293 HD
ENDBRANCH  11  25
ENDBRANCH   1   2
BRANCH   1  27
ATOM     27  C   UNL     1      13.817  -7.642  25.698  1.00  0.00     0.339 C 
ATOM     28  C   UNL     1      14.437  -8.241  23.715  1.00  0.00     0.214 C 
ATOM     29  O   UNL     1      14.496  -5.884  26.146  1.00  0.00    -0.332 OA
ATOM     30  C   UNL     1      16.507  -6.558  24.226  1.00  0.00     0.180 C 
ATOM     31  C   UNL     1      15.631  -4.558  27.432  1.00  0.00     0.179 C 
ATOM     32  C   UNL     1      17.131  -3.439  26.527  1.00  0.00     0.177 C 
BRANCH  28  33
ATOM     33  O   UNL     1      13.776  -9.994  23.034  1.00  0.00    -0.384 OA
ATOM     34  H   UNL     1      12.160 -10.443  23.147  1.00  0.00     0.211 HD
ENDBRANCH  28  33
BRANCH  30  35
ATOM     35  O   UNL     1      17.287  -6.206  22.243  1.00  0.00    -0.387 OA
ATOM     36  H   UNL     1      17.391  -7.209  21.671  1.00  0.00     0.211 HD
ENDBRANCH  30  35
BRANCH  31  37
ATOM     37  C   UNL     1      16.556  -3.983  28.823  1.00  0.00     0.191 C 
BRANCH  37  38
ATOM     38  O   UNL     1      15.260  -2.643  28.145  1.00  0.00    -0.394 OA
ATOM     39  H   UNL     1      14.515  -3.041  26.831  1.00  0.00     0.210 HD
ENDBRANCH  37  38
ENDBRANCH  31  37
BRANCH  32  40
ATOM     40  O   UNL     1      18.606  -2.304  25.257  1.00  0.00    -0.387 OA
ATOM     41  H   UNL     1      17.849  -4.079  24.719  1.00  0.00     0.211 HD
ENDBRANCH  32  40
ENDBRANCH   1  27
TORSDOF 12
ENDMDL
