MODEL 1
REMARK VINA RESULT:    -3.496      0.000      0.000
REMARK INTER + INTRA:          -4.059
REMARK INTER:                  -4.007
REMARK INTRA:                  -0.052
REMARK UNBOUND:                -0.052
REMARK SMILES COc1cc(C=O)ccc1O
REMARK SMILES IDX 3 1 10 2 9 3 8 4 5 5 4 6 2 7 1 8 11 9 6 11 7 12
REMARK H PARENT 11 10
REMARK Flexibility Score: inf
ROOT
ATOM      1  C   UNL     1      -3.182  24.173  10.142  1.00  0.00     0.161 A 
ATOM      2  C   UNL     1      -3.482  24.189   8.772  1.00  0.00     0.157 A 
ATOM      3  C   UNL     1      -4.712  23.699   8.317  1.00  0.00     0.051 A 
ATOM      4  C   UNL     1      -5.648  23.193   9.221  1.00  0.00     0.015 A 
ATOM      5  C   UNL     1      -5.364  23.169  10.594  1.00  0.00     0.018 A 
ATOM      6  C   UNL     1      -4.129  23.660  11.051  1.00  0.00     0.062 A 
ENDROOT
BRANCH   1   7
ATOM      7  O   UNL     1      -1.938  24.673  10.559  1.00  0.00    -0.493 OA
ATOM      8  C   UNL     1      -1.470  24.652  11.903  1.00  0.00     0.278 C 
ENDBRANCH   1   7
BRANCH   2   9
ATOM      9  O   UNL     1      -2.549  24.694   7.868  1.00  0.00    -0.504 OA
ATOM     10  H   UNL     1      -2.604  25.646   7.525  1.00  0.00     0.293 HD
ENDBRANCH   2   9
BRANCH   5  11
ATOM     11  C   UNL     1      -6.366  22.630  11.532  1.00  0.00     0.260 C 
ATOM     12  O   UNL     1      -6.116  21.620  12.242  1.00  0.00    -0.298 OA
ENDBRANCH   5  11
TORSDOF 3
ENDMDL
MODEL 2
REMARK VINA RESULT:    -3.417      3.831      6.969
REMARK INTER + INTRA:          -3.968
REMARK INTER:                  -3.898
REMARK INTRA:                  -0.070
REMARK UNBOUND:                -0.052
REMARK SMILES COc1cc(C=O)ccc1O
REMARK SMILES IDX 3 1 10 2 9 3 8 4 5 5 4 6 2 7 1 8 11 9 6 11 7 12
REMARK H PARENT 11 10
REMARK Flexibility Score: inf
ROOT
ATOM      1  C   UNL     1      -8.681  22.549  14.987  1.00  0.00     0.161 A 
ATOM      2  C   UNL     1      -9.081  21.223  14.771  1.00  0.00     0.157 A 
ATOM      3  C   UNL     1      -8.656  20.538  13.625  1.00  0.00     0.051 A 
ATOM      4  C   UNL     1      -7.833  21.170  12.691  1.00  0.00     0.015 A 
ATOM      5  C   UNL     1      -7.423  22.496  12.892  1.00  0.00     0.018 A 
ATOM      6  C   UNL     1      -7.849  23.183  14.041  1.00  0.00     0.062 A 
ENDROOT
BRANCH   1   7
ATOM      7  O   UNL     1      -9.128  23.201  16.148  1.00  0.00    -0.493 OA
ATOM      8  C   UNL     1      -8.271  23.759  17.139  1.00  0.00     0.278 C 
ENDBRANCH   1   7
BRANCH   2   9
ATOM      9  O   UNL     1      -9.904  20.591  15.702  1.00  0.00    -0.504 OA
ATOM     10  H   UNL     1     -10.131  21.024  16.589  1.00  0.00     0.293 HD
ENDBRANCH   2   9
BRANCH   5  11
ATOM     11  C   UNL     1      -6.553  23.144  11.893  1.00  0.00     0.260 C 
ATOM     12  O   UNL     1      -5.516  22.573  11.463  1.00  0.00    -0.298 OA
ENDBRANCH   5  11
TORSDOF 3
ENDMDL
MODEL 3
REMARK VINA RESULT:    -3.120      1.156      2.986
REMARK INTER + INTRA:          -3.627
REMARK INTER:                  -3.553
REMARK INTRA:                  -0.074
REMARK UNBOUND:                -0.052
REMARK SMILES COc1cc(C=O)ccc1O
REMARK SMILES IDX 3 1 10 2 9 3 8 4 5 5 4 6 2 7 1 8 11 9 6 11 7 12
REMARK H PARENT 11 10
REMARK Flexibility Score: inf
ROOT
ATOM      1  C   UNL     1      -4.757  23.647   8.334  1.00  0.00     0.161 A 
ATOM      2  C   UNL     1      -3.491  24.094   8.737  1.00  0.00     0.157 A 
ATOM      3  C   UNL     1      -3.148  24.102  10.095  1.00  0.00     0.051 A 
ATOM      4  C   UNL     1      -4.062  23.667  11.056  1.00  0.00     0.015 A 
ATOM      5  C   UNL     1      -5.333  23.217  10.671  1.00  0.00     0.018 A 
ATOM      6  C   UNL     1      -5.678  23.208   9.308  1.00  0.00     0.062 A 
ENDROOT
BRANCH   1   7
ATOM      7  O   UNL     1      -5.063  23.654   6.964  1.00  0.00    -0.493 OA
ATOM      8  C   UNL     1      -5.026  22.504   6.124  1.00  0.00     0.278 C 
ENDBRANCH   1   7
BRANCH   2   9
ATOM      9  O   UNL     1      -2.577  24.529   7.779  1.00  0.00    -0.504 OA
ATOM     10  H   UNL     1      -1.735  25.031   8.038  1.00  0.00     0.293 HD
ENDBRANCH   2   9
BRANCH   5  11
ATOM     11  C   UNL     1      -6.284  22.761  11.702  1.00  0.00     0.260 C 
ATOM     12  O   UNL     1      -6.100  21.683  12.327  1.00  0.00    -0.298 OA
ENDBRANCH   5  11
TORSDOF 3
ENDMDL
MODEL 4
REMARK VINA RESULT:    -3.110      1.190      2.737
REMARK INTER + INTRA:          -3.617
REMARK INTER:                  -3.556
REMARK INTRA:                  -0.061
REMARK UNBOUND:                -0.052
REMARK SMILES COc1cc(C=O)ccc1O
REMARK SMILES IDX 3 1 10 2 9 3 8 4 5 5 4 6 2 7 1 8 11 9 6 11 7 12
REMARK H PARENT 11 10
REMARK Flexibility Score: inf
ROOT
ATOM      1  C   UNL     1      -3.504  24.145   8.866  1.00  0.00     0.161 A 
ATOM      2  C   UNL     1      -3.113  24.210  10.211  1.00  0.00     0.157 A 
ATOM      3  C   UNL     1      -3.985  23.777  11.218  1.00  0.00     0.051 A 
ATOM      4  C   UNL     1      -5.247  23.279  10.891  1.00  0.00     0.015 A 
ATOM      5  C   UNL     1      -5.655  23.206   9.551  1.00  0.00     0.018 A 
ATOM      6  C   UNL     1      -4.780  23.641   8.540  1.00  0.00     0.062 A 
ENDROOT
BRANCH   1   7
ATOM      7  O   UNL     1      -2.602  24.589   7.886  1.00  0.00    -0.493 OA
ATOM      8  C   UNL     1      -2.612  24.162   6.528  1.00  0.00     0.278 C 
ENDBRANCH   1   7
BRANCH   2   9
ATOM      9  O   UNL     1      -1.854  24.708  10.539  1.00  0.00    -0.504 OA
ATOM     10  H   UNL     1      -1.328  25.288   9.896  1.00  0.00     0.293 HD
ENDBRANCH   2   9
BRANCH   5  11
ATOM     11  C   UNL     1      -6.992  22.677   9.227  1.00  0.00     0.260 C 
ATOM     12  O   UNL     1      -7.698  22.110  10.103  1.00  0.00    -0.298 OA
ENDBRANCH   5  11
TORSDOF 3
ENDMDL
MODEL 5
REMARK VINA RESULT:    -3.040      2.121      2.497
REMARK INTER + INTRA:          -3.536
REMARK INTER:                  -3.474
REMARK INTRA:                  -0.062
REMARK UNBOUND:                -0.052
REMARK SMILES COc1cc(C=O)ccc1O
REMARK SMILES IDX 3 1 10 2 9 3 8 4 5 5 4 6 2 7 1 8 11 9 6 11 7 12
REMARK H PARENT 11 10
REMARK Flexibility Score: inf
ROOT
ATOM      1  C   UNL     1      -3.469  24.023   8.256  1.00  0.00     0.161 A 
ATOM      2  C   UNL     1      -3.134  23.595   6.964  1.00  0.00     0.157 A 
ATOM      3  C   UNL     1      -4.055  22.859   6.207  1.00  0.00     0.051 A 
ATOM      4  C   UNL     1      -5.310  22.547   6.733  1.00  0.00     0.015 A 
ATOM      5  C   UNL     1      -5.661  22.968   8.023  1.00  0.00     0.018 A 
ATOM      6  C   UNL     1      -4.737  23.706   8.783  1.00  0.00     0.062 A 
ENDROOT
BRANCH   1   7
ATOM      7  O   UNL     1      -2.519  24.759   8.983  1.00  0.00    -0.493 OA
ATOM      8  C   UNL     1      -2.804  25.951   9.708  1.00  0.00     0.278 C 
ENDBRANCH   1   7
BRANCH   2   9
ATOM      9  O   UNL     1      -1.881  23.904   6.438  1.00  0.00    -0.504 OA
ATOM     10  H   UNL     1      -1.414  23.289   5.782  1.00  0.00     0.293 HD
ENDBRANCH   2   9
BRANCH   5  11
ATOM     11  C   UNL     1      -6.992  22.628   8.560  1.00  0.00     0.260 C 
ATOM     12  O   UNL     1      -7.560  23.364   9.410  1.00  0.00    -0.298 OA
ENDBRANCH   5  11
TORSDOF 3
ENDMDL
MODEL 6
REMARK VINA RESULT:    -3.035      2.520      3.775
REMARK INTER + INTRA:          -3.531
REMARK INTER:                  -3.459
REMARK INTRA:                  -0.072
REMARK UNBOUND:                -0.052
REMARK SMILES COc1cc(C=O)ccc1O
REMARK SMILES IDX 3 1 10 2 9 3 8 4 5 5 4 6 2 7 1 8 11 9 6 11 7 12
REMARK H PARENT 11 10
REMARK Flexibility Score: inf
ROOT
ATOM      1  C   UNL     1      -3.412  23.637   7.360  1.00  0.00     0.161 A 
ATOM      2  C   UNL     1      -3.608  24.037   8.689  1.00  0.00     0.157 A 
ATOM      3  C   UNL     1      -4.801  23.719   9.350  1.00  0.00     0.051 A 
ATOM      4  C   UNL     1      -5.802  23.003   8.692  1.00  0.00     0.015 A 
ATOM      5  C   UNL     1      -5.623  22.594   7.363  1.00  0.00     0.018 A 
ATOM      6  C   UNL     1      -4.426  22.914   6.699  1.00  0.00     0.062 A 
ENDROOT
BRANCH   1   7
ATOM      7  O   UNL     1      -2.202  23.975   6.732  1.00  0.00    -0.493 OA
ATOM      8  C   UNL     1      -2.079  24.927   5.680  1.00  0.00     0.278 C 
ENDBRANCH   1   7
BRANCH   2   9
ATOM      9  O   UNL     1      -2.610  24.753   9.347  1.00  0.00    -0.504 OA
ATOM     10  H   UNL     1      -1.655  24.769   9.007  1.00  0.00     0.293 HD
ENDBRANCH   2   9
BRANCH   5  11
ATOM     11  C   UNL     1      -6.693  21.838   6.686  1.00  0.00     0.260 C 
ATOM     12  O   UNL     1      -6.522  20.641   6.334  1.00  0.00    -0.298 OA
ENDBRANCH   5  11
TORSDOF 3
ENDMDL
MODEL 7
REMARK VINA RESULT:    -2.965      3.751      6.686
REMARK INTER + INTRA:          -3.450
REMARK INTER:                  -3.380
REMARK INTRA:                  -0.070
REMARK UNBOUND:                -0.052
REMARK SMILES COc1cc(C=O)ccc1O
REMARK SMILES IDX 3 1 10 2 9 3 8 4 5 5 4 6 2 7 1 8 11 9 6 11 7 12
REMARK H PARENT 11 10
REMARK Flexibility Score: inf
ROOT
ATOM      1  C   UNL     1      -9.309  21.139  11.945  1.00  0.00     0.161 A 
ATOM      2  C   UNL     1      -8.254  20.868  12.828  1.00  0.00     0.157 A 
ATOM      3  C   UNL     1      -6.948  21.258  12.504  1.00  0.00     0.051 A 
ATOM      4  C   UNL     1      -6.688  21.919  11.302  1.00  0.00     0.015 A 
ATOM      5  C   UNL     1      -7.731  22.198  10.407  1.00  0.00     0.018 A 
ATOM      6  C   UNL     1      -9.041  21.806  10.732  1.00  0.00     0.062 A 
ENDROOT
BRANCH   1   7
ATOM      7  O   UNL     1     -10.603  20.731  12.306  1.00  0.00    -0.493 OA
ATOM      8  C   UNL     1     -11.562  21.566  12.947  1.00  0.00     0.278 C 
ENDBRANCH   1   7
BRANCH   2   9
ATOM      9  O   UNL     1      -8.512  20.207  14.028  1.00  0.00    -0.504 OA
ATOM     10  H   UNL     1      -8.277  19.230  14.157  1.00  0.00     0.293 HD
ENDBRANCH   2   9
BRANCH   5  11
ATOM     11  C   UNL     1      -7.434  22.897   9.143  1.00  0.00     0.260 C 
ATOM     12  O   UNL     1      -6.355  22.697   8.526  1.00  0.00    -0.298 OA
ENDBRANCH   5  11
TORSDOF 3
ENDMDL
MODEL 8
REMARK VINA RESULT:    -2.954      2.615      4.013
REMARK INTER + INTRA:          -3.438
REMARK INTER:                  -3.396
REMARK INTRA:                  -0.042
REMARK UNBOUND:                -0.052
REMARK SMILES COc1cc(C=O)ccc1O
REMARK SMILES IDX 3 1 10 2 9 3 8 4 5 5 4 6 2 7 1 8 11 9 6 11 7 12
REMARK H PARENT 11 10
REMARK Flexibility Score: inf
ROOT
ATOM      1  C   UNL     1      -6.411  22.341  11.146  1.00  0.00     0.161 A 
ATOM      2  C   UNL     1      -7.302  22.479  10.072  1.00  0.00     0.157 A 
ATOM      3  C   UNL     1      -8.622  22.027  10.190  1.00  0.00     0.051 A 
ATOM      4  C   UNL     1      -9.061  21.436  11.377  1.00  0.00     0.015 A 
ATOM      5  C   UNL     1      -8.184  21.290  12.461  1.00  0.00     0.018 A 
ATOM      6  C   UNL     1      -6.859  21.744  12.342  1.00  0.00     0.062 A 
ENDROOT
BRANCH   1   7
ATOM      7  O   UNL     1      -5.096  22.807  10.988  1.00  0.00    -0.493 OA
ATOM      8  C   UNL     1      -4.670  24.133  11.283  1.00  0.00     0.278 C 
ENDBRANCH   1   7
BRANCH   2   9
ATOM      9  O   UNL     1      -6.865  23.068   8.886  1.00  0.00    -0.504 OA
ATOM     10  H   UNL     1      -7.448  23.716   8.370  1.00  0.00     0.293 HD
ENDBRANCH   2   9
BRANCH   5  11
ATOM     11  C   UNL     1      -8.668  20.664  13.706  1.00  0.00     0.260 C 
ATOM     12  O   UNL     1      -8.807  21.335  14.762  1.00  0.00    -0.298 OA
ENDBRANCH   5  11
TORSDOF 3
ENDMDL
MODEL 9
REMARK VINA RESULT:    -2.891      4.171      6.561
REMARK INTER + INTRA:          -3.366
REMARK INTER:                  -3.307
REMARK INTRA:                  -0.059
REMARK UNBOUND:                -0.052
REMARK SMILES COc1cc(C=O)ccc1O
REMARK SMILES IDX 3 1 10 2 9 3 8 4 5 5 4 6 2 7 1 8 11 9 6 11 7 12
REMARK H PARENT 11 10
REMARK Flexibility Score: inf
ROOT
ATOM      1  C   UNL     1      -7.610  22.036  13.247  1.00  0.00     0.161 A 
ATOM      2  C   UNL     1      -8.450  21.226  14.025  1.00  0.00     0.157 A 
ATOM      3  C   UNL     1      -9.139  21.772  15.116  1.00  0.00     0.051 A 
ATOM      4  C   UNL     1      -8.996  23.123  15.436  1.00  0.00     0.015 A 
ATOM      5  C   UNL     1      -8.160  23.947  14.668  1.00  0.00     0.018 A 
ATOM      6  C   UNL     1      -7.468  23.400  13.574  1.00  0.00     0.062 A 
ENDROOT
BRANCH   1   7
ATOM      7  O   UNL     1      -6.937  21.451  12.162  1.00  0.00    -0.493 OA
ATOM      8  C   UNL     1      -6.738  22.083  10.902  1.00  0.00     0.278 C 
ENDBRANCH   1   7
BRANCH   2   9
ATOM      9  O   UNL     1      -8.594  19.877  13.707  1.00  0.00    -0.504 OA
ATOM     10  H   UNL     1      -9.504  19.468  13.528  1.00  0.00     0.293 HD
ENDBRANCH   2   9
BRANCH   5  11
ATOM     11  C   UNL     1      -8.022  25.372  15.023  1.00  0.00     0.260 C 
ATOM     12  O   UNL     1      -6.894  25.930  15.052  1.00  0.00    -0.298 OA
ENDBRANCH   5  11
TORSDOF 3
ENDMDL
