MODEL 1
REMARK VINA RESULT:    -3.811      0.000      0.000
REMARK INTER + INTRA:         -12.457
REMARK INTER:                  -8.712
REMARK INTRA:                  -3.745
REMARK UNBOUND:                -3.745
REMARK SMILES CCCCCCCCCCCCCCCCCCCCCCCC(=O)[O-]
REMARK SMILES IDX 13 1 14 2 15 3 16 4 17 5 18 6 19 7 20 8 21 9 22 10 23 11
REMARK SMILES IDX 24 12 25 13 26 14 12 15 11 16 10 17 9 18 8 19 7 20 6 21 5 22
REMARK SMILES IDX 4 23 3 24 2 25 1 26
REMARK H PARENT
REMARK Flexibility Score: inf
ROOT
ATOM      1  C   UNL     1      38.054  22.431 225.910  1.00  0.00     0.000 C 
ENDROOT
BRANCH   1   2
ATOM      2  C   UNL     1      38.519  22.681 227.355  1.00  0.00     0.000 C 
BRANCH   2   3
ATOM      3  C   UNL     1      37.657  23.726 228.080  1.00  0.00     0.000 C 
BRANCH   3   4
ATOM      4  C   UNL     1      37.990  25.165 227.651  1.00  0.00     0.000 C 
BRANCH   4   5
ATOM      5  C   UNL     1      39.502  25.402 227.495  1.00  0.00     0.000 C 
BRANCH   5   6
ATOM      6  C   UNL     1      39.869  25.970 226.112  1.00  0.00     0.000 C 
BRANCH   6   7
ATOM      7  C   UNL     1      38.632  26.351 225.283  1.00  0.00     0.000 C 
BRANCH   7   8
ATOM      8  C   UNL     1      38.541  25.570 223.961  1.00  0.00     0.000 C 
BRANCH   8   9
ATOM      9  C   UNL     1      37.100  25.160 223.606  1.00  0.00     0.000 C 
BRANCH   9  10
ATOM     10  C   UNL     1      36.974  24.104 222.488  1.00  0.00     0.006 C 
BRANCH  10  11
ATOM     11  C   UNL     1      35.596  24.053 221.809  1.00  0.00     0.053 C 
BRANCH  11  12
ATOM     12  C   UNL     1      35.709  24.061 220.316  1.00  0.00     0.041 C 
ATOM     13  O   UNL     1      34.676  24.159 219.602  1.00  0.00    -0.550 OA
ATOM     14  O   UNL     1      36.953  23.924 219.711  1.00  0.00    -0.550 OA
ENDBRANCH  11  12
ENDBRANCH  10  11
ENDBRANCH   9  10
ENDBRANCH   8   9
ENDBRANCH   7   8
ENDBRANCH   6   7
ENDBRANCH   5   6
ENDBRANCH   4   5
ENDBRANCH   3   4
ENDBRANCH   2   3
ENDBRANCH   1   2
BRANCH   1  15
ATOM     15  C   UNL     1      39.218  22.080 224.969  1.00  0.00     0.000 C 
BRANCH  15  16
ATOM     16  C   UNL     1      40.585  22.516 225.526  1.00  0.00     0.000 C 
BRANCH  16  17
ATOM     17  C   UNL     1      41.702  22.427 224.466  1.00  0.00     0.000 C 
BRANCH  17  18
ATOM     18  C   UNL     1      41.301  21.626 223.216  1.00  0.00    -0.000 C 
BRANCH  18  19
ATOM     19  C   UNL     1      41.747  20.156 223.280  1.00  0.00    -0.000 C 
BRANCH  19  20
ATOM     20  C   UNL     1      42.528  19.834 224.563  1.00  0.00    -0.000 C 
BRANCH  20  21
ATOM     21  C   UNL     1      41.791  18.830 225.466  1.00  0.00    -0.000 C 
BRANCH  21  22
ATOM     22  C   UNL     1      40.357  18.542 224.988  1.00  0.00    -0.000 C 
BRANCH  22  23
ATOM     23  C   UNL     1      39.421  17.953 226.062  1.00  0.00    -0.000 C 
BRANCH  23  24
ATOM     24  C   UNL     1      38.344  18.922 226.594  1.00  0.00    -0.000 C 
BRANCH  24  25
ATOM     25  C   UNL     1      36.899  18.403 226.485  1.00  0.00    -0.003 C 
ATOM     26  C   UNL     1      36.077  19.149 225.434  1.00  0.00     0.004 C 
ENDBRANCH  24  25
ENDBRANCH  23  24
ENDBRANCH  22  23
ENDBRANCH  21  22
ENDBRANCH  20  21
ENDBRANCH  19  20
ENDBRANCH  18  19
ENDBRANCH  17  18
ENDBRANCH  16  17
ENDBRANCH  15  16
ENDBRANCH   1  15
TORSDOF 22
ENDMDL
MODEL 2
REMARK VINA RESULT:    -3.803      2.926      6.774
REMARK INTER + INTRA:         -12.440
REMARK INTER:                  -8.219
REMARK INTRA:                  -4.221
REMARK UNBOUND:                -3.745
REMARK SMILES CCCCCCCCCCCCCCCCCCCCCCCC(=O)[O-]
REMARK SMILES IDX 13 1 14 2 15 3 16 4 17 5 18 6 19 7 20 8 21 9 22 10 23 11
REMARK SMILES IDX 24 12 25 13 26 14 12 15 11 16 10 17 9 18 8 19 7 20 6 21 5 22
REMARK SMILES IDX 4 23 3 24 2 25 1 26
REMARK H PARENT
REMARK Flexibility Score: inf
ROOT
ATOM      1  C   UNL     1      39.760  24.269 223.212  1.00  0.00     0.000 C 
ENDROOT
BRANCH   1   2
ATOM      2  C   UNL     1      41.111  23.593 223.502  1.00  0.00     0.000 C 
BRANCH   2   3
ATOM      3  C   UNL     1      41.261  22.243 222.783  1.00  0.00     0.000 C 
BRANCH   3   4
ATOM      4  C   UNL     1      42.397  21.387 223.369  1.00  0.00     0.000 C 
BRANCH   4   5
ATOM      5  C   UNL     1      42.054  19.887 223.396  1.00  0.00     0.000 C 
BRANCH   5   6
ATOM      6  C   UNL     1      40.870  19.570 224.327  1.00  0.00     0.000 C 
BRANCH   6   7
ATOM      7  C   UNL     1      41.088  20.094 225.757  1.00  0.00     0.000 C 
BRANCH   7   8
ATOM      8  C   UNL     1      39.909  20.942 226.263  1.00  0.00     0.000 C 
BRANCH   8   9
ATOM      9  C   UNL     1      38.846  21.196 225.178  1.00  0.00     0.000 C 
BRANCH   9  10
ATOM     10  C   UNL     1      37.404  20.815 225.569  1.00  0.00     0.006 C 
BRANCH  10  11
ATOM     11  C   UNL     1      37.297  19.867 226.774  1.00  0.00     0.053 C 
BRANCH  11  12
ATOM     12  C   UNL     1      36.835  18.501 226.371  1.00  0.00     0.041 C 
ATOM     13  O   UNL     1      36.931  17.536 227.175  1.00  0.00    -0.550 OA
ATOM     14  O   UNL     1      36.330  18.285 225.094  1.00  0.00    -0.550 OA
ENDBRANCH  11  12
ENDBRANCH  10  11
ENDBRANCH   9  10
ENDBRANCH   8   9
ENDBRANCH   7   8
ENDBRANCH   6   7
ENDBRANCH   5   6
ENDBRANCH   4   5
ENDBRANCH   3   4
ENDBRANCH   2   3
ENDBRANCH   1   2
BRANCH   1  15
ATOM     15  C   UNL     1      38.963  23.547 222.113  1.00  0.00     0.000 C 
BRANCH  15  16
ATOM     16  C   UNL     1      37.476  23.379 222.471  1.00  0.00     0.000 C 
BRANCH  16  17
ATOM     17  C   UNL     1      36.793  24.728 222.777  1.00  0.00     0.000 C 
BRANCH  17  18
ATOM     18  C   UNL     1      35.987  24.727 224.086  1.00  0.00    -0.000 C 
BRANCH  18  19
ATOM     19  C   UNL     1      36.650  25.559 225.197  1.00  0.00    -0.000 C 
BRANCH  19  20
ATOM     20  C   UNL     1      37.055  24.706 226.408  1.00  0.00    -0.000 C 
BRANCH  20  21
ATOM     21  C   UNL     1      38.578  24.529 226.522  1.00  0.00    -0.000 C 
BRANCH  21  22
ATOM     22  C   UNL     1      39.340  25.864 226.443  1.00  0.00    -0.000 C 
BRANCH  22  23
ATOM     23  C   UNL     1      40.863  25.756 226.656  1.00  0.00    -0.000 C 
BRANCH  23  24
ATOM     24  C   UNL     1      41.312  24.639 227.621  1.00  0.00    -0.000 C 
BRANCH  24  25
ATOM     25  C   UNL     1      42.325  23.643 227.030  1.00  0.00    -0.003 C 
ATOM     26  C   UNL     1      43.732  23.816 227.602  1.00  0.00     0.004 C 
ENDBRANCH  24  25
ENDBRANCH  23  24
ENDBRANCH  22  23
ENDBRANCH  21  22
ENDBRANCH  20  21
ENDBRANCH  19  20
ENDBRANCH  18  19
ENDBRANCH  17  18
ENDBRANCH  16  17
ENDBRANCH  15  16
ENDBRANCH   1  15
TORSDOF 22
ENDMDL
MODEL 3
REMARK VINA RESULT:    -3.767      3.133      5.002
REMARK INTER + INTRA:         -12.356
REMARK INTER:                  -7.908
REMARK INTRA:                  -4.448
REMARK UNBOUND:                -3.745
REMARK SMILES CCCCCCCCCCCCCCCCCCCCCCCC(=O)[O-]
REMARK SMILES IDX 13 1 14 2 15 3 16 4 17 5 18 6 19 7 20 8 21 9 22 10 23 11
REMARK SMILES IDX 24 12 25 13 26 14 12 15 11 16 10 17 9 18 8 19 7 20 6 21 5 22
REMARK SMILES IDX 4 23 3 24 2 25 1 26
REMARK H PARENT
REMARK Flexibility Score: inf
ROOT
ATOM      1  C   UNL     1      39.768  26.499 225.911  1.00  0.00     0.000 C 
ENDROOT
BRANCH   1   2
ATOM      2  C   UNL     1      38.396  25.898 225.557  1.00  0.00     0.000 C 
BRANCH   2   3
ATOM      3  C   UNL     1      37.956  26.236 224.124  1.00  0.00     0.000 C 
BRANCH   3   4
ATOM      4  C   UNL     1      37.445  25.004 223.359  1.00  0.00     0.000 C 
BRANCH   4   5
ATOM      5  C   UNL     1      36.802  23.956 224.284  1.00  0.00     0.000 C 
BRANCH   5   6
ATOM      6  C   UNL     1      37.098  22.514 223.835  1.00  0.00     0.000 C 
BRANCH   6   7
ATOM      7  C   UNL     1      37.660  21.645 224.972  1.00  0.00     0.000 C 
BRANCH   7   8
ATOM      8  C   UNL     1      38.532  22.446 225.954  1.00  0.00     0.000 C 
BRANCH   8   9
ATOM      9  C   UNL     1      38.636  21.783 227.340  1.00  0.00     0.000 C 
BRANCH   9  10
ATOM     10  C   UNL     1      38.324  22.707 228.535  1.00  0.00     0.006 C 
BRANCH  10  11
ATOM     11  C   UNL     1      37.193  23.717 228.285  1.00  0.00     0.053 C 
BRANCH  11  12
ATOM     12  C   UNL     1      37.400  24.988 229.048  1.00  0.00     0.041 C 
ATOM     13  O   UNL     1      38.565  25.389 229.309  1.00  0.00    -0.550 OA
ATOM     14  O   UNL     1      36.305  25.714 229.502  1.00  0.00    -0.550 OA
ENDBRANCH  11  12
ENDBRANCH  10  11
ENDBRANCH   9  10
ENDBRANCH   8   9
ENDBRANCH   7   8
ENDBRANCH   6   7
ENDBRANCH   5   6
ENDBRANCH   4   5
ENDBRANCH   3   4
ENDBRANCH   2   3
ENDBRANCH   1   2
BRANCH   1  15
ATOM     15  C   UNL     1      40.714  25.471 226.551  1.00  0.00     0.000 C 
BRANCH  15  16
ATOM     16  C   UNL     1      41.901  25.109 225.640  1.00  0.00     0.000 C 
BRANCH  16  17
ATOM     17  C   UNL     1      41.703  23.750 224.937  1.00  0.00     0.000 C 
BRANCH  17  18
ATOM     18  C   UNL     1      41.009  23.861 223.569  1.00  0.00    -0.000 C 
BRANCH  18  19
ATOM     19  C   UNL     1      40.806  22.495 222.891  1.00  0.00    -0.000 C 
BRANCH  19  20
ATOM     20  C   UNL     1      42.106  21.683 222.804  1.00  0.00    -0.000 C 
BRANCH  20  21
ATOM     21  C   UNL     1      41.932  20.237 223.299  1.00  0.00    -0.000 C 
BRANCH  21  22
ATOM     22  C   UNL     1      42.377  20.051 224.761  1.00  0.00    -0.000 C 
BRANCH  22  23
ATOM     23  C   UNL     1      41.237  19.750 225.753  1.00  0.00    -0.000 C 
BRANCH  23  24
ATOM     24  C   UNL     1      40.111  18.850 225.203  1.00  0.00    -0.000 C 
BRANCH  24  25
ATOM     25  C   UNL     1      39.683  17.706 226.140  1.00  0.00    -0.003 C 
ATOM     26  C   UNL     1      39.103  18.206 227.462  1.00  0.00     0.004 C 
ENDBRANCH  24  25
ENDBRANCH  23  24
ENDBRANCH  22  23
ENDBRANCH  21  22
ENDBRANCH  20  21
ENDBRANCH  19  20
ENDBRANCH  18  19
ENDBRANCH  17  18
ENDBRANCH  16  17
ENDBRANCH  15  16
ENDBRANCH   1  15
TORSDOF 22
ENDMDL
MODEL 4
REMARK VINA RESULT:    -3.763      3.446      7.039
REMARK INTER + INTRA:         -12.349
REMARK INTER:                  -8.256
REMARK INTRA:                  -4.094
REMARK UNBOUND:                -3.745
REMARK SMILES CCCCCCCCCCCCCCCCCCCCCCCC(=O)[O-]
REMARK SMILES IDX 13 1 14 2 15 3 16 4 17 5 18 6 19 7 20 8 21 9 22 10 23 11
REMARK SMILES IDX 24 12 25 13 26 14 12 15 11 16 10 17 9 18 8 19 7 20 6 21 5 22
REMARK SMILES IDX 4 23 3 24 2 25 1 26
REMARK H PARENT
REMARK Flexibility Score: inf
ROOT
ATOM      1  C   UNL     1      42.223  24.211 225.220  1.00  0.00     0.000 C 
ENDROOT
BRANCH   1   2
ATOM      2  C   UNL     1      40.890  24.303 224.459  1.00  0.00     0.000 C 
BRANCH   2   3
ATOM      3  C   UNL     1      40.696  23.144 223.468  1.00  0.00     0.000 C 
BRANCH   3   4
ATOM      4  C   UNL     1      41.852  22.130 223.513  1.00  0.00     0.000 C 
BRANCH   4   5
ATOM      5  C   UNL     1      41.373  20.697 223.803  1.00  0.00     0.000 C 
BRANCH   5   6
ATOM      6  C   UNL     1      42.336  19.931 224.728  1.00  0.00     0.000 C 
BRANCH   6   7
ATOM      7  C   UNL     1      41.601  18.975 225.683  1.00  0.00     0.000 C 
BRANCH   7   8
ATOM      8  C   UNL     1      40.203  18.588 225.171  1.00  0.00     0.000 C 
BRANCH   8   9
ATOM      9  C   UNL     1      39.406  17.749 226.188  1.00  0.00     0.000 C 
BRANCH   9  10
ATOM     10  C   UNL     1      37.987  18.268 226.498  1.00  0.00     0.006 C 
BRANCH  10  11
ATOM     11  C   UNL     1      37.511  18.006 227.936  1.00  0.00     0.053 C 
BRANCH  11  12
ATOM     12  C   UNL     1      38.496  18.502 228.949  1.00  0.00     0.041 C 
ATOM     13  O   UNL     1      39.316  17.706 229.478  1.00  0.00    -0.550 OA
ATOM     14  O   UNL     1      38.486  19.837 229.335  1.00  0.00    -0.550 OA
ENDBRANCH  11  12
ENDBRANCH  10  11
ENDBRANCH   9  10
ENDBRANCH   8   9
ENDBRANCH   7   8
ENDBRANCH   6   7
ENDBRANCH   5   6
ENDBRANCH   4   5
ENDBRANCH   3   4
ENDBRANCH   2   3
ENDBRANCH   1   2
BRANCH   1  15
ATOM     15  C   UNL     1      42.042  24.332 226.742  1.00  0.00     0.000 C 
BRANCH  15  16
ATOM     16  C   UNL     1      42.632  23.133 227.507  1.00  0.00     0.000 C 
BRANCH  16  17
ATOM     17  C   UNL     1      41.620  21.978 227.650  1.00  0.00     0.000 C 
BRANCH  17  18
ATOM     18  C   UNL     1      40.156  22.446 227.707  1.00  0.00    -0.000 C 
BRANCH  18  19
ATOM     19  C   UNL     1      39.272  21.772 226.645  1.00  0.00    -0.000 C 
BRANCH  19  20
ATOM     20  C   UNL     1      37.987  22.565 226.360  1.00  0.00    -0.000 C 
BRANCH  20  21
ATOM     21  C   UNL     1      38.164  24.075 226.589  1.00  0.00    -0.000 C 
BRANCH  21  22
ATOM     22  C   UNL     1      37.016  24.906 225.989  1.00  0.00    -0.000 C 
BRANCH  22  23
ATOM     23  C   UNL     1      37.411  25.785 224.786  1.00  0.00    -0.000 C 
BRANCH  23  24
ATOM     24  C   UNL     1      37.115  25.171 223.401  1.00  0.00    -0.000 C 
BRANCH  24  25
ATOM     25  C   UNL     1      36.079  24.033 223.407  1.00  0.00    -0.003 C 
ATOM     26  C   UNL     1      35.348  23.887 222.073  1.00  0.00     0.004 C 
ENDBRANCH  24  25
ENDBRANCH  23  24
ENDBRANCH  22  23
ENDBRANCH  21  22
ENDBRANCH  20  21
ENDBRANCH  19  20
ENDBRANCH  18  19
ENDBRANCH  17  18
ENDBRANCH  16  17
ENDBRANCH  15  16
ENDBRANCH   1  15
TORSDOF 22
ENDMDL
MODEL 5
REMARK VINA RESULT:    -3.748      3.196      6.654
REMARK INTER + INTRA:         -12.314
REMARK INTER:                  -7.495
REMARK INTRA:                  -4.820
REMARK UNBOUND:                -3.745
REMARK SMILES CCCCCCCCCCCCCCCCCCCCCCCC(=O)[O-]
REMARK SMILES IDX 13 1 14 2 15 3 16 4 17 5 18 6 19 7 20 8 21 9 22 10 23 11
REMARK SMILES IDX 24 12 25 13 26 14 12 15 11 16 10 17 9 18 8 19 7 20 6 21 5 22
REMARK SMILES IDX 4 23 3 24 2 25 1 26
REMARK H PARENT
REMARK Flexibility Score: inf
ROOT
ATOM      1  C   UNL     1      38.588  22.534 223.797  1.00  0.00     0.000 C 
ENDROOT
BRANCH   1   2
ATOM      2  C   UNL     1      39.332  23.872 223.954  1.00  0.00     0.000 C 
BRANCH   2   3
ATOM      3  C   UNL     1      40.757  23.825 223.380  1.00  0.00     0.000 C 
BRANCH   3   4
ATOM      4  C   UNL     1      41.531  22.573 223.827  1.00  0.00     0.000 C 
BRANCH   4   5
ATOM      5  C   UNL     1      42.016  21.721 222.641  1.00  0.00     0.000 C 
BRANCH   5   6
ATOM      6  C   UNL     1      41.944  20.212 222.933  1.00  0.00     0.000 C 
BRANCH   6   7
ATOM      7  C   UNL     1      41.818  19.906 224.434  1.00  0.00     0.000 C 
BRANCH   7   8
ATOM      8  C   UNL     1      40.499  19.197 224.785  1.00  0.00     0.000 C 
BRANCH   8   9
ATOM      9  C   UNL     1      40.643  18.216 225.963  1.00  0.00     0.000 C 
BRANCH   9  10
ATOM     10  C   UNL     1      39.315  17.676 226.534  1.00  0.00     0.006 C 
BRANCH  10  11
ATOM     11  C   UNL     1      38.054  18.321 225.940  1.00  0.00     0.053 C 
BRANCH  11  12
ATOM     12  C   UNL     1      36.960  18.448 226.955  1.00  0.00     0.041 C 
ATOM     13  O   UNL     1      36.298  19.515 227.044  1.00  0.00    -0.550 OA
ATOM     14  O   UNL     1      36.693  17.398 227.825  1.00  0.00    -0.550 OA
ENDBRANCH  11  12
ENDBRANCH  10  11
ENDBRANCH   9  10
ENDBRANCH   8   9
ENDBRANCH   7   8
ENDBRANCH   6   7
ENDBRANCH   5   6
ENDBRANCH   4   5
ENDBRANCH   3   4
ENDBRANCH   2   3
ENDBRANCH   1   2
BRANCH   1  15
ATOM     15  C   UNL     1      37.842  22.122 225.076  1.00  0.00     0.000 C 
BRANCH  15  16
ATOM     16  C   UNL     1      38.773  22.009 226.296  1.00  0.00     0.000 C 
BRANCH  16  17
ATOM     17  C   UNL     1      38.138  22.600 227.572  1.00  0.00     0.000 C 
BRANCH  17  18
ATOM     18  C   UNL     1      38.437  21.786 228.842  1.00  0.00    -0.000 C 
BRANCH  18  19
ATOM     19  C   UNL     1      39.497  20.695 228.616  1.00  0.00    -0.000 C 
BRANCH  19  20
ATOM     20  C   UNL     1      40.897  21.132 229.069  1.00  0.00    -0.000 C 
BRANCH  20  21
ATOM     21  C   UNL     1      41.952  20.974 227.961  1.00  0.00    -0.000 C 
BRANCH  21  22
ATOM     22  C   UNL     1      42.461  22.324 227.427  1.00  0.00    -0.000 C 
BRANCH  22  23
ATOM     23  C   UNL     1      41.764  23.563 228.023  1.00  0.00    -0.000 C 
BRANCH  23  24
ATOM     24  C   UNL     1      41.325  24.626 226.995  1.00  0.00    -0.000 C 
BRANCH  24  25
ATOM     25  C   UNL     1      42.070  25.969 227.095  1.00  0.00    -0.003 C 
ATOM     26  C   UNL     1      43.108  26.157 225.989  1.00  0.00     0.004 C 
ENDBRANCH  24  25
ENDBRANCH  23  24
ENDBRANCH  22  23
ENDBRANCH  21  22
ENDBRANCH  20  21
ENDBRANCH  19  20
ENDBRANCH  18  19
ENDBRANCH  17  18
ENDBRANCH  16  17
ENDBRANCH  15  16
ENDBRANCH   1  15
TORSDOF 22
ENDMDL
MODEL 6
REMARK VINA RESULT:    -3.744      1.378      4.575
REMARK INTER + INTRA:         -12.304
REMARK INTER:                  -8.107
REMARK INTRA:                  -4.197
REMARK UNBOUND:                -3.745
REMARK SMILES CCCCCCCCCCCCCCCCCCCCCCCC(=O)[O-]
REMARK SMILES IDX 13 1 14 2 15 3 16 4 17 5 18 6 19 7 20 8 21 9 22 10 23 11
REMARK SMILES IDX 24 12 25 13 26 14 12 15 11 16 10 17 9 18 8 19 7 20 6 21 5 22
REMARK SMILES IDX 4 23 3 24 2 25 1 26
REMARK H PARENT
REMARK Flexibility Score: inf
ROOT
ATOM      1  C   UNL     1      41.135  19.198 227.074  1.00  0.00     0.000 C 
ENDROOT
BRANCH   1   2
ATOM      2  C   UNL     1      41.665  20.464 226.379  1.00  0.00     0.000 C 
BRANCH   2   3
ATOM      3  C   UNL     1      41.430  20.445 224.861  1.00  0.00     0.000 C 
BRANCH   3   4
ATOM      4  C   UNL     1      40.940  21.801 224.323  1.00  0.00     0.000 C 
BRANCH   4   5
ATOM      5  C   UNL     1      41.875  22.962 224.704  1.00  0.00     0.000 C 
BRANCH   5   6
ATOM      6  C   UNL     1      41.140  24.312 224.772  1.00  0.00     0.000 C 
BRANCH   6   7
ATOM      7  C   UNL     1      39.613  24.149 224.850  1.00  0.00     0.000 C 
BRANCH   7   8
ATOM      8  C   UNL     1      38.885  24.804 223.663  1.00  0.00     0.000 C 
BRANCH   8   9
ATOM      9  C   UNL     1      37.356  24.833 223.842  1.00  0.00     0.000 C 
BRANCH   9  10
ATOM     10  C   UNL     1      36.603  23.618 223.264  1.00  0.00     0.006 C 
BRANCH  10  11
ATOM     11  C   UNL     1      35.657  23.946 222.099  1.00  0.00     0.053 C 
BRANCH  11  12
ATOM     12  C   UNL     1      36.371  23.953 220.783  1.00  0.00     0.041 C 
ATOM     13  O   UNL     1      37.451  23.321 220.644  1.00  0.00    -0.550 OA
ATOM     14  O   UNL     1      35.861  24.687 219.719  1.00  0.00    -0.550 OA
ENDBRANCH  11  12
ENDBRANCH  10  11
ENDBRANCH   9  10
ENDBRANCH   8   9
ENDBRANCH   7   8
ENDBRANCH   6   7
ENDBRANCH   5   6
ENDBRANCH   4   5
ENDBRANCH   3   4
ENDBRANCH   2   3
ENDBRANCH   1   2
BRANCH   1  15
ATOM     15  C   UNL     1      40.604  18.156 226.077  1.00  0.00     0.000 C 
BRANCH  15  16
ATOM     16  C   UNL     1      39.530  17.240 226.690  1.00  0.00     0.000 C 
BRANCH  16  17
ATOM     17  C   UNL     1      38.917  17.838 227.973  1.00  0.00     0.000 C 
BRANCH  17  18
ATOM     18  C   UNL     1      37.382  17.930 227.935  1.00  0.00    -0.000 C 
BRANCH  18  19
ATOM     19  C   UNL     1      36.822  17.994 226.504  1.00  0.00    -0.000 C 
BRANCH  19  20
ATOM     20  C   UNL     1      36.384  19.412 226.108  1.00  0.00    -0.000 C 
BRANCH  20  21
ATOM     21  C   UNL     1      37.550  20.263 225.577  1.00  0.00    -0.000 C 
BRANCH  21  22
ATOM     22  C   UNL     1      37.670  21.621 226.293  1.00  0.00    -0.000 C 
BRANCH  22  23
ATOM     23  C   UNL     1      38.421  21.581 227.638  1.00  0.00    -0.000 C 
BRANCH  23  24
ATOM     24  C   UNL     1      38.827  22.958 228.203  1.00  0.00    -0.000 C 
BRANCH  24  25
ATOM     25  C   UNL     1      40.342  23.163 228.380  1.00  0.00    -0.003 C 
ATOM     26  C   UNL     1      40.714  24.614 228.682  1.00  0.00     0.004 C 
ENDBRANCH  24  25
ENDBRANCH  23  24
ENDBRANCH  22  23
ENDBRANCH  21  22
ENDBRANCH  20  21
ENDBRANCH  19  20
ENDBRANCH  18  19
ENDBRANCH  17  18
ENDBRANCH  16  17
ENDBRANCH  15  16
ENDBRANCH   1  15
TORSDOF 22
ENDMDL
MODEL 7
REMARK VINA RESULT:    -3.722      2.790      5.886
REMARK INTER + INTRA:         -12.254
REMARK INTER:                  -8.636
REMARK INTRA:                  -3.618
REMARK UNBOUND:                -3.745
REMARK SMILES CCCCCCCCCCCCCCCCCCCCCCCC(=O)[O-]
REMARK SMILES IDX 13 1 14 2 15 3 16 4 17 5 18 6 19 7 20 8 21 9 22 10 23 11
REMARK SMILES IDX 24 12 25 13 26 14 12 15 11 16 10 17 9 18 8 19 7 20 6 21 5 22
REMARK SMILES IDX 4 23 3 24 2 25 1 26
REMARK H PARENT
REMARK Flexibility Score: inf
ROOT
ATOM      1  C   UNL     1      41.384  24.901 226.965  1.00  0.00     0.000 C 
ENDROOT
BRANCH   1   2
ATOM      2  C   UNL     1      40.971  26.237 226.324  1.00  0.00     0.000 C 
BRANCH   2   3
ATOM      3  C   UNL     1      39.487  26.565 226.550  1.00  0.00     0.000 C 
BRANCH   3   4
ATOM      4  C   UNL     1      38.947  25.978 227.866  1.00  0.00     0.000 C 
BRANCH   4   5
ATOM      5  C   UNL     1      37.659  25.160 227.665  1.00  0.00     0.000 C 
BRANCH   5   6
ATOM      6  C   UNL     1      37.939  23.739 227.144  1.00  0.00     0.000 C 
BRANCH   6   7
ATOM      7  C   UNL     1      38.484  22.806 228.238  1.00  0.00     0.000 C 
BRANCH   7   8
ATOM      8  C   UNL     1      38.845  21.411 227.700  1.00  0.00     0.000 C 
BRANCH   8   9
ATOM      9  C   UNL     1      37.634  20.670 227.103  1.00  0.00     0.000 C 
BRANCH   9  10
ATOM     10  C   UNL     1      37.909  19.917 225.785  1.00  0.00     0.006 C 
BRANCH  10  11
ATOM     11  C   UNL     1      38.321  18.447 225.961  1.00  0.00     0.053 C 
BRANCH  11  12
ATOM     12  C   UNL     1      39.775  18.235 225.673  1.00  0.00     0.041 C 
ATOM     13  O   UNL     1      40.337  17.158 226.004  1.00  0.00    -0.550 OA
ATOM     14  O   UNL     1      40.518  19.242 225.067  1.00  0.00    -0.550 OA
ENDBRANCH  11  12
ENDBRANCH  10  11
ENDBRANCH   9  10
ENDBRANCH   8   9
ENDBRANCH   7   8
ENDBRANCH   6   7
ENDBRANCH   5   6
ENDBRANCH   4   5
ENDBRANCH   3   4
ENDBRANCH   2   3
ENDBRANCH   1   2
BRANCH   1  15
ATOM     15  C   UNL     1      42.246  24.039 226.029  1.00  0.00     0.000 C 
BRANCH  15  16
ATOM     16  C   UNL     1      41.522  22.765 225.559  1.00  0.00     0.000 C 
BRANCH  16  17
ATOM     17  C   UNL     1      41.852  22.413 224.094  1.00  0.00     0.000 C 
BRANCH  17  18
ATOM     18  C   UNL     1      40.690  22.676 223.122  1.00  0.00    -0.000 C 
BRANCH  18  19
ATOM     19  C   UNL     1      40.373  24.173 222.961  1.00  0.00    -0.000 C 
BRANCH  19  20
ATOM     20  C   UNL     1      38.981  24.539 223.497  1.00  0.00    -0.000 C 
BRANCH  20  21
ATOM     21  C   UNL     1      37.974  23.383 223.363  1.00  0.00    -0.000 C 
BRANCH  21  22
ATOM     22  C   UNL     1      36.588  23.733 223.933  1.00  0.00    -0.000 C 
BRANCH  22  23
ATOM     23  C   UNL     1      35.607  24.353 222.920  1.00  0.00    -0.000 C 
BRANCH  23  24
ATOM     24  C   UNL     1      35.462  23.582 221.591  1.00  0.00    -0.000 C 
BRANCH  24  25
ATOM     25  C   UNL     1      36.062  24.290 220.364  1.00  0.00    -0.003 C 
ATOM     26  C   UNL     1      37.180  23.485 219.701  1.00  0.00     0.004 C 
ENDBRANCH  24  25
ENDBRANCH  23  24
ENDBRANCH  22  23
ENDBRANCH  21  22
ENDBRANCH  20  21
ENDBRANCH  19  20
ENDBRANCH  18  19
ENDBRANCH  17  18
ENDBRANCH  16  17
ENDBRANCH  15  16
ENDBRANCH   1  15
TORSDOF 22
ENDMDL
MODEL 8
REMARK VINA RESULT:    -3.703      3.182      7.288
REMARK INTER + INTRA:         -12.211
REMARK INTER:                  -9.203
REMARK INTRA:                  -3.008
REMARK UNBOUND:                -3.745
REMARK SMILES CCCCCCCCCCCCCCCCCCCCCCCC(=O)[O-]
REMARK SMILES IDX 13 1 14 2 15 3 16 4 17 5 18 6 19 7 20 8 21 9 22 10 23 11
REMARK SMILES IDX 24 12 25 13 26 14 12 15 11 16 10 17 9 18 8 19 7 20 6 21 5 22
REMARK SMILES IDX 4 23 3 24 2 25 1 26
REMARK H PARENT
REMARK Flexibility Score: inf
ROOT
ATOM      1  C   UNL     1      38.134  22.396 226.244  1.00  0.00     0.000 C 
ENDROOT
BRANCH   1   2
ATOM      2  C   UNL     1      38.763  21.408 225.245  1.00  0.00     0.000 C 
BRANCH   2   3
ATOM      3  C   UNL     1      39.601  22.113 224.167  1.00  0.00     0.000 C 
BRANCH   3   4
ATOM      4  C   UNL     1      41.110  21.867 224.339  1.00  0.00     0.000 C 
BRANCH   4   5
ATOM      5  C   UNL     1      41.692  20.964 223.238  1.00  0.00     0.000 C 
BRANCH   5   6
ATOM      6  C   UNL     1      41.564  19.468 223.576  1.00  0.00     0.000 C 
BRANCH   6   7
ATOM      7  C   UNL     1      41.713  19.187 225.080  1.00  0.00     0.000 C 
BRANCH   7   8
ATOM      8  C   UNL     1      40.554  18.347 225.643  1.00  0.00     0.000 C 
BRANCH   8   9
ATOM      9  C   UNL     1      40.567  18.264 227.181  1.00  0.00     0.000 C 
BRANCH   9  10
ATOM     10  C   UNL     1      39.477  19.091 227.893  1.00  0.00     0.006 C 
BRANCH  10  11
ATOM     11  C   UNL     1      38.503  18.265 228.747  1.00  0.00     0.053 C 
BRANCH  11  12
ATOM     12  C   UNL     1      37.706  17.307 227.916  1.00  0.00     0.041 C 
ATOM     13  O   UNL     1      36.762  17.726 227.196  1.00  0.00    -0.550 OA
ATOM     14  O   UNL     1      37.984  15.946 227.964  1.00  0.00    -0.550 OA
ENDBRANCH  11  12
ENDBRANCH  10  11
ENDBRANCH   9  10
ENDBRANCH   8   9
ENDBRANCH   7   8
ENDBRANCH   6   7
ENDBRANCH   5   6
ENDBRANCH   4   5
ENDBRANCH   3   4
ENDBRANCH   2   3
ENDBRANCH   1   2
BRANCH   1  15
ATOM     15  C   UNL     1      39.124  22.843 227.332  1.00  0.00     0.000 C 
BRANCH  15  16
ATOM     16  C   UNL     1      39.275  24.373 227.404  1.00  0.00     0.000 C 
BRANCH  16  17
ATOM     17  C   UNL     1      40.400  24.892 226.486  1.00  0.00     0.000 C 
BRANCH  17  18
ATOM     18  C   UNL     1      39.887  25.521 225.180  1.00  0.00    -0.000 C 
BRANCH  18  19
ATOM     19  C   UNL     1      38.500  26.170 225.334  1.00  0.00    -0.000 C 
BRANCH  19  20
ATOM     20  C   UNL     1      37.570  25.855 224.152  1.00  0.00    -0.000 C 
BRANCH  20  21
ATOM     21  C   UNL     1      36.742  24.579 224.378  1.00  0.00    -0.000 C 
BRANCH  21  22
ATOM     22  C   UNL     1      35.805  24.261 223.198  1.00  0.00    -0.000 C 
BRANCH  22  23
ATOM     23  C   UNL     1      36.516  23.794 221.913  1.00  0.00    -0.000 C 
BRANCH  23  24
ATOM     24  C   UNL     1      35.822  24.202 220.596  1.00  0.00    -0.000 C 
BRANCH  24  25
ATOM     25  C   UNL     1      36.671  23.998 219.329  1.00  0.00    -0.003 C 
ATOM     26  C   UNL     1      37.763  22.943 219.507  1.00  0.00     0.004 C 
ENDBRANCH  24  25
ENDBRANCH  23  24
ENDBRANCH  22  23
ENDBRANCH  21  22
ENDBRANCH  20  21
ENDBRANCH  19  20
ENDBRANCH  18  19
ENDBRANCH  17  18
ENDBRANCH  16  17
ENDBRANCH  15  16
ENDBRANCH   1  15
TORSDOF 22
ENDMDL
MODEL 9
REMARK VINA RESULT:    -3.690      3.145      7.232
REMARK INTER + INTRA:         -12.182
REMARK INTER:                  -8.335
REMARK INTRA:                  -3.847
REMARK UNBOUND:                -3.745
REMARK SMILES CCCCCCCCCCCCCCCCCCCCCCCC(=O)[O-]
REMARK SMILES IDX 13 1 14 2 15 3 16 4 17 5 18 6 19 7 20 8 21 9 22 10 23 11
REMARK SMILES IDX 24 12 25 13 26 14 12 15 11 16 10 17 9 18 8 19 7 20 6 21 5 22
REMARK SMILES IDX 4 23 3 24 2 25 1 26
REMARK H PARENT
REMARK Flexibility Score: inf
ROOT
ATOM      1  C   UNL     1      38.957  22.504 224.158  1.00  0.00     0.000 C 
ENDROOT
BRANCH   1   2
ATOM      2  C   UNL     1      37.890  21.812 225.024  1.00  0.00     0.000 C 
BRANCH   2   3
ATOM      3  C   UNL     1      38.346  21.616 226.478  1.00  0.00     0.000 C 
BRANCH   3   4
ATOM      4  C   UNL     1      39.789  22.096 226.713  1.00  0.00     0.000 C 
BRANCH   4   5
ATOM      5  C   UNL     1      40.744  20.946 227.075  1.00  0.00     0.000 C 
BRANCH   5   6
ATOM      6  C   UNL     1      41.876  20.775 226.046  1.00  0.00     0.000 C 
BRANCH   6   7
ATOM      7  C   UNL     1      41.775  19.449 225.273  1.00  0.00     0.000 C 
BRANCH   7   8
ATOM      8  C   UNL     1      40.458  18.703 225.547  1.00  0.00     0.000 C 
BRANCH   8   9
ATOM      9  C   UNL     1      40.664  17.394 226.331  1.00  0.00     0.000 C 
BRANCH   9  10
ATOM     10  C   UNL     1      39.443  16.916 227.143  1.00  0.00     0.006 C 
BRANCH  10  11
ATOM     11  C   UNL     1      38.562  18.045 227.699  1.00  0.00     0.053 C 
BRANCH  11  12
ATOM     12  C   UNL     1      37.105  17.710 227.617  1.00  0.00     0.041 C 
ATOM     13  O   UNL     1      36.695  16.570 227.961  1.00  0.00    -0.550 OA
ATOM     14  O   UNL     1      36.202  18.646 227.127  1.00  0.00    -0.550 OA
ENDBRANCH  11  12
ENDBRANCH  10  11
ENDBRANCH   9  10
ENDBRANCH   8   9
ENDBRANCH   7   8
ENDBRANCH   6   7
ENDBRANCH   5   6
ENDBRANCH   4   5
ENDBRANCH   3   4
ENDBRANCH   2   3
ENDBRANCH   1   2
BRANCH   1  15
ATOM     15  C   UNL     1      38.348  23.267 222.971  1.00  0.00     0.000 C 
BRANCH  15  16
ATOM     16  C   UNL     1      36.831  23.044 222.837  1.00  0.00     0.000 C 
BRANCH  16  17
ATOM     17  C   UNL     1      36.051  24.372 222.755  1.00  0.00     0.000 C 
BRANCH  17  18
ATOM     18  C   UNL     1      36.622  25.477 223.660  1.00  0.00    -0.000 C 
BRANCH  18  19
ATOM     19  C   UNL     1      36.360  25.221 225.154  1.00  0.00    -0.000 C 
BRANCH  19  20
ATOM     20  C   UNL     1      37.601  25.477 226.021  1.00  0.00    -0.000 C 
BRANCH  20  21
ATOM     21  C   UNL     1      38.694  26.258 225.271  1.00  0.00    -0.000 C 
BRANCH  21  22
ATOM     22  C   UNL     1      39.830  26.728 226.196  1.00  0.00    -0.000 C 
BRANCH  22  23
ATOM     23  C   UNL     1      40.298  25.686 227.231  1.00  0.00    -0.000 C 
BRANCH  23  24
ATOM     24  C   UNL     1      41.825  25.479 227.308  1.00  0.00    -0.000 C 
BRANCH  24  25
ATOM     25  C   UNL     1      42.542  25.438 225.946  1.00  0.00    -0.003 C 
ATOM     26  C   UNL     1      42.043  24.308 225.046  1.00  0.00     0.004 C 
ENDBRANCH  24  25
ENDBRANCH  23  24
ENDBRANCH  22  23
ENDBRANCH  21  22
ENDBRANCH  20  21
ENDBRANCH  19  20
ENDBRANCH  18  19
ENDBRANCH  17  18
ENDBRANCH  16  17
ENDBRANCH  15  16
ENDBRANCH   1  15
TORSDOF 22
ENDMDL
