MODEL 1
REMARK VINA RESULT:    -2.707      0.000      0.000
REMARK INTER + INTRA:          -3.989
REMARK INTER:                  -3.894
REMARK INTRA:                  -0.095
REMARK UNBOUND:                -0.095
REMARK SMILES O=C(CO)[C@H](O)[C@H](O)[C@@H](O)CO
REMARK SMILES IDX 7 1 9 2 11 3 12 4 10 6 5 8 2 9 1 10 3 11 4 12 6 14 8 16
REMARK H PARENT 12 5 10 7 4 13 6 15 8 17
REMARK Flexibility Score: inf
ROOT
ATOM      1  C   UNL     1     -15.746   8.942  -7.631  1.00  0.00     0.181 C 
ENDROOT
BRANCH   1   2
ATOM      2  C   UNL     1     -14.381   8.631  -8.314  1.00  0.00     0.171 C 
BRANCH   2   3
ATOM      3  C   UNL     1     -14.338   8.980  -9.811  1.00  0.00     0.190 C 
BRANCH   3   4
ATOM      4  O   UNL     1     -13.121   8.584 -10.387  1.00  0.00    -0.394 OA
ATOM      5  H   UNL     1     -13.340   7.961 -11.129  1.00  0.00     0.210 HD
ENDBRANCH   3   4
ENDBRANCH   2   3
BRANCH   2   6
ATOM      6  O   UNL     1     -14.090   7.263  -8.177  1.00  0.00    -0.388 OA
ATOM      7  H   UNL     1     -13.688   7.136  -7.279  1.00  0.00     0.211 HD
ENDBRANCH   2   6
ENDBRANCH   1   2
BRANCH   1   8
ATOM      8  C   UNL     1     -16.947   8.931  -8.616  1.00  0.00     0.214 C 
BRANCH   8   9
ATOM      9  C   UNL     1     -18.253   8.766  -7.869  1.00  0.00     0.189 C 
ATOM     10  O   UNL     1     -18.469   9.444  -6.875  1.00  0.00    -0.294 OA
BRANCH   9  11
ATOM     11  C   UNL     1     -19.295   7.781  -8.325  1.00  0.00     0.234 C 
BRANCH  11  12
ATOM     12  O   UNL     1     -19.579   7.974  -9.683  1.00  0.00    -0.388 OA
ATOM     13  H   UNL     1     -19.853   8.923  -9.782  1.00  0.00     0.211 HD
ENDBRANCH  11  12
ENDBRANCH   9  11
ENDBRANCH   8   9
BRANCH   8  14
ATOM     14  O   UNL     1     -16.816   7.871  -9.525  1.00  0.00    -0.382 OA
ATOM     15  H   UNL     1     -16.488   8.261 -10.378  1.00  0.00     0.211 HD
ENDBRANCH   8  14
ENDBRANCH   1   8
BRANCH   1  16
ATOM     16  O   UNL     1     -15.666  10.187  -6.978  1.00  0.00    -0.387 OA
ATOM     17  H   UNL     1     -14.792  10.593  -7.219  1.00  0.00     0.211 HD
ENDBRANCH   1  16
TORSDOF 10
ENDMDL
MODEL 2
REMARK VINA RESULT:    -2.681      1.110      1.971
REMARK INTER + INTRA:          -3.951
REMARK INTER:                  -4.005
REMARK INTRA:                   0.054
REMARK UNBOUND:                -0.095
REMARK SMILES O=C(CO)[C@H](O)[C@H](O)[C@@H](O)CO
REMARK SMILES IDX 7 1 9 2 11 3 12 4 10 6 5 8 2 9 1 10 3 11 4 12 6 14 8 16
REMARK H PARENT 12 5 10 7 4 13 6 15 8 17
REMARK Flexibility Score: inf
ROOT
ATOM      1  C   UNL     1     -15.216   9.499  -9.004  1.00  0.00     0.181 C 
ENDROOT
BRANCH   1   2
ATOM      2  C   UNL     1     -13.796   8.874  -9.150  1.00  0.00     0.171 C 
BRANCH   2   3
ATOM      3  C   UNL     1     -13.320   8.738 -10.605  1.00  0.00     0.190 C 
BRANCH   3   4
ATOM      4  O   UNL     1     -13.668   9.870 -11.360  1.00  0.00    -0.394 OA
ATOM      5  H   UNL     1     -14.630  10.046 -11.191  1.00  0.00     0.210 HD
ENDBRANCH   3   4
ENDBRANCH   2   3
BRANCH   2   6
ATOM      6  O   UNL     1     -13.784   7.596  -8.567  1.00  0.00    -0.388 OA
ATOM      7  H   UNL     1     -14.358   7.636  -7.758  1.00  0.00     0.211 HD
ENDBRANCH   2   6
ENDBRANCH   1   2
BRANCH   1   8
ATOM      8  C   UNL     1     -16.113   8.759  -7.975  1.00  0.00     0.214 C 
BRANCH   8   9
ATOM      9  C   UNL     1     -17.375   8.243  -8.635  1.00  0.00     0.189 C 
ATOM     10  O   UNL     1     -17.294   7.605  -9.674  1.00  0.00    -0.294 OA
BRANCH   9  11
ATOM     11  C   UNL     1     -18.731   8.501  -8.037  1.00  0.00     0.234 C 
BRANCH  11  12
ATOM     12  O   UNL     1     -19.734   8.174  -8.958  1.00  0.00    -0.388 OA
ATOM     13  H   UNL     1     -20.543   8.682  -8.687  1.00  0.00     0.211 HD
ENDBRANCH  11  12
ENDBRANCH   9  11
ENDBRANCH   8   9
BRANCH   8  14
ATOM     14  O   UNL     1     -16.477   9.629  -6.937  1.00  0.00    -0.382 OA
ATOM     15  H   UNL     1     -16.894  10.425  -7.361  1.00  0.00     0.211 HD
ENDBRANCH   8  14
ENDBRANCH   1   8
BRANCH   1  16
ATOM     16  O   UNL     1     -15.844   9.525 -10.264  1.00  0.00    -0.387 OA
ATOM     17  H   UNL     1     -15.540  10.349 -10.730  1.00  0.00     0.211 HD
ENDBRANCH   1  16
TORSDOF 10
ENDMDL
MODEL 3
REMARK VINA RESULT:    -2.592      0.976      4.459
REMARK INTER + INTRA:          -3.824
REMARK INTER:                  -3.228
REMARK INTRA:                  -0.596
REMARK UNBOUND:                -0.095
REMARK SMILES O=C(CO)[C@H](O)[C@H](O)[C@@H](O)CO
REMARK SMILES IDX 7 1 9 2 11 3 12 4 10 6 5 8 2 9 1 10 3 11 4 12 6 14 8 16
REMARK H PARENT 12 5 10 7 4 13 6 15 8 17
REMARK Flexibility Score: inf
ROOT
ATOM      1  C   UNL     1     -16.574   9.388  -7.983  1.00  0.00     0.181 C 
ENDROOT
BRANCH   1   2
ATOM      2  C   UNL     1     -17.856   8.645  -7.503  1.00  0.00     0.171 C 
BRANCH   2   3
ATOM      3  C   UNL     1     -18.636   7.951  -8.631  1.00  0.00     0.190 C 
BRANCH   3   4
ATOM      4  O   UNL     1     -19.920   8.501  -8.773  1.00  0.00    -0.394 OA
ATOM      5  H   UNL     1     -20.300   8.137  -9.614  1.00  0.00     0.210 HD
ENDBRANCH   3   4
ENDBRANCH   2   3
BRANCH   2   6
ATOM      6  O   UNL     1     -18.720   9.558  -6.875  1.00  0.00    -0.388 OA
ATOM      7  H   UNL     1     -18.433   9.632  -5.928  1.00  0.00     0.211 HD
ENDBRANCH   2   6
ENDBRANCH   1   2
BRANCH   1   8
ATOM      8  C   UNL     1     -15.843   8.668  -9.148  1.00  0.00     0.214 C 
BRANCH   8   9
ATOM      9  C   UNL     1     -14.455   8.233  -8.725  1.00  0.00     0.189 C 
ATOM     10  O   UNL     1     -14.328   7.312  -7.931  1.00  0.00    -0.294 OA
BRANCH   9  11
ATOM     11  C   UNL     1     -13.226   8.913  -9.262  1.00  0.00     0.234 C 
BRANCH  11  12
ATOM     12  O   UNL     1     -13.142   8.733 -10.649  1.00  0.00    -0.388 OA
ATOM     13  H   UNL     1     -12.812   7.807 -10.794  1.00  0.00     0.211 HD
ENDBRANCH  11  12
ENDBRANCH   9  11
ENDBRANCH   8   9
BRANCH   8  14
ATOM     14  O   UNL     1     -15.724   9.528 -10.249  1.00  0.00    -0.382 OA
ATOM     15  H   UNL     1     -16.497  10.150 -10.214  1.00  0.00     0.211 HD
ENDBRANCH   8  14
ENDBRANCH   1   8
BRANCH   1  16
ATOM     16  O   UNL     1     -15.699   9.557  -6.892  1.00  0.00    -0.387 OA
ATOM     17  H   UNL     1     -16.246   9.845  -6.114  1.00  0.00     0.211 HD
ENDBRANCH   1  16
TORSDOF 10
ENDMDL
MODEL 4
REMARK VINA RESULT:    -1.956      1.148      4.770
REMARK INTER + INTRA:          -2.908
REMARK INTER:                  -2.816
REMARK INTRA:                  -0.092
REMARK UNBOUND:                -0.095
REMARK SMILES O=C(CO)[C@H](O)[C@H](O)[C@@H](O)CO
REMARK SMILES IDX 7 1 9 2 11 3 12 4 10 6 5 8 2 9 1 10 3 11 4 12 6 14 8 16
REMARK H PARENT 12 5 10 7 4 13 6 15 8 17
REMARK Flexibility Score: inf
ROOT
ATOM      1  C   UNL     1     -17.116   8.067  -8.834  1.00  0.00     0.181 C 
ENDROOT
BRANCH   1   2
ATOM      2  C   UNL     1     -18.505   8.606  -8.378  1.00  0.00     0.171 C 
BRANCH   2   3
ATOM      3  C   UNL     1     -18.917   8.154  -6.967  1.00  0.00     0.190 C 
BRANCH   3   4
ATOM      4  O   UNL     1     -19.774   7.043  -7.022  1.00  0.00    -0.394 OA
ATOM      5  H   UNL     1     -19.728   6.686  -7.946  1.00  0.00     0.210 HD
ENDBRANCH   3   4
ENDBRANCH   2   3
BRANCH   2   6
ATOM      6  O   UNL     1     -19.493   8.176  -9.279  1.00  0.00    -0.388 OA
ATOM      7  H   UNL     1     -19.668   8.927  -9.904  1.00  0.00     0.211 HD
ENDBRANCH   2   6
ENDBRANCH   1   2
BRANCH   1   8
ATOM      8  C   UNL     1     -15.949   9.051  -8.553  1.00  0.00     0.214 C 
BRANCH   8   9
ATOM      9  C   UNL     1     -14.617   8.333  -8.599  1.00  0.00     0.189 C 
ATOM     10  O   UNL     1     -14.399   7.416  -7.820  1.00  0.00    -0.294 OA
BRANCH   9  11
ATOM     11  C   UNL     1     -13.550   8.726  -9.585  1.00  0.00     0.234 C 
BRANCH  11  12
ATOM     12  O   UNL     1     -14.072   9.622 -10.527  1.00  0.00    -0.388 OA
ATOM     13  H   UNL     1     -15.057   9.620 -10.403  1.00  0.00     0.211 HD
ENDBRANCH  11  12
ENDBRANCH   9  11
ENDBRANCH   8   9
BRANCH   8  14
ATOM     14  O   UNL     1     -16.100   9.630  -7.285  1.00  0.00    -0.382 OA
ATOM     15  H   UNL     1     -16.748   9.067  -6.786  1.00  0.00     0.211 HD
ENDBRANCH   8  14
ENDBRANCH   1   8
BRANCH   1  16
ATOM     16  O   UNL     1     -17.167   7.754 -10.206  1.00  0.00    -0.387 OA
ATOM     17  H   UNL     1     -17.591   8.523 -10.671  1.00  0.00     0.211 HD
ENDBRANCH   1  16
TORSDOF 10
ENDMDL
MODEL 5
REMARK VINA RESULT:    -0.773      1.183      4.182
REMARK INTER + INTRA:          -1.207
REMARK INTER:                  -1.664
REMARK INTRA:                   0.456
REMARK UNBOUND:                -0.095
REMARK SMILES O=C(CO)[C@H](O)[C@H](O)[C@@H](O)CO
REMARK SMILES IDX 7 1 9 2 11 3 12 4 10 6 5 8 2 9 1 10 3 11 4 12 6 14 8 16
REMARK H PARENT 12 5 10 7 4 13 6 15 8 17
REMARK Flexibility Score: inf
ROOT
ATOM      1  C   UNL     1     -17.048   8.205  -8.680  1.00  0.00     0.181 C 
ENDROOT
BRANCH   1   2
ATOM      2  C   UNL     1     -17.309   9.443  -7.772  1.00  0.00     0.171 C 
BRANCH   2   3
ATOM      3  C   UNL     1     -16.120   9.823  -6.875  1.00  0.00     0.190 C 
BRANCH   3   4
ATOM      4  O   UNL     1     -15.477  10.978  -7.350  1.00  0.00    -0.394 OA
ATOM      5  H   UNL     1     -16.090  11.740  -7.186  1.00  0.00     0.210 HD
ENDBRANCH   3   4
ENDBRANCH   2   3
BRANCH   2   6
ATOM      6  O   UNL     1     -18.416   9.192  -6.944  1.00  0.00    -0.388 OA
ATOM      7  H   UNL     1     -19.200   9.641  -7.355  1.00  0.00     0.211 HD
ENDBRANCH   2   6
ENDBRANCH   1   2
BRANCH   1   8
ATOM      8  C   UNL     1     -15.855   8.395  -9.656  1.00  0.00     0.214 C 
BRANCH   8   9
ATOM      9  C   UNL     1     -14.542   8.090  -8.967  1.00  0.00     0.189 C 
ATOM     10  O   UNL     1     -14.543   7.459  -7.920  1.00  0.00    -0.294 OA
BRANCH   9  11
ATOM     11  C   UNL     1     -13.232   8.551  -9.544  1.00  0.00     0.234 C 
BRANCH  11  12
ATOM     12  O   UNL     1     -13.453   9.292 -10.712  1.00  0.00    -0.388 OA
ATOM     13  H   UNL     1     -12.582   9.338 -11.187  1.00  0.00     0.211 HD
ENDBRANCH  11  12
ENDBRANCH   9  11
ENDBRANCH   8   9
BRANCH   8  14
ATOM     14  O   UNL     1     -15.818   9.717 -10.122  1.00  0.00    -0.382 OA
ATOM     15  H   UNL     1     -14.862   9.981 -10.166  1.00  0.00     0.211 HD
ENDBRANCH   8  14
ENDBRANCH   1   8
BRANCH   1  16
ATOM     16  O   UNL     1     -18.219   7.900  -9.399  1.00  0.00    -0.387 OA
ATOM     17  H   UNL     1     -18.679   7.162  -8.919  1.00  0.00     0.211 HD
ENDBRANCH   1  16
TORSDOF 10
ENDMDL
MODEL 6
REMARK VINA RESULT:     0.187      1.323      4.678
REMARK INTER + INTRA:           0.174
REMARK INTER:                   0.357
REMARK INTRA:                  -0.183
REMARK UNBOUND:                -0.095
REMARK SMILES O=C(CO)[C@H](O)[C@H](O)[C@@H](O)CO
REMARK SMILES IDX 7 1 9 2 11 3 12 4 10 6 5 8 2 9 1 10 3 11 4 12 6 14 8 16
REMARK H PARENT 12 5 10 7 4 13 6 15 8 17
REMARK Flexibility Score: inf
ROOT
ATOM      1  C   UNL     1     -18.048   8.946  -8.155  1.00  0.00     0.181 C 
ENDROOT
BRANCH   1   2
ATOM      2  C   UNL     1     -19.457   8.292  -8.032  1.00  0.00     0.171 C 
BRANCH   2   3
ATOM      3  C   UNL     1     -19.473   6.990  -7.215  1.00  0.00     0.190 C 
BRANCH   3   4
ATOM      4  O   UNL     1     -20.600   6.212  -7.524  1.00  0.00    -0.394 OA
ATOM      5  H   UNL     1     -20.354   5.266  -7.356  1.00  0.00     0.210 HD
ENDBRANCH   3   4
ENDBRANCH   2   3
BRANCH   2   6
ATOM      6  O   UNL     1     -19.954   8.007  -9.315  1.00  0.00    -0.388 OA
ATOM      7  H   UNL     1     -19.177   7.771  -9.886  1.00  0.00     0.211 HD
ENDBRANCH   2   6
ENDBRANCH   1   2
BRANCH   1   8
ATOM      8  C   UNL     1     -16.998   8.026  -8.835  1.00  0.00     0.214 C 
BRANCH   8   9
ATOM      9  C   UNL     1     -15.637   8.690  -8.857  1.00  0.00     0.189 C 
ATOM     10  O   UNL     1     -15.225   9.185  -9.896  1.00  0.00    -0.294 OA
BRANCH   9  11
ATOM     11  C   UNL     1     -14.777   8.751  -7.625  1.00  0.00     0.234 C 
BRANCH  11  12
ATOM     12  O   UNL     1     -14.984   9.963  -6.952  1.00  0.00    -0.388 OA
ATOM     13  H   UNL     1     -14.623  10.677  -7.540  1.00  0.00     0.211 HD
ENDBRANCH  11  12
ENDBRANCH   9  11
ENDBRANCH   8   9
BRANCH   8  14
ATOM     14  O   UNL     1     -17.381   7.749 -10.155  1.00  0.00    -0.382 OA
ATOM     15  H   UNL     1     -18.243   7.258 -10.108  1.00  0.00     0.211 HD
ENDBRANCH   8  14
ENDBRANCH   1   8
BRANCH   1  16
ATOM     16  O   UNL     1     -17.601   9.330  -6.876  1.00  0.00    -0.387 OA
ATOM     17  H   UNL     1     -17.850  10.283  -6.748  1.00  0.00     0.211 HD
ENDBRANCH   1  16
TORSDOF 10
ENDMDL
