MODEL 1
REMARK VINA RESULT:    -4.780      0.000      0.000
REMARK INTER + INTRA:         -15.591
REMARK INTER:                 -10.928
REMARK INTRA:                  -4.663
REMARK UNBOUND:                -4.663
REMARK SMILES CCCCCCCCCCCCCCCCCCCCCCCC(=O)[O-]
REMARK SMILES IDX 13 1 14 2 15 3 16 4 17 5 18 6 19 7 20 8 21 9 22 10 23 11
REMARK SMILES IDX 24 12 25 13 26 14 12 15 11 16 10 17 9 18 8 19 7 20 6 21 5 22
REMARK SMILES IDX 4 23 3 24 2 25 1 26
REMARK H PARENT
REMARK Flexibility Score: inf
ROOT
ATOM      1  C   UNL     1      29.591   6.197  41.878  1.00  0.00     0.000 C 
ENDROOT
BRANCH   1   2
ATOM      2  C   UNL     1      29.237   4.703  41.991  1.00  0.00     0.000 C 
BRANCH   2   3
ATOM      3  C   UNL     1      28.326   4.386  43.189  1.00  0.00     0.000 C 
BRANCH   3   4
ATOM      4  C   UNL     1      26.943   3.859  42.766  1.00  0.00     0.000 C 
BRANCH   4   5
ATOM      5  C   UNL     1      25.788   4.875  42.879  1.00  0.00     0.000 C 
BRANCH   5   6
ATOM      6  C   UNL     1      25.594   5.781  41.650  1.00  0.00     0.000 C 
BRANCH   6   7
ATOM      7  C   UNL     1      24.378   6.711  41.779  1.00  0.00     0.000 C 
BRANCH   7   8
ATOM      8  C   UNL     1      23.638   6.468  43.101  1.00  0.00     0.000 C 
BRANCH   8   9
ATOM      9  C   UNL     1      23.664   7.691  44.036  1.00  0.00     0.000 C 
BRANCH   9  10
ATOM     10  C   UNL     1      23.392   7.381  45.519  1.00  0.00     0.006 C 
BRANCH  10  11
ATOM     11  C   UNL     1      23.937   8.459  46.465  1.00  0.00     0.053 C 
BRANCH  11  12
ATOM     12  C   UNL     1      23.008   9.630  46.515  1.00  0.00     0.041 C 
ATOM     13  O   UNL     1      23.313  10.705  45.934  1.00  0.00    -0.550 OA
ATOM     14  O   UNL     1      21.827   9.551  47.240  1.00  0.00    -0.550 OA
ENDBRANCH  11  12
ENDBRANCH  10  11
ENDBRANCH   9  10
ENDBRANCH   8   9
ENDBRANCH   7   8
ENDBRANCH   6   7
ENDBRANCH   5   6
ENDBRANCH   4   5
ENDBRANCH   3   4
ENDBRANCH   2   3
ENDBRANCH   1   2
BRANCH   1  15
ATOM     15  C   UNL     1      29.375   7.030  43.157  1.00  0.00     0.000 C 
BRANCH  15  16
ATOM     16  C   UNL     1      28.234   8.052  43.028  1.00  0.00     0.000 C 
BRANCH  16  17
ATOM     17  C   UNL     1      27.200   7.933  44.161  1.00  0.00     0.000 C 
BRANCH  17  18
ATOM     18  C   UNL     1      27.782   7.365  45.472  1.00  0.00    -0.000 C 
BRANCH  18  19
ATOM     19  C   UNL     1      26.873   6.288  46.091  1.00  0.00    -0.000 C 
BRANCH  19  20
ATOM     20  C   UNL     1      27.672   5.171  46.784  1.00  0.00    -0.000 C 
BRANCH  20  21
ATOM     21  C   UNL     1      26.826   3.908  47.022  1.00  0.00    -0.000 C 
BRANCH  21  22
ATOM     22  C   UNL     1      25.363   4.082  46.579  1.00  0.00    -0.000 C 
BRANCH  22  23
ATOM     23  C   UNL     1      24.575   2.766  46.419  1.00  0.00    -0.000 C 
BRANCH  23  24
ATOM     24  C   UNL     1      23.056   2.970  46.232  1.00  0.00    -0.000 C 
BRANCH  24  25
ATOM     25  C   UNL     1      22.730   3.815  44.991  1.00  0.00    -0.003 C 
ATOM     26  C   UNL     1      22.583   2.941  43.749  1.00  0.00     0.004 C 
ENDBRANCH  24  25
ENDBRANCH  23  24
ENDBRANCH  22  23
ENDBRANCH  21  22
ENDBRANCH  20  21
ENDBRANCH  19  20
ENDBRANCH  18  19
ENDBRANCH  17  18
ENDBRANCH  16  17
ENDBRANCH  15  16
ENDBRANCH   1  15
TORSDOF 22
ENDMDL
MODEL 2
REMARK VINA RESULT:    -4.753     13.769     16.702
REMARK INTER + INTRA:         -15.528
REMARK INTER:                 -11.700
REMARK INTRA:                  -3.829
REMARK UNBOUND:                -4.663
REMARK SMILES CCCCCCCCCCCCCCCCCCCCCCCC(=O)[O-]
REMARK SMILES IDX 13 1 14 2 15 3 16 4 17 5 18 6 19 7 20 8 21 9 22 10 23 11
REMARK SMILES IDX 24 12 25 13 26 14 12 15 11 16 10 17 9 18 8 19 7 20 6 21 5 22
REMARK SMILES IDX 4 23 3 24 2 25 1 26
REMARK H PARENT
REMARK Flexibility Score: inf
ROOT
ATOM      1  C   UNL     1      20.811  -6.480  31.055  1.00  0.00     0.000 C 
ENDROOT
BRANCH   1   2
ATOM      2  C   UNL     1      19.733  -5.609  30.386  1.00  0.00     0.000 C 
BRANCH   2   3
ATOM      3  C   UNL     1      19.980  -4.101  30.559  1.00  0.00     0.000 C 
BRANCH   3   4
ATOM      4  C   UNL     1      19.134  -3.480  31.685  1.00  0.00     0.000 C 
BRANCH   4   5
ATOM      5  C   UNL     1      19.935  -2.881  32.858  1.00  0.00     0.000 C 
BRANCH   5   6
ATOM      6  C   UNL     1      19.084  -2.299  33.999  1.00  0.00     0.000 C 
BRANCH   6   7
ATOM      7  C   UNL     1      17.580  -2.293  33.681  1.00  0.00     0.000 C 
BRANCH   7   8
ATOM      8  C   UNL     1      16.807  -3.180  34.667  1.00  0.00     0.000 C 
BRANCH   8   9
ATOM      9  C   UNL     1      17.511  -4.520  34.946  1.00  0.00     0.000 C 
BRANCH   9  10
ATOM     10  C   UNL     1      16.809  -5.757  34.358  1.00  0.00     0.006 C 
BRANCH  10  11
ATOM     11  C   UNL     1      17.649  -6.467  33.287  1.00  0.00     0.053 C 
BRANCH  11  12
ATOM     12  C   UNL     1      17.410  -7.943  33.329  1.00  0.00     0.041 C 
ATOM     13  O   UNL     1      18.295  -8.739  32.918  1.00  0.00    -0.550 OA
ATOM     14  O   UNL     1      16.194  -8.439  33.779  1.00  0.00    -0.550 OA
ENDBRANCH  11  12
ENDBRANCH  10  11
ENDBRANCH   9  10
ENDBRANCH   8   9
ENDBRANCH   7   8
ENDBRANCH   6   7
ENDBRANCH   5   6
ENDBRANCH   4   5
ENDBRANCH   3   4
ENDBRANCH   2   3
ENDBRANCH   1   2
BRANCH   1  15
ATOM     15  C   UNL     1      22.127  -5.759  31.404  1.00  0.00     0.000 C 
BRANCH  15  16
ATOM     16  C   UNL     1      22.437  -5.760  32.910  1.00  0.00     0.000 C 
BRANCH  16  17
ATOM     17  C   UNL     1      21.281  -6.323  33.754  1.00  0.00     0.000 C 
BRANCH  17  18
ATOM     18  C   UNL     1      21.066  -5.575  35.087  1.00  0.00    -0.000 C 
BRANCH  18  19
ATOM     19  C   UNL     1      22.327  -4.814  35.535  1.00  0.00    -0.000 C 
BRANCH  19  20
ATOM     20  C   UNL     1      22.033  -3.348  35.894  1.00  0.00    -0.000 C 
BRANCH  20  21
ATOM     21  C   UNL     1      23.300  -2.474  35.868  1.00  0.00    -0.000 C 
BRANCH  21  22
ATOM     22  C   UNL     1      22.993  -0.977  36.042  1.00  0.00    -0.000 C 
BRANCH  22  23
ATOM     23  C   UNL     1      21.917  -0.422  35.087  1.00  0.00    -0.000 C 
BRANCH  23  24
ATOM     24  C   UNL     1      22.070   1.085  34.787  1.00  0.00    -0.000 C 
BRANCH  24  25
ATOM     25  C   UNL     1      21.081   1.942  35.591  1.00  0.00    -0.003 C 
ATOM     26  C   UNL     1      19.831   1.149  35.956  1.00  0.00     0.004 C 
ENDBRANCH  24  25
ENDBRANCH  23  24
ENDBRANCH  22  23
ENDBRANCH  21  22
ENDBRANCH  20  21
ENDBRANCH  19  20
ENDBRANCH  18  19
ENDBRANCH  17  18
ENDBRANCH  16  17
ENDBRANCH  15  16
ENDBRANCH   1  15
TORSDOF 22
ENDMDL
MODEL 3
REMARK VINA RESULT:    -4.678     12.821     15.986
REMARK INTER + INTRA:         -15.358
REMARK INTER:                 -12.314
REMARK INTRA:                  -3.044
REMARK UNBOUND:                -4.663
REMARK SMILES CCCCCCCCCCCCCCCCCCCCCCCC(=O)[O-]
REMARK SMILES IDX 13 1 14 2 15 3 16 4 17 5 18 6 19 7 20 8 21 9 22 10 23 11
REMARK SMILES IDX 24 12 25 13 26 14 12 15 11 16 10 17 9 18 8 19 7 20 6 21 5 22
REMARK SMILES IDX 4 23 3 24 2 25 1 26
REMARK H PARENT
REMARK Flexibility Score: inf
ROOT
ATOM      1  C   UNL     1      21.556  -0.560  34.840  1.00  0.00     0.000 C 
ENDROOT
BRANCH   1   2
ATOM      2  C   UNL     1      22.705  -0.338  35.841  1.00  0.00     0.000 C 
BRANCH   2   3
ATOM      3  C   UNL     1      23.025  -1.586  36.682  1.00  0.00     0.000 C 
BRANCH   3   4
ATOM      4  C   UNL     1      23.377  -2.812  35.822  1.00  0.00     0.000 C 
BRANCH   4   5
ATOM      5  C   UNL     1      23.413  -4.157  36.576  1.00  0.00     0.000 C 
BRANCH   5   6
ATOM      6  C   UNL     1      22.088  -4.939  36.578  1.00  0.00     0.000 C 
BRANCH   6   7
ATOM      7  C   UNL     1      21.872  -5.747  37.868  1.00  0.00     0.000 C 
BRANCH   7   8
ATOM      8  C   UNL     1      22.336  -7.199  37.691  1.00  0.00     0.000 C 
BRANCH   8   9
ATOM      9  C   UNL     1      23.190  -7.703  38.869  1.00  0.00     0.000 C 
BRANCH   9  10
ATOM     10  C   UNL     1      24.402  -6.821  39.217  1.00  0.00     0.006 C 
BRANCH  10  11
ATOM     11  C   UNL     1      25.509  -7.588  39.952  1.00  0.00     0.053 C 
BRANCH  11  12
ATOM     12  C   UNL     1      26.847  -6.991  39.653  1.00  0.00     0.041 C 
ATOM     13  O   UNL     1      27.053  -5.765  39.858  1.00  0.00    -0.550 OA
ATOM     14  O   UNL     1      27.853  -7.775  39.106  1.00  0.00    -0.550 OA
ENDBRANCH  11  12
ENDBRANCH  10  11
ENDBRANCH   9  10
ENDBRANCH   8   9
ENDBRANCH   7   8
ENDBRANCH   6   7
ENDBRANCH   5   6
ENDBRANCH   4   5
ENDBRANCH   3   4
ENDBRANCH   2   3
ENDBRANCH   1   2
BRANCH   1  15
ATOM     15  C   UNL     1      20.159  -0.751  35.463  1.00  0.00     0.000 C 
BRANCH  15  16
ATOM     16  C   UNL     1      19.347  -1.872  34.796  1.00  0.00     0.000 C 
BRANCH  16  17
ATOM     17  C   UNL     1      20.230  -2.869  34.026  1.00  0.00     0.000 C 
BRANCH  17  18
ATOM     18  C   UNL     1      19.734  -3.157  32.593  1.00  0.00    -0.000 C 
BRANCH  18  19
ATOM     19  C   UNL     1      18.206  -3.336  32.534  1.00  0.00    -0.000 C 
BRANCH  19  20
ATOM     20  C   UNL     1      17.793  -4.632  31.817  1.00  0.00    -0.000 C 
BRANCH  20  21
ATOM     21  C   UNL     1      18.991  -5.566  31.564  1.00  0.00    -0.000 C 
BRANCH  21  22
ATOM     22  C   UNL     1      18.664  -7.042  31.852  1.00  0.00    -0.000 C 
BRANCH  22  23
ATOM     23  C   UNL     1      19.342  -7.621  33.110  1.00  0.00    -0.000 C 
BRANCH  23  24
ATOM     24  C   UNL     1      20.420  -6.697  33.716  1.00  0.00    -0.000 C 
BRANCH  24  25
ATOM     25  C   UNL     1      21.796  -6.902  33.065  1.00  0.00    -0.003 C 
ATOM     26  C   UNL     1      22.558  -5.585  32.953  1.00  0.00     0.004 C 
ENDBRANCH  24  25
ENDBRANCH  23  24
ENDBRANCH  22  23
ENDBRANCH  21  22
ENDBRANCH  20  21
ENDBRANCH  19  20
ENDBRANCH  18  19
ENDBRANCH  17  18
ENDBRANCH  16  17
ENDBRANCH  15  16
ENDBRANCH   1  15
TORSDOF 22
ENDMDL
MODEL 4
REMARK VINA RESULT:    -4.640     13.156     16.080
REMARK INTER + INTRA:         -15.269
REMARK INTER:                 -10.951
REMARK INTRA:                  -4.319
REMARK UNBOUND:                -4.663
REMARK SMILES CCCCCCCCCCCCCCCCCCCCCCCC(=O)[O-]
REMARK SMILES IDX 13 1 14 2 15 3 16 4 17 5 18 6 19 7 20 8 21 9 22 10 23 11
REMARK SMILES IDX 24 12 25 13 26 14 12 15 11 16 10 17 9 18 8 19 7 20 6 21 5 22
REMARK SMILES IDX 4 23 3 24 2 25 1 26
REMARK H PARENT
REMARK Flexibility Score: inf
ROOT
ATOM      1  C   UNL     1      21.412  -5.886  34.734  1.00  0.00     0.000 C 
ENDROOT
BRANCH   1   2
ATOM      2  C   UNL     1      21.825  -4.468  34.300  1.00  0.00     0.000 C 
BRANCH   2   3
ATOM      3  C   UNL     1      21.188  -3.363  35.160  1.00  0.00     0.000 C 
BRANCH   3   4
ATOM      4  C   UNL     1      21.467  -1.949  34.620  1.00  0.00     0.000 C 
BRANCH   4   5
ATOM      5  C   UNL     1      22.097  -0.970  35.631  1.00  0.00     0.000 C 
BRANCH   5   6
ATOM      6  C   UNL     1      21.784   0.516  35.382  1.00  0.00     0.000 C 
BRANCH   6   7
ATOM      7  C   UNL     1      20.385   0.923  35.873  1.00  0.00     0.000 C 
BRANCH   7   8
ATOM      8  C   UNL     1      19.973   0.099  37.100  1.00  0.00     0.000 C 
BRANCH   8   9
ATOM      9  C   UNL     1      18.727  -0.769  36.848  1.00  0.00     0.000 C 
BRANCH   9  10
ATOM     10  C   UNL     1      18.090  -0.603  35.457  1.00  0.00     0.006 C 
BRANCH  10  11
ATOM     11  C   UNL     1      16.596  -0.953  35.438  1.00  0.00     0.053 C 
BRANCH  11  12
ATOM     12  C   UNL     1      15.925  -0.320  34.261  1.00  0.00     0.041 C 
ATOM     13  O   UNL     1      15.703   0.920  34.250  1.00  0.00    -0.550 OA
ATOM     14  O   UNL     1      15.504  -1.104  33.196  1.00  0.00    -0.550 OA
ENDBRANCH  11  12
ENDBRANCH  10  11
ENDBRANCH   9  10
ENDBRANCH   8   9
ENDBRANCH   7   8
ENDBRANCH   6   7
ENDBRANCH   5   6
ENDBRANCH   4   5
ENDBRANCH   3   4
ENDBRANCH   2   3
ENDBRANCH   1   2
BRANCH   1  15
ATOM     15  C   UNL     1      21.317  -6.927  33.602  1.00  0.00     0.000 C 
BRANCH  15  16
ATOM     16  C   UNL     1      21.979  -6.462  32.295  1.00  0.00     0.000 C 
BRANCH  16  17
ATOM     17  C   UNL     1      20.999  -6.434  31.109  1.00  0.00     0.000 C 
BRANCH  17  18
ATOM     18  C   UNL     1      20.746  -5.018  30.551  1.00  0.00    -0.000 C 
BRANCH  18  19
ATOM     19  C   UNL     1      19.347  -4.490  30.920  1.00  0.00    -0.000 C 
BRANCH  19  20
ATOM     20  C   UNL     1      19.403  -3.130  31.636  1.00  0.00    -0.000 C 
BRANCH  20  21
ATOM     21  C   UNL     1      18.425  -3.054  32.822  1.00  0.00    -0.000 C 
BRANCH  21  22
ATOM     22  C   UNL     1      17.569  -4.324  32.969  1.00  0.00    -0.000 C 
BRANCH  22  23
ATOM     23  C   UNL     1      17.732  -5.061  34.313  1.00  0.00    -0.000 C 
BRANCH  23  24
ATOM     24  C   UNL     1      17.726  -6.600  34.183  1.00  0.00    -0.000 C 
BRANCH  24  25
ATOM     25  C   UNL     1      17.623  -7.061  32.722  1.00  0.00    -0.003 C 
ATOM     26  C   UNL     1      18.163  -8.478  32.549  1.00  0.00     0.004 C 
ENDBRANCH  24  25
ENDBRANCH  23  24
ENDBRANCH  22  23
ENDBRANCH  21  22
ENDBRANCH  20  21
ENDBRANCH  19  20
ENDBRANCH  18  19
ENDBRANCH  17  18
ENDBRANCH  16  17
ENDBRANCH  15  16
ENDBRANCH   1  15
TORSDOF 22
ENDMDL
MODEL 5
REMARK VINA RESULT:    -4.618     13.086     16.308
REMARK INTER + INTRA:         -15.220
REMARK INTER:                 -11.650
REMARK INTRA:                  -3.569
REMARK UNBOUND:                -4.663
REMARK SMILES CCCCCCCCCCCCCCCCCCCCCCCC(=O)[O-]
REMARK SMILES IDX 13 1 14 2 15 3 16 4 17 5 18 6 19 7 20 8 21 9 22 10 23 11
REMARK SMILES IDX 24 12 25 13 26 14 12 15 11 16 10 17 9 18 8 19 7 20 6 21 5 22
REMARK SMILES IDX 4 23 3 24 2 25 1 26
REMARK H PARENT
REMARK Flexibility Score: inf
ROOT
ATOM      1  C   UNL     1      20.304  -2.785  34.362  1.00  0.00     0.000 C 
ENDROOT
BRANCH   1   2
ATOM      2  C   UNL     1      20.736  -1.344  34.689  1.00  0.00     0.000 C 
BRANCH   2   3
ATOM      3  C   UNL     1      21.749  -1.263  35.843  1.00  0.00     0.000 C 
BRANCH   3   4
ATOM      4  C   UNL     1      23.026  -2.079  35.577  1.00  0.00     0.000 C 
BRANCH   4   5
ATOM      5  C   UNL     1      23.117  -3.424  36.326  1.00  0.00     0.000 C 
BRANCH   5   6
ATOM      6  C   UNL     1      22.240  -3.530  37.586  1.00  0.00     0.000 C 
BRANCH   6   7
ATOM      7  C   UNL     1      21.187  -4.645  37.489  1.00  0.00     0.000 C 
BRANCH   7   8
ATOM      8  C   UNL     1      21.437  -5.729  38.548  1.00  0.00     0.000 C 
BRANCH   8   9
ATOM      9  C   UNL     1      22.280  -6.903  38.016  1.00  0.00     0.000 C 
BRANCH   9  10
ATOM     10  C   UNL     1      23.745  -6.917  38.489  1.00  0.00     0.006 C 
BRANCH  10  11
ATOM     11  C   UNL     1      24.029  -5.883  39.586  1.00  0.00     0.053 C 
BRANCH  11  12
ATOM     12  C   UNL     1      25.452  -5.977  40.037  1.00  0.00     0.041 C 
ATOM     13  O   UNL     1      26.311  -6.541  39.309  1.00  0.00    -0.550 OA
ATOM     14  O   UNL     1      25.822  -5.482  41.280  1.00  0.00    -0.550 OA
ENDBRANCH  11  12
ENDBRANCH  10  11
ENDBRANCH   9  10
ENDBRANCH   8   9
ENDBRANCH   7   8
ENDBRANCH   6   7
ENDBRANCH   5   6
ENDBRANCH   4   5
ENDBRANCH   3   4
ENDBRANCH   2   3
ENDBRANCH   1   2
BRANCH   1  15
ATOM     15  C   UNL     1      20.238  -3.135  32.862  1.00  0.00     0.000 C 
BRANCH  15  16
ATOM     16  C   UNL     1      18.828  -2.989  32.268  1.00  0.00     0.000 C 
BRANCH  16  17
ATOM     17  C   UNL     1      18.263  -4.321  31.745  1.00  0.00     0.000 C 
BRANCH  17  18
ATOM     18  C   UNL     1      19.128  -4.971  30.645  1.00  0.00    -0.000 C 
BRANCH  18  19
ATOM     19  C   UNL     1      19.256  -6.493  30.831  1.00  0.00    -0.000 C 
BRANCH  19  20
ATOM     20  C   UNL     1      18.416  -7.013  32.011  1.00  0.00    -0.000 C 
BRANCH  20  21
ATOM     21  C   UNL     1      19.289  -7.606  33.131  1.00  0.00    -0.000 C 
BRANCH  21  22
ATOM     22  C   UNL     1      19.768  -6.543  34.136  1.00  0.00    -0.000 C 
BRANCH  22  23
ATOM     23  C   UNL     1      21.299  -6.410  34.254  1.00  0.00    -0.000 C 
BRANCH  23  24
ATOM     24  C   UNL     1      22.062  -6.856  32.988  1.00  0.00    -0.000 C 
BRANCH  24  25
ATOM     25  C   UNL     1      22.657  -5.667  32.218  1.00  0.00    -0.003 C 
ATOM     26  C   UNL     1      22.637  -5.917  30.713  1.00  0.00     0.004 C 
ENDBRANCH  24  25
ENDBRANCH  23  24
ENDBRANCH  22  23
ENDBRANCH  21  22
ENDBRANCH  20  21
ENDBRANCH  19  20
ENDBRANCH  18  19
ENDBRANCH  17  18
ENDBRANCH  16  17
ENDBRANCH  15  16
ENDBRANCH   1  15
TORSDOF 22
ENDMDL
MODEL 6
REMARK VINA RESULT:    -4.602     13.627     16.404
REMARK INTER + INTRA:         -15.185
REMARK INTER:                 -12.016
REMARK INTRA:                  -3.169
REMARK UNBOUND:                -4.663
REMARK SMILES CCCCCCCCCCCCCCCCCCCCCCCC(=O)[O-]
REMARK SMILES IDX 13 1 14 2 15 3 16 4 17 5 18 6 19 7 20 8 21 9 22 10 23 11
REMARK SMILES IDX 24 12 25 13 26 14 12 15 11 16 10 17 9 18 8 19 7 20 6 21 5 22
REMARK SMILES IDX 4 23 3 24 2 25 1 26
REMARK H PARENT
REMARK Flexibility Score: inf
ROOT
ATOM      1  C   UNL     1      21.152  -4.333  33.933  1.00  0.00     0.000 C 
ENDROOT
BRANCH   1   2
ATOM      2  C   UNL     1      21.232  -5.844  34.222  1.00  0.00     0.000 C 
BRANCH   2   3
ATOM      3  C   UNL     1      21.875  -6.646  33.078  1.00  0.00     0.000 C 
BRANCH   3   4
ATOM      4  C   UNL     1      22.678  -5.763  32.106  1.00  0.00     0.000 C 
BRANCH   4   5
ATOM      5  C   UNL     1      22.154  -5.733  30.656  1.00  0.00     0.000 C 
BRANCH   5   6
ATOM      6  C   UNL     1      20.814  -6.454  30.432  1.00  0.00     0.000 C 
BRANCH   6   7
ATOM      7  C   UNL     1      19.607  -5.504  30.481  1.00  0.00     0.000 C 
BRANCH   7   8
ATOM      8  C   UNL     1      18.573  -5.982  31.509  1.00  0.00     0.000 C 
BRANCH   8   9
ATOM      9  C   UNL     1      18.535  -7.515  31.652  1.00  0.00     0.000 C 
BRANCH   9  10
ATOM     10  C   UNL     1      18.362  -8.030  33.092  1.00  0.00     0.006 C 
BRANCH  10  11
ATOM     11  C   UNL     1      16.890  -8.211  33.489  1.00  0.00     0.053 C 
BRANCH  11  12
ATOM     12  C   UNL     1      16.524  -7.262  34.585  1.00  0.00     0.041 C 
ATOM     13  O   UNL     1      16.137  -7.702  35.700  1.00  0.00    -0.550 OA
ATOM     14  O   UNL     1      16.565  -5.893  34.363  1.00  0.00    -0.550 OA
ENDBRANCH  11  12
ENDBRANCH  10  11
ENDBRANCH   9  10
ENDBRANCH   8   9
ENDBRANCH   7   8
ENDBRANCH   6   7
ENDBRANCH   5   6
ENDBRANCH   4   5
ENDBRANCH   3   4
ENDBRANCH   2   3
ENDBRANCH   1   2
BRANCH   1  15
ATOM     15  C   UNL     1      19.742  -3.717  34.003  1.00  0.00     0.000 C 
BRANCH  15  16
ATOM     16  C   UNL     1      19.754  -2.180  34.030  1.00  0.00     0.000 C 
BRANCH  16  17
ATOM     17  C   UNL     1      21.130  -1.603  34.402  1.00  0.00     0.000 C 
BRANCH  17  18
ATOM     18  C   UNL     1      21.053  -0.349  35.299  1.00  0.00    -0.000 C 
BRANCH  18  19
ATOM     19  C   UNL     1      21.607  -0.611  36.711  1.00  0.00    -0.000 C 
BRANCH  19  20
ATOM     20  C   UNL     1      23.011  -1.238  36.685  1.00  0.00    -0.000 C 
BRANCH  20  21
ATOM     21  C   UNL     1      23.074  -2.561  37.468  1.00  0.00    -0.000 C 
BRANCH  21  22
ATOM     22  C   UNL     1      23.385  -3.770  36.568  1.00  0.00    -0.000 C 
BRANCH  22  23
ATOM     23  C   UNL     1      23.404  -5.129  37.295  1.00  0.00    -0.000 C 
BRANCH  23  24
ATOM     24  C   UNL     1      22.982  -5.047  38.779  1.00  0.00    -0.000 C 
BRANCH  24  25
ATOM     25  C   UNL     1      24.145  -5.359  39.732  1.00  0.00    -0.003 C 
ATOM     26  C   UNL     1      24.340  -6.863  39.894  1.00  0.00     0.004 C 
ENDBRANCH  24  25
ENDBRANCH  23  24
ENDBRANCH  22  23
ENDBRANCH  21  22
ENDBRANCH  20  21
ENDBRANCH  19  20
ENDBRANCH  18  19
ENDBRANCH  17  18
ENDBRANCH  16  17
ENDBRANCH  15  16
ENDBRANCH   1  15
TORSDOF 22
ENDMDL
MODEL 7
REMARK VINA RESULT:    -4.601      2.606      5.369
REMARK INTER + INTRA:         -15.182
REMARK INTER:                 -11.002
REMARK INTRA:                  -4.180
REMARK UNBOUND:                -4.663
REMARK SMILES CCCCCCCCCCCCCCCCCCCCCCCC(=O)[O-]
REMARK SMILES IDX 13 1 14 2 15 3 16 4 17 5 18 6 19 7 20 8 21 9 22 10 23 11
REMARK SMILES IDX 24 12 25 13 26 14 12 15 11 16 10 17 9 18 8 19 7 20 6 21 5 22
REMARK SMILES IDX 4 23 3 24 2 25 1 26
REMARK H PARENT
REMARK Flexibility Score: inf
ROOT
ATOM      1  C   UNL     1      26.006   7.946  44.725  1.00  0.00     0.000 C 
ENDROOT
BRANCH   1   2
ATOM      2  C   UNL     1      24.862   8.941  44.996  1.00  0.00     0.000 C 
BRANCH   2   3
ATOM      3  C   UNL     1      24.235   8.777  46.391  1.00  0.00     0.000 C 
BRANCH   3   4
ATOM      4  C   UNL     1      23.165   9.841  46.694  1.00  0.00     0.000 C 
BRANCH   4   5
ATOM      5  C   UNL     1      21.713   9.323  46.733  1.00  0.00     0.000 C 
BRANCH   5   6
ATOM      6  C   UNL     1      21.079   9.055  45.357  1.00  0.00     0.000 C 
BRANCH   6   7
ATOM      7  C   UNL     1      20.750   7.571  45.129  1.00  0.00     0.000 C 
BRANCH   7   8
ATOM      8  C   UNL     1      21.864   6.877  44.334  1.00  0.00     0.000 C 
BRANCH   8   9
ATOM      9  C   UNL     1      22.562   5.760  45.130  1.00  0.00     0.000 C 
BRANCH   9  10
ATOM     10  C   UNL     1      23.738   5.082  44.404  1.00  0.00     0.006 C 
BRANCH  10  11
ATOM     11  C   UNL     1      23.577   3.559  44.297  1.00  0.00     0.053 C 
BRANCH  11  12
ATOM     12  C   UNL     1      22.505   3.215  43.312  1.00  0.00     0.041 C 
ATOM     13  O   UNL     1      21.759   2.220  43.511  1.00  0.00    -0.550 OA
ATOM     14  O   UNL     1      22.360   3.964  42.153  1.00  0.00    -0.550 OA
ENDBRANCH  11  12
ENDBRANCH  10  11
ENDBRANCH   9  10
ENDBRANCH   8   9
ENDBRANCH   7   8
ENDBRANCH   6   7
ENDBRANCH   5   6
ENDBRANCH   4   5
ENDBRANCH   3   4
ENDBRANCH   2   3
ENDBRANCH   1   2
BRANCH   1  15
ATOM     15  C   UNL     1      26.357   7.725  43.242  1.00  0.00     0.000 C 
BRANCH  15  16
ATOM     16  C   UNL     1      27.813   8.085  42.904  1.00  0.00     0.000 C 
BRANCH  16  17
ATOM     17  C   UNL     1      28.797   7.690  44.019  1.00  0.00     0.000 C 
BRANCH  17  18
ATOM     18  C   UNL     1      29.756   6.548  43.622  1.00  0.00    -0.000 C 
BRANCH  18  19
ATOM     19  C   UNL     1      29.558   6.106  42.161  1.00  0.00    -0.000 C 
BRANCH  19  20
ATOM     20  C   UNL     1      29.160   4.625  42.043  1.00  0.00    -0.000 C 
BRANCH  20  21
ATOM     21  C   UNL     1      27.743   4.357  42.581  1.00  0.00    -0.000 C 
BRANCH  21  22
ATOM     22  C   UNL     1      27.748   3.551  43.891  1.00  0.00    -0.000 C 
BRANCH  22  23
ATOM     23  C   UNL     1      27.158   4.291  45.108  1.00  0.00    -0.000 C 
BRANCH  23  24
ATOM     24  C   UNL     1      28.191   4.588  46.217  1.00  0.00    -0.000 C 
BRANCH  24  25
ATOM     25  C   UNL     1      27.763   5.759  47.114  1.00  0.00    -0.003 C 
ATOM     26  C   UNL     1      26.290   5.655  47.494  1.00  0.00     0.004 C 
ENDBRANCH  24  25
ENDBRANCH  23  24
ENDBRANCH  22  23
ENDBRANCH  21  22
ENDBRANCH  20  21
ENDBRANCH  19  20
ENDBRANCH  18  19
ENDBRANCH  17  18
ENDBRANCH  16  17
ENDBRANCH  15  16
ENDBRANCH   1  15
TORSDOF 22
ENDMDL
MODEL 8
REMARK VINA RESULT:    -4.574     13.307     16.381
REMARK INTER + INTRA:         -15.119
REMARK INTER:                 -10.588
REMARK INTRA:                  -4.531
REMARK UNBOUND:                -4.663
REMARK SMILES CCCCCCCCCCCCCCCCCCCCCCCC(=O)[O-]
REMARK SMILES IDX 13 1 14 2 15 3 16 4 17 5 18 6 19 7 20 8 21 9 22 10 23 11
REMARK SMILES IDX 24 12 25 13 26 14 12 15 11 16 10 17 9 18 8 19 7 20 6 21 5 22
REMARK SMILES IDX 4 23 3 24 2 25 1 26
REMARK H PARENT
REMARK Flexibility Score: inf
ROOT
ATOM      1  C   UNL     1      20.452  -4.690  30.251  1.00  0.00     0.000 C 
ENDROOT
BRANCH   1   2
ATOM      2  C   UNL     1      19.193  -4.177  30.974  1.00  0.00     0.000 C 
BRANCH   2   3
ATOM      3  C   UNL     1      19.416  -2.843  31.705  1.00  0.00     0.000 C 
BRANCH   3   4
ATOM      4  C   UNL     1      18.515  -2.680  32.942  1.00  0.00     0.000 C 
BRANCH   4   5
ATOM      5  C   UNL     1      19.255  -2.390  34.263  1.00  0.00     0.000 C 
BRANCH   5   6
ATOM      6  C   UNL     1      20.787  -2.315  34.150  1.00  0.00     0.000 C 
BRANCH   6   7
ATOM      7  C   UNL     1      21.402  -1.236  35.055  1.00  0.00     0.000 C 
BRANCH   7   8
ATOM      8  C   UNL     1      22.719  -1.723  35.673  1.00  0.00     0.000 C 
BRANCH   8   9
ATOM      9  C   UNL     1      22.783  -3.254  35.817  1.00  0.00     0.000 C 
BRANCH   9  10
ATOM     10  C   UNL     1      22.633  -3.779  37.256  1.00  0.00     0.006 C 
BRANCH  10  11
ATOM     11  C   UNL     1      22.111  -5.220  37.316  1.00  0.00     0.053 C 
BRANCH  11  12
ATOM     12  C   UNL     1      23.220  -6.164  37.658  1.00  0.00     0.041 C 
ATOM     13  O   UNL     1      22.962  -7.358  37.965  1.00  0.00    -0.550 OA
ATOM     14  O   UNL     1      24.533  -5.715  37.682  1.00  0.00    -0.550 OA
ENDBRANCH  11  12
ENDBRANCH  10  11
ENDBRANCH   9  10
ENDBRANCH   8   9
ENDBRANCH   7   8
ENDBRANCH   6   7
ENDBRANCH   5   6
ENDBRANCH   4   5
ENDBRANCH   3   4
ENDBRANCH   2   3
ENDBRANCH   1   2
BRANCH   1  15
ATOM     15  C   UNL     1      20.921  -6.101  30.652  1.00  0.00     0.000 C 
BRANCH  15  16
ATOM     16  C   UNL     1      22.270  -6.104  31.391  1.00  0.00     0.000 C 
BRANCH  16  17
ATOM     17  C   UNL     1      22.188  -5.445  32.779  1.00  0.00     0.000 C 
BRANCH  17  18
ATOM     18  C   UNL     1      21.522  -6.336  33.848  1.00  0.00    -0.000 C 
BRANCH  18  19
ATOM     19  C   UNL     1      20.084  -5.886  34.164  1.00  0.00    -0.000 C 
BRANCH  19  20
ATOM     20  C   UNL     1      19.033  -6.912  33.707  1.00  0.00    -0.000 C 
BRANCH  20  21
ATOM     21  C   UNL     1      17.680  -6.256  33.378  1.00  0.00    -0.000 C 
BRANCH  21  22
ATOM     22  C   UNL     1      16.685  -6.328  34.549  1.00  0.00    -0.000 C 
BRANCH  22  23
ATOM     23  C   UNL     1      16.517  -5.014  35.337  1.00  0.00    -0.000 C 
BRANCH  23  24
ATOM     24  C   UNL     1      16.640  -5.186  36.867  1.00  0.00    -0.000 C 
BRANCH  24  25
ATOM     25  C   UNL     1      18.102  -5.284  37.327  1.00  0.00    -0.003 C 
ATOM     26  C   UNL     1      18.710  -3.901  37.535  1.00  0.00     0.004 C 
ENDBRANCH  24  25
ENDBRANCH  23  24
ENDBRANCH  22  23
ENDBRANCH  21  22
ENDBRANCH  20  21
ENDBRANCH  19  20
ENDBRANCH  18  19
ENDBRANCH  17  18
ENDBRANCH  16  17
ENDBRANCH  15  16
ENDBRANCH   1  15
TORSDOF 22
ENDMDL
MODEL 9
REMARK VINA RESULT:    -4.559     12.413     15.784
REMARK INTER + INTRA:         -15.085
REMARK INTER:                 -10.860
REMARK INTRA:                  -4.225
REMARK UNBOUND:                -4.663
REMARK SMILES CCCCCCCCCCCCCCCCCCCCCCCC(=O)[O-]
REMARK SMILES IDX 13 1 14 2 15 3 16 4 17 5 18 6 19 7 20 8 21 9 22 10 23 11
REMARK SMILES IDX 24 12 25 13 26 14 12 15 11 16 10 17 9 18 8 19 7 20 6 21 5 22
REMARK SMILES IDX 4 23 3 24 2 25 1 26
REMARK H PARENT
REMARK Flexibility Score: inf
ROOT
ATOM      1  C   UNL     1      19.201  -3.202  32.331  1.00  0.00     0.000 C 
ENDROOT
BRANCH   1   2
ATOM      2  C   UNL     1      18.337  -3.585  33.546  1.00  0.00     0.000 C 
BRANCH   2   3
ATOM      3  C   UNL     1      18.474  -2.600  34.720  1.00  0.00     0.000 C 
BRANCH   3   4
ATOM      4  C   UNL     1      17.496  -2.900  35.870  1.00  0.00     0.000 C 
BRANCH   4   5
ATOM      5  C   UNL     1      18.110  -2.864  37.284  1.00  0.00     0.000 C 
BRANCH   5   6
ATOM      6  C   UNL     1      19.614  -3.180  37.350  1.00  0.00     0.000 C 
BRANCH   6   7
ATOM      7  C   UNL     1      19.904  -4.613  37.823  1.00  0.00     0.000 C 
BRANCH   7   8
ATOM      8  C   UNL     1      21.397  -4.801  38.123  1.00  0.00     0.000 C 
BRANCH   8   9
ATOM      9  C   UNL     1      21.754  -6.250  38.505  1.00  0.00     0.000 C 
BRANCH   9  10
ATOM     10  C   UNL     1      23.045  -6.792  37.865  1.00  0.00     0.006 C 
BRANCH  10  11
ATOM     11  C   UNL     1      24.170  -5.750  37.816  1.00  0.00     0.053 C 
BRANCH  11  12
ATOM     12  C   UNL     1      25.172  -6.010  38.896  1.00  0.00     0.041 C 
ATOM     13  O   UNL     1      26.191  -5.278  39.004  1.00  0.00    -0.550 OA
ATOM     14  O   UNL     1      25.005  -7.088  39.754  1.00  0.00    -0.550 OA
ENDBRANCH  11  12
ENDBRANCH  10  11
ENDBRANCH   9  10
ENDBRANCH   8   9
ENDBRANCH   7   8
ENDBRANCH   6   7
ENDBRANCH   5   6
ENDBRANCH   4   5
ENDBRANCH   3   4
ENDBRANCH   2   3
ENDBRANCH   1   2
BRANCH   1  15
ATOM     15  C   UNL     1      19.091  -4.141  31.114  1.00  0.00     0.000 C 
BRANCH  15  16
ATOM     16  C   UNL     1      20.447  -4.708  30.662  1.00  0.00     0.000 C 
BRANCH  16  17
ATOM     17  C   UNL     1      20.607  -6.202  30.994  1.00  0.00     0.000 C 
BRANCH  17  18
ATOM     18  C   UNL     1      21.543  -6.473  32.191  1.00  0.00    -0.000 C 
BRANCH  18  19
ATOM     19  C   UNL     1      20.761  -6.831  33.468  1.00  0.00    -0.000 C 
BRANCH  19  20
ATOM     20  C   UNL     1      21.058  -5.866  34.628  1.00  0.00    -0.000 C 
BRANCH  20  21
ATOM     21  C   UNL     1      22.308  -5.006  34.368  1.00  0.00    -0.000 C 
BRANCH  21  22
ATOM     22  C   UNL     1      22.092  -3.523  34.716  1.00  0.00    -0.000 C 
BRANCH  22  23
ATOM     23  C   UNL     1      23.214  -2.888  35.562  1.00  0.00    -0.000 C 
BRANCH  23  24
ATOM     24  C   UNL     1      22.851  -1.500  36.133  1.00  0.00    -0.000 C 
BRANCH  24  25
ATOM     25  C   UNL     1      21.667  -0.857  35.395  1.00  0.00    -0.003 C 
ATOM     26  C   UNL     1      21.990   0.572  34.969  1.00  0.00     0.004 C 
ENDBRANCH  24  25
ENDBRANCH  23  24
ENDBRANCH  22  23
ENDBRANCH  21  22
ENDBRANCH  20  21
ENDBRANCH  19  20
ENDBRANCH  18  19
ENDBRANCH  17  18
ENDBRANCH  16  17
ENDBRANCH  15  16
ENDBRANCH   1  15
TORSDOF 22
ENDMDL
