MODEL 1
REMARK VINA RESULT:    -3.811      0.000      0.000
REMARK INTER + INTRA:          -8.226
REMARK INTER:                  -6.707
REMARK INTRA:                  -1.519
REMARK UNBOUND:                -1.519
REMARK SMILES CCCCCCCCCCCCCCC(=O)[O-]
REMARK SMILES IDX 9 1 10 2 11 3 12 4 13 5 14 6 15 7 16 8 17 9 8 10 7 11 6 12
REMARK SMILES IDX 5 13 4 14 3 15 2 16 1 17
REMARK H PARENT
REMARK Flexibility Score: inf
ROOT
ATOM      1  C   UNL     1      -2.389  -9.977 -16.486  1.00  0.00     0.000 C 
ENDROOT
BRANCH   1   2
ATOM      2  C   UNL     1      -1.506  -9.553 -15.304  1.00  0.00     0.000 C 
BRANCH   2   3
ATOM      3  C   UNL     1      -0.991 -10.748 -14.481  1.00  0.00     0.000 C 
BRANCH   3   4
ATOM      4  C   UNL     1      -1.207 -12.127 -15.130  1.00  0.00     0.000 C 
BRANCH   4   5
ATOM      5  C   UNL     1      -2.290 -12.959 -14.426  1.00  0.00     0.006 C 
BRANCH   5   6
ATOM      6  C   UNL     1      -2.253 -14.416 -14.895  1.00  0.00     0.053 C 
BRANCH   6   7
ATOM      7  C   UNL     1      -1.386 -15.235 -13.992  1.00  0.00     0.041 C 
ATOM      8  O   UNL     1      -1.737 -15.450 -12.802  1.00  0.00    -0.550 OA
ATOM      9  O   UNL     1      -0.168 -15.720 -14.449  1.00  0.00    -0.550 OA
ENDBRANCH   6   7
ENDBRANCH   5   6
ENDBRANCH   4   5
ENDBRANCH   3   4
ENDBRANCH   2   3
ENDBRANCH   1   2
BRANCH   1  10
ATOM     10  C   UNL     1      -3.722  -9.212 -16.475  1.00  0.00     0.000 C 
BRANCH  10  11
ATOM     11  C   UNL     1      -4.896 -10.060 -16.992  1.00  0.00    -0.000 C 
BRANCH  11  12
ATOM     12  C   UNL     1      -5.216 -11.251 -16.075  1.00  0.00    -0.000 C 
BRANCH  12  13
ATOM     13  C   UNL     1      -5.550 -12.502 -16.902  1.00  0.00    -0.000 C 
BRANCH  13  14
ATOM     14  C   UNL     1      -4.526 -12.768 -18.018  1.00  0.00    -0.000 C 
BRANCH  14  15
ATOM     15  C   UNL     1      -4.106 -14.247 -18.094  1.00  0.00    -0.000 C 
BRANCH  15  16
ATOM     16  C   UNL     1      -4.942 -15.044 -19.108  1.00  0.00    -0.003 C 
ATOM     17  C   UNL     1      -4.107 -16.046 -19.906  1.00  0.00     0.004 C 
ENDBRANCH  15  16
ENDBRANCH  14  15
ENDBRANCH  13  14
ENDBRANCH  12  13
ENDBRANCH  11  12
ENDBRANCH  10  11
ENDBRANCH   1  10
TORSDOF 13
ENDMDL
MODEL 2
REMARK VINA RESULT:    -3.757     14.776     17.009
REMARK INTER + INTRA:          -8.132
REMARK INTER:                  -6.231
REMARK INTRA:                  -1.900
REMARK UNBOUND:                -1.519
REMARK SMILES CCCCCCCCCCCCCCC(=O)[O-]
REMARK SMILES IDX 9 1 10 2 11 3 12 4 13 5 14 6 15 7 16 8 17 9 8 10 7 11 6 12
REMARK SMILES IDX 5 13 4 14 3 15 2 16 1 17
REMARK H PARENT
REMARK Flexibility Score: inf
ROOT
ATOM      1  C   UNL     1      -1.547  -3.752 -26.113  1.00  0.00     0.000 C 
ENDROOT
BRANCH   1   2
ATOM      2  C   UNL     1      -1.420  -3.810 -27.642  1.00  0.00     0.000 C 
BRANCH   2   3
ATOM      3  C   UNL     1      -0.889  -2.498 -28.250  1.00  0.00     0.000 C 
BRANCH   3   4
ATOM      4  C   UNL     1      -1.623  -1.225 -27.792  1.00  0.00     0.000 C 
BRANCH   4   5
ATOM      5  C   UNL     1      -1.982  -0.288 -28.956  1.00  0.00     0.006 C 
BRANCH   5   6
ATOM      6  C   UNL     1      -0.742   0.455 -29.462  1.00  0.00     0.053 C 
BRANCH   6   7
ATOM      7  C   UNL     1      -0.570   0.243 -30.933  1.00  0.00     0.041 C 
ATOM      8  O   UNL     1       0.217  -0.643 -31.358  1.00  0.00    -0.550 OA
ATOM      9  O   UNL     1      -1.241   1.057 -31.836  1.00  0.00    -0.550 OA
ENDBRANCH   6   7
ENDBRANCH   5   6
ENDBRANCH   4   5
ENDBRANCH   3   4
ENDBRANCH   2   3
ENDBRANCH   1   2
BRANCH   1  10
ATOM     10  C   UNL     1      -2.999  -4.000 -25.675  1.00  0.00     0.000 C 
BRANCH  10  11
ATOM     11  C   UNL     1      -3.947  -4.225 -26.864  1.00  0.00    -0.000 C 
BRANCH  11  12
ATOM     12  C   UNL     1      -5.015  -3.127 -26.988  1.00  0.00    -0.000 C 
BRANCH  12  13
ATOM     13  C   UNL     1      -5.033  -2.240 -25.734  1.00  0.00    -0.000 C 
BRANCH  13  14
ATOM     14  C   UNL     1      -4.877  -0.745 -26.060  1.00  0.00    -0.000 C 
BRANCH  14  15
ATOM     15  C   UNL     1      -4.666   0.114 -24.801  1.00  0.00    -0.000 C 
BRANCH  15  16
ATOM     16  C   UNL     1      -3.679  -0.525 -23.811  1.00  0.00    -0.003 C 
ATOM     17  C   UNL     1      -2.221  -0.369 -24.245  1.00  0.00     0.004 C 
ENDBRANCH  15  16
ENDBRANCH  14  15
ENDBRANCH  13  14
ENDBRANCH  12  13
ENDBRANCH  11  12
ENDBRANCH  10  11
ENDBRANCH   1  10
TORSDOF 13
ENDMDL
MODEL 3
REMARK VINA RESULT:    -3.703     14.714     16.577
REMARK INTER + INTRA:          -8.035
REMARK INTER:                  -6.289
REMARK INTRA:                  -1.746
REMARK UNBOUND:                -1.519
REMARK SMILES CCCCCCCCCCCCCCC(=O)[O-]
REMARK SMILES IDX 9 1 10 2 11 3 12 4 13 5 14 6 15 7 16 8 17 9 8 10 7 11 6 12
REMARK SMILES IDX 5 13 4 14 3 15 2 16 1 17
REMARK H PARENT
REMARK Flexibility Score: inf
ROOT
ATOM      1  C   UNL     1      -4.352   0.088 -24.789  1.00  0.00     0.000 C 
ENDROOT
BRANCH   1   2
ATOM      2  C   UNL     1      -2.844   0.373 -24.733  1.00  0.00     0.000 C 
BRANCH   2   3
ATOM      3  C   UNL     1      -2.027  -0.532 -25.674  1.00  0.00     0.000 C 
BRANCH   3   4
ATOM      4  C   UNL     1      -1.593   0.127 -26.996  1.00  0.00     0.000 C 
BRANCH   4   5
ATOM      5  C   UNL     1      -1.984  -0.697 -28.233  1.00  0.00     0.006 C 
BRANCH   5   6
ATOM      6  C   UNL     1      -0.987  -0.478 -29.374  1.00  0.00     0.053 C 
BRANCH   6   7
ATOM      7  C   UNL     1      -1.346   0.748 -30.154  1.00  0.00     0.041 C 
ATOM      8  O   UNL     1      -2.375   0.758 -30.879  1.00  0.00    -0.550 OA
ATOM      9  O   UNL     1      -0.516   1.861 -30.120  1.00  0.00    -0.550 OA
ENDBRANCH   6   7
ENDBRANCH   5   6
ENDBRANCH   4   5
ENDBRANCH   3   4
ENDBRANCH   2   3
ENDBRANCH   1   2
BRANCH   1  10
ATOM     10  C   UNL     1      -4.618  -1.384 -25.138  1.00  0.00     0.000 C 
BRANCH  10  11
ATOM     11  C   UNL     1      -5.213  -1.562 -26.545  1.00  0.00    -0.000 C 
BRANCH  11  12
ATOM     12  C   UNL     1      -4.712  -2.835 -27.244  1.00  0.00    -0.000 C 
BRANCH  12  13
ATOM     13  C   UNL     1      -4.903  -4.064 -26.343  1.00  0.00    -0.000 C 
BRANCH  13  14
ATOM     14  C   UNL     1      -3.592  -4.831 -26.098  1.00  0.00    -0.000 C 
BRANCH  14  15
ATOM     15  C   UNL     1      -2.351  -4.034 -26.538  1.00  0.00    -0.000 C 
BRANCH  15  16
ATOM     16  C   UNL     1      -1.424  -4.850 -27.453  1.00  0.00    -0.003 C 
ATOM     17  C   UNL     1      -0.367  -3.987 -28.146  1.00  0.00     0.004 C 
ENDBRANCH  15  16
ENDBRANCH  14  15
ENDBRANCH  13  14
ENDBRANCH  12  13
ENDBRANCH  11  12
ENDBRANCH  10  11
ENDBRANCH   1  10
TORSDOF 13
ENDMDL
MODEL 4
REMARK VINA RESULT:    -3.681     14.641     16.830
REMARK INTER + INTRA:          -7.998
REMARK INTER:                  -6.157
REMARK INTRA:                  -1.841
REMARK UNBOUND:                -1.519
REMARK SMILES CCCCCCCCCCCCCCC(=O)[O-]
REMARK SMILES IDX 9 1 10 2 11 3 12 4 13 5 14 6 15 7 16 8 17 9 8 10 7 11 6 12
REMARK SMILES IDX 5 13 4 14 3 15 2 16 1 17
REMARK H PARENT
REMARK Flexibility Score: inf
ROOT
ATOM      1  C   UNL     1      -1.224  -3.645 -27.766  1.00  0.00     0.000 C 
ENDROOT
BRANCH   1   2
ATOM      2  C   UNL     1      -1.543  -2.268 -27.167  1.00  0.00     0.000 C 
BRANCH   2   3
ATOM      3  C   UNL     1      -2.055  -1.262 -28.214  1.00  0.00     0.000 C 
BRANCH   3   4
ATOM      4  C   UNL     1      -1.496   0.166 -28.072  1.00  0.00     0.000 C 
BRANCH   4   5
ATOM      5  C   UNL     1      -0.406   0.489 -29.106  1.00  0.00     0.006 C 
BRANCH   5   6
ATOM      6  C   UNL     1      -0.510  -0.442 -30.319  1.00  0.00     0.053 C 
BRANCH   6   7
ATOM      7  C   UNL     1       0.749  -1.235 -30.478  1.00  0.00     0.041 C 
ATOM      8  O   UNL     1       1.123  -1.606 -31.621  1.00  0.00    -0.550 OA
ATOM      9  O   UNL     1       1.482  -1.606 -29.359  1.00  0.00    -0.550 OA
ENDBRANCH   6   7
ENDBRANCH   5   6
ENDBRANCH   4   5
ENDBRANCH   3   4
ENDBRANCH   2   3
ENDBRANCH   1   2
BRANCH   1  10
ATOM     10  C   UNL     1      -1.890  -4.765 -26.952  1.00  0.00     0.000 C 
BRANCH  10  11
ATOM     11  C   UNL     1      -3.085  -4.264 -26.122  1.00  0.00    -0.000 C 
BRANCH  11  12
ATOM     12  C   UNL     1      -4.431  -4.487 -26.828  1.00  0.00    -0.000 C 
BRANCH  12  13
ATOM     13  C   UNL     1      -5.290  -3.214 -26.781  1.00  0.00    -0.000 C 
BRANCH  13  14
ATOM     14  C   UNL     1      -4.890  -2.269 -25.636  1.00  0.00    -0.000 C 
BRANCH  14  15
ATOM     15  C   UNL     1      -4.978  -0.786 -26.038  1.00  0.00    -0.000 C 
BRANCH  15  16
ATOM     16  C   UNL     1      -4.529   0.157 -24.909  1.00  0.00    -0.003 C 
ATOM     17  C   UNL     1      -3.008   0.239 -24.775  1.00  0.00     0.004 C 
ENDBRANCH  15  16
ENDBRANCH  14  15
ENDBRANCH  13  14
ENDBRANCH  12  13
ENDBRANCH  11  12
ENDBRANCH  10  11
ENDBRANCH   1  10
TORSDOF 13
ENDMDL
MODEL 5
REMARK VINA RESULT:    -3.567     14.646     16.551
REMARK INTER + INTRA:          -7.798
REMARK INTER:                  -6.526
REMARK INTRA:                  -1.272
REMARK UNBOUND:                -1.519
REMARK SMILES CCCCCCCCCCCCCCC(=O)[O-]
REMARK SMILES IDX 9 1 10 2 11 3 12 4 13 5 14 6 15 7 16 8 17 9 8 10 7 11 6 12
REMARK SMILES IDX 5 13 4 14 3 15 2 16 1 17
REMARK H PARENT
REMARK Flexibility Score: inf
ROOT
ATOM      1  C   UNL     1      -1.409  -4.049 -27.622  1.00  0.00     0.000 C 
ENDROOT
BRANCH   1   2
ATOM      2  C   UNL     1      -0.169  -3.531 -28.365  1.00  0.00     0.000 C 
BRANCH   2   3
ATOM      3  C   UNL     1      -0.288  -2.051 -28.773  1.00  0.00     0.000 C 
BRANCH   3   4
ATOM      4  C   UNL     1      -1.544  -1.331 -28.251  1.00  0.00     0.000 C 
BRANCH   4   5
ATOM      5  C   UNL     1      -1.650   0.121 -28.742  1.00  0.00     0.006 C 
BRANCH   5   6
ATOM      6  C   UNL     1      -1.949   0.170 -30.244  1.00  0.00     0.053 C 
BRANCH   6   7
ATOM      7  C   UNL     1      -0.882   0.932 -30.964  1.00  0.00     0.041 C 
ATOM      8  O   UNL     1      -0.522   0.580 -32.119  1.00  0.00    -0.550 OA
ATOM      9  O   UNL     1      -0.250   2.001 -30.342  1.00  0.00    -0.550 OA
ENDBRANCH   6   7
ENDBRANCH   5   6
ENDBRANCH   4   5
ENDBRANCH   3   4
ENDBRANCH   2   3
ENDBRANCH   1   2
BRANCH   1  10
ATOM     10  C   UNL     1      -1.246  -5.531 -27.252  1.00  0.00     0.000 C 
BRANCH  10  11
ATOM     11  C   UNL     1      -1.791  -5.855 -25.851  1.00  0.00    -0.000 C 
BRANCH  11  12
ATOM     12  C   UNL     1      -2.798  -7.016 -25.861  1.00  0.00    -0.000 C 
BRANCH  12  13
ATOM     13  C   UNL     1      -4.220  -6.503 -26.136  1.00  0.00    -0.000 C 
BRANCH  13  14
ATOM     14  C   UNL     1      -4.845  -5.799 -24.920  1.00  0.00    -0.000 C 
BRANCH  14  15
ATOM     15  C   UNL     1      -5.171  -4.321 -25.198  1.00  0.00    -0.000 C 
BRANCH  15  16
ATOM     16  C   UNL     1      -4.938  -3.934 -26.668  1.00  0.00    -0.003 C 
ATOM     17  C   UNL     1      -4.889  -2.421 -26.881  1.00  0.00     0.004 C 
ENDBRANCH  15  16
ENDBRANCH  14  15
ENDBRANCH  13  14
ENDBRANCH  12  13
ENDBRANCH  11  12
ENDBRANCH  10  11
ENDBRANCH   1  10
TORSDOF 13
ENDMDL
MODEL 6
REMARK VINA RESULT:    -3.562      1.345      3.897
REMARK INTER + INTRA:          -7.787
REMARK INTER:                  -5.723
REMARK INTRA:                  -2.065
REMARK UNBOUND:                -1.519
REMARK SMILES CCCCCCCCCCCCCCC(=O)[O-]
REMARK SMILES IDX 9 1 10 2 11 3 12 4 13 5 14 6 15 7 16 8 17 9 8 10 7 11 6 12
REMARK SMILES IDX 5 13 4 14 3 15 2 16 1 17
REMARK H PARENT
REMARK Flexibility Score: inf
ROOT
ATOM      1  C   UNL     1      -2.356 -12.416 -19.316  1.00  0.00     0.000 C 
ENDROOT
BRANCH   1   2
ATOM      2  C   UNL     1      -1.631 -11.555 -18.272  1.00  0.00     0.000 C 
BRANCH   2   3
ATOM      3  C   UNL     1      -1.237 -12.346 -17.011  1.00  0.00     0.000 C 
BRANCH   3   4
ATOM      4  C   UNL     1      -1.388 -11.576 -15.686  1.00  0.00     0.000 C 
BRANCH   4   5
ATOM      5  C   UNL     1      -1.391 -12.497 -14.456  1.00  0.00     0.006 C 
BRANCH   5   6
ATOM      6  C   UNL     1      -2.413 -13.626 -14.619  1.00  0.00     0.053 C 
BRANCH   6   7
ATOM      7  C   UNL     1      -2.127 -14.734 -13.656  1.00  0.00     0.041 C 
ATOM      8  O   UNL     1      -1.157 -15.512 -13.855  1.00  0.00    -0.550 OA
ATOM      9  O   UNL     1      -2.961 -14.938 -12.564  1.00  0.00    -0.550 OA
ENDBRANCH   6   7
ENDBRANCH   5   6
ENDBRANCH   4   5
ENDBRANCH   3   4
ENDBRANCH   2   3
ENDBRANCH   1   2
BRANCH   1  10
ATOM     10  C   UNL     1      -3.031 -13.627 -18.655  1.00  0.00     0.000 C 
BRANCH  10  11
ATOM     11  C   UNL     1      -4.561 -13.491 -18.589  1.00  0.00    -0.000 C 
BRANCH  11  12
ATOM     12  C   UNL     1      -5.081 -13.336 -17.151  1.00  0.00    -0.000 C 
BRANCH  12  13
ATOM     13  C   UNL     1      -5.797 -11.989 -16.971  1.00  0.00    -0.000 C 
BRANCH  13  14
ATOM     14  C   UNL     1      -4.919 -10.937 -16.273  1.00  0.00    -0.000 C 
BRANCH  14  15
ATOM     15  C   UNL     1      -4.657  -9.705 -17.158  1.00  0.00    -0.000 C 
BRANCH  15  16
ATOM     16  C   UNL     1      -3.582  -8.777 -16.570  1.00  0.00    -0.003 C 
ATOM     17  C   UNL     1      -3.759  -7.320 -16.998  1.00  0.00     0.004 C 
ENDBRANCH  15  16
ENDBRANCH  14  15
ENDBRANCH  13  14
ENDBRANCH  12  13
ENDBRANCH  11  12
ENDBRANCH  10  11
ENDBRANCH   1  10
TORSDOF 13
ENDMDL
MODEL 7
REMARK VINA RESULT:    -3.560     13.793     15.898
REMARK INTER + INTRA:          -7.785
REMARK INTER:                  -6.441
REMARK INTRA:                  -1.344
REMARK UNBOUND:                -1.519
REMARK SMILES CCCCCCCCCCCCCCC(=O)[O-]
REMARK SMILES IDX 9 1 10 2 11 3 12 4 13 5 14 6 15 7 16 8 17 9 8 10 7 11 6 12
REMARK SMILES IDX 5 13 4 14 3 15 2 16 1 17
REMARK H PARENT
REMARK Flexibility Score: inf
ROOT
ATOM      1  C   UNL     1      -1.565  -5.824 -25.868  1.00  0.00     0.000 C 
ENDROOT
BRANCH   1   2
ATOM      2  C   UNL     1      -2.900  -6.529 -26.152  1.00  0.00     0.000 C 
BRANCH   2   3
ATOM      3  C   UNL     1      -4.121  -5.627 -25.895  1.00  0.00     0.000 C 
BRANCH   3   4
ATOM      4  C   UNL     1      -4.277  -4.449 -26.874  1.00  0.00     0.000 C 
BRANCH   4   5
ATOM      5  C   UNL     1      -5.311  -3.413 -26.406  1.00  0.00     0.006 C 
BRANCH   5   6
ATOM      6  C   UNL     1      -4.837  -1.989 -26.714  1.00  0.00     0.053 C 
BRANCH   6   7
ATOM      7  C   UNL     1      -4.831  -1.160 -25.469  1.00  0.00     0.041 C 
ATOM      8  O   UNL     1      -5.313   0.003 -25.480  1.00  0.00    -0.550 OA
ATOM      9  O   UNL     1      -4.247  -1.653 -24.309  1.00  0.00    -0.550 OA
ENDBRANCH   6   7
ENDBRANCH   5   6
ENDBRANCH   4   5
ENDBRANCH   3   4
ENDBRANCH   2   3
ENDBRANCH   1   2
BRANCH   1  10
ATOM     10  C   UNL     1      -0.588  -6.012 -27.039  1.00  0.00     0.000 C 
BRANCH  10  11
ATOM     11  C   UNL     1      -0.553  -4.799 -27.983  1.00  0.00    -0.000 C 
BRANCH  11  12
ATOM     12  C   UNL     1      -0.787  -3.469 -27.249  1.00  0.00    -0.000 C 
BRANCH  12  13
ATOM     13  C   UNL     1      -1.096  -2.342 -28.246  1.00  0.00    -0.000 C 
BRANCH  13  14
ATOM     14  C   UNL     1      -1.412  -1.006 -27.553  1.00  0.00    -0.000 C 
BRANCH  14  15
ATOM     15  C   UNL     1      -2.023   0.028 -28.516  1.00  0.00    -0.000 C 
BRANCH  15  16
ATOM     16  C   UNL     1      -1.323   0.041 -29.885  1.00  0.00    -0.003 C 
ATOM     17  C   UNL     1      -2.097   0.833 -30.939  1.00  0.00     0.004 C 
ENDBRANCH  15  16
ENDBRANCH  14  15
ENDBRANCH  13  14
ENDBRANCH  12  13
ENDBRANCH  11  12
ENDBRANCH  10  11
ENDBRANCH   1  10
TORSDOF 13
ENDMDL
MODEL 8
REMARK VINA RESULT:    -3.554     12.245     13.768
REMARK INTER + INTRA:          -7.774
REMARK INTER:                  -6.601
REMARK INTRA:                  -1.173
REMARK UNBOUND:                -1.519
REMARK SMILES CCCCCCCCCCCCCCC(=O)[O-]
REMARK SMILES IDX 9 1 10 2 11 3 12 4 13 5 14 6 15 7 16 8 17 9 8 10 7 11 6 12
REMARK SMILES IDX 5 13 4 14 3 15 2 16 1 17
REMARK H PARENT
REMARK Flexibility Score: inf
ROOT
ATOM      1  C   UNL     1      -2.384  -1.819 -27.689  1.00  0.00     0.000 C 
ENDROOT
BRANCH   1   2
ATOM      2  C   UNL     1      -3.707  -1.756 -26.910  1.00  0.00     0.000 C 
BRANCH   2   3
ATOM      3  C   UNL     1      -4.706  -2.848 -27.335  1.00  0.00     0.000 C 
BRANCH   3   4
ATOM      4  C   UNL     1      -4.998  -3.915 -26.265  1.00  0.00     0.000 C 
BRANCH   4   5
ATOM      5  C   UNL     1      -4.368  -5.279 -26.591  1.00  0.00     0.006 C 
BRANCH   5   6
ATOM      6  C   UNL     1      -4.007  -6.035 -25.309  1.00  0.00     0.053 C 
BRANCH   6   7
ATOM      7  C   UNL     1      -5.204  -6.752 -24.769  1.00  0.00     0.041 C 
ATOM      8  O   UNL     1      -5.579  -7.837 -25.286  1.00  0.00    -0.550 OA
ATOM      9  O   UNL     1      -5.934  -6.197 -23.726  1.00  0.00    -0.550 OA
ENDBRANCH   6   7
ENDBRANCH   5   6
ENDBRANCH   4   5
ENDBRANCH   3   4
ENDBRANCH   2   3
ENDBRANCH   1   2
BRANCH   1  10
ATOM     10  C   UNL     1      -1.622  -3.114 -27.369  1.00  0.00     0.000 C 
BRANCH  10  11
ATOM     11  C   UNL     1      -0.477  -3.387 -28.359  1.00  0.00    -0.000 C 
BRANCH  11  12
ATOM     12  C   UNL     1      -0.018  -4.853 -28.345  1.00  0.00    -0.000 C 
BRANCH  12  13
ATOM     13  C   UNL     1      -0.732  -5.638 -27.233  1.00  0.00    -0.000 C 
BRANCH  13  14
ATOM     14  C   UNL     1      -0.427  -7.144 -27.279  1.00  0.00    -0.000 C 
BRANCH  14  15
ATOM     15  C   UNL     1      -0.220  -7.661 -28.713  1.00  0.00    -0.000 C 
BRANCH  15  16
ATOM     16  C   UNL     1      -0.261  -9.196 -28.797  1.00  0.00    -0.003 C 
ATOM     17  C   UNL     1      -1.364  -9.709 -29.722  1.00  0.00     0.004 C 
ENDBRANCH  15  16
ENDBRANCH  14  15
ENDBRANCH  13  14
ENDBRANCH  12  13
ENDBRANCH  11  12
ENDBRANCH  10  11
ENDBRANCH   1  10
TORSDOF 13
ENDMDL
MODEL 9
REMARK VINA RESULT:    -3.524     14.596     16.514
REMARK INTER + INTRA:          -7.722
REMARK INTER:                  -5.375
REMARK INTRA:                  -2.347
REMARK UNBOUND:                -1.519
REMARK SMILES CCCCCCCCCCCCCCC(=O)[O-]
REMARK SMILES IDX 9 1 10 2 11 3 12 4 13 5 14 6 15 7 16 8 17 9 8 10 7 11 6 12
REMARK SMILES IDX 5 13 4 14 3 15 2 16 1 17
REMARK H PARENT
REMARK Flexibility Score: inf
ROOT
ATOM      1  C   UNL     1      -1.195  -1.383 -24.540  1.00  0.00     0.000 C 
ENDROOT
BRANCH   1   2
ATOM      2  C   UNL     1      -1.405   0.031 -25.100  1.00  0.00     0.000 C 
BRANCH   2   3
ATOM      3  C   UNL     1      -0.930   0.176 -26.558  1.00  0.00     0.000 C 
BRANCH   3   4
ATOM      4  C   UNL     1      -0.648  -1.151 -27.285  1.00  0.00     0.000 C 
BRANCH   4   5
ATOM      5  C   UNL     1      -1.326  -1.236 -28.662  1.00  0.00     0.006 C 
BRANCH   5   6
ATOM      6  C   UNL     1      -1.884   0.127 -29.082  1.00  0.00     0.053 C 
BRANCH   6   7
ATOM      7  C   UNL     1      -1.345   0.524 -30.419  1.00  0.00     0.041 C 
ATOM      8  O   UNL     1      -0.196   0.152 -30.775  1.00  0.00    -0.550 OA
ATOM      9  O   UNL     1      -2.091   1.346 -31.254  1.00  0.00    -0.550 OA
ENDBRANCH   6   7
ENDBRANCH   5   6
ENDBRANCH   4   5
ENDBRANCH   3   4
ENDBRANCH   2   3
ENDBRANCH   1   2
BRANCH   1  10
ATOM     10  C   UNL     1      -2.521  -1.975 -24.038  1.00  0.00     0.000 C 
BRANCH  10  11
ATOM     11  C   UNL     1      -3.685  -0.974 -24.116  1.00  0.00    -0.000 C 
BRANCH  11  12
ATOM     12  C   UNL     1      -4.849  -1.484 -24.979  1.00  0.00    -0.000 C 
BRANCH  12  13
ATOM     13  C   UNL     1      -4.566  -1.252 -26.471  1.00  0.00    -0.000 C 
BRANCH  13  14
ATOM     14  C   UNL     1      -4.493  -2.561 -27.274  1.00  0.00    -0.000 C 
BRANCH  14  15
ATOM     15  C   UNL     1      -4.870  -3.792 -26.430  1.00  0.00    -0.000 C 
BRANCH  15  16
ATOM     16  C   UNL     1      -3.808  -4.901 -26.502  1.00  0.00    -0.003 C 
ATOM     17  C   UNL     1      -2.436  -4.381 -26.931  1.00  0.00     0.004 C 
ENDBRANCH  15  16
ENDBRANCH  14  15
ENDBRANCH  13  14
ENDBRANCH  12  13
ENDBRANCH  11  12
ENDBRANCH  10  11
ENDBRANCH   1  10
TORSDOF 13
ENDMDL
