MODEL 1
REMARK VINA RESULT:     1.792      0.000      0.000
REMARK INTER + INTRA:           1.710
REMARK INTER:                   1.950
REMARK INTRA:                  -0.240
REMARK UNBOUND:                -0.240
REMARK SMILES C[C@H]1[C@H](C)CC[C@]2(C(=O)[O-])CC[C@]3(C)C(=CC[C@@H]4[C@]5(C)CC[C@H](O)C(C)(C)[C@H]5CC[C@@]43C)[C@H]12
REMARK SMILES IDX 7 1 6 2 11 3 33 4 5 5 12 6 15 7 2 8 3 9 13 10 16 11 1 12
REMARK SMILES IDX 4 13 14 14 31 15 17 16 18 17 30 18 32 19 19 20 29 21 28 22
REMARK SMILES IDX 21 23 20 24 25 25 22 26 23 27 26 28 27 29 8 30 9 31 10 32
REMARK SMILES IDX 24 33
REMARK H PARENT 24 34
REMARK Flexibility Score: inf
ROOT
ATOM      1  C   UNL     1      43.408  27.503   2.040  1.00  0.00     0.017 C 
ATOM      2  C   UNL     1      43.953  26.317   2.866  1.00  0.00     0.014 C 
ATOM      3  C   UNL     1      42.957  26.982   0.630  1.00  0.00     0.014 C 
ATOM      4  C   UNL     1      44.455  28.695   1.919  1.00  0.00     0.030 C 
ATOM      5  C   UNL     1      44.482  26.771   4.222  1.00  0.00     0.004 C 
ATOM      6  C   UNL     1      44.058  26.755  -0.442  1.00  0.00     0.013 C 
ATOM      7  C   UNL     1      44.823  28.946   0.439  1.00  0.00    -0.063 C 
ATOM      8  C   UNL     1      45.711  28.685   2.872  1.00  0.00    -0.003 C 
ATOM      9  C   UNL     1      45.676  27.743   4.129  1.00  0.00    -0.011 C 
ATOM     10  C   UNL     1      45.267  27.768  -0.449  1.00  0.00    -0.006 C 
ATOM     11  C   UNL     1      44.155  29.955  -0.159  1.00  0.00    -0.027 C 
ATOM     12  C   UNL     1      46.063  30.123   3.306  1.00  0.00     0.008 C 
ATOM     13  C   UNL     1      47.002  26.971   4.264  1.00  0.00     0.008 C 
ATOM     14  C   UNL     1      46.483  27.015   0.177  1.00  0.00     0.017 C 
ATOM     15  C   UNL     1      45.706  28.274  -1.946  1.00  0.00    -0.020 C 
ATOM     16  C   UNL     1      43.618  29.798  -1.547  1.00  0.00     0.032 C 
ATOM     17  C   UNL     1      44.732  29.427  -2.535  1.00  0.00     0.006 C 
ATOM     18  C   UNL     1      45.885  27.000  -2.873  1.00  0.00     0.008 C 
ATOM     19  C   UNL     1      47.120  28.947  -1.867  1.00  0.00     0.012 C 
ATOM     20  C   UNL     1      44.271  29.333  -4.073  1.00  0.00    -0.025 C 
ATOM     21  C   UNL     1      45.517  27.143  -4.339  1.00  0.00     0.005 C 
ATOM     22  C   UNL     1      44.149  27.827  -4.492  1.00  0.00     0.003 C 
ATOM     23  C   UNL     1      42.889  30.024  -4.316  1.00  0.00     0.010 C 
ATOM     24  C   UNL     1      45.323  30.125  -4.919  1.00  0.00     0.012 C 
ATOM     25  C   UNL     1      43.417  27.487  -5.865  1.00  0.00    -0.006 C 
ATOM     26  C   UNL     1      42.339  29.822  -5.730  1.00  0.00     0.033 C 
ATOM     27  C   UNL     1      42.111  28.337  -6.024  1.00  0.00     0.120 C 
ATOM     28  C   UNL     1      44.310  27.684  -7.123  1.00  0.00     0.014 C 
ATOM     29  C   UNL     1      43.002  25.985  -5.864  1.00  0.00     0.014 C 
ENDROOT
BRANCH   1  30
ATOM     30  C   UNL     1      42.126  27.980   2.746  1.00  0.00     0.048 C 
ATOM     31  O   UNL     1      41.231  27.164   3.098  1.00  0.00    -0.550 OA
ATOM     32  O   UNL     1      41.884  29.338   2.923  1.00  0.00    -0.550 OA
ENDBRANCH   1  30
BRANCH  27  33
ATOM     33  O   UNL     1      41.093  27.865  -5.168  1.00  0.00    -0.393 OA
ATOM     34  H   UNL     1      41.507  27.687  -4.282  1.00  0.00     0.210 HD
ENDBRANCH  27  33
TORSDOF 2
ENDMDL
