MODEL 1
REMARK VINA RESULT:    -4.071      0.000      0.000
REMARK INTER + INTRA:          -4.568
REMARK INTER:                  -4.547
REMARK INTRA:                  -0.021
REMARK UNBOUND:                -0.021
REMARK SMILES CCCC(=O)[O-]
REMARK SMILES IDX 3 1 4 2 5 3 6 4 2 5 1 6
REMARK H PARENT
REMARK Flexibility Score: inf
ROOT
ATOM      1  C   UNL     1      -6.956  34.108 -16.035  1.00  0.00     0.052 C 
ENDROOT
BRANCH   1   2
ATOM      2  C   UNL     1      -7.915  33.099 -16.586  1.00  0.00     0.041 C 
ATOM      3  O   UNL     1      -8.518  33.323 -17.668  1.00  0.00    -0.550 OA
ATOM      4  O   UNL     1      -8.104  31.890 -15.929  1.00  0.00    -0.550 OA
ENDBRANCH   1   2
BRANCH   1   5
ATOM      5  C   UNL     1      -6.179  34.784 -17.167  1.00  0.00     0.003 C 
ATOM      6  C   UNL     1      -5.875  36.241 -16.835  1.00  0.00     0.004 C 
ENDBRANCH   1   5
TORSDOF 2
ENDMDL
MODEL 2
REMARK VINA RESULT:    -3.620      1.214      1.509
REMARK INTER + INTRA:          -4.064
REMARK INTER:                  -4.056
REMARK INTRA:                  -0.008
REMARK UNBOUND:                -0.021
REMARK SMILES CCCC(=O)[O-]
REMARK SMILES IDX 3 1 4 2 5 3 6 4 2 5 1 6
REMARK H PARENT
REMARK Flexibility Score: inf
ROOT
ATOM      1  C   UNL     1      -7.494  33.773 -16.805  1.00  0.00     0.052 C 
ENDROOT
BRANCH   1   2
ATOM      2  C   UNL     1      -7.926  32.876 -15.688  1.00  0.00     0.041 C 
ATOM      3  O   UNL     1      -8.274  31.690 -15.927  1.00  0.00    -0.550 OA
ATOM      4  O   UNL     1      -7.894  33.333 -14.377  1.00  0.00    -0.550 OA
ENDBRANCH   1   2
BRANCH   1   5
ATOM      5  C   UNL     1      -6.304  34.633 -16.373  1.00  0.00     0.003 C 
ATOM      6  C   UNL     1      -5.879  35.586 -17.485  1.00  0.00     0.004 C 
ENDBRANCH   1   5
TORSDOF 2
ENDMDL
MODEL 3
REMARK VINA RESULT:    -3.064      2.078      3.386
REMARK INTER + INTRA:          -3.444
REMARK INTER:                  -3.433
REMARK INTRA:                  -0.011
REMARK UNBOUND:                -0.021
REMARK SMILES CCCC(=O)[O-]
REMARK SMILES IDX 3 1 4 2 5 3 6 4 2 5 1 6
REMARK H PARENT
REMARK Flexibility Score: inf
ROOT
ATOM      1  C   UNL     1      -6.874  34.066 -16.044  1.00  0.00     0.052 C 
ENDROOT
BRANCH   1   2
ATOM      2  C   UNL     1      -6.417  35.095 -17.030  1.00  0.00     0.041 C 
ATOM      3  O   UNL     1      -6.564  34.898 -18.265  1.00  0.00    -0.550 OA
ATOM      4  O   UNL     1      -5.875  36.293 -16.583  1.00  0.00    -0.550 OA
ENDBRANCH   1   2
BRANCH   1   5
ATOM      5  C   UNL     1      -7.983  33.200 -16.647  1.00  0.00     0.003 C 
ATOM      6  C   UNL     1      -8.416  32.106 -15.677  1.00  0.00     0.004 C 
ENDBRANCH   1   5
TORSDOF 2
ENDMDL
MODEL 4
REMARK VINA RESULT:    -2.775      2.115      3.500
REMARK INTER + INTRA:          -3.120
REMARK INTER:                  -3.085
REMARK INTRA:                  -0.035
REMARK UNBOUND:                -0.021
REMARK SMILES CCCC(=O)[O-]
REMARK SMILES IDX 3 1 4 2 5 3 6 4 2 5 1 6
REMARK H PARENT
REMARK Flexibility Score: inf
ROOT
ATOM      1  C   UNL     1      -7.777  33.601 -16.997  1.00  0.00     0.052 C 
ENDROOT
BRANCH   1   2
ATOM      2  C   UNL     1      -6.626  34.558 -17.002  1.00  0.00     0.041 C 
ATOM      3  O   UNL     1      -5.875  34.650 -15.996  1.00  0.00    -0.550 OA
ATOM      4  O   UNL     1      -6.354  35.310 -18.137  1.00  0.00    -0.550 OA
ENDBRANCH   1   2
BRANCH   1   5
ATOM      5  C   UNL     1      -8.251  33.339 -15.565  1.00  0.00     0.003 C 
ATOM      6  C   UNL     1      -8.276  31.845 -15.257  1.00  0.00     0.004 C 
ENDBRANCH   1   5
TORSDOF 2
ENDMDL
MODEL 5
REMARK VINA RESULT:    -1.471     13.601     13.898
REMARK INTER + INTRA:          -1.664
REMARK INTER:                  -1.646
REMARK INTRA:                  -0.018
REMARK UNBOUND:                -0.021
REMARK SMILES CCCC(=O)[O-]
REMARK SMILES IDX 3 1 4 2 5 3 6 4 2 5 1 6
REMARK H PARENT
REMARK Flexibility Score: inf
ROOT
ATOM      1  C   UNL     1     -14.309  22.925 -21.365  1.00  0.00     0.052 C 
ENDROOT
BRANCH   1   2
ATOM      2  C   UNL     1     -13.657  23.490 -22.587  1.00  0.00     0.041 C 
ATOM      3  O   UNL     1     -14.096  24.550 -23.107  1.00  0.00    -0.550 OA
ATOM      4  O   UNL     1     -12.533  22.875 -23.123  1.00  0.00    -0.550 OA
ENDBRANCH   1   2
BRANCH   1   5
ATOM      5  C   UNL     1     -15.655  23.608 -21.109  1.00  0.00     0.003 C 
ATOM      6  C   UNL     1     -15.994  23.619 -19.622  1.00  0.00     0.004 C 
ENDBRANCH   1   5
TORSDOF 2
ENDMDL
MODEL 6
REMARK VINA RESULT:    -1.380     12.666     13.389
REMARK INTER + INTRA:          -1.562
REMARK INTER:                  -1.552
REMARK INTRA:                  -0.010
REMARK UNBOUND:                -0.021
REMARK SMILES CCCC(=O)[O-]
REMARK SMILES IDX 3 1 4 2 5 3 6 4 2 5 1 6
REMARK H PARENT
REMARK Flexibility Score: inf
ROOT
ATOM      1  C   UNL     1     -16.340  25.237 -19.526  1.00  0.00     0.052 C 
ENDROOT
BRANCH   1   2
ATOM      2  C   UNL     1     -16.965  26.041 -18.430  1.00  0.00     0.041 C 
ATOM      3  O   UNL     1     -17.386  27.206 -18.659  1.00  0.00    -0.550 OA
ATOM      4  O   UNL     1     -17.129  25.486 -17.168  1.00  0.00    -0.550 OA
ENDBRANCH   1   2
BRANCH   1   5
ATOM      5  C   UNL     1     -16.255  23.762 -19.128  1.00  0.00     0.003 C 
ATOM      6  C   UNL     1     -16.010  22.875 -20.344  1.00  0.00     0.004 C 
ENDBRANCH   1   5
TORSDOF 2
ENDMDL
MODEL 7
REMARK VINA RESULT:    -1.355     12.698     13.461
REMARK INTER + INTRA:          -1.535
REMARK INTER:                  -1.523
REMARK INTRA:                  -0.012
REMARK UNBOUND:                -0.021
REMARK SMILES CCCC(=O)[O-]
REMARK SMILES IDX 3 1 4 2 5 3 6 4 2 5 1 6
REMARK H PARENT
REMARK Flexibility Score: inf
ROOT
ATOM      1  C   UNL     1     -16.391  25.224 -19.531  1.00  0.00     0.052 C 
ENDROOT
BRANCH   1   2
ATOM      2  C   UNL     1     -17.011  26.003 -18.413  1.00  0.00     0.041 C 
ATOM      3  O   UNL     1     -17.121  25.491 -17.269  1.00  0.00    -0.550 OA
ATOM      4  O   UNL     1     -17.420  27.313 -18.624  1.00  0.00    -0.550 OA
ENDBRANCH   1   2
BRANCH   1   5
ATOM      5  C   UNL     1     -16.228  23.755 -19.134  1.00  0.00     0.003 C 
ATOM      6  C   UNL     1     -15.998  22.875 -20.359  1.00  0.00     0.004 C 
ENDBRANCH   1   5
TORSDOF 2
ENDMDL
