MODEL 1
REMARK VINA RESULT:    -3.810      0.000      0.000
REMARK INTER + INTRA:          -6.689
REMARK INTER:                  -5.814
REMARK INTRA:                  -0.875
REMARK UNBOUND:                -0.875
REMARK SMILES O=C([O-])CCCCCCCCC(=O)[O-]
REMARK SMILES IDX 7 1 6 2 5 3 4 4 2 5 1 6 3 7 8 8 9 9 10 10 11 11 12 12 13 13
REMARK SMILES IDX 14 14
REMARK H PARENT
REMARK Flexibility Score: inf
ROOT
ATOM      1  C   UNL     1      98.299   1.584 -26.121  1.00  0.00     0.000 C 
ENDROOT
BRANCH   1   2
ATOM      2  C   UNL     1      99.664   1.036 -26.569  1.00  0.00     0.000 C 
BRANCH   2   3
ATOM      3  C   UNL     1      99.867   1.120 -28.092  1.00  0.00     0.006 C 
BRANCH   3   4
ATOM      4  C   UNL     1      98.774   0.371 -28.863  1.00  0.00     0.053 C 
BRANCH   4   5
ATOM      5  C   UNL     1      98.908   0.559 -30.343  1.00  0.00     0.041 C 
ATOM      6  O   UNL     1      97.927   0.340 -31.103  1.00  0.00    -0.550 OA
ATOM      7  O   UNL     1     100.125   0.949 -30.888  1.00  0.00    -0.550 OA
ENDBRANCH   4   5
ENDBRANCH   3   4
ENDBRANCH   2   3
ENDBRANCH   1   2
BRANCH   1   8
ATOM      8  C   UNL     1      98.413   2.948 -25.418  1.00  0.00     0.000 C 
BRANCH   8   9
ATOM      9  C   UNL     1      97.884   4.103 -26.283  1.00  0.00     0.000 C 
BRANCH   9  10
ATOM     10  C   UNL     1      99.007   4.866 -27.007  1.00  0.00     0.006 C 
BRANCH  10  11
ATOM     11  C   UNL     1      98.561   5.390 -28.378  1.00  0.00     0.053 C 
BRANCH  11  12
ATOM     12  C   UNL     1      98.655   4.331 -29.435  1.00  0.00     0.041 C 
ATOM     13  O   UNL     1      99.777   3.987 -29.889  1.00  0.00    -0.550 OA
ATOM     14  O   UNL     1      97.504   3.699 -29.890  1.00  0.00    -0.550 OA
ENDBRANCH  11  12
ENDBRANCH  10  11
ENDBRANCH   9  10
ENDBRANCH   8   9
ENDBRANCH   1   8
TORSDOF 9
ENDMDL
MODEL 2
REMARK VINA RESULT:    -3.750      2.304      3.415
REMARK INTER + INTRA:          -6.599
REMARK INTER:                  -5.861
REMARK INTRA:                  -0.738
REMARK UNBOUND:                -0.875
REMARK SMILES O=C([O-])CCCCCCCCC(=O)[O-]
REMARK SMILES IDX 7 1 6 2 5 3 4 4 2 5 1 6 3 7 8 8 9 9 10 10 11 11 12 12 13 13
REMARK SMILES IDX 14 14
REMARK H PARENT
REMARK Flexibility Score: inf
ROOT
ATOM      1  C   UNL     1      97.687   3.276 -26.362  1.00  0.00     0.000 C 
ENDROOT
BRANCH   1   2
ATOM      2  C   UNL     1      98.579   3.330 -25.111  1.00  0.00     0.000 C 
BRANCH   2   3
ATOM      3  C   UNL     1      99.039   1.936 -24.649  1.00  0.00     0.006 C 
BRANCH   3   4
ATOM      4  C   UNL     1      98.022   0.845 -25.007  1.00  0.00     0.053 C 
BRANCH   4   5
ATOM      5  C   UNL     1      98.647  -0.257 -25.807  1.00  0.00     0.041 C 
ATOM      6  O   UNL     1      98.848  -1.386 -25.285  1.00  0.00    -0.550 OA
ATOM      7  O   UNL     1      99.035  -0.029 -27.121  1.00  0.00    -0.550 OA
ENDBRANCH   4   5
ENDBRANCH   3   4
ENDBRANCH   2   3
ENDBRANCH   1   2
BRANCH   1   8
ATOM      8  C   UNL     1      97.868   4.506 -27.270  1.00  0.00     0.000 C 
BRANCH   8   9
ATOM      9  C   UNL     1      99.346   4.878 -27.471  1.00  0.00     0.000 C 
BRANCH   9  10
ATOM     10  C   UNL     1      99.913   4.361 -28.804  1.00  0.00     0.006 C 
BRANCH  10  11
ATOM     11  C   UNL     1     100.125   2.841 -28.794  1.00  0.00     0.053 C 
BRANCH  11  12
ATOM     12  C   UNL     1      99.381   2.169 -29.908  1.00  0.00     0.041 C 
ATOM     13  O   UNL     1      98.176   2.456 -30.128  1.00  0.00    -0.550 OA
ATOM     14  O   UNL     1     100.031   1.252 -30.725  1.00  0.00    -0.550 OA
ENDBRANCH  11  12
ENDBRANCH  10  11
ENDBRANCH   9  10
ENDBRANCH   8   9
ENDBRANCH   1   8
TORSDOF 9
ENDMDL
MODEL 3
REMARK VINA RESULT:    -3.714      3.260      4.586
REMARK INTER + INTRA:          -6.544
REMARK INTER:                  -5.814
REMARK INTRA:                  -0.730
REMARK UNBOUND:                -0.875
REMARK SMILES O=C([O-])CCCCCCCCC(=O)[O-]
REMARK SMILES IDX 7 1 6 2 5 3 4 4 2 5 1 6 3 7 8 8 9 9 10 10 11 11 12 12 13 13
REMARK SMILES IDX 14 14
REMARK H PARENT
REMARK Flexibility Score: inf
ROOT
ATOM      1  C   UNL     1      98.189   3.479 -25.106  1.00  0.00     0.000 C 
ENDROOT
BRANCH   1   2
ATOM      2  C   UNL     1      98.663   3.366 -26.564  1.00  0.00     0.000 C 
BRANCH   2   3
ATOM      3  C   UNL     1      99.176   4.703 -27.127  1.00  0.00     0.006 C 
BRANCH   3   4
ATOM      4  C   UNL     1      98.373   5.161 -28.351  1.00  0.00     0.053 C 
BRANCH   4   5
ATOM      5  C   UNL     1      98.364   4.124 -29.431  1.00  0.00     0.041 C 
ATOM      6  O   UNL     1      97.276   3.625 -29.823  1.00  0.00    -0.550 OA
ATOM      7  O   UNL     1      99.560   3.685 -29.984  1.00  0.00    -0.550 OA
ENDBRANCH   4   5
ENDBRANCH   3   4
ENDBRANCH   2   3
ENDBRANCH   1   2
BRANCH   1   8
ATOM      8  C   UNL     1      96.729   3.031 -24.922  1.00  0.00     0.000 C 
BRANCH   8   9
ATOM      9  C   UNL     1      95.973   2.926 -26.256  1.00  0.00     0.000 C 
BRANCH   9  10
ATOM     10  C   UNL     1      95.108   4.165 -26.549  1.00  0.00     0.006 C 
BRANCH  10  11
ATOM     11  C   UNL     1      93.919   4.283 -25.587  1.00  0.00     0.053 C 
BRANCH  11  12
ATOM     12  C   UNL     1      93.012   5.415 -25.961  1.00  0.00     0.041 C 
ATOM     13  O   UNL     1      93.473   6.578 -26.095  1.00  0.00    -0.550 OA
ATOM     14  O   UNL     1      91.663   5.177 -26.196  1.00  0.00    -0.550 OA
ENDBRANCH  11  12
ENDBRANCH  10  11
ENDBRANCH   9  10
ENDBRANCH   8   9
ENDBRANCH   1   8
TORSDOF 9
ENDMDL
MODEL 4
REMARK VINA RESULT:    -3.708      2.763      4.200
REMARK INTER + INTRA:          -6.534
REMARK INTER:                  -5.735
REMARK INTRA:                  -0.799
REMARK UNBOUND:                -0.875
REMARK SMILES O=C([O-])CCCCCCCCC(=O)[O-]
REMARK SMILES IDX 7 1 6 2 5 3 4 4 2 5 1 6 3 7 8 8 9 9 10 10 11 11 12 12 13 13
REMARK SMILES IDX 14 14
REMARK H PARENT
REMARK Flexibility Score: inf
ROOT
ATOM      1  C   UNL     1      97.705   4.031 -27.338  1.00  0.00     0.000 C 
ENDROOT
BRANCH   1   2
ATOM      2  C   UNL     1      99.065   4.747 -27.296  1.00  0.00     0.000 C 
BRANCH   2   3
ATOM      3  C   UNL     1     100.122   4.066 -28.183  1.00  0.00     0.006 C 
BRANCH   3   4
ATOM      4  C   UNL     1      99.558   3.673 -29.555  1.00  0.00     0.053 C 
BRANCH   4   5
ATOM      5  C   UNL     1      99.850   2.242 -29.886  1.00  0.00     0.041 C 
ATOM      6  O   UNL     1      99.829   1.850 -31.084  1.00  0.00    -0.550 OA
ATOM      7  O   UNL     1     100.117   1.332 -28.871  1.00  0.00    -0.550 OA
ENDBRANCH   4   5
ENDBRANCH   3   4
ENDBRANCH   2   3
ENDBRANCH   1   2
BRANCH   1   8
ATOM      8  C   UNL     1      97.390   3.283 -26.031  1.00  0.00     0.000 C 
BRANCH   8   9
ATOM      9  C   UNL     1      98.488   3.463 -24.970  1.00  0.00     0.000 C 
BRANCH   9  10
ATOM     10  C   UNL     1      99.032   2.124 -24.444  1.00  0.00     0.006 C 
BRANCH  10  11
ATOM     11  C   UNL     1      98.939   1.008 -25.494  1.00  0.00     0.053 C 
BRANCH  11  12
ATOM     12  C   UNL     1      98.193  -0.183 -24.974  1.00  0.00     0.041 C 
ATOM     13  O   UNL     1      97.173  -0.027 -24.254  1.00  0.00    -0.550 OA
ATOM     14  O   UNL     1      98.605  -1.465 -25.316  1.00  0.00    -0.550 OA
ENDBRANCH  11  12
ENDBRANCH  10  11
ENDBRANCH   9  10
ENDBRANCH   8   9
ENDBRANCH   1   8
TORSDOF 9
ENDMDL
MODEL 5
REMARK VINA RESULT:    -3.702      3.412      5.318
REMARK INTER + INTRA:          -6.525
REMARK INTER:                  -5.800
REMARK INTRA:                  -0.725
REMARK UNBOUND:                -0.875
REMARK SMILES O=C([O-])CCCCCCCCC(=O)[O-]
REMARK SMILES IDX 7 1 6 2 5 3 4 4 2 5 1 6 3 7 8 8 9 9 10 10 11 11 12 12 13 13
REMARK SMILES IDX 14 14
REMARK H PARENT
REMARK Flexibility Score: inf
ROOT
ATOM      1  C   UNL     1      96.722   3.002 -25.066  1.00  0.00     0.000 C 
ENDROOT
BRANCH   1   2
ATOM      2  C   UNL     1      95.965   3.011 -26.404  1.00  0.00     0.000 C 
BRANCH   2   3
ATOM      3  C   UNL     1      94.907   4.125 -26.480  1.00  0.00     0.006 C 
BRANCH   3   4
ATOM      4  C   UNL     1      93.907   4.053 -25.319  1.00  0.00     0.053 C 
BRANCH   4   5
ATOM      5  C   UNL     1      93.015   5.256 -25.276  1.00  0.00     0.041 C 
ATOM      6  O   UNL     1      91.982   5.255 -24.555  1.00  0.00    -0.550 OA
ATOM      7  O   UNL     1      93.308   6.368 -26.056  1.00  0.00    -0.550 OA
ENDBRANCH   4   5
ENDBRANCH   3   4
ENDBRANCH   2   3
ENDBRANCH   1   2
BRANCH   1   8
ATOM      8  C   UNL     1      98.111   3.656 -25.170  1.00  0.00     0.000 C 
BRANCH   8   9
ATOM      9  C   UNL     1      98.763   3.441 -26.545  1.00  0.00     0.000 C 
BRANCH   9  10
ATOM     10  C   UNL     1      99.241   4.754 -27.188  1.00  0.00     0.006 C 
BRANCH  10  11
ATOM     11  C   UNL     1      98.374   5.162 -28.387  1.00  0.00     0.053 C 
BRANCH  11  12
ATOM     12  C   UNL     1      98.359   4.103 -29.447  1.00  0.00     0.041 C 
ATOM     13  O   UNL     1      99.440   3.678 -29.933  1.00  0.00    -0.550 OA
ATOM     14  O   UNL     1      97.153   3.561 -29.873  1.00  0.00    -0.550 OA
ENDBRANCH  11  12
ENDBRANCH  10  11
ENDBRANCH   9  10
ENDBRANCH   8   9
ENDBRANCH   1   8
TORSDOF 9
ENDMDL
MODEL 6
REMARK VINA RESULT:    -3.661      3.109      4.215
REMARK INTER + INTRA:          -6.462
REMARK INTER:                  -5.651
REMARK INTRA:                  -0.811
REMARK UNBOUND:                -0.875
REMARK SMILES O=C([O-])CCCCCCCCC(=O)[O-]
REMARK SMILES IDX 7 1 6 2 5 3 4 4 2 5 1 6 3 7 8 8 9 9 10 10 11 11 12 12 13 13
REMARK SMILES IDX 14 14
REMARK H PARENT
REMARK Flexibility Score: inf
ROOT
ATOM      1  C   UNL     1      98.990   4.148 -26.640  1.00  0.00     0.000 C 
ENDROOT
BRANCH   1   2
ATOM      2  C   UNL     1      98.132   4.889 -27.678  1.00  0.00     0.000 C 
BRANCH   2   3
ATOM      3  C   UNL     1      98.459   4.475 -29.123  1.00  0.00     0.006 C 
BRANCH   3   4
ATOM      4  C   UNL     1      97.486   3.414 -29.654  1.00  0.00     0.053 C 
BRANCH   4   5
ATOM      5  C   UNL     1      98.161   2.093 -29.861  1.00  0.00     0.041 C 
ATOM      6  O   UNL     1      98.147   1.543 -30.994  1.00  0.00    -0.550 OA
ATOM      7  O   UNL     1      98.781   1.454 -28.794  1.00  0.00    -0.550 OA
ENDBRANCH   4   5
ENDBRANCH   3   4
ENDBRANCH   2   3
ENDBRANCH   1   2
BRANCH   1   8
ATOM      8  C   UNL     1      98.147   3.532 -25.509  1.00  0.00     0.000 C 
BRANCH   8   9
ATOM      9  C   UNL     1      96.925   2.764 -26.036  1.00  0.00     0.000 C 
BRANCH   9  10
ATOM     10  C   UNL     1      95.602   3.262 -25.429  1.00  0.00     0.006 C 
BRANCH  10  11
ATOM     11  C   UNL     1      94.724   3.980 -26.463  1.00  0.00     0.053 C 
BRANCH  11  12
ATOM     12  C   UNL     1      93.657   4.804 -25.810  1.00  0.00     0.041 C 
ATOM     13  O   UNL     1      92.969   4.321 -24.873  1.00  0.00    -0.550 OA
ATOM     14  O   UNL     1      93.447   6.118 -26.212  1.00  0.00    -0.550 OA
ENDBRANCH  11  12
ENDBRANCH  10  11
ENDBRANCH   9  10
ENDBRANCH   8   9
ENDBRANCH   1   8
TORSDOF 9
ENDMDL
MODEL 7
REMARK VINA RESULT:    -3.644      3.101      3.673
REMARK INTER + INTRA:          -6.436
REMARK INTER:                  -5.929
REMARK INTRA:                  -0.507
REMARK UNBOUND:                -0.875
REMARK SMILES O=C([O-])CCCCCCCCC(=O)[O-]
REMARK SMILES IDX 7 1 6 2 5 3 4 4 2 5 1 6 3 7 8 8 9 9 10 10 11 11 12 12 13 13
REMARK SMILES IDX 14 14
REMARK H PARENT
REMARK Flexibility Score: inf
ROOT
ATOM      1  C   UNL     1      98.935   2.002 -24.966  1.00  0.00     0.000 C 
ENDROOT
BRANCH   1   2
ATOM      2  C   UNL     1      99.365   1.342 -26.286  1.00  0.00     0.000 C 
BRANCH   2   3
ATOM      3  C   UNL     1      98.970  -0.144 -26.362  1.00  0.00     0.006 C 
BRANCH   3   4
ATOM      4  C   UNL     1      99.417  -0.925 -25.120  1.00  0.00     0.053 C 
BRANCH   4   5
ATOM      5  C   UNL     1      98.264  -1.605 -24.447  1.00  0.00     0.041 C 
ATOM      6  O   UNL     1      97.094  -1.162 -24.590  1.00  0.00    -0.550 OA
ATOM      7  O   UNL     1      98.486  -2.711 -23.635  1.00  0.00    -0.550 OA
ENDBRANCH   4   5
ENDBRANCH   3   4
ENDBRANCH   2   3
ENDBRANCH   1   2
BRANCH   1   8
ATOM      8  C   UNL     1      98.487   3.462 -25.155  1.00  0.00     0.000 C 
BRANCH   8   9
ATOM      9  C   UNL     1      98.176   3.798 -26.622  1.00  0.00     0.000 C 
BRANCH   9  10
ATOM     10  C   UNL     1      99.037   4.953 -27.163  1.00  0.00     0.006 C 
BRANCH  10  11
ATOM     11  C   UNL     1      98.697   5.295 -28.620  1.00  0.00     0.053 C 
BRANCH  11  12
ATOM     12  C   UNL     1      98.543   4.064 -29.459  1.00  0.00     0.041 C 
ATOM     13  O   UNL     1      97.414   3.746 -29.916  1.00  0.00    -0.550 OA
ATOM     14  O   UNL     1      99.654   3.286 -29.765  1.00  0.00    -0.550 OA
ENDBRANCH  11  12
ENDBRANCH  10  11
ENDBRANCH   9  10
ENDBRANCH   8   9
ENDBRANCH   1   8
TORSDOF 9
ENDMDL
MODEL 8
REMARK VINA RESULT:    -3.591      2.295      3.654
REMARK INTER + INTRA:          -6.355
REMARK INTER:                  -5.590
REMARK INTRA:                  -0.765
REMARK UNBOUND:                -0.875
REMARK SMILES O=C([O-])CCCCCCCCC(=O)[O-]
REMARK SMILES IDX 7 1 6 2 5 3 4 4 2 5 1 6 3 7 8 8 9 9 10 10 11 11 12 12 13 13
REMARK SMILES IDX 14 14
REMARK H PARENT
REMARK Flexibility Score: inf
ROOT
ATOM      1  C   UNL     1      99.660   5.181 -28.228  1.00  0.00     0.000 C 
ENDROOT
BRANCH   1   2
ATOM      2  C   UNL     1      99.099   4.378 -29.413  1.00  0.00     0.000 C 
BRANCH   2   3
ATOM      3  C   UNL     1     100.125   3.394 -30.002  1.00  0.00     0.006 C 
BRANCH   3   4
ATOM      4  C   UNL     1     100.074   2.024 -29.312  1.00  0.00     0.053 C 
BRANCH   4   5
ATOM      5  C   UNL     1      99.319   1.019 -30.126  1.00  0.00     0.041 C 
ATOM      6  O   UNL     1      99.282   1.118 -31.382  1.00  0.00    -0.550 OA
ATOM      7  O   UNL     1      98.630  -0.010 -29.497  1.00  0.00    -0.550 OA
ENDBRANCH   4   5
ENDBRANCH   3   4
ENDBRANCH   2   3
ENDBRANCH   1   2
BRANCH   1   8
ATOM      8  C   UNL     1      98.916   4.889 -26.912  1.00  0.00     0.000 C 
BRANCH   8   9
ATOM      9  C   UNL     1      97.648   4.048 -27.126  1.00  0.00     0.000 C 
BRANCH   9  10
ATOM     10  C   UNL     1      97.403   3.040 -25.989  1.00  0.00     0.006 C 
BRANCH  10  11
ATOM     11  C   UNL     1      98.704   2.637 -25.283  1.00  0.00     0.053 C 
BRANCH  11  12
ATOM     12  C   UNL     1      98.997   1.177 -25.449  1.00  0.00     0.041 C 
ATOM     13  O   UNL     1      98.206   0.315 -24.984  1.00  0.00    -0.550 OA
ATOM     14  O   UNL     1     100.125   0.769 -26.151  1.00  0.00    -0.550 OA
ENDBRANCH  11  12
ENDBRANCH  10  11
ENDBRANCH   9  10
ENDBRANCH   8   9
ENDBRANCH   1   8
TORSDOF 9
ENDMDL
MODEL 9
REMARK VINA RESULT:    -3.493      3.056      5.118
REMARK INTER + INTRA:          -6.205
REMARK INTER:                  -5.539
REMARK INTRA:                  -0.667
REMARK UNBOUND:                -0.875
REMARK SMILES O=C([O-])CCCCCCCCC(=O)[O-]
REMARK SMILES IDX 7 1 6 2 5 3 4 4 2 5 1 6 3 7 8 8 9 9 10 10 11 11 12 12 13 13
REMARK SMILES IDX 14 14
REMARK H PARENT
REMARK Flexibility Score: inf
ROOT
ATOM      1  C   UNL     1      98.634   4.112 -26.331  1.00  0.00     0.000 C 
ENDROOT
BRANCH   1   2
ATOM      2  C   UNL     1      97.389   3.324 -25.894  1.00  0.00     0.000 C 
BRANCH   2   3
ATOM      3  C   UNL     1      96.141   3.681 -26.721  1.00  0.00     0.006 C 
BRANCH   3   4
ATOM      4  C   UNL     1      94.864   3.067 -26.133  1.00  0.00     0.053 C 
BRANCH   4   5
ATOM      5  C   UNL     1      93.888   4.118 -25.703  1.00  0.00     0.041 C 
ATOM      6  O   UNL     1      93.460   4.966 -26.532  1.00  0.00    -0.550 OA
ATOM      7  O   UNL     1      93.472   4.183 -24.379  1.00  0.00    -0.550 OA
ENDBRANCH   4   5
ENDBRANCH   3   4
ENDBRANCH   2   3
ENDBRANCH   1   2
BRANCH   1   8
ATOM      8  C   UNL     1      98.424   4.862 -27.658  1.00  0.00     0.000 C 
BRANCH   8   9
ATOM      9  C   UNL     1      99.540   4.582 -28.677  1.00  0.00     0.000 C 
BRANCH   9  10
ATOM     10  C   UNL     1     100.125   3.165 -28.543  1.00  0.00     0.006 C 
BRANCH  10  11
ATOM     11  C   UNL     1      99.646   2.232 -29.664  1.00  0.00     0.053 C 
BRANCH  11  12
ATOM     12  C   UNL     1      99.054   0.968 -29.119  1.00  0.00     0.041 C 
ATOM     13  O   UNL     1      98.911   0.819 -27.878  1.00  0.00    -0.550 OA
ATOM     14  O   UNL     1      98.627  -0.030 -29.987  1.00  0.00    -0.550 OA
ENDBRANCH  11  12
ENDBRANCH  10  11
ENDBRANCH   9  10
ENDBRANCH   8   9
ENDBRANCH   1   8
TORSDOF 9
ENDMDL
