MODEL 1
REMARK VINA RESULT:    30.341      0.000      0.000
REMARK INTER + INTRA:          45.105
REMARK INTER:                  44.531
REMARK INTRA:                   0.574
REMARK UNBOUND:                 0.574
REMARK SMILES Cc1cc2c(C(C)C)c(O)c(O)c(C=O)c2c(O)c1-c1c(C)cc2c(C(C)C)c(O)c(O)c(C=O)c2c1O
REMARK SMILES IDX 1 1 2 2 3 3 4 4 16 5 13 6 11 7 9 8 5 9 17 10 19 11 20 12
REMARK SMILES IDX 37 13 21 14 36 15 23 16 22 17 24 18 33 19 25 20 31 21 29 22
REMARK SMILES IDX 38 23 34 25 35 26 26 27 27 28 28 29 32 30 30 32 18 34 6 36
REMARK SMILES IDX 7 37 8 38 14 39 15 40 10 41 12 43
REMARK H PARENT 38 24 32 31 30 33 18 35 10 42 12 44
REMARK Flexibility Score: inf
ROOT
ATOM      1  C   UNL     1      -6.125  36.419  18.689  1.00  0.00     0.045 C 
ATOM      2  C   UNL     1      -4.701  36.822  18.386  1.00  0.00    -0.039 A 
ATOM      3  C   UNL     1      -4.232  36.749  17.074  1.00  0.00     0.013 A 
ATOM      4  C   UNL     1      -2.925  37.153  16.724  1.00  0.00    -0.006 A 
ATOM      5  C   UNL     1      -2.039  37.586  17.757  1.00  0.00     0.039 A 
ATOM      6  C   UNL     1      -0.707  37.957  17.412  1.00  0.00     0.072 A 
ATOM      7  C   UNL     1      -0.228  37.726  16.110  1.00  0.00     0.169 A 
ATOM      8  C   UNL     1      -1.086  37.219  15.118  1.00  0.00     0.162 A 
ATOM      9  C   UNL     1      -2.468  37.089  15.371  1.00  0.00     0.008 A 
ATOM     10  C   UNL     1      -2.504  37.596  19.107  1.00  0.00     0.132 A 
ATOM     11  C   UNL     1      -3.838  37.247  19.407  1.00  0.00     0.031 A 
ENDROOT
BRANCH  11  12
ATOM     12  C   UNL     1      -4.323  37.291  20.813  1.00  0.00     0.031 A 
ATOM     13  C   UNL     1      -4.445  38.526  21.483  1.00  0.00     0.132 A 
ATOM     14  C   UNL     1      -4.655  36.098  21.473  1.00  0.00    -0.039 A 
ATOM     15  C   UNL     1      -4.931  38.577  22.826  1.00  0.00     0.039 A 
ATOM     16  C   UNL     1      -5.031  36.139  22.816  1.00  0.00     0.013 A 
ATOM     17  C   UNL     1      -4.536  34.763  20.781  1.00  0.00     0.045 C 
ATOM     18  C   UNL     1      -5.138  37.350  23.530  1.00  0.00    -0.006 A 
ATOM     19  C   UNL     1      -5.192  39.811  23.493  1.00  0.00     0.072 A 
ATOM     20  C   UNL     1      -5.453  37.366  24.927  1.00  0.00     0.008 A 
ATOM     21  C   UNL     1      -5.618  39.807  24.836  1.00  0.00     0.169 A 
ATOM     22  C   UNL     1      -5.724  38.607  25.546  1.00  0.00     0.162 A 
BRANCH  13  23
ATOM     23  O   UNL     1      -4.056  39.700  20.826  1.00  0.00    -0.507 OA
ATOM     24  H   UNL     1      -3.532  39.715  19.959  1.00  0.00     0.293 HD
ENDBRANCH  13  23
BRANCH  19  25
ATOM     25  C   UNL     1      -5.104  41.109  22.793  1.00  0.00     0.264 C 
ATOM     26  O   UNL     1      -6.028  41.486  22.024  1.00  0.00    -0.298 OA
ENDBRANCH  19  25
BRANCH  20  27
ATOM     27  C   UNL     1      -5.514  36.103  25.813  1.00  0.00     0.017 C 
ATOM     28  C   UNL     1      -6.124  34.905  25.073  1.00  0.00     0.012 C 
ATOM     29  C   UNL     1      -4.189  35.765  26.528  1.00  0.00     0.012 C 
ENDBRANCH  20  27
BRANCH  21  30
ATOM     30  O   UNL     1      -5.970  40.989  25.498  1.00  0.00    -0.504 OA
ATOM     31  H   UNL     1      -6.849  41.473  25.367  1.00  0.00     0.293 HD
ENDBRANCH  21  30
BRANCH  22  32
ATOM     32  O   UNL     1      -6.125  38.643  26.887  1.00  0.00    -0.504 OA
ATOM     33  H   UNL     1      -6.293  39.504  27.392  1.00  0.00     0.293 HD
ENDBRANCH  22  32
ENDBRANCH  11  12
BRANCH  10  34
ATOM     34  O   UNL     1      -1.630  37.914  20.154  1.00  0.00    -0.507 OA
ATOM     35  H   UNL     1      -1.659  37.481  21.068  1.00  0.00     0.293 HD
ENDBRANCH  10  34
BRANCH   9  36
ATOM     36  C   UNL     1      -3.435  36.840  14.199  1.00  0.00     0.017 C 
ATOM     37  C   UNL     1      -4.274  38.088  13.902  1.00  0.00     0.012 C 
ATOM     38  C   UNL     1      -4.329  35.598  14.386  1.00  0.00     0.012 C 
ENDBRANCH   9  36
BRANCH   6  39
ATOM     39  C   UNL     1       0.192  38.657  18.361  1.00  0.00     0.264 C 
ATOM     40  O   UNL     1      -0.167  39.720  18.934  1.00  0.00    -0.298 OA
ENDBRANCH   6  39
BRANCH   8  41
ATOM     41  O   UNL     1      -0.582  36.827  13.875  1.00  0.00    -0.504 OA
ATOM     42  H   UNL     1      -0.805  37.285  13.003  1.00  0.00     0.293 HD
ENDBRANCH   8  41
BRANCH   7  43
ATOM     43  O   UNL     1       1.098  38.062  15.812  1.00  0.00    -0.504 OA
ATOM     44  H   UNL     1       1.625  37.665  15.046  1.00  0.00     0.293 HD
ENDBRANCH   7  43
TORSDOF 11
ENDMDL
