MODEL 1
REMARK VINA RESULT:    -4.414      0.000      0.000
REMARK INTER + INTRA:          -6.355
REMARK INTER:                  -5.962
REMARK INTRA:                  -0.393
REMARK UNBOUND:                -0.393
REMARK SMILES CCCCCCC=CC(=O)[O-]
REMARK SMILES IDX 5 1 6 2 7 3 8 4 9 5 10 6 11 7 4 8 3 9 2 10 1 11
REMARK H PARENT
REMARK Flexibility Score: inf
ROOT
ATOM      1  C   UNL     1     -35.098  43.024  40.306  1.00  0.00     0.004 C 
ENDROOT
BRANCH   1   2
ATOM      2  C   UNL     1     -34.722  44.512  40.351  1.00  0.00     0.027 C 
BRANCH   2   3
ATOM      3  C   UNL     1     -34.187  45.008  39.037  1.00  0.00    -0.025 C 
ATOM      4  C   UNL     1     -32.873  45.060  38.792  1.00  0.00     0.020 C 
BRANCH   4   5
ATOM      5  C   UNL     1     -32.335  45.548  37.513  1.00  0.00     0.064 C 
ATOM      6  O   UNL     1     -33.068  46.229  36.750  1.00  0.00    -0.545 OA
ATOM      7  O   UNL     1     -31.026  45.270  37.135  1.00  0.00    -0.545 OA
ENDBRANCH   4   5
ENDBRANCH   2   3
ENDBRANCH   1   2
BRANCH   1   8
ATOM      8  C   UNL     1     -34.212  42.177  41.237  1.00  0.00     0.000 C 
BRANCH   8   9
ATOM      9  C   UNL     1     -32.850  41.838  40.609  1.00  0.00    -0.000 C 
BRANCH   9  10
ATOM     10  C   UNL     1     -32.626  40.325  40.472  1.00  0.00    -0.003 C 
ATOM     11  C   UNL     1     -33.686  39.692  39.575  1.00  0.00     0.004 C 
ENDBRANCH   9  10
ENDBRANCH   8   9
ENDBRANCH   1   8
TORSDOF 6
ENDMDL
MODEL 2
REMARK VINA RESULT:    -4.399     11.516     13.021
REMARK INTER + INTRA:          -6.336
REMARK INTER:                  -5.887
REMARK INTRA:                  -0.449
REMARK UNBOUND:                -0.393
REMARK SMILES CCCCCCC=CC(=O)[O-]
REMARK SMILES IDX 5 1 6 2 7 3 8 4 9 5 10 6 11 7 4 8 3 9 2 10 1 11
REMARK H PARENT
REMARK Flexibility Score: inf
ROOT
ATOM      1  C   UNL     1     -38.698  38.863  46.785  1.00  0.00     0.004 C 
ENDROOT
BRANCH   1   2
ATOM      2  C   UNL     1     -40.173  38.439  46.814  1.00  0.00     0.027 C 
BRANCH   2   3
ATOM      3  C   UNL     1     -40.565  37.814  48.124  1.00  0.00    -0.025 C 
ATOM      4  C   UNL     1     -40.426  36.502  48.341  1.00  0.00     0.020 C 
BRANCH   4   5
ATOM      5  C   UNL     1     -40.810  35.877  49.615  1.00  0.00     0.064 C 
ATOM      6  O   UNL     1     -40.418  34.710  49.878  1.00  0.00    -0.545 OA
ATOM      7  O   UNL     1     -41.599  36.556  50.537  1.00  0.00    -0.545 OA
ENDBRANCH   4   5
ENDBRANCH   2   3
ENDBRANCH   1   2
BRANCH   1   8
ATOM      8  C   UNL     1     -37.934  38.216  45.615  1.00  0.00     0.000 C 
BRANCH   8   9
ATOM      9  C   UNL     1     -36.711  37.411  46.082  1.00  0.00    -0.000 C 
BRANCH   9  10
ATOM     10  C   UNL     1     -36.291  37.757  47.518  1.00  0.00    -0.003 C 
ATOM     11  C   UNL     1     -34.890  38.361  47.550  1.00  0.00     0.004 C 
ENDBRANCH   9  10
ENDBRANCH   8   9
ENDBRANCH   1   8
TORSDOF 6
ENDMDL
MODEL 3
REMARK VINA RESULT:    -4.399      1.834      2.777
REMARK INTER + INTRA:          -6.335
REMARK INTER:                  -5.867
REMARK INTRA:                  -0.468
REMARK UNBOUND:                -0.393
REMARK SMILES CCCCCCC=CC(=O)[O-]
REMARK SMILES IDX 5 1 6 2 7 3 8 4 9 5 10 6 11 7 4 8 3 9 2 10 1 11
REMARK H PARENT
REMARK Flexibility Score: inf
ROOT
ATOM      1  C   UNL     1     -33.667  41.185  40.149  1.00  0.00     0.004 C 
ENDROOT
BRANCH   1   2
ATOM      2  C   UNL     1     -34.070  42.442  40.934  1.00  0.00     0.027 C 
BRANCH   2   3
ATOM      3  C   UNL     1     -34.140  43.664  40.062  1.00  0.00    -0.025 C 
ATOM      4  C   UNL     1     -34.248  43.569  38.733  1.00  0.00     0.020 C 
BRANCH   4   5
ATOM      5  C   UNL     1     -34.313  44.757  37.868  1.00  0.00     0.064 C 
ATOM      6  O   UNL     1     -33.537  44.850  36.882  1.00  0.00    -0.545 OA
ATOM      7  O   UNL     1     -35.222  45.778  38.121  1.00  0.00    -0.545 OA
ENDBRANCH   4   5
ENDBRANCH   2   3
ENDBRANCH   1   2
BRANCH   1   8
ATOM      8  C   UNL     1     -32.332  40.598  40.643  1.00  0.00     0.000 C 
BRANCH   8   9
ATOM      9  C   UNL     1     -31.280  41.682  40.925  1.00  0.00    -0.000 C 
BRANCH   9  10
ATOM     10  C   UNL     1     -30.437  41.374  42.172  1.00  0.00    -0.003 C 
ATOM     11  C   UNL     1     -31.278  41.479  43.441  1.00  0.00     0.004 C 
ENDBRANCH   9  10
ENDBRANCH   8   9
ENDBRANCH   1   8
TORSDOF 6
ENDMDL
MODEL 4
REMARK VINA RESULT:    -4.363      3.719      5.528
REMARK INTER + INTRA:          -6.286
REMARK INTER:                  -5.812
REMARK INTRA:                  -0.474
REMARK UNBOUND:                -0.393
REMARK SMILES CCCCCCC=CC(=O)[O-]
REMARK SMILES IDX 5 1 6 2 7 3 8 4 9 5 10 6 11 7 4 8 3 9 2 10 1 11
REMARK H PARENT
REMARK Flexibility Score: inf
ROOT
ATOM      1  C   UNL     1     -34.639  44.731  40.080  1.00  0.00     0.004 C 
ENDROOT
BRANCH   1   2
ATOM      2  C   UNL     1     -33.644  43.581  39.867  1.00  0.00     0.027 C 
BRANCH   2   3
ATOM      3  C   UNL     1     -34.293  42.231  39.993  1.00  0.00    -0.025 C 
ATOM      4  C   UNL     1     -35.534  42.094  40.471  1.00  0.00     0.020 C 
BRANCH   4   5
ATOM      5  C   UNL     1     -36.179  40.779  40.605  1.00  0.00     0.064 C 
ATOM      6  O   UNL     1     -37.425  40.681  40.468  1.00  0.00    -0.545 OA
ATOM      7  O   UNL     1     -35.430  39.639  40.878  1.00  0.00    -0.545 OA
ENDBRANCH   4   5
ENDBRANCH   2   3
ENDBRANCH   1   2
BRANCH   1   8
ATOM      8  C   UNL     1     -34.806  45.592  38.815  1.00  0.00     0.000 C 
BRANCH   8   9
ATOM      9  C   UNL     1     -34.206  44.928  37.565  1.00  0.00    -0.000 C 
BRANCH   9  10
ATOM     10  C   UNL     1     -33.252  45.859  36.804  1.00  0.00    -0.003 C 
ATOM     11  C   UNL     1     -31.811  45.670  37.272  1.00  0.00     0.004 C 
ENDBRANCH   9  10
ENDBRANCH   8   9
ENDBRANCH   1   8
TORSDOF 6
ENDMDL
MODEL 5
REMARK VINA RESULT:    -4.339     11.300     12.753
REMARK INTER + INTRA:          -6.254
REMARK INTER:                  -5.694
REMARK INTRA:                  -0.560
REMARK UNBOUND:                -0.393
REMARK SMILES CCCCCCC=CC(=O)[O-]
REMARK SMILES IDX 5 1 6 2 7 3 8 4 9 5 10 6 11 7 4 8 3 9 2 10 1 11
REMARK H PARENT
REMARK Flexibility Score: inf
ROOT
ATOM      1  C   UNL     1     -38.294  39.144  46.719  1.00  0.00     0.004 C 
ENDROOT
BRANCH   1   2
ATOM      2  C   UNL     1     -39.716  38.579  46.592  1.00  0.00     0.027 C 
BRANCH   2   3
ATOM      3  C   UNL     1     -40.232  38.026  47.891  1.00  0.00    -0.025 C 
ATOM      4  C   UNL     1     -40.310  36.709  48.108  1.00  0.00     0.020 C 
BRANCH   4   5
ATOM      5  C   UNL     1     -40.818  36.155  49.372  1.00  0.00     0.064 C 
ATOM      6  O   UNL     1     -40.456  35.007  49.737  1.00  0.00    -0.545 OA
ATOM      7  O   UNL     1     -41.692  36.882  50.173  1.00  0.00    -0.545 OA
ENDBRANCH   4   5
ENDBRANCH   2   3
ENDBRANCH   1   2
BRANCH   1   8
ATOM      8  C   UNL     1     -37.221  38.064  46.492  1.00  0.00     0.000 C 
BRANCH   8   9
ATOM      9  C   UNL     1     -37.225  37.522  45.054  1.00  0.00    -0.000 C 
BRANCH   9  10
ATOM     10  C   UNL     1     -36.842  36.037  44.983  1.00  0.00    -0.003 C 
ATOM     11  C   UNL     1     -37.131  35.332  46.305  1.00  0.00     0.004 C 
ENDBRANCH   9  10
ENDBRANCH   8   9
ENDBRANCH   1   8
TORSDOF 6
ENDMDL
MODEL 6
REMARK VINA RESULT:    -4.307     10.767     12.349
REMARK INTER + INTRA:          -6.211
REMARK INTER:                  -5.818
REMARK INTRA:                  -0.393
REMARK UNBOUND:                -0.393
REMARK SMILES CCCCCCC=CC(=O)[O-]
REMARK SMILES IDX 5 1 6 2 7 3 8 4 9 5 10 6 11 7 4 8 3 9 2 10 1 11
REMARK H PARENT
REMARK Flexibility Score: inf
ROOT
ATOM      1  C   UNL     1     -39.127  38.390  46.725  1.00  0.00     0.004 C 
ENDROOT
BRANCH   1   2
ATOM      2  C   UNL     1     -37.917  37.562  47.182  1.00  0.00     0.027 C 
BRANCH   2   3
ATOM      3  C   UNL     1     -37.368  36.695  46.083  1.00  0.00    -0.025 C 
ATOM      4  C   UNL     1     -37.117  35.396  46.278  1.00  0.00     0.020 C 
BRANCH   4   5
ATOM      5  C   UNL     1     -36.575  34.538  45.214  1.00  0.00     0.064 C 
ATOM      6  O   UNL     1     -35.966  33.480  45.518  1.00  0.00    -0.545 OA
ATOM      7  O   UNL     1     -36.727  34.877  43.874  1.00  0.00    -0.545 OA
ENDBRANCH   4   5
ENDBRANCH   2   3
ENDBRANCH   1   2
BRANCH   1   8
ATOM      8  C   UNL     1     -40.428  37.939  47.414  1.00  0.00     0.000 C 
BRANCH   8   9
ATOM      9  C   UNL     1     -40.404  36.453  47.805  1.00  0.00    -0.000 C 
BRANCH   9  10
ATOM     10  C   UNL     1     -40.974  36.204  49.209  1.00  0.00    -0.003 C 
ATOM     11  C   UNL     1     -41.278  37.521  49.919  1.00  0.00     0.004 C 
ENDBRANCH   9  10
ENDBRANCH   8   9
ENDBRANCH   1   8
TORSDOF 6
ENDMDL
MODEL 7
REMARK VINA RESULT:    -4.285      1.663      2.587
REMARK INTER + INTRA:          -6.181
REMARK INTER:                  -5.582
REMARK INTRA:                  -0.599
REMARK UNBOUND:                -0.393
REMARK SMILES CCCCCCC=CC(=O)[O-]
REMARK SMILES IDX 5 1 6 2 7 3 8 4 9 5 10 6 11 7 4 8 3 9 2 10 1 11
REMARK H PARENT
REMARK Flexibility Score: inf
ROOT
ATOM      1  C   UNL     1     -33.468  41.783  41.567  1.00  0.00     0.004 C 
ENDROOT
BRANCH   1   2
ATOM      2  C   UNL     1     -34.818  42.511  41.656  1.00  0.00     0.027 C 
BRANCH   2   3
ATOM      3  C   UNL     1     -34.956  43.591  40.621  1.00  0.00    -0.025 C 
ATOM      4  C   UNL     1     -34.377  43.488  39.420  1.00  0.00     0.020 C 
BRANCH   4   5
ATOM      5  C   UNL     1     -34.500  44.540  38.400  1.00  0.00     0.064 C 
ATOM      6  O   UNL     1     -34.101  44.318  37.228  1.00  0.00    -0.545 OA
ATOM      7  O   UNL     1     -35.054  45.777  38.711  1.00  0.00    -0.545 OA
ENDBRANCH   4   5
ENDBRANCH   2   3
ENDBRANCH   1   2
BRANCH   1   8
ATOM      8  C   UNL     1     -33.641  40.266  41.378  1.00  0.00     0.000 C 
BRANCH   8   9
ATOM      9  C   UNL     1     -33.455  39.827  39.917  1.00  0.00    -0.000 C 
BRANCH   9  10
ATOM     10  C   UNL     1     -34.695  39.122  39.350  1.00  0.00    -0.003 C 
ATOM     11  C   UNL     1     -35.808  39.047  40.393  1.00  0.00     0.004 C 
ENDBRANCH   9  10
ENDBRANCH   8   9
ENDBRANCH   1   8
TORSDOF 6
ENDMDL
MODEL 8
REMARK VINA RESULT:    -4.239      3.191      5.122
REMARK INTER + INTRA:          -6.119
REMARK INTER:                  -5.732
REMARK INTRA:                  -0.388
REMARK UNBOUND:                -0.393
REMARK SMILES CCCCCCC=CC(=O)[O-]
REMARK SMILES IDX 5 1 6 2 7 3 8 4 9 5 10 6 11 7 4 8 3 9 2 10 1 11
REMARK H PARENT
REMARK Flexibility Score: inf
ROOT
ATOM      1  C   UNL     1     -34.551  44.014  40.012  1.00  0.00     0.004 C 
ENDROOT
BRANCH   1   2
ATOM      2  C   UNL     1     -34.141  42.538  39.911  1.00  0.00     0.027 C 
BRANCH   2   3
ATOM      3  C   UNL     1     -33.170  42.138  40.986  1.00  0.00    -0.025 C 
ATOM      4  C   UNL     1     -31.884  41.895  40.712  1.00  0.00     0.020 C 
BRANCH   4   5
ATOM      5  C   UNL     1     -30.924  41.498  41.753  1.00  0.00     0.064 C 
ATOM      6  O   UNL     1     -31.284  41.488  42.959  1.00  0.00    -0.545 OA
ATOM      7  O   UNL     1     -29.624  41.129  41.426  1.00  0.00    -0.545 OA
ENDBRANCH   4   5
ENDBRANCH   2   3
ENDBRANCH   1   2
BRANCH   1   8
ATOM      8  C   UNL     1     -34.101  44.825  38.784  1.00  0.00     0.000 C 
BRANCH   8   9
ATOM      9  C   UNL     1     -32.581  45.056  38.755  1.00  0.00    -0.000 C 
BRANCH   9  10
ATOM     10  C   UNL     1     -32.113  45.729  37.456  1.00  0.00    -0.003 C 
ATOM     11  C   UNL     1     -33.301  46.224  36.635  1.00  0.00     0.004 C 
ENDBRANCH   9  10
ENDBRANCH   8   9
ENDBRANCH   1   8
TORSDOF 6
ENDMDL
MODEL 9
REMARK VINA RESULT:    -4.217      9.635     11.017
REMARK INTER + INTRA:          -6.089
REMARK INTER:                  -5.745
REMARK INTRA:                  -0.344
REMARK UNBOUND:                -0.393
REMARK SMILES CCCCCCC=CC(=O)[O-]
REMARK SMILES IDX 5 1 6 2 7 3 8 4 9 5 10 6 11 7 4 8 3 9 2 10 1 11
REMARK H PARENT
REMARK Flexibility Score: inf
ROOT
ATOM      1  C   UNL     1     -38.898  38.273  47.775  1.00  0.00     0.004 C 
ENDROOT
BRANCH   1   2
ATOM      2  C   UNL     1     -38.024  37.455  46.814  1.00  0.00     0.027 C 
BRANCH   2   3
ATOM      3  C   UNL     1     -37.822  38.146  45.494  1.00  0.00    -0.025 C 
ATOM      4  C   UNL     1     -38.628  39.134  45.092  1.00  0.00     0.020 C 
BRANCH   4   5
ATOM      5  C   UNL     1     -38.446  39.815  43.801  1.00  0.00     0.064 C 
ATOM      6  O   UNL     1     -38.384  41.071  43.764  1.00  0.00    -0.545 OA
ATOM      7  O   UNL     1     -38.338  39.091  42.619  1.00  0.00    -0.545 OA
ENDBRANCH   4   5
ENDBRANCH   2   3
ENDBRANCH   1   2
BRANCH   1   8
ATOM      8  C   UNL     1     -40.314  37.687  47.909  1.00  0.00     0.000 C 
BRANCH   8   9
ATOM      9  C   UNL     1     -40.307  36.158  48.074  1.00  0.00    -0.000 C 
BRANCH   9  10
ATOM     10  C   UNL     1     -40.652  35.719  49.505  1.00  0.00    -0.003 C 
ATOM     11  C   UNL     1     -41.389  36.825  50.255  1.00  0.00     0.004 C 
ENDBRANCH   9  10
ENDBRANCH   8   9
ENDBRANCH   1   8
TORSDOF 6
ENDMDL
