MODEL 1
REMARK VINA RESULT:    -6.385      0.000      0.000
REMARK INTER + INTRA:          -7.020
REMARK INTER:                  -6.945
REMARK INTRA:                  -0.075
REMARK UNBOUND:                -0.075
REMARK SMILES CC1(C)CC[C@@]2(C(=O)[O-])CC[C@]3(C)C(=CC[C@@H]4[C@]5(C)CC[C@@H](O)C(C)(C)[C@@H]5CC[C@@]43C)[C@H]2C1
REMARK SMILES IDX 6 1 5 2 10 3 32 4 4 5 11 6 14 7 33 8 2 9 12 10 15 11 1 12
REMARK SMILES IDX 3 13 13 14 30 15 16 16 17 17 29 18 31 19 18 20 28 21 27 22
REMARK SMILES IDX 20 23 19 24 24 25 21 26 22 27 25 28 26 29 7 30 8 31 9 32
REMARK SMILES IDX 23 33
REMARK H PARENT 23 34
REMARK Flexibility Score: inf
ROOT
ATOM      1  C   UNL     1       0.777  57.838  11.332  1.00  0.00     0.017 C 
ATOM      2  C   UNL     1       1.746  58.599  10.388  1.00  0.00     0.014 C 
ATOM      3  C   UNL     1      -0.154  56.938  10.453  1.00  0.00     0.014 C 
ATOM      4  C   UNL     1       1.622  56.981  12.330  1.00  0.00     0.028 C 
ATOM      5  C   UNL     1       2.714  59.528  11.133  1.00  0.00     0.007 C 
ATOM      6  C   UNL     1      -0.480  55.580  11.107  1.00  0.00     0.013 C 
ATOM      7  C   UNL     1       1.957  55.613  11.716  1.00  0.00    -0.064 C 
ATOM      8  C   UNL     1       2.740  57.794  13.047  1.00  0.00     0.015 C 
ATOM      9  C   UNL     1       3.592  58.786  12.179  1.00  0.00    -0.035 C 
ATOM     10  C   UNL     1       0.784  54.683  11.408  1.00  0.00    -0.006 C 
ATOM     11  C   UNL     1       3.192  55.109  11.701  1.00  0.00    -0.027 C 
ATOM     12  C   UNL     1       4.770  58.065  11.477  1.00  0.00     0.011 C 
ATOM     13  C   UNL     1       4.201  59.847  13.125  1.00  0.00     0.011 C 
ATOM     14  C   UNL     1       0.504  53.938  12.758  1.00  0.00     0.017 C 
ATOM     15  C   UNL     1       1.099  53.603  10.244  1.00  0.00    -0.020 C 
ATOM     16  C   UNL     1       3.588  54.047  10.728  1.00  0.00     0.032 C 
ATOM     17  C   UNL     1       2.538  52.951  10.433  1.00  0.00     0.006 C 
ATOM     18  C   UNL     1       1.078  54.263   8.829  1.00  0.00     0.008 C 
ATOM     19  C   UNL     1      -0.024  52.510  10.317  1.00  0.00     0.012 C 
ATOM     20  C   UNL     1       3.031  51.966   9.256  1.00  0.00    -0.025 C 
ATOM     21  C   UNL     1       1.389  53.304   7.671  1.00  0.00     0.005 C 
ATOM     22  C   UNL     1       2.728  52.521   7.782  1.00  0.00     0.003 C 
ATOM     23  C   UNL     1       4.548  51.556   9.435  1.00  0.00     0.010 C 
ATOM     24  C   UNL     1       2.255  50.610   9.432  1.00  0.00     0.012 C 
ATOM     25  C   UNL     1       3.896  53.121   6.873  1.00  0.00    -0.006 C 
ATOM     26  C   UNL     1       5.556  52.426   8.679  1.00  0.00     0.033 C 
ATOM     27  C   UNL     1       5.251  52.419   7.185  1.00  0.00     0.120 C 
ATOM     28  C   UNL     1       4.076  54.665   6.983  1.00  0.00     0.014 C 
ATOM     29  C   UNL     1       3.571  52.855   5.365  1.00  0.00     0.014 C 
ENDROOT
BRANCH   1  30
ATOM     30  C   UNL     1      -0.123  58.812  12.096  1.00  0.00     0.048 C 
ATOM     31  O   UNL     1      -0.748  58.429  13.124  1.00  0.00    -0.550 OA
ATOM     32  O   UNL     1      -0.390  60.083  11.589  1.00  0.00    -0.550 OA
ENDBRANCH   1  30
BRANCH  27  33
ATOM     33  O   UNL     1       5.235  51.090   6.697  1.00  0.00    -0.393 OA
ATOM     34  H   UNL     1       5.654  50.515   7.391  1.00  0.00     0.210 HD
ENDBRANCH  27  33
TORSDOF 2
ENDMDL
MODEL 2
REMARK VINA RESULT:    -6.260      2.621      7.358
REMARK INTER + INTRA:          -6.885
REMARK INTER:                  -6.748
REMARK INTRA:                  -0.137
REMARK UNBOUND:                -0.075
REMARK SMILES CC1(C)CC[C@@]2(C(=O)[O-])CC[C@]3(C)C(=CC[C@@H]4[C@]5(C)CC[C@@H](O)C(C)(C)[C@@H]5CC[C@@]43C)[C@H]2C1
REMARK SMILES IDX 6 1 5 2 10 3 32 4 4 5 11 6 14 7 33 8 2 9 12 10 15 11 1 12
REMARK SMILES IDX 3 13 13 14 30 15 16 16 17 17 29 18 31 19 18 20 28 21 27 22
REMARK SMILES IDX 20 23 19 24 24 25 21 26 22 27 25 28 26 29 7 30 8 31 9 32
REMARK SMILES IDX 23 33
REMARK H PARENT 23 34
REMARK Flexibility Score: inf
ROOT
ATOM      1  C   UNL     1       4.169  51.753   8.609  1.00  0.00     0.017 C 
ATOM      2  C   UNL     1       3.368  50.427   8.529  1.00  0.00     0.014 C 
ATOM      3  C   UNL     1       3.365  52.857   7.846  1.00  0.00     0.014 C 
ATOM      4  C   UNL     1       4.365  52.128  10.114  1.00  0.00     0.028 C 
ATOM      5  C   UNL     1       4.061  49.256   9.239  1.00  0.00     0.007 C 
ATOM      6  C   UNL     1       3.453  54.245   8.512  1.00  0.00     0.013 C 
ATOM      7  C   UNL     1       3.159  52.928  10.632  1.00  0.00    -0.064 C 
ATOM      8  C   UNL     1       4.935  50.960  10.971  1.00  0.00     0.015 C 
ATOM      9  C   UNL     1       4.334  49.528  10.745  1.00  0.00    -0.035 C 
ATOM     10  C   UNL     1       2.904  54.292   9.992  1.00  0.00    -0.006 C 
ATOM     11  C   UNL     1       2.519  52.623  11.761  1.00  0.00    -0.027 C 
ATOM     12  C   UNL     1       3.043  49.311  11.573  1.00  0.00     0.011 C 
ATOM     13  C   UNL     1       5.373  48.491  11.233  1.00  0.00     0.011 C 
ATOM     14  C   UNL     1       3.822  55.281  10.788  1.00  0.00     0.017 C 
ATOM     15  C   UNL     1       1.363  54.778  10.091  1.00  0.00    -0.020 C 
ATOM     16  C   UNL     1       1.119  53.081  12.011  1.00  0.00     0.032 C 
ATOM     17  C   UNL     1       0.763  54.509  11.540  1.00  0.00     0.006 C 
ATOM     18  C   UNL     1       0.456  54.018   9.072  1.00  0.00     0.008 C 
ATOM     19  C   UNL     1       1.343  56.310   9.752  1.00  0.00     0.012 C 
ATOM     20  C   UNL     1      -0.809  54.816  11.725  1.00  0.00    -0.025 C 
ATOM     21  C   UNL     1      -1.028  54.410   9.121  1.00  0.00     0.005 C 
ATOM     22  C   UNL     1      -1.715  54.290  10.510  1.00  0.00     0.003 C 
ATOM     23  C   UNL     1      -1.341  54.306  13.125  1.00  0.00     0.010 C 
ATOM     24  C   UNL     1      -0.970  56.377  11.810  1.00  0.00     0.012 C 
ATOM     25  C   UNL     1      -2.621  52.984  10.664  1.00  0.00    -0.006 C 
ATOM     26  C   UNL     1      -1.952  52.902  13.123  1.00  0.00     0.033 C 
ATOM     27  C   UNL     1      -3.110  52.826  12.135  1.00  0.00     0.120 C 
ATOM     28  C   UNL     1      -1.940  51.662  10.201  1.00  0.00     0.014 C 
ATOM     29  C   UNL     1      -3.894  53.125   9.764  1.00  0.00     0.014 C 
ENDROOT
BRANCH   1  30
ATOM     30  C   UNL     1       5.527  51.619   7.913  1.00  0.00     0.048 C 
ATOM     31  O   UNL     1       6.486  52.372   8.238  1.00  0.00    -0.550 OA
ATOM     32  O   UNL     1       5.683  50.777   6.812  1.00  0.00    -0.550 OA
ENDBRANCH   1  30
BRANCH  27  33
ATOM     33  O   UNL     1      -4.075  53.816  12.438  1.00  0.00    -0.393 OA
ATOM     34  H   UNL     1      -4.891  53.347  12.758  1.00  0.00     0.210 HD
ENDBRANCH  27  33
TORSDOF 2
ENDMDL
MODEL 3
REMARK VINA RESULT:    -6.130      1.373      1.786
REMARK INTER + INTRA:          -6.742
REMARK INTER:                  -6.602
REMARK INTRA:                  -0.141
REMARK UNBOUND:                -0.075
REMARK SMILES CC1(C)CC[C@@]2(C(=O)[O-])CC[C@]3(C)C(=CC[C@@H]4[C@]5(C)CC[C@@H](O)C(C)(C)[C@@H]5CC[C@@]43C)[C@H]2C1
REMARK SMILES IDX 6 1 5 2 10 3 32 4 4 5 11 6 14 7 33 8 2 9 12 10 15 11 1 12
REMARK SMILES IDX 3 13 13 14 30 15 16 16 17 17 29 18 31 19 18 20 28 21 27 22
REMARK SMILES IDX 20 23 19 24 24 25 21 26 22 27 25 28 26 29 7 30 8 31 9 32
REMARK SMILES IDX 23 33
REMARK H PARENT 23 34
REMARK Flexibility Score: inf
ROOT
ATOM      1  C   UNL     1      -0.850  56.073  11.230  1.00  0.00     0.017 C 
ATOM      2  C   UNL     1      -0.243  57.176  10.322  1.00  0.00     0.014 C 
ATOM      3  C   UNL     1      -1.374  54.920  10.313  1.00  0.00     0.014 C 
ATOM      4  C   UNL     1       0.259  55.566  12.208  1.00  0.00     0.028 C 
ATOM      5  C   UNL     1       0.304  58.376  11.108  1.00  0.00     0.007 C 
ATOM      6  C   UNL     1      -1.161  53.517  10.918  1.00  0.00     0.013 C 
ATOM      7  C   UNL     1       1.085  54.447  11.553  1.00  0.00    -0.064 C 
ATOM      8  C   UNL     1       0.989  56.715  12.963  1.00  0.00     0.015 C 
ATOM      9  C   UNL     1       1.401  57.985  12.137  1.00  0.00    -0.035 C 
ATOM     10  C   UNL     1       0.349  53.155  11.202  1.00  0.00    -0.006 C 
ATOM     11  C   UNL     1       2.418  54.449  11.534  1.00  0.00    -0.027 C 
ATOM     12  C   UNL     1       2.762  57.788  11.424  1.00  0.00     0.011 C 
ATOM     13  C   UNL     1       1.566  59.164  13.124  1.00  0.00     0.011 C 
ATOM     14  C   UNL     1       0.376  52.313  12.523  1.00  0.00     0.017 C 
ATOM     15  C   UNL     1       1.046  52.314  10.006  1.00  0.00    -0.020 C 
ATOM     16  C   UNL     1       3.184  53.649  10.530  1.00  0.00     0.032 C 
ATOM     17  C   UNL     1       2.625  52.249  10.188  1.00  0.00     0.006 C 
ATOM     18  C   UNL     1       0.773  52.966   8.613  1.00  0.00     0.008 C 
ATOM     19  C   UNL     1       0.419  50.876  10.032  1.00  0.00     0.012 C 
ATOM     20  C   UNL     1       3.450  51.564   8.984  1.00  0.00    -0.025 C 
ATOM     21  C   UNL     1       1.420  52.236   7.428  1.00  0.00     0.005 C 
ATOM     22  C   UNL     1       2.955  52.014   7.526  1.00  0.00     0.003 C 
ATOM     23  C   UNL     1       5.010  51.752   9.165  1.00  0.00     0.010 C 
ATOM     24  C   UNL     1       3.245  50.010   9.107  1.00  0.00     0.012 C 
ATOM     25  C   UNL     1       3.807  53.042   6.650  1.00  0.00    -0.006 C 
ATOM     26  C   UNL     1       5.612  52.964   8.448  1.00  0.00     0.033 C 
ATOM     27  C   UNL     1       5.328  52.893   6.952  1.00  0.00     0.120 C 
ATOM     28  C   UNL     1       3.391  54.535   6.812  1.00  0.00     0.014 C 
ATOM     29  C   UNL     1       3.602  52.725   5.130  1.00  0.00     0.014 C 
ENDROOT
BRANCH   1  30
ATOM     30  C   UNL     1      -2.050  56.608  12.017  1.00  0.00     0.048 C 
ATOM     31  O   UNL     1      -2.386  56.071  13.108  1.00  0.00    -0.550 OA
ATOM     32  O   UNL     1      -2.879  57.588  11.473  1.00  0.00    -0.550 OA
ENDBRANCH   1  30
BRANCH  27  33
ATOM     33  O   UNL     1       5.814  51.675   6.421  1.00  0.00    -0.393 OA
ATOM     34  H   UNL     1       6.325  51.220   7.142  1.00  0.00     0.210 HD
ENDBRANCH  27  33
TORSDOF 2
ENDMDL
MODEL 4
REMARK VINA RESULT:    -5.895      3.725      6.298
REMARK INTER + INTRA:          -6.487
REMARK INTER:                  -6.341
REMARK INTRA:                  -0.146
REMARK UNBOUND:                -0.075
REMARK SMILES CC1(C)CC[C@@]2(C(=O)[O-])CC[C@]3(C)C(=CC[C@@H]4[C@]5(C)CC[C@@H](O)C(C)(C)[C@@H]5CC[C@@]43C)[C@H]2C1
REMARK SMILES IDX 6 1 5 2 10 3 32 4 4 5 11 6 14 7 33 8 2 9 12 10 15 11 1 12
REMARK SMILES IDX 3 13 13 14 30 15 16 16 17 17 29 18 31 19 18 20 28 21 27 22
REMARK SMILES IDX 20 23 19 24 24 25 21 26 22 27 25 28 26 29 7 30 8 31 9 32
REMARK SMILES IDX 23 33
REMARK H PARENT 23 34
REMARK Flexibility Score: inf
ROOT
ATOM      1  C   UNL     1      -1.313  49.710  11.189  1.00  0.00     0.017 C 
ATOM      2  C   UNL     1      -2.216  50.589  10.284  1.00  0.00     0.014 C 
ATOM      3  C   UNL     1      -0.298  48.948  10.274  1.00  0.00     0.014 C 
ATOM      4  C   UNL     1      -0.576  50.636  12.211  1.00  0.00     0.028 C 
ATOM      5  C   UNL     1      -3.267  51.387  11.068  1.00  0.00     0.007 C 
ATOM      6  C   UNL     1       1.100  48.800  10.907  1.00  0.00     0.013 C 
ATOM      7  C   UNL     1       0.723  51.185  11.601  1.00  0.00    -0.064 C 
ATOM      8  C   UNL     1      -1.534  51.599  12.971  1.00  0.00     0.015 C 
ATOM      9  C   UNL     1      -2.648  52.328  12.140  1.00  0.00    -0.035 C 
ATOM     10  C   UNL     1       1.808  50.170  11.247  1.00  0.00    -0.006 C 
ATOM     11  C   UNL     1       1.043  52.479  11.626  1.00  0.00    -0.027 C 
ATOM     12  C   UNL     1      -2.112  53.621  11.474  1.00  0.00     0.011 C 
ATOM     13  C   UNL     1      -3.775  52.745  13.113  1.00  0.00     0.011 C 
ATOM     14  C   UNL     1       2.601  49.955  12.581  1.00  0.00     0.017 C 
ATOM     15  C   UNL     1       2.819  50.676  10.087  1.00  0.00    -0.020 C 
ATOM     16  C   UNL     1       2.026  53.057  10.660  1.00  0.00     0.032 C 
ATOM     17  C   UNL     1       3.258  52.187  10.322  1.00  0.00     0.006 C 
ATOM     18  C   UNL     1       2.154  50.607   8.677  1.00  0.00     0.008 C 
ATOM     19  C   UNL     1       4.064  49.720  10.116  1.00  0.00     0.012 C 
ATOM     20  C   UNL     1       4.149  52.856   9.157  1.00  0.00    -0.025 C 
ATOM     21  C   UNL     1       3.045  51.092   7.525  1.00  0.00     0.005 C 
ATOM     22  C   UNL     1       3.627  52.525   7.677  1.00  0.00     0.003 C 
ATOM     23  C   UNL     1       4.338  54.410   9.386  1.00  0.00     0.010 C 
ATOM     24  C   UNL     1       5.605  52.279   9.297  1.00  0.00     0.012 C 
ATOM     25  C   UNL     1       2.855  53.624   6.812  1.00  0.00    -0.006 C 
ATOM     26  C   UNL     1       3.324  55.306   8.670  1.00  0.00     0.033 C 
ATOM     27  C   UNL     1       3.358  55.055   7.167  1.00  0.00     0.120 C 
ATOM     28  C   UNL     1       1.303  53.576   6.938  1.00  0.00     0.014 C 
ATOM     29  C   UNL     1       3.148  53.391   5.292  1.00  0.00     0.014 C 
ENDROOT
BRANCH   1  30
ATOM     30  C   UNL     1      -2.138  48.652  11.928  1.00  0.00     0.048 C 
ATOM     31  O   UNL     1      -1.868  48.355  13.124  1.00  0.00    -0.550 OA
ATOM     32  O   UNL     1      -3.095  47.895  11.253  1.00  0.00    -0.550 OA
ENDBRANCH   1  30
BRANCH  27  33
ATOM     33  O   UNL     1       4.670  55.248   6.671  1.00  0.00    -0.393 OA
ATOM     34  H   UNL     1       4.998  54.366   6.351  1.00  0.00     0.210 HD
ENDBRANCH  27  33
TORSDOF 2
ENDMDL
MODEL 5
REMARK VINA RESULT:    -5.840      2.458      7.438
REMARK INTER + INTRA:          -6.428
REMARK INTER:                  -6.483
REMARK INTRA:                   0.055
REMARK UNBOUND:                -0.075
REMARK SMILES CC1(C)CC[C@@]2(C(=O)[O-])CC[C@]3(C)C(=CC[C@@H]4[C@]5(C)CC[C@@H](O)C(C)(C)[C@@H]5CC[C@@]43C)[C@H]2C1
REMARK SMILES IDX 6 1 5 2 10 3 32 4 4 5 11 6 14 7 33 8 2 9 12 10 15 11 1 12
REMARK SMILES IDX 3 13 13 14 30 15 16 16 17 17 29 18 31 19 18 20 28 21 27 22
REMARK SMILES IDX 20 23 19 24 24 25 21 26 22 27 25 28 26 29 7 30 8 31 9 32
REMARK SMILES IDX 23 33
REMARK H PARENT 23 34
REMARK Flexibility Score: inf
ROOT
ATOM      1  C   UNL     1       3.282  50.544   9.206  1.00  0.00     0.017 C 
ATOM      2  C   UNL     1       2.739  49.800  10.455  1.00  0.00     0.014 C 
ATOM      3  C   UNL     1       2.073  50.867   8.267  1.00  0.00     0.014 C 
ATOM      4  C   UNL     1       4.004  51.848   9.675  1.00  0.00     0.028 C 
ATOM      5  C   UNL     1       3.837  49.418  11.457  1.00  0.00     0.007 C 
ATOM      6  C   UNL     1       2.199  52.232   7.560  1.00  0.00     0.013 C 
ATOM      7  C   UNL     1       2.998  53.001   9.815  1.00  0.00    -0.064 C 
ATOM      8  C   UNL     1       5.050  51.601  10.802  1.00  0.00     0.015 C 
ATOM      9  C   UNL     1       4.646  50.640  11.975  1.00  0.00    -0.035 C 
ATOM     10  C   UNL     1       2.292  53.465   8.542  1.00  0.00    -0.006 C 
ATOM     11  C   UNL     1       2.925  53.769  10.902  1.00  0.00    -0.027 C 
ATOM     12  C   UNL     1       3.850  51.383  13.077  1.00  0.00     0.011 C 
ATOM     13  C   UNL     1       5.944  50.107  12.626  1.00  0.00     0.011 C 
ATOM     14  C   UNL     1       3.282  54.492   7.892  1.00  0.00     0.017 C 
ATOM     15  C   UNL     1       0.865  54.181   8.814  1.00  0.00    -0.020 C 
ATOM     16  C   UNL     1       1.690  54.547  11.225  1.00  0.00     0.032 C 
ATOM     17  C   UNL     1       0.952  55.199  10.034  1.00  0.00     0.006 C 
ATOM     18  C   UNL     1      -0.241  53.137   9.166  1.00  0.00     0.008 C 
ATOM     19  C   UNL     1       0.467  54.925   7.491  1.00  0.00     0.012 C 
ATOM     20  C   UNL     1      -0.439  55.868  10.498  1.00  0.00    -0.025 C 
ATOM     21  C   UNL     1      -1.621  53.742   9.459  1.00  0.00     0.005 C 
ATOM     22  C   UNL     1      -1.661  54.831  10.568  1.00  0.00     0.003 C 
ATOM     23  C   UNL     1      -0.274  56.680  11.846  1.00  0.00     0.010 C 
ATOM     24  C   UNL     1      -0.800  56.972   9.439  1.00  0.00     0.012 C 
ATOM     25  C   UNL     1      -2.207  54.296  11.970  1.00  0.00    -0.006 C 
ATOM     26  C   UNL     1      -0.601  55.904  13.124  1.00  0.00     0.033 C 
ATOM     27  C   UNL     1      -2.031  55.377  13.077  1.00  0.00     0.120 C 
ATOM     28  C   UNL     1      -1.569  52.957  12.447  1.00  0.00     0.014 C 
ATOM     29  C   UNL     1      -3.740  53.997  11.852  1.00  0.00     0.014 C 
ENDROOT
BRANCH   1  30
ATOM     30  C   UNL     1       4.246  49.656   8.413  1.00  0.00     0.048 C 
ATOM     31  O   UNL     1       4.327  48.422   8.663  1.00  0.00    -0.550 OA
ATOM     32  O   UNL     1       5.155  50.216   7.517  1.00  0.00    -0.550 OA
ENDBRANCH   1  30
BRANCH  27  33
ATOM     33  O   UNL     1      -2.936  56.444  12.867  1.00  0.00    -0.393 OA
ATOM     34  H   UNL     1      -3.761  56.058  12.468  1.00  0.00     0.210 HD
ENDBRANCH  27  33
TORSDOF 2
ENDMDL
MODEL 6
REMARK VINA RESULT:    -5.265      1.535      7.188
REMARK INTER + INTRA:          -5.802
REMARK INTER:                  -5.743
REMARK INTRA:                  -0.060
REMARK UNBOUND:                -0.075
REMARK SMILES CC1(C)CC[C@@]2(C(=O)[O-])CC[C@]3(C)C(=CC[C@@H]4[C@]5(C)CC[C@@H](O)C(C)(C)[C@@H]5CC[C@@]43C)[C@H]2C1
REMARK SMILES IDX 6 1 5 2 10 3 32 4 4 5 11 6 14 7 33 8 2 9 12 10 15 11 1 12
REMARK SMILES IDX 3 13 13 14 30 15 16 16 17 17 29 18 31 19 18 20 28 21 27 22
REMARK SMILES IDX 20 23 19 24 24 25 21 26 22 27 25 28 26 29 7 30 8 31 9 32
REMARK SMILES IDX 23 33
REMARK H PARENT 23 34
REMARK Flexibility Score: inf
ROOT
ATOM      1  C   UNL     1       4.428  52.524   8.094  1.00  0.00     0.017 C 
ATOM      2  C   UNL     1       4.934  53.946   7.734  1.00  0.00     0.014 C 
ATOM      3  C   UNL     1       4.413  52.391   9.653  1.00  0.00     0.014 C 
ATOM      4  C   UNL     1       2.997  52.336   7.492  1.00  0.00     0.028 C 
ATOM      5  C   UNL     1       5.002  54.201   6.223  1.00  0.00     0.007 C 
ATOM      6  C   UNL     1       3.222  51.566  10.182  1.00  0.00     0.013 C 
ATOM      7  C   UNL     1       1.930  52.866   8.463  1.00  0.00    -0.064 C 
ATOM      8  C   UNL     1       2.910  52.705   5.982  1.00  0.00     0.015 C 
ATOM      9  C   UNL     1       3.634  54.015   5.508  1.00  0.00    -0.035 C 
ATOM     10  C   UNL     1       1.806  52.159   9.812  1.00  0.00    -0.006 C 
ATOM     11  C   UNL     1       0.959  53.698   8.086  1.00  0.00    -0.027 C 
ATOM     12  C   UNL     1       2.745  55.267   5.715  1.00  0.00     0.011 C 
ATOM     13  C   UNL     1       3.905  53.889   3.991  1.00  0.00     0.011 C 
ATOM     14  C   UNL     1       0.860  50.941   9.536  1.00  0.00     0.017 C 
ATOM     15  C   UNL     1       1.173  53.089  10.977  1.00  0.00    -0.020 C 
ATOM     16  C   UNL     1       0.238  54.553   9.078  1.00  0.00     0.032 C 
ATOM     17  C   UNL     1      -0.083  53.908  10.445  1.00  0.00     0.006 C 
ATOM     18  C   UNL     1       2.209  54.131  11.505  1.00  0.00     0.008 C 
ATOM     19  C   UNL     1       0.762  52.134  12.152  1.00  0.00     0.012 C 
ATOM     20  C   UNL     1      -0.714  54.982  11.469  1.00  0.00    -0.025 C 
ATOM     21  C   UNL     1       1.675  55.066  12.599  1.00  0.00     0.005 C 
ATOM     22  C   UNL     1       0.384  55.856  12.245  1.00  0.00     0.003 C 
ATOM     23  C   UNL     1      -1.804  55.888  10.765  1.00  0.00     0.010 C 
ATOM     24  C   UNL     1      -1.535  54.174  12.539  1.00  0.00     0.012 C 
ATOM     25  C   UNL     1       0.657  57.378  11.845  1.00  0.00    -0.006 C 
ATOM     26  C   UNL     1      -1.290  57.217  10.206  1.00  0.00     0.033 C 
ATOM     27  C   UNL     1      -0.645  58.047  11.311  1.00  0.00     0.120 C 
ATOM     28  C   UNL     1       1.805  57.583  10.813  1.00  0.00     0.014 C 
ATOM     29  C   UNL     1       1.102  58.178  13.115  1.00  0.00     0.014 C 
ENDROOT
BRANCH   1  30
ATOM     30  C   UNL     1       5.377  51.450   7.556  1.00  0.00     0.048 C 
ATOM     31  O   UNL     1       5.005  50.246   7.492  1.00  0.00    -0.550 OA
ATOM     32  O   UNL     1       6.709  51.752   7.276  1.00  0.00    -0.550 OA
ENDBRANCH   1  30
BRANCH  27  33
ATOM     33  O   UNL     1      -1.563  58.244  12.370  1.00  0.00    -0.393 OA
ATOM     34  H   UNL     1      -2.131  59.023  12.128  1.00  0.00     0.210 HD
ENDBRANCH  27  33
TORSDOF 2
ENDMDL
MODEL 7
REMARK VINA RESULT:    -5.237      2.298      3.228
REMARK INTER + INTRA:          -5.771
REMARK INTER:                  -5.744
REMARK INTRA:                  -0.027
REMARK UNBOUND:                -0.075
REMARK SMILES CC1(C)CC[C@@]2(C(=O)[O-])CC[C@]3(C)C(=CC[C@@H]4[C@]5(C)CC[C@@H](O)C(C)(C)[C@@H]5CC[C@@]43C)[C@H]2C1
REMARK SMILES IDX 6 1 5 2 10 3 32 4 4 5 11 6 14 7 33 8 2 9 12 10 15 11 1 12
REMARK SMILES IDX 3 13 13 14 30 15 16 16 17 17 29 18 31 19 18 20 28 21 27 22
REMARK SMILES IDX 20 23 19 24 24 25 21 26 22 27 25 28 26 29 7 30 8 31 9 32
REMARK SMILES IDX 23 33
REMARK H PARENT 23 34
REMARK Flexibility Score: inf
ROOT
ATOM      1  C   UNL     1      -0.451  55.881  10.734  1.00  0.00     0.017 C 
ATOM      2  C   UNL     1       0.895  56.364  10.132  1.00  0.00     0.014 C 
ATOM      3  C   UNL     1      -0.973  54.688   9.867  1.00  0.00     0.014 C 
ATOM      4  C   UNL     1      -0.208  55.445  12.216  1.00  0.00     0.028 C 
ATOM      5  C   UNL     1       1.511  57.545  10.894  1.00  0.00     0.007 C 
ATOM      6  C   UNL     1      -1.668  53.590  10.698  1.00  0.00     0.013 C 
ATOM      7  C   UNL     1       0.246  53.979  12.279  1.00  0.00    -0.064 C 
ATOM      8  C   UNL     1       0.544  56.518  13.057  1.00  0.00     0.015 C 
ATOM      9  C   UNL     1       1.773  57.236  12.395  1.00  0.00    -0.035 C 
ATOM     10  C   UNL     1      -0.746  52.923  11.793  1.00  0.00    -0.006 C 
ATOM     11  C   UNL     1       1.313  53.581  12.972  1.00  0.00    -0.027 C 
ATOM     12  C   UNL     1       3.074  56.410  12.554  1.00  0.00     0.011 C 
ATOM     13  C   UNL     1       1.991  58.582  13.125  1.00  0.00     0.011 C 
ATOM     14  C   UNL     1      -1.654  52.630  13.036  1.00  0.00     0.017 C 
ATOM     15  C   UNL     1      -0.044  51.551  11.295  1.00  0.00    -0.020 C 
ATOM     16  C   UNL     1       2.005  52.293  12.664  1.00  0.00     0.032 C 
ATOM     17  C   UNL     1       1.104  51.092  12.296  1.00  0.00     0.006 C 
ATOM     18  C   UNL     1       0.616  51.723   9.890  1.00  0.00     0.008 C 
ATOM     19  C   UNL     1      -1.174  50.466  11.202  1.00  0.00     0.012 C 
ATOM     20  C   UNL     1       1.978  49.819  11.836  1.00  0.00    -0.025 C 
ATOM     21  C   UNL     1       1.322  50.469   9.358  1.00  0.00     0.005 C 
ATOM     22  C   UNL     1       2.404  49.853  10.290  1.00  0.00     0.003 C 
ATOM     23  C   UNL     1       3.221  49.590  12.788  1.00  0.00     0.010 C 
ATOM     24  C   UNL     1       1.092  48.541  12.066  1.00  0.00     0.012 C 
ATOM     25  C   UNL     1       3.899  50.210   9.856  1.00  0.00    -0.006 C 
ATOM     26  C   UNL     1       4.529  50.239  12.326  1.00  0.00     0.033 C 
ATOM     27  C   UNL     1       4.913  49.736  10.939  1.00  0.00     0.120 C 
ATOM     28  C   UNL     1       4.143  51.716   9.543  1.00  0.00     0.014 C 
ATOM     29  C   UNL     1       4.249  49.456   8.529  1.00  0.00     0.014 C 
ENDROOT
BRANCH   1  30
ATOM     30  C   UNL     1      -1.510  56.985  10.670  1.00  0.00     0.048 C 
ATOM     31  O   UNL     1      -1.421  57.904   9.810  1.00  0.00    -0.550 OA
ATOM     32  O   UNL     1      -2.498  57.082  11.650  1.00  0.00    -0.550 OA
ENDBRANCH   1  30
BRANCH  27  33
ATOM     33  O   UNL     1       5.001  48.323  10.940  1.00  0.00    -0.393 OA
ATOM     34  H   UNL     1       4.626  48.002  10.078  1.00  0.00     0.210 HD
ENDBRANCH  27  33
TORSDOF 2
ENDMDL
MODEL 8
REMARK VINA RESULT:    -5.108      8.431     11.893
REMARK INTER + INTRA:          -5.631
REMARK INTER:                  -5.613
REMARK INTRA:                  -0.019
REMARK UNBOUND:                -0.075
REMARK SMILES CC1(C)CC[C@@]2(C(=O)[O-])CC[C@]3(C)C(=CC[C@@H]4[C@]5(C)CC[C@@H](O)C(C)(C)[C@@H]5CC[C@@]43C)[C@H]2C1
REMARK SMILES IDX 6 1 5 2 10 3 32 4 4 5 11 6 14 7 33 8 2 9 12 10 15 11 1 12
REMARK SMILES IDX 3 13 13 14 30 15 16 16 17 17 29 18 31 19 18 20 28 21 27 22
REMARK SMILES IDX 20 23 19 24 24 25 21 26 22 27 25 28 26 29 7 30 8 31 9 32
REMARK SMILES IDX 23 33
REMARK H PARENT 23 34
REMARK Flexibility Score: inf
ROOT
ATOM      1  C   UNL     1      -5.540  58.975  11.045  1.00  0.00     0.017 C 
ATOM      2  C   UNL     1      -6.695  58.510  10.118  1.00  0.00     0.014 C 
ATOM      3  C   UNL     1      -4.237  59.082  10.184  1.00  0.00     0.014 C 
ATOM      4  C   UNL     1      -5.925  60.354  11.671  1.00  0.00     0.028 C 
ATOM      5  C   UNL     1      -8.035  58.358  10.850  1.00  0.00     0.007 C 
ATOM      6  C   UNL     1      -3.336  60.266  10.590  1.00  0.00     0.013 C 
ATOM      7  C   UNL     1      -5.519  61.504  10.736  1.00  0.00    -0.064 C 
ATOM      8  C   UNL     1      -7.338  60.361  12.324  1.00  0.00     0.015 C 
ATOM      9  C   UNL     1      -8.509  59.668  11.540  1.00  0.00    -0.035 C 
ATOM     10  C   UNL     1      -4.026  61.681  10.461  1.00  0.00    -0.006 C 
ATOM     11  C   UNL     1      -6.353  62.485  10.391  1.00  0.00    -0.027 C 
ATOM     12  C   UNL     1      -9.145  60.624  10.500  1.00  0.00     0.011 C 
ATOM     13  C   UNL     1      -9.612  59.296  12.558  1.00  0.00     0.011 C 
ATOM     14  C   UNL     1      -3.505  62.552  11.655  1.00  0.00     0.017 C 
ATOM     15  C   UNL     1      -3.706  62.428   9.061  1.00  0.00    -0.020 C 
ATOM     16  C   UNL     1      -6.125  63.305   9.162  1.00  0.00     0.032 C 
ATOM     17  C   UNL     1      -4.660  63.683   8.844  1.00  0.00     0.006 C 
ATOM     18  C   UNL     1      -3.919  61.476   7.842  1.00  0.00     0.008 C 
ATOM     19  C   UNL     1      -2.202  62.870   9.110  1.00  0.00     0.012 C 
ATOM     20  C   UNL     1      -4.541  64.426   7.418  1.00  0.00    -0.025 C 
ATOM     21  C   UNL     1      -3.656  62.119   6.474  1.00  0.00     0.005 C 
ATOM     22  C   UNL     1      -4.454  63.419   6.172  1.00  0.00     0.003 C 
ATOM     23  C   UNL     1      -5.679  65.508   7.227  1.00  0.00     0.010 C 
ATOM     24  C   UNL     1      -3.219  65.276   7.447  1.00  0.00     0.012 C 
ATOM     25  C   UNL     1      -5.707  63.191   5.210  1.00  0.00    -0.006 C 
ATOM     26  C   UNL     1      -6.933  65.019   6.496  1.00  0.00     0.033 C 
ATOM     27  C   UNL     1      -6.570  64.484   5.115  1.00  0.00     0.120 C 
ATOM     28  C   UNL     1      -6.618  61.989   5.602  1.00  0.00     0.014 C 
ATOM     29  C   UNL     1      -5.201  62.863   3.765  1.00  0.00     0.014 C 
ENDROOT
BRANCH   1  30
ATOM     30  C   UNL     1      -5.271  57.946  12.146  1.00  0.00     0.048 C 
ATOM     31  O   UNL     1      -4.525  58.237  13.122  1.00  0.00    -0.550 OA
ATOM     32  O   UNL     1      -5.715  56.630  12.016  1.00  0.00    -0.550 OA
ENDBRANCH   1  30
BRANCH  27  33
ATOM     33  O   UNL     1      -5.884  65.476   4.374  1.00  0.00    -0.393 OA
ATOM     34  H   UNL     1      -4.963  65.140   4.213  1.00  0.00     0.210 HD
ENDBRANCH  27  33
TORSDOF 2
ENDMDL
MODEL 9
REMARK VINA RESULT:    -4.219      2.427      4.728
REMARK INTER + INTRA:          -4.665
REMARK INTER:                  -4.704
REMARK INTRA:                   0.040
REMARK UNBOUND:                -0.075
REMARK SMILES CC1(C)CC[C@@]2(C(=O)[O-])CC[C@]3(C)C(=CC[C@@H]4[C@]5(C)CC[C@@H](O)C(C)(C)[C@@H]5CC[C@@]43C)[C@H]2C1
REMARK SMILES IDX 6 1 5 2 10 3 32 4 4 5 11 6 14 7 33 8 2 9 12 10 15 11 1 12
REMARK SMILES IDX 3 13 13 14 30 15 16 16 17 17 29 18 31 19 18 20 28 21 27 22
REMARK SMILES IDX 20 23 19 24 24 25 21 26 22 27 25 28 26 29 7 30 8 31 9 32
REMARK SMILES IDX 23 33
REMARK H PARENT 23 34
REMARK Flexibility Score: inf
ROOT
ATOM      1  C   UNL     1       3.631  56.969  11.588  1.00  0.00     0.017 C 
ATOM      2  C   UNL     1       2.837  56.743  12.902  1.00  0.00     0.014 C 
ATOM      3  C   UNL     1       4.807  55.939  11.545  1.00  0.00     0.014 C 
ATOM      4  C   UNL     1       2.659  56.776  10.378  1.00  0.00     0.028 C 
ATOM      5  C   UNL     1       1.652  57.704  13.068  1.00  0.00     0.007 C 
ATOM      6  C   UNL     1       5.093  55.399  10.129  1.00  0.00     0.013 C 
ATOM      7  C   UNL     1       2.587  55.294   9.976  1.00  0.00    -0.064 C 
ATOM      8  C   UNL     1       1.345  57.601  10.506  1.00  0.00     0.015 C 
ATOM      9  C   UNL     1       0.627  57.620  11.902  1.00  0.00    -0.035 C 
ATOM     10  C   UNL     1       3.874  54.651   9.461  1.00  0.00    -0.006 C 
ATOM     11  C   UNL     1       1.434  54.649   9.798  1.00  0.00    -0.027 C 
ATOM     12  C   UNL     1      -0.298  56.392  12.086  1.00  0.00     0.011 C 
ATOM     13  C   UNL     1      -0.265  58.882  11.963  1.00  0.00     0.011 C 
ATOM     14  C   UNL     1       3.906  54.999   7.933  1.00  0.00     0.017 C 
ATOM     15  C   UNL     1       3.920  53.044   9.655  1.00  0.00    -0.020 C 
ATOM     16  C   UNL     1       1.357  53.158   9.871  1.00  0.00     0.032 C 
ATOM     17  C   UNL     1       2.535  52.372   9.251  1.00  0.00     0.006 C 
ATOM     18  C   UNL     1       4.201  52.655  11.141  1.00  0.00     0.008 C 
ATOM     19  C   UNL     1       5.087  52.507   8.754  1.00  0.00     0.012 C 
ATOM     20  C   UNL     1       2.404  50.791   9.538  1.00  0.00    -0.025 C 
ATOM     21  C   UNL     1       4.239  51.144  11.410  1.00  0.00     0.005 C 
ATOM     22  C   UNL     1       2.981  50.345  10.967  1.00  0.00     0.003 C 
ATOM     23  C   UNL     1       0.925  50.278   9.310  1.00  0.00     0.010 C 
ATOM     24  C   UNL     1       3.232  50.048   8.428  1.00  0.00     0.012 C 
ATOM     25  C   UNL     1       1.999  49.980  12.173  1.00  0.00    -0.006 C 
ATOM     26  C   UNL     1       0.042  50.243  10.560  1.00  0.00     0.033 C 
ATOM     27  C   UNL     1       0.673  49.364  11.634  1.00  0.00     0.120 C 
ATOM     28  C   UNL     1       1.669  51.167  13.125  1.00  0.00     0.014 C 
ATOM     29  C   UNL     1       2.675  48.902  13.085  1.00  0.00     0.014 C 
ENDROOT
BRANCH   1  30
ATOM     30  C   UNL     1       4.252  58.368  11.554  1.00  0.00     0.048 C 
ATOM     31  O   UNL     1       3.885  59.207  10.686  1.00  0.00    -0.550 OA
ATOM     32  O   UNL     1       5.333  58.688  12.375  1.00  0.00    -0.550 OA
ENDBRANCH   1  30
BRANCH  27  33
ATOM     33  O   UNL     1       0.910  48.066  11.124  1.00  0.00    -0.393 OA
ATOM     34  H   UNL     1       1.053  48.154  10.144  1.00  0.00     0.210 HD
ENDBRANCH  27  33
TORSDOF 2
ENDMDL
