MODEL 1
REMARK VINA RESULT:    -2.010      0.000      0.000
REMARK INTER + INTRA:          -2.010
REMARK INTER:                  -2.010
REMARK INTRA:                   0.000
REMARK UNBOUND:                 0.000
REMARK SMILES CC(=O)[O-]
REMARK SMILES IDX 1 1 2 2 3 3 4 4
REMARK H PARENT
REMARK Flexibility Score: inf
ROOT
ATOM      1  C   UNL     1       0.625  -0.067 -15.094  1.00  0.00     0.063 C 
ATOM      2  C   UNL     1       0.639  -0.625 -16.477  1.00  0.00     0.038 C 
ATOM      3  O   UNL     1       0.345   0.109 -17.456  1.00  0.00    -0.550 OA
ATOM      4  O   UNL     1       0.924  -1.968 -16.684  1.00  0.00    -0.550 OA
ENDROOT
TORSDOF 0
ENDMDL
MODEL 2
REMARK VINA RESULT:    -1.922      0.122      1.618
REMARK INTER + INTRA:          -1.922
REMARK INTER:                  -1.922
REMARK INTRA:                   0.000
REMARK UNBOUND:                 0.000
REMARK SMILES CC(=O)[O-]
REMARK SMILES IDX 1 1 2 2 3 3 4 4
REMARK H PARENT
REMARK Flexibility Score: inf
ROOT
ATOM      1  C   UNL     1       0.685  -0.076 -15.072  1.00  0.00     0.063 C 
ATOM      2  C   UNL     1       0.602  -0.686 -16.430  1.00  0.00     0.038 C 
ATOM      3  O   UNL     1       0.966  -1.878 -16.610  1.00  0.00    -0.550 OA
ATOM      4  O   UNL     1       0.176   0.074 -17.511  1.00  0.00    -0.550 OA
ENDROOT
TORSDOF 0
ENDMDL
MODEL 3
REMARK VINA RESULT:    -1.215      2.270      2.973
REMARK INTER + INTRA:          -1.215
REMARK INTER:                  -1.215
REMARK INTRA:                   0.000
REMARK UNBOUND:                 0.000
REMARK SMILES CC(=O)[O-]
REMARK SMILES IDX 1 1 2 2 3 3 4 4
REMARK H PARENT
REMARK Flexibility Score: inf
ROOT
ATOM      1  C   UNL     1       0.100   0.230 -16.847  1.00  0.00     0.063 C 
ATOM      2  C   UNL     1      -0.036   0.697 -15.437  1.00  0.00     0.038 C 
ATOM      3  O   UNL     1      -0.122  -0.140 -14.500  1.00  0.00    -0.550 OA
ATOM      4  O   UNL     1      -0.125   2.055 -15.158  1.00  0.00    -0.550 OA
ENDROOT
TORSDOF 0
ENDMDL
MODEL 4
REMARK VINA RESULT:    -1.175      1.678      2.077
REMARK INTER + INTRA:          -1.175
REMARK INTER:                  -1.175
REMARK INTRA:                   0.000
REMARK UNBOUND:                 0.000
REMARK SMILES CC(=O)[O-]
REMARK SMILES IDX 1 1 2 2 3 3 4 4
REMARK H PARENT
REMARK Flexibility Score: inf
ROOT
ATOM      1  C   UNL     1       0.989  -2.001 -16.367  1.00  0.00     0.063 C 
ATOM      2  C   UNL     1       0.288  -1.221 -17.428  1.00  0.00     0.038 C 
ATOM      3  O   UNL     1      -0.125  -1.799 -18.467  1.00  0.00    -0.550 OA
ATOM      4  O   UNL     1       0.137   0.153 -17.297  1.00  0.00    -0.550 OA
ENDROOT
TORSDOF 0
ENDMDL
MODEL 5
REMARK VINA RESULT:    -1.119     14.770     15.124
REMARK INTER + INTRA:          -1.119
REMARK INTER:                  -1.119
REMARK INTRA:                   0.000
REMARK UNBOUND:                 0.000
REMARK SMILES CC(=O)[O-]
REMARK SMILES IDX 1 1 2 2 3 3 4 4
REMARK H PARENT
REMARK Flexibility Score: inf
ROOT
ATOM      1  C   UNL     1      12.944  -6.095 -18.604  1.00  0.00     0.063 C 
ATOM      2  C   UNL     1      14.362  -6.558 -18.617  1.00  0.00     0.038 C 
ATOM      3  O   UNL     1      15.198  -6.010 -19.383  1.00  0.00    -0.550 OA
ATOM      4  O   UNL     1      14.752  -7.630 -17.826  1.00  0.00    -0.550 OA
ENDROOT
TORSDOF 0
ENDMDL
MODEL 6
REMARK VINA RESULT:    -1.104     13.354     13.435
REMARK INTER + INTRA:          -1.104
REMARK INTER:                  -1.104
REMARK INTRA:                   0.000
REMARK UNBOUND:                 0.000
REMARK SMILES CC(=O)[O-]
REMARK SMILES IDX 1 1 2 2 3 3 4 4
REMARK H PARENT
REMARK Flexibility Score: inf
ROOT
ATOM      1  C   UNL     1      14.909   0.506 -18.446  1.00  0.00     0.063 C 
ATOM      2  C   UNL     1      13.758   1.112 -17.717  1.00  0.00     0.038 C 
ATOM      3  O   UNL     1      13.867   2.258 -17.206  1.00  0.00    -0.550 OA
ATOM      4  O   UNL     1      12.582   0.394 -17.552  1.00  0.00    -0.550 OA
ENDROOT
TORSDOF 0
ENDMDL
MODEL 7
REMARK VINA RESULT:    -0.962      1.767      1.829
REMARK INTER + INTRA:          -0.962
REMARK INTER:                  -0.962
REMARK INTRA:                   0.000
REMARK UNBOUND:                 0.000
REMARK SMILES CC(=O)[O-]
REMARK SMILES IDX 1 1 2 2 3 3 4 4
REMARK H PARENT
REMARK Flexibility Score: inf
ROOT
ATOM      1  C   UNL     1      -0.123   1.283 -16.296  1.00  0.00     0.063 C 
ATOM      2  C   UNL     1       0.548   0.001 -15.933  1.00  0.00     0.038 C 
ATOM      3  O   UNL     1       0.931  -0.198 -14.750  1.00  0.00    -0.550 OA
ATOM      4  O   UNL     1       0.802  -0.953 -16.909  1.00  0.00    -0.550 OA
ENDROOT
TORSDOF 0
ENDMDL
MODEL 8
REMARK VINA RESULT:    -0.829     13.493     13.522
REMARK INTER + INTRA:          -0.829
REMARK INTER:                  -0.829
REMARK INTRA:                   0.000
REMARK UNBOUND:                 0.000
REMARK SMILES CC(=O)[O-]
REMARK SMILES IDX 1 1 2 2 3 3 4 4
REMARK H PARENT
REMARK Flexibility Score: inf
ROOT
ATOM      1  C   UNL     1      12.914   0.699 -17.207  1.00  0.00     0.063 C 
ATOM      2  C   UNL     1      13.928   1.023 -18.252  1.00  0.00     0.038 C 
ATOM      3  O   UNL     1      13.750   2.003 -19.022  1.00  0.00    -0.550 OA
ATOM      4  O   UNL     1      15.043   0.212 -18.415  1.00  0.00    -0.550 OA
ENDROOT
TORSDOF 0
ENDMDL
MODEL 9
REMARK VINA RESULT:    -0.208      1.481      1.814
REMARK INTER + INTRA:          -0.208
REMARK INTER:                  -0.208
REMARK INTRA:                   0.000
REMARK UNBOUND:                 0.000
REMARK SMILES CC(=O)[O-]
REMARK SMILES IDX 1 1 2 2 3 3 4 4
REMARK H PARENT
REMARK Flexibility Score: inf
ROOT
ATOM      1  C   UNL     1       0.626  -1.689 -16.862  1.00  0.00     0.063 C 
ATOM      2  C   UNL     1       0.459  -0.354 -16.218  1.00  0.00     0.038 C 
ATOM      3  O   UNL     1      -0.125   0.576 -16.834  1.00  0.00    -0.550 OA
ATOM      4  O   UNL     1       0.996  -0.116 -14.960  1.00  0.00    -0.550 OA
ENDROOT
TORSDOF 0
ENDMDL
