MODEL 1
REMARK VINA RESULT:    -4.012      0.000      0.000
REMARK INTER + INTRA:          -5.746
REMARK INTER:                  -5.420
REMARK INTRA:                  -0.326
REMARK UNBOUND:                -0.326
REMARK SMILES COc1ccc(-c2cc(=O)c3c(OC)c(OC)c(OC)c(OC)c3o2)cc1
REMARK SMILES IDX 7 1 8 2 9 3 10 4 11 5 24 6 25 7 21 8 18 9 15 10 12 11 6 12
REMARK SMILES IDX 3 13 4 14 27 15 5 16 26 17 2 18 1 19 22 20 23 21 13 22 14 23
REMARK SMILES IDX 19 24 20 25 16 26 17 27
REMARK H PARENT
REMARK Flexibility Score: inf
ROOT
ATOM      1  C   UNL     1      78.572  -9.217  22.545  1.00  0.00     0.138 A 
ATOM      2  C   UNL     1      77.316  -8.748  22.955  1.00  0.00     0.100 A 
ATOM      3  C   UNL     1      77.057  -8.582  24.315  1.00  0.00     0.197 A 
ATOM      4  O   UNL     1      75.923  -8.163  24.670  1.00  0.00    -0.289 OA
ATOM      5  C   UNL     1      78.059  -8.894  25.261  1.00  0.00     0.115 A 
ATOM      6  C   UNL     1      79.295  -9.365  24.773  1.00  0.00     0.188 A 
ATOM      7  O   UNL     1      79.491  -9.505  23.463  1.00  0.00    -0.452 OA
ATOM      8  C   UNL     1      80.341  -9.687  25.647  1.00  0.00     0.209 A 
ATOM      9  C   UNL     1      80.154  -9.568  27.048  1.00  0.00     0.211 A 
ATOM     10  C   UNL     1      78.895  -9.139  27.542  1.00  0.00     0.208 A 
ATOM     11  C   UNL     1      77.877  -8.741  26.651  1.00  0.00     0.179 A 
ENDROOT
BRANCH   1  12
ATOM     12  C   UNL     1      78.908  -9.418  21.113  1.00  0.00     0.018 A 
ATOM     13  C   UNL     1      79.499  -9.839  18.383  1.00  0.00     0.118 A 
ATOM     14  C   UNL     1      78.197 -10.049  18.870  1.00  0.00     0.047 A 
ATOM     15  C   UNL     1      80.499  -9.428  19.269  1.00  0.00     0.047 A 
ATOM     16  C   UNL     1      77.907  -9.844  20.222  1.00  0.00     0.016 A 
ATOM     17  C   UNL     1      80.213  -9.222  20.622  1.00  0.00     0.016 A 
BRANCH  13  18
ATOM     18  O   UNL     1      79.840 -10.029  17.036  1.00  0.00    -0.497 OA
ATOM     19  C   UNL     1      80.847  -9.293  16.349  1.00  0.00     0.278 C 
ENDBRANCH  13  18
ENDBRANCH   1  12
BRANCH   8  20
ATOM     20  O   UNL     1      81.541 -10.123  25.050  1.00  0.00    -0.490 OA
ATOM     21  C   UNL     1      82.814  -9.491  25.119  1.00  0.00     0.278 C 
ENDBRANCH   8  20
BRANCH  11  22
ATOM     22  O   UNL     1      76.687  -8.187  27.137  1.00  0.00    -0.492 OA
ATOM     23  C   UNL     1      75.724  -8.956  27.851  1.00  0.00     0.278 C 
ENDBRANCH  11  22
BRANCH   9  24
ATOM     24  O   UNL     1      81.227  -9.895  27.897  1.00  0.00    -0.490 OA
ATOM     25  C   UNL     1      82.173  -9.001  28.476  1.00  0.00     0.279 C 
ENDBRANCH   9  24
BRANCH  10  26
ATOM     26  O   UNL     1      78.651  -9.125  28.919  1.00  0.00    -0.490 OA
ATOM     27  C   UNL     1      78.913  -7.986  29.733  1.00  0.00     0.278 C 
ENDBRANCH  10  26
TORSDOF 6
ENDMDL
MODEL 2
REMARK VINA RESULT:    -3.965      2.603      8.114
REMARK INTER + INTRA:          -5.681
REMARK INTER:                  -5.574
REMARK INTRA:                  -0.107
REMARK UNBOUND:                -0.326
REMARK SMILES COc1ccc(-c2cc(=O)c3c(OC)c(OC)c(OC)c(OC)c3o2)cc1
REMARK SMILES IDX 7 1 8 2 9 3 10 4 11 5 24 6 25 7 21 8 18 9 15 10 12 11 6 12
REMARK SMILES IDX 3 13 4 14 27 15 5 16 26 17 2 18 1 19 22 20 23 21 13 22 14 23
REMARK SMILES IDX 19 24 20 25 16 26 17 27
REMARK H PARENT
REMARK Flexibility Score: inf
ROOT
ATOM      1  C   UNL     1      82.417  -9.800  27.611  1.00  0.00     0.138 A 
ATOM      2  C   UNL     1      82.619 -10.011  26.240  1.00  0.00     0.100 A 
ATOM      3  C   UNL     1      81.534  -9.930  25.368  1.00  0.00     0.197 A 
ATOM      4  O   UNL     1      81.728 -10.125  24.138  1.00  0.00    -0.289 OA
ATOM      5  C   UNL     1      80.248  -9.643  25.876  1.00  0.00     0.115 A 
ATOM      6  C   UNL     1      80.123  -9.448  27.267  1.00  0.00     0.188 A 
ATOM      7  O   UNL     1      81.191  -9.536  28.056  1.00  0.00    -0.452 OA
ATOM      8  C   UNL     1      78.882  -9.151  27.846  1.00  0.00     0.209 A 
ATOM      9  C   UNL     1      77.723  -9.072  27.033  1.00  0.00     0.211 A 
ATOM     10  C   UNL     1      77.839  -9.314  25.639  1.00  0.00     0.208 A 
ATOM     11  C   UNL     1      79.105  -9.533  25.057  1.00  0.00     0.179 A 
ENDROOT
BRANCH   1  12
ATOM     12  C   UNL     1      83.530  -9.877  28.591  1.00  0.00     0.018 A 
ATOM     13  C   UNL     1      85.614  -9.989  30.494  1.00  0.00     0.118 A 
ATOM     14  C   UNL     1      84.283  -9.802  30.907  1.00  0.00     0.047 A 
ATOM     15  C   UNL     1      85.894 -10.110  29.130  1.00  0.00     0.047 A 
ATOM     16  C   UNL     1      83.253  -9.742  29.963  1.00  0.00     0.016 A 
ATOM     17  C   UNL     1      84.866 -10.050  28.183  1.00  0.00     0.016 A 
BRANCH  13  18
ATOM     18  O   UNL     1      86.682 -10.058  31.402  1.00  0.00    -0.497 OA
ATOM     19  C   UNL     1      86.530 -10.125  32.817  1.00  0.00     0.278 C 
ENDBRANCH  13  18
ENDBRANCH   1  12
BRANCH   8  20
ATOM     20  O   UNL     1      78.877  -8.950  29.242  1.00  0.00    -0.490 OA
ATOM     21  C   UNL     1      78.976  -9.946  30.253  1.00  0.00     0.278 C 
ENDBRANCH   8  20
BRANCH  11  22
ATOM     22  O   UNL     1      79.238  -9.633  23.667  1.00  0.00    -0.492 OA
ATOM     23  C   UNL     1      78.834  -8.589  22.786  1.00  0.00     0.278 C 
ENDBRANCH  11  22
BRANCH   9  24
ATOM     24  O   UNL     1      76.493  -8.767  27.646  1.00  0.00    -0.490 OA
ATOM     25  C   UNL     1      75.635  -9.659  28.349  1.00  0.00     0.279 C 
ENDBRANCH   9  24
BRANCH  10  26
ATOM     26  O   UNL     1      76.694  -9.356  24.837  1.00  0.00    -0.490 OA
ATOM     27  C   UNL     1      75.729  -8.308  24.824  1.00  0.00     0.278 C 
ENDBRANCH  10  26
TORSDOF 6
ENDMDL
MODEL 3
REMARK VINA RESULT:    -3.625      3.869      8.195
REMARK INTER + INTRA:          -5.222
REMARK INTER:                  -4.656
REMARK INTRA:                  -0.566
REMARK UNBOUND:                -0.326
REMARK SMILES COc1ccc(-c2cc(=O)c3c(OC)c(OC)c(OC)c(OC)c3o2)cc1
REMARK SMILES IDX 7 1 8 2 9 3 10 4 11 5 24 6 25 7 21 8 18 9 15 10 12 11 6 12
REMARK SMILES IDX 3 13 4 14 27 15 5 16 26 17 2 18 1 19 22 20 23 21 13 22 14 23
REMARK SMILES IDX 19 24 20 25 16 26 17 27
REMARK H PARENT
REMARK Flexibility Score: inf
ROOT
ATOM      1  C   UNL     1      79.761  -5.180  27.847  1.00  0.00     0.138 A 
ATOM      2  C   UNL     1      78.478  -5.156  27.282  1.00  0.00     0.100 A 
ATOM      3  C   UNL     1      78.106  -6.158  26.386  1.00  0.00     0.197 A 
ATOM      4  O   UNL     1      76.952  -6.124  25.882  1.00  0.00    -0.289 OA
ATOM      5  C   UNL     1      79.026  -7.178  26.055  1.00  0.00     0.115 A 
ATOM      6  C   UNL     1      80.300  -7.132  26.660  1.00  0.00     0.188 A 
ATOM      7  O   UNL     1      80.604  -6.153  27.509  1.00  0.00    -0.452 OA
ATOM      8  C   UNL     1      81.263  -8.111  26.390  1.00  0.00     0.209 A 
ATOM      9  C   UNL     1      80.974  -9.154  25.473  1.00  0.00     0.211 A 
ATOM     10  C   UNL     1      79.710  -9.175  24.827  1.00  0.00     0.208 A 
ATOM     11  C   UNL     1      78.720  -8.230  25.168  1.00  0.00     0.179 A 
ENDROOT
BRANCH   1  12
ATOM     12  C   UNL     1      80.218  -4.141  28.803  1.00  0.00     0.018 A 
ATOM     13  C   UNL     1      81.030  -2.153  30.640  1.00  0.00     0.118 A 
ATOM     14  C   UNL     1      79.813  -2.835  30.820  1.00  0.00     0.047 A 
ATOM     15  C   UNL     1      81.828  -2.466  29.535  1.00  0.00     0.047 A 
ATOM     16  C   UNL     1      79.411  -3.815  29.908  1.00  0.00     0.016 A 
ATOM     17  C   UNL     1      81.429  -3.445  28.621  1.00  0.00     0.016 A 
BRANCH  13  18
ATOM     18  O   UNL     1      81.477  -1.163  31.527  1.00  0.00    -0.497 OA
ATOM     19  C   UNL     1      80.621  -0.363  32.337  1.00  0.00     0.278 C 
ENDBRANCH  13  18
ENDBRANCH   1  12
BRANCH   8  20
ATOM     20  O   UNL     1      82.492  -7.982  27.069  1.00  0.00    -0.490 OA
ATOM     21  C   UNL     1      83.736  -7.561  26.521  1.00  0.00     0.278 C 
ENDBRANCH   8  20
BRANCH  11  22
ATOM     22  O   UNL     1      77.429  -8.334  24.636  1.00  0.00    -0.492 OA
ATOM     23  C   UNL     1      76.539  -9.386  24.998  1.00  0.00     0.278 C 
ENDBRANCH  11  22
BRANCH   9  24
ATOM     24  O   UNL     1      81.963 -10.124  25.228  1.00  0.00    -0.490 OA
ATOM     25  C   UNL     1      82.975 -10.092  24.226  1.00  0.00     0.279 C 
ENDBRANCH   9  24
BRANCH  10  26
ATOM     26  O   UNL     1      79.446 -10.125  23.835  1.00  0.00    -0.490 OA
ATOM     27  C   UNL     1      79.477  -9.811  22.446  1.00  0.00     0.278 C 
ENDBRANCH  10  26
TORSDOF 6
ENDMDL
MODEL 4
REMARK VINA RESULT:    -3.617      4.438      9.373
REMARK INTER + INTRA:          -5.212
REMARK INTER:                  -4.753
REMARK INTRA:                  -0.459
REMARK UNBOUND:                -0.326
REMARK SMILES COc1ccc(-c2cc(=O)c3c(OC)c(OC)c(OC)c(OC)c3o2)cc1
REMARK SMILES IDX 7 1 8 2 9 3 10 4 11 5 24 6 25 7 21 8 18 9 15 10 12 11 6 12
REMARK SMILES IDX 3 13 4 14 27 15 5 16 26 17 2 18 1 19 22 20 23 21 13 22 14 23
REMARK SMILES IDX 19 24 20 25 16 26 17 27
REMARK H PARENT
REMARK Flexibility Score: inf
ROOT
ATOM      1  C   UNL     1      80.457  -4.640  28.831  1.00  0.00     0.138 A 
ATOM      2  C   UNL     1      81.477  -5.031  27.951  1.00  0.00     0.100 A 
ATOM      3  C   UNL     1      81.302  -6.165  27.160  1.00  0.00     0.197 A 
ATOM      4  O   UNL     1      82.227  -6.507  26.376  1.00  0.00    -0.289 OA
ATOM      5  C   UNL     1      80.104  -6.908  27.258  1.00  0.00     0.115 A 
ATOM      6  C   UNL     1      79.127  -6.456  28.169  1.00  0.00     0.188 A 
ATOM      7  O   UNL     1      79.344  -5.366  28.901  1.00  0.00    -0.452 OA
ATOM      8  C   UNL     1      77.910  -7.134  28.317  1.00  0.00     0.209 A 
ATOM      9  C   UNL     1      77.660  -8.311  27.566  1.00  0.00     0.211 A 
ATOM     10  C   UNL     1      78.661  -8.793  26.684  1.00  0.00     0.208 A 
ATOM     11  C   UNL     1      79.849  -8.058  26.483  1.00  0.00     0.179 A 
ENDROOT
BRANCH   1  12
ATOM     12  C   UNL     1      80.585  -3.445  29.702  1.00  0.00     0.018 A 
ATOM     13  C   UNL     1      80.887  -1.167  31.345  1.00  0.00     0.118 A 
ATOM     14  C   UNL     1      81.758  -1.384  30.262  1.00  0.00     0.047 A 
ATOM     15  C   UNL     1      79.877  -2.098  31.603  1.00  0.00     0.047 A 
ATOM     16  C   UNL     1      81.609  -2.515  29.452  1.00  0.00     0.016 A 
ATOM     17  C   UNL     1      79.725  -3.229  30.796  1.00  0.00     0.016 A 
BRANCH  13  18
ATOM     18  O   UNL     1      80.994  -0.048  32.185  1.00  0.00    -0.497 OA
ATOM     19  C   UNL     1      79.990   0.363  33.107  1.00  0.00     0.278 C 
ENDBRANCH  13  18
ENDBRANCH   1  12
BRANCH   8  20
ATOM     20  O   UNL     1      76.996  -6.581  29.236  1.00  0.00    -0.490 OA
ATOM     21  C   UNL     1      76.610  -7.121  30.495  1.00  0.00     0.278 C 
ENDBRANCH   8  20
BRANCH  11  22
ATOM     22  O   UNL     1      80.774  -8.459  25.511  1.00  0.00    -0.492 OA
ATOM     23  C   UNL     1      81.631  -9.582  25.692  1.00  0.00     0.278 C 
ENDBRANCH  11  22
BRANCH   9  24
ATOM     24  O   UNL     1      76.425  -8.964  27.736  1.00  0.00    -0.490 OA
ATOM     25  C   UNL     1      76.154 -10.099  28.552  1.00  0.00     0.279 C 
ENDBRANCH   9  24
BRANCH  10  26
ATOM     26  O   UNL     1      78.484 -10.012  26.020  1.00  0.00    -0.490 OA
ATOM     27  C   UNL     1      77.767 -10.120  24.794  1.00  0.00     0.278 C 
ENDBRANCH  10  26
TORSDOF 6
ENDMDL
MODEL 5
REMARK VINA RESULT:    -3.470      1.475      2.026
REMARK INTER + INTRA:          -5.013
REMARK INTER:                  -4.924
REMARK INTRA:                  -0.089
REMARK UNBOUND:                -0.326
REMARK SMILES COc1ccc(-c2cc(=O)c3c(OC)c(OC)c(OC)c(OC)c3o2)cc1
REMARK SMILES IDX 7 1 8 2 9 3 10 4 11 5 24 6 25 7 21 8 18 9 15 10 12 11 6 12
REMARK SMILES IDX 3 13 4 14 27 15 5 16 26 17 2 18 1 19 22 20 23 21 13 22 14 23
REMARK SMILES IDX 19 24 20 25 16 26 17 27
REMARK H PARENT
REMARK Flexibility Score: inf
ROOT
ATOM      1  C   UNL     1      78.701  -8.726  23.615  1.00  0.00     0.138 A 
ATOM      2  C   UNL     1      77.764  -7.951  24.314  1.00  0.00     0.100 A 
ATOM      3  C   UNL     1      77.999  -7.637  25.652  1.00  0.00     0.197 A 
ATOM      4  O   UNL     1      77.148  -6.943  26.271  1.00  0.00    -0.289 OA
ATOM      5  C   UNL     1      79.170  -8.106  26.287  1.00  0.00     0.115 A 
ATOM      6  C   UNL     1      80.063  -8.883  25.519  1.00  0.00     0.188 A 
ATOM      7  O   UNL     1      79.792  -9.155  24.245  1.00  0.00    -0.452 OA
ATOM      8  C   UNL     1      81.250  -9.378  26.074  1.00  0.00     0.209 A 
ATOM      9  C   UNL     1      81.555  -9.122  27.436  1.00  0.00     0.211 A 
ATOM     10  C   UNL     1      80.635  -8.380  28.222  1.00  0.00     0.208 A 
ATOM     11  C   UNL     1      79.483  -7.820  27.631  1.00  0.00     0.179 A 
ENDROOT
BRANCH   1  12
ATOM     12  C   UNL     1      78.508  -9.097  22.191  1.00  0.00     0.018 A 
ATOM     13  C   UNL     1      78.190  -9.773  19.466  1.00  0.00     0.118 A 
ATOM     14  C   UNL     1      79.463  -9.468  19.980  1.00  0.00     0.047 A 
ATOM     15  C   UNL     1      77.083  -9.728  20.318  1.00  0.00     0.047 A 
ATOM     16  C   UNL     1      79.618  -9.130  21.328  1.00  0.00     0.016 A 
ATOM     17  C   UNL     1      77.234  -9.390  21.666  1.00  0.00     0.016 A 
BRANCH  13  18
ATOM     18  O   UNL     1      77.984 -10.120  18.123  1.00  0.00    -0.497 OA
ATOM     19  C   UNL     1      78.837  -9.727  17.051  1.00  0.00     0.278 C 
ENDBRANCH  13  18
ENDBRANCH   1  12
BRANCH   8  20
ATOM     20  O   UNL     1      82.080 -10.121  25.210  1.00  0.00    -0.490 OA
ATOM     21  C   UNL     1      83.358  -9.742  24.712  1.00  0.00     0.278 C 
ENDBRANCH   8  20
BRANCH  11  22
ATOM     22  O   UNL     1      78.649  -6.973  28.371  1.00  0.00    -0.492 OA
ATOM     23  C   UNL     1      77.863  -7.441  29.463  1.00  0.00     0.278 C 
ENDBRANCH  11  22
BRANCH   9  24
ATOM     24  O   UNL     1      82.758  -9.630  27.960  1.00  0.00    -0.490 OA
ATOM     25  C   UNL     1      84.048  -9.031  27.894  1.00  0.00     0.279 C 
ENDBRANCH   9  24
BRANCH  10  26
ATOM     26  O   UNL     1      80.858  -8.215  29.592  1.00  0.00    -0.490 OA
ATOM     27  C   UNL     1      80.990  -9.317  30.486  1.00  0.00     0.278 C 
ENDBRANCH  10  26
TORSDOF 6
ENDMDL
MODEL 6
REMARK VINA RESULT:    -3.230      0.932      3.584
REMARK INTER + INTRA:          -4.688
REMARK INTER:                  -4.395
REMARK INTRA:                  -0.293
REMARK UNBOUND:                -0.326
REMARK SMILES COc1ccc(-c2cc(=O)c3c(OC)c(OC)c(OC)c(OC)c3o2)cc1
REMARK SMILES IDX 7 1 8 2 9 3 10 4 11 5 24 6 25 7 21 8 18 9 15 10 12 11 6 12
REMARK SMILES IDX 3 13 4 14 27 15 5 16 26 17 2 18 1 19 22 20 23 21 13 22 14 23
REMARK SMILES IDX 19 24 20 25 16 26 17 27
REMARK H PARENT
REMARK Flexibility Score: inf
ROOT
ATOM      1  C   UNL     1      79.545  -9.760  22.634  1.00  0.00     0.138 A 
ATOM      2  C   UNL     1      80.814 -10.005  23.177  1.00  0.00     0.100 A 
ATOM      3  C   UNL     1      80.999  -9.906  24.555  1.00  0.00     0.197 A 
ATOM      4  O   UNL     1      82.145 -10.125  25.031  1.00  0.00    -0.289 OA
ATOM      5  C   UNL     1      79.911  -9.555  25.384  1.00  0.00     0.115 A 
ATOM      6  C   UNL     1      78.666  -9.319  24.764  1.00  0.00     0.188 A 
ATOM      7  O   UNL     1      78.543  -9.428  23.443  1.00  0.00    -0.452 OA
ATOM      8  C   UNL     1      77.537  -8.976  25.519  1.00  0.00     0.209 A 
ATOM      9  C   UNL     1      77.644  -8.832  26.926  1.00  0.00     0.211 A 
ATOM     10  C   UNL     1      78.906  -9.023  27.546  1.00  0.00     0.208 A 
ATOM     11  C   UNL     1      80.017  -9.447  26.786  1.00  0.00     0.179 A 
ENDROOT
BRANCH   1  12
ATOM     12  C   UNL     1      79.284  -9.845  21.175  1.00  0.00     0.018 A 
ATOM     13  C   UNL     1      78.838  -9.974  18.388  1.00  0.00     0.118 A 
ATOM     14  C   UNL     1      80.132  -9.752  18.892  1.00  0.00     0.047 A 
ATOM     15  C   UNL     1      77.775 -10.121  19.283  1.00  0.00     0.047 A 
ATOM     16  C   UNL     1      80.351  -9.685  20.272  1.00  0.00     0.016 A 
ATOM     17  C   UNL     1      77.989 -10.053  20.663  1.00  0.00     0.016 A 
BRANCH  13  18
ATOM     18  O   UNL     1      78.569 -10.052  17.013  1.00  0.00    -0.497 OA
ATOM     19  C   UNL     1      79.368  -9.446  16.002  1.00  0.00     0.278 C 
ENDBRANCH  13  18
ENDBRANCH   1  12
BRANCH   8  20
ATOM     20  O   UNL     1      76.339  -8.788  24.799  1.00  0.00    -0.490 OA
ATOM     21  C   UNL     1      75.507  -7.633  24.803  1.00  0.00     0.278 C 
ENDBRANCH   8  20
BRANCH  11  22
ATOM     22  O   UNL     1      81.224  -9.770  27.417  1.00  0.00    -0.492 OA
ATOM     23  C   UNL     1      82.073  -8.781  27.991  1.00  0.00     0.278 C 
ENDBRANCH  11  22
BRANCH   9  24
ATOM     24  O   UNL     1      76.489  -8.491  27.654  1.00  0.00    -0.490 OA
ATOM     25  C   UNL     1      75.586  -9.379  28.306  1.00  0.00     0.279 C 
ENDBRANCH   9  24
BRANCH  10  26
ATOM     26  O   UNL     1      79.060  -8.775  28.913  1.00  0.00    -0.490 OA
ATOM     27  C   UNL     1      78.956  -7.468  29.472  1.00  0.00     0.278 C 
ENDBRANCH  10  26
TORSDOF 6
ENDMDL
MODEL 7
REMARK VINA RESULT:    -3.118      4.313      8.507
REMARK INTER + INTRA:          -4.537
REMARK INTER:                  -3.904
REMARK INTRA:                  -0.633
REMARK UNBOUND:                -0.326
REMARK SMILES COc1ccc(-c2cc(=O)c3c(OC)c(OC)c(OC)c(OC)c3o2)cc1
REMARK SMILES IDX 7 1 8 2 9 3 10 4 11 5 24 6 25 7 21 8 18 9 15 10 12 11 6 12
REMARK SMILES IDX 3 13 4 14 27 15 5 16 26 17 2 18 1 19 22 20 23 21 13 22 14 23
REMARK SMILES IDX 19 24 20 25 16 26 17 27
REMARK H PARENT
REMARK Flexibility Score: inf
ROOT
ATOM      1  C   UNL     1      79.491  -4.927  29.238  1.00  0.00     0.138 A 
ATOM      2  C   UNL     1      78.282  -5.393  29.774  1.00  0.00     0.100 A 
ATOM      3  C   UNL     1      77.710  -6.557  29.263  1.00  0.00     0.197 A 
ATOM      4  O   UNL     1      76.622  -6.964  29.750  1.00  0.00    -0.289 OA
ATOM      5  C   UNL     1      78.351  -7.247  28.210  1.00  0.00     0.115 A 
ATOM      6  C   UNL     1      79.562  -6.714  27.720  1.00  0.00     0.188 A 
ATOM      7  O   UNL     1      80.065  -5.599  28.244  1.00  0.00    -0.452 OA
ATOM      8  C   UNL     1      80.261  -7.345  26.683  1.00  0.00     0.209 A 
ATOM      9  C   UNL     1      79.738  -8.522  26.091  1.00  0.00     0.211 A 
ATOM     10  C   UNL     1      78.496  -9.033  26.551  1.00  0.00     0.208 A 
ATOM     11  C   UNL     1      77.842  -8.435  27.648  1.00  0.00     0.179 A 
ENDROOT
BRANCH   1  12
ATOM     12  C   UNL     1      80.148  -3.692  29.737  1.00  0.00     0.018 A 
ATOM     13  C   UNL     1      81.346  -1.328  30.714  1.00  0.00     0.118 A 
ATOM     14  C   UNL     1      80.244  -1.894  31.379  1.00  0.00     0.047 A 
ATOM     15  C   UNL     1      81.835  -1.944  29.558  1.00  0.00     0.047 A 
ATOM     16  C   UNL     1      79.650  -3.063  30.892  1.00  0.00     0.016 A 
ATOM     17  C   UNL     1      81.243  -3.112  29.068  1.00  0.00     0.016 A 
BRANCH  13  18
ATOM     18  O   UNL     1      81.978  -0.158  31.164  1.00  0.00    -0.497 OA
ATOM     19  C   UNL     1      82.104   1.034  30.395  1.00  0.00     0.278 C 
ENDBRANCH  13  18
ENDBRANCH   1  12
BRANCH   8  20
ATOM     20  O   UNL     1      81.472  -6.740  26.289  1.00  0.00    -0.490 OA
ATOM     21  C   UNL     1      82.788  -7.125  26.672  1.00  0.00     0.278 C 
ENDBRANCH   8  20
BRANCH  11  22
ATOM     22  O   UNL     1      76.691  -9.020  28.191  1.00  0.00    -0.492 OA
ATOM     23  C   UNL     1      76.750 -10.103  29.115  1.00  0.00     0.278 C 
ENDBRANCH  11  22
BRANCH   9  24
ATOM     24  O   UNL     1      80.468  -9.133  25.055  1.00  0.00    -0.490 OA
ATOM     25  C   UNL     1      81.482 -10.125  25.183  1.00  0.00     0.279 C 
ENDBRANCH   9  24
BRANCH  10  26
ATOM     26  O   UNL     1      77.905 -10.124  25.905  1.00  0.00    -0.490 OA
ATOM     27  C   UNL     1      76.959  -9.971  24.851  1.00  0.00     0.278 C 
ENDBRANCH  10  26
TORSDOF 6
ENDMDL
MODEL 8
REMARK VINA RESULT:    -3.033      4.392      8.605
REMARK INTER + INTRA:          -4.423
REMARK INTER:                  -3.947
REMARK INTRA:                  -0.476
REMARK UNBOUND:                -0.326
REMARK SMILES COc1ccc(-c2cc(=O)c3c(OC)c(OC)c(OC)c(OC)c3o2)cc1
REMARK SMILES IDX 7 1 8 2 9 3 10 4 11 5 24 6 25 7 21 8 18 9 15 10 12 11 6 12
REMARK SMILES IDX 3 13 4 14 27 15 5 16 26 17 2 18 1 19 22 20 23 21 13 22 14 23
REMARK SMILES IDX 19 24 20 25 16 26 17 27
REMARK H PARENT
REMARK Flexibility Score: inf
ROOT
ATOM      1  C   UNL     1      79.529  -4.815  29.386  1.00  0.00     0.138 A 
ATOM      2  C   UNL     1      78.364  -5.326  29.976  1.00  0.00     0.100 A 
ATOM      3  C   UNL     1      77.824  -6.520  29.503  1.00  0.00     0.197 A 
ATOM      4  O   UNL     1      76.775  -6.967  30.040  1.00  0.00    -0.289 OA
ATOM      5  C   UNL     1      78.451  -7.197  28.434  1.00  0.00     0.115 A 
ATOM      6  C   UNL     1      79.616  -6.619  27.888  1.00  0.00     0.188 A 
ATOM      7  O   UNL     1      80.091  -5.476  28.377  1.00  0.00    -0.452 OA
ATOM      8  C   UNL     1      80.300  -7.234  26.831  1.00  0.00     0.209 A 
ATOM      9  C   UNL     1      79.805  -8.441  26.276  1.00  0.00     0.211 A 
ATOM     10  C   UNL     1      78.606  -8.999  26.792  1.00  0.00     0.208 A 
ATOM     11  C   UNL     1      77.971  -8.414  27.908  1.00  0.00     0.179 A 
ENDROOT
BRANCH   1  12
ATOM     12  C   UNL     1      80.151  -3.547  29.842  1.00  0.00     0.018 A 
ATOM     13  C   UNL     1      81.383  -1.145  30.675  1.00  0.00     0.118 A 
ATOM     14  C   UNL     1      81.731  -1.735  29.446  1.00  0.00     0.047 A 
ATOM     15  C   UNL     1      80.427  -1.767  31.482  1.00  0.00     0.047 A 
ATOM     16  C   UNL     1      81.123  -2.926  29.037  1.00  0.00     0.016 A 
ATOM     17  C   UNL     1      79.817  -2.958  31.077  1.00  0.00     0.016 A 
BRANCH  13  18
ATOM     18  O   UNL     1      81.963   0.049  31.128  1.00  0.00    -0.497 OA
ATOM     19  C   UNL     1      82.186   1.195  30.311  1.00  0.00     0.278 C 
ENDBRANCH  13  18
ENDBRANCH   1  12
BRANCH   8  20
ATOM     20  O   UNL     1      81.467  -6.583  26.381  1.00  0.00    -0.490 OA
ATOM     21  C   UNL     1      82.814  -6.960  26.639  1.00  0.00     0.278 C 
ENDBRANCH   8  20
BRANCH  11  22
ATOM     22  O   UNL     1      76.871  -9.041  28.505  1.00  0.00    -0.492 OA
ATOM     23  C   UNL     1      75.564  -8.986  27.940  1.00  0.00     0.278 C 
ENDBRANCH  11  22
BRANCH   9  24
ATOM     24  O   UNL     1      80.519  -9.035  25.218  1.00  0.00    -0.490 OA
ATOM     25  C   UNL     1      81.432 -10.125  25.298  1.00  0.00     0.279 C 
ENDBRANCH   9  24
BRANCH  10  26
ATOM     26  O   UNL     1      78.038 -10.124  26.186  1.00  0.00    -0.490 OA
ATOM     27  C   UNL     1      77.356 -10.059  24.937  1.00  0.00     0.278 C 
ENDBRANCH  10  26
TORSDOF 6
ENDMDL
