MODEL 1
REMARK VINA RESULT:    -5.443      0.000      0.000
REMARK INTER + INTRA:          -6.165
REMARK INTER:                  -6.079
REMARK INTRA:                  -0.085
REMARK UNBOUND:                -0.085
REMARK SMILES CCc1ccc(O)cc1O
REMARK SMILES IDX 3 1 9 2 8 3 6 4 5 5 4 6 2 7 1 8 10 9 7 11
REMARK H PARENT 10 10 7 12
REMARK Flexibility Score: inf
ROOT
ATOM      1  C   UNL     1     -13.548   0.743  -9.815  1.00  0.00    -0.006 A 
ATOM      2  C   UNL     1     -12.508   1.530  -9.280  1.00  0.00     0.122 A 
ATOM      3  C   UNL     1     -12.789   2.806  -8.771  1.00  0.00     0.092 A 
ATOM      4  C   UNL     1     -14.093   3.309  -8.802  1.00  0.00     0.119 A 
ATOM      5  C   UNL     1     -15.125   2.535  -9.347  1.00  0.00     0.047 A 
ATOM      6  C   UNL     1     -14.853   1.262  -9.855  1.00  0.00     0.011 A 
ENDROOT
BRANCH   1   7
ATOM      7  C   UNL     1     -13.269  -0.620 -10.397  1.00  0.00     0.036 C 
ATOM      8  C   UNL     1     -14.568  -1.327 -10.769  1.00  0.00     0.009 C 
ENDBRANCH   1   7
BRANCH   2   9
ATOM      9  O   UNL     1     -11.201   1.044  -9.255  1.00  0.00    -0.508 OA
ATOM     10  H   UNL     1     -10.403   1.660  -9.348  1.00  0.00     0.293 HD
ENDBRANCH   2   9
BRANCH   4  11
ATOM     11  O   UNL     1     -14.353   4.580  -8.292  1.00  0.00    -0.508 OA
ATOM     12  H   UNL     1     -14.626   4.717  -7.326  1.00  0.00     0.293 HD
ENDBRANCH   4  11
TORSDOF 3
ENDMDL
MODEL 2
REMARK VINA RESULT:    -5.060     15.674     16.855
REMARK INTER + INTRA:          -5.736
REMARK INTER:                  -5.639
REMARK INTRA:                  -0.097
REMARK UNBOUND:                -0.085
REMARK SMILES CCc1ccc(O)cc1O
REMARK SMILES IDX 3 1 9 2 8 3 6 4 5 5 4 6 2 7 1 8 10 9 7 11
REMARK H PARENT 10 10 7 12
REMARK Flexibility Score: inf
ROOT
ATOM      1  C   UNL     1     -12.081   4.829   5.782  1.00  0.00    -0.006 A 
ATOM      2  C   UNL     1     -12.520   4.450   7.067  1.00  0.00     0.122 A 
ATOM      3  C   UNL     1     -11.680   4.633   8.175  1.00  0.00     0.092 A 
ATOM      4  C   UNL     1     -10.403   5.179   8.012  1.00  0.00     0.119 A 
ATOM      5  C   UNL     1      -9.959   5.542   6.735  1.00  0.00     0.047 A 
ATOM      6  C   UNL     1     -10.791   5.363   5.626  1.00  0.00     0.011 A 
ENDROOT
BRANCH   1   7
ATOM      7  C   UNL     1     -12.951   4.614   4.570  1.00  0.00     0.036 C 
ATOM      8  C   UNL     1     -13.825   5.836   4.306  1.00  0.00     0.009 C 
ENDBRANCH   1   7
BRANCH   2   9
ATOM      9  O   UNL     1     -13.787   3.893   7.239  1.00  0.00    -0.508 OA
ATOM     10  H   UNL     1     -14.303   3.496   6.464  1.00  0.00     0.293 HD
ENDBRANCH   2   9
BRANCH   4  11
ATOM     11  O   UNL     1      -9.582   5.353   9.125  1.00  0.00    -0.508 OA
ATOM     12  H   UNL     1      -9.091   4.575   9.548  1.00  0.00     0.293 HD
ENDBRANCH   4  11
TORSDOF 3
ENDMDL
MODEL 3
REMARK VINA RESULT:    -4.969      6.098      7.576
REMARK INTER + INTRA:          -5.636
REMARK INTER:                  -5.535
REMARK INTRA:                  -0.101
REMARK UNBOUND:                -0.085
REMARK SMILES CCc1ccc(O)cc1O
REMARK SMILES IDX 3 1 9 2 8 3 6 4 5 5 4 6 2 7 1 8 10 9 7 11
REMARK H PARENT 10 10 7 12
REMARK Flexibility Score: inf
ROOT
ATOM      1  C   UNL     1     -10.426  -5.239  -7.417  1.00  0.00    -0.006 A 
ATOM      2  C   UNL     1     -10.785  -5.338  -8.776  1.00  0.00     0.122 A 
ATOM      3  C   UNL     1     -10.594  -4.242  -9.630  1.00  0.00     0.092 A 
ATOM      4  C   UNL     1     -10.061  -3.046  -9.139  1.00  0.00     0.119 A 
ATOM      5  C   UNL     1      -9.718  -2.941  -7.786  1.00  0.00     0.047 A 
ATOM      6  C   UNL     1      -9.904  -4.029  -6.928  1.00  0.00     0.011 A 
ENDROOT
BRANCH   1   7
ATOM      7  C   UNL     1     -10.649  -6.391  -6.470  1.00  0.00     0.036 C 
ATOM      8  C   UNL     1     -11.704  -6.039  -5.427  1.00  0.00     0.009 C 
ENDBRANCH   1   7
BRANCH   2   9
ATOM      9  O   UNL     1     -11.329  -6.521  -9.274  1.00  0.00    -0.508 OA
ATOM     10  H   UNL     1     -10.749  -7.322  -9.494  1.00  0.00     0.293 HD
ENDBRANCH   2   9
BRANCH   4  11
ATOM     11  O   UNL     1      -9.879  -1.968 -10.003  1.00  0.00    -0.508 OA
ATOM     12  H   UNL     1      -9.958  -1.011  -9.680  1.00  0.00     0.293 HD
ENDBRANCH   4  11
TORSDOF 3
ENDMDL
MODEL 4
REMARK VINA RESULT:    -4.966      1.795      3.664
REMARK INTER + INTRA:          -5.632
REMARK INTER:                  -5.547
REMARK INTRA:                  -0.086
REMARK UNBOUND:                -0.085
REMARK SMILES CCc1ccc(O)cc1O
REMARK SMILES IDX 3 1 9 2 8 3 6 4 5 5 4 6 2 7 1 8 10 9 7 11
REMARK H PARENT 10 10 7 12
REMARK Flexibility Score: inf
ROOT
ATOM      1  C   UNL     1     -13.151   1.998  -9.393  1.00  0.00    -0.006 A 
ATOM      2  C   UNL     1     -12.376   0.831  -9.546  1.00  0.00     0.122 A 
ATOM      3  C   UNL     1     -12.969  -0.342 -10.035  1.00  0.00     0.092 A 
ATOM      4  C   UNL     1     -14.329  -0.365 -10.360  1.00  0.00     0.119 A 
ATOM      5  C   UNL     1     -15.104   0.790 -10.194  1.00  0.00     0.047 A 
ATOM      6  C   UNL     1     -14.520   1.962  -9.708  1.00  0.00     0.011 A 
ENDROOT
BRANCH   1   7
ATOM      7  C   UNL     1     -12.546   3.264  -8.840  1.00  0.00     0.036 C 
ATOM      8  C   UNL     1     -13.634   4.228  -8.377  1.00  0.00     0.009 C 
ENDBRANCH   1   7
BRANCH   2   9
ATOM      9  O   UNL     1     -11.022   0.838  -9.213  1.00  0.00    -0.508 OA
ATOM     10  H   UNL     1     -10.639   1.510  -8.559  1.00  0.00     0.293 HD
ENDBRANCH   2   9
BRANCH   4  11
ATOM     11  O   UNL     1     -14.901  -1.540 -10.844  1.00  0.00    -0.508 OA
ATOM     12  H   UNL     1     -15.029  -2.351 -10.251  1.00  0.00     0.293 HD
ENDBRANCH   4  11
TORSDOF 3
ENDMDL
MODEL 5
REMARK VINA RESULT:    -4.711      5.504      7.418
REMARK INTER + INTRA:          -5.347
REMARK INTER:                  -5.252
REMARK INTRA:                  -0.095
REMARK UNBOUND:                -0.085
REMARK SMILES CCc1ccc(O)cc1O
REMARK SMILES IDX 3 1 9 2 8 3 6 4 5 5 4 6 2 7 1 8 10 9 7 11
REMARK H PARENT 10 10 7 12
REMARK Flexibility Score: inf
ROOT
ATOM      1  C   UNL     1     -10.308  -3.836  -8.967  1.00  0.00    -0.006 A 
ATOM      2  C   UNL     1      -9.755  -3.814  -7.671  1.00  0.00     0.122 A 
ATOM      3  C   UNL     1     -10.220  -4.711  -6.698  1.00  0.00     0.092 A 
ATOM      4  C   UNL     1     -11.238  -5.620  -7.003  1.00  0.00     0.119 A 
ATOM      5  C   UNL     1     -11.798  -5.633  -8.286  1.00  0.00     0.047 A 
ATOM      6  C   UNL     1     -11.340  -4.743  -9.260  1.00  0.00     0.011 A 
ENDROOT
BRANCH   1   7
ATOM      7  C   UNL     1      -9.849  -2.862 -10.023  1.00  0.00     0.036 C 
ATOM      8  C   UNL     1     -10.654  -1.568  -9.953  1.00  0.00     0.009 C 
ENDBRANCH   1   7
BRANCH   2   9
ATOM      9  O   UNL     1      -8.748  -2.903  -7.352  1.00  0.00    -0.508 OA
ATOM     10  H   UNL     1      -7.793  -3.038  -7.659  1.00  0.00     0.293 HD
ENDBRANCH   2   9
BRANCH   4  11
ATOM     11  O   UNL     1     -11.687  -6.504  -6.023  1.00  0.00    -0.508 OA
ATOM     12  H   UNL     1     -12.674  -6.684  -5.885  1.00  0.00     0.293 HD
ENDBRANCH   4  11
TORSDOF 3
ENDMDL
MODEL 6
REMARK VINA RESULT:    -4.701     15.268     16.367
REMARK INTER + INTRA:          -5.336
REMARK INTER:                  -5.251
REMARK INTRA:                  -0.085
REMARK UNBOUND:                -0.085
REMARK SMILES CCc1ccc(O)cc1O
REMARK SMILES IDX 3 1 9 2 8 3 6 4 5 5 4 6 2 7 1 8 10 9 7 11
REMARK H PARENT 10 10 7 12
REMARK Flexibility Score: inf
ROOT
ATOM      1  C   UNL     1     -12.309   5.030   5.487  1.00  0.00    -0.006 A 
ATOM      2  C   UNL     1     -11.483   3.988   5.953  1.00  0.00     0.122 A 
ATOM      3  C   UNL     1     -10.628   4.208   7.043  1.00  0.00     0.092 A 
ATOM      4  C   UNL     1     -10.581   5.460   7.663  1.00  0.00     0.119 A 
ATOM      5  C   UNL     1     -11.390   6.501   7.193  1.00  0.00     0.047 A 
ATOM      6  C   UNL     1     -12.245   6.289   6.108  1.00  0.00     0.011 A 
ENDROOT
BRANCH   1   7
ATOM      7  C   UNL     1     -13.215   4.830   4.298  1.00  0.00     0.036 C 
ATOM      8  C   UNL     1     -14.191   5.994   4.158  1.00  0.00     0.009 C 
ENDBRANCH   1   7
BRANCH   2   9
ATOM      9  O   UNL     1     -11.512   2.738   5.333  1.00  0.00    -0.508 OA
ATOM     10  H   UNL     1     -11.606   1.883   5.867  1.00  0.00     0.293 HD
ENDBRANCH   2   9
BRANCH   4  11
ATOM     11  O   UNL     1      -9.725   5.659   8.745  1.00  0.00    -0.508 OA
ATOM     12  H   UNL     1      -8.994   4.996   8.971  1.00  0.00     0.293 HD
ENDBRANCH   4  11
TORSDOF 3
ENDMDL
MODEL 7
REMARK VINA RESULT:    -4.690     16.165     17.422
REMARK INTER + INTRA:          -5.324
REMARK INTER:                  -5.218
REMARK INTRA:                  -0.106
REMARK UNBOUND:                -0.085
REMARK SMILES CCc1ccc(O)cc1O
REMARK SMILES IDX 3 1 9 2 8 3 6 4 5 5 4 6 2 7 1 8 10 9 7 11
REMARK H PARENT 10 10 7 12
REMARK Flexibility Score: inf
ROOT
ATOM      1  C   UNL     1     -10.181   5.572   6.680  1.00  0.00    -0.006 A 
ATOM      2  C   UNL     1     -10.587   5.234   7.986  1.00  0.00     0.122 A 
ATOM      3  C   UNL     1     -11.845   4.651   8.197  1.00  0.00     0.092 A 
ATOM      4  C   UNL     1     -12.705   4.415   7.120  1.00  0.00     0.119 A 
ATOM      5  C   UNL     1     -12.309   4.764   5.824  1.00  0.00     0.047 A 
ATOM      6  C   UNL     1     -11.057   5.344   5.605  1.00  0.00     0.011 A 
ENDROOT
BRANCH   1   7
ATOM      7  C   UNL     1      -8.846   6.228   6.428  1.00  0.00     0.036 C 
ATOM      8  C   UNL     1      -9.019   7.716   6.139  1.00  0.00     0.009 C 
ENDBRANCH   1   7
BRANCH   2   9
ATOM      9  O   UNL     1      -9.743   5.477   9.069  1.00  0.00    -0.508 OA
ATOM     10  H   UNL     1      -8.801   5.827   8.941  1.00  0.00     0.293 HD
ENDBRANCH   2   9
BRANCH   4  11
ATOM     11  O   UNL     1     -13.952   3.836   7.350  1.00  0.00    -0.508 OA
ATOM     12  H   UNL     1     -14.800   4.236   6.968  1.00  0.00     0.293 HD
ENDBRANCH   4  11
TORSDOF 3
ENDMDL
MODEL 8
REMARK VINA RESULT:    -4.681      7.301      8.068
REMARK INTER + INTRA:          -5.314
REMARK INTER:                  -5.229
REMARK INTRA:                  -0.085
REMARK UNBOUND:                -0.085
REMARK SMILES CCc1ccc(O)cc1O
REMARK SMILES IDX 3 1 9 2 8 3 6 4 5 5 4 6 2 7 1 8 10 9 7 11
REMARK H PARENT 10 10 7 12
REMARK Flexibility Score: inf
ROOT
ATOM      1  C   UNL     1     -12.165  -5.916  -6.995  1.00  0.00    -0.006 A 
ATOM      2  C   UNL     1     -10.859  -5.424  -6.800  1.00  0.00     0.122 A 
ATOM      3  C   UNL     1     -10.144  -4.893  -7.883  1.00  0.00     0.092 A 
ATOM      4  C   UNL     1     -10.714  -4.859  -9.160  1.00  0.00     0.119 A 
ATOM      5  C   UNL     1     -12.006  -5.360  -9.358  1.00  0.00     0.047 A 
ATOM      6  C   UNL     1     -12.725  -5.891  -8.284  1.00  0.00     0.011 A 
ENDROOT
BRANCH   1   7
ATOM      7  C   UNL     1     -12.945  -6.521  -5.855  1.00  0.00     0.036 C 
ATOM      8  C   UNL     1     -14.417  -6.671  -6.224  1.00  0.00     0.009 C 
ENDBRANCH   1   7
BRANCH   2   9
ATOM      9  O   UNL     1     -10.275  -5.465  -5.534  1.00  0.00    -0.508 OA
ATOM     10  H   UNL     1      -9.401  -5.949  -5.368  1.00  0.00     0.293 HD
ENDBRANCH   2   9
BRANCH   4  11
ATOM     11  O   UNL     1      -9.988  -4.327 -10.224  1.00  0.00    -0.508 OA
ATOM     12  H   UNL     1      -9.759  -4.883 -11.039  1.00  0.00     0.293 HD
ENDBRANCH   4  11
TORSDOF 3
ENDMDL
MODEL 9
REMARK VINA RESULT:    -4.674     15.501     16.886
REMARK INTER + INTRA:          -5.306
REMARK INTER:                  -5.202
REMARK INTRA:                  -0.104
REMARK UNBOUND:                -0.085
REMARK SMILES CCc1ccc(O)cc1O
REMARK SMILES IDX 3 1 9 2 8 3 6 4 5 5 4 6 2 7 1 8 10 9 7 11
REMARK H PARENT 10 10 7 12
REMARK Flexibility Score: inf
ROOT
ATOM      1  C   UNL     1     -11.992   5.539   7.274  1.00  0.00    -0.006 A 
ATOM      2  C   UNL     1     -12.729   4.432   6.811  1.00  0.00     0.122 A 
ATOM      3  C   UNL     1     -12.299   3.733   5.673  1.00  0.00     0.092 A 
ATOM      4  C   UNL     1     -11.149   4.135   4.988  1.00  0.00     0.119 A 
ATOM      5  C   UNL     1     -10.423   5.244   5.439  1.00  0.00     0.047 A 
ATOM      6  C   UNL     1     -10.845   5.946   6.572  1.00  0.00     0.011 A 
ENDROOT
BRANCH   1   7
ATOM      7  C   UNL     1     -12.449   6.328   8.476  1.00  0.00     0.036 C 
ATOM      8  C   UNL     1     -12.999   7.687   8.055  1.00  0.00     0.009 C 
ENDBRANCH   1   7
BRANCH   2   9
ATOM      9  O   UNL     1     -13.886   4.029   7.478  1.00  0.00    -0.508 OA
ATOM     10  H   UNL     1     -14.692   4.637   7.558  1.00  0.00     0.293 HD
ENDBRANCH   2   9
BRANCH   4  11
ATOM     11  O   UNL     1     -10.737   3.428   3.860  1.00  0.00    -0.508 OA
ATOM     12  H   UNL     1     -10.995   3.724   2.926  1.00  0.00     0.293 HD
ENDBRANCH   4  11
TORSDOF 3
ENDMDL
