MODEL 1
REMARK VINA RESULT:    -6.409      0.000      0.000
REMARK INTER + INTRA:          -8.050
REMARK INTER:                  -7.721
REMARK INTRA:                  -0.329
REMARK UNBOUND:                -0.329
REMARK SMILES O=c1c(O)c(-c2ccc(O)c(O)c2)oc2cc(O)cc(O)c12
REMARK SMILES IDX 5 1 3 2 2 3 1 4 22 5 20 6 19 7 17 8 16 9 15 10 14 11 6 12
REMARK SMILES IDX 7 13 8 14 9 15 13 16 11 17 10 18 12 20 4 22 21 24 18 26
REMARK H PARENT 10 19 12 21 4 23 21 25 18 27
REMARK Flexibility Score: inf
ROOT
ATOM      1  C   UNL     1     479.593  37.718 459.468  1.00  0.00     0.180 A 
ATOM      2  C   UNL     1     478.697  38.769 459.724  1.00  0.00     0.208 A 
ATOM      3  C   UNL     1     477.629  38.555 460.611  1.00  0.00     0.238 A 
ATOM      4  O   UNL     1     476.800  39.482 460.795  1.00  0.00    -0.285 OA
ATOM      5  C   UNL     1     477.482  37.296 461.243  1.00  0.00     0.111 A 
ATOM      6  C   UNL     1     476.462  36.979 462.190  1.00  0.00     0.134 A 
ATOM      7  C   UNL     1     476.334  35.664 462.654  1.00  0.00     0.093 A 
ATOM      8  C   UNL     1     477.226  34.670 462.254  1.00  0.00     0.123 A 
ATOM      9  C   UNL     1     478.263  34.982 461.375  1.00  0.00     0.094 A 
ATOM     10  C   UNL     1     478.396  36.277 460.868  1.00  0.00     0.146 A 
ATOM     11  O   UNL     1     479.390  36.530 460.025  1.00  0.00    -0.452 OA
ENDROOT
BRANCH   1  12
ATOM     12  C   UNL     1     480.755  37.876 458.564  1.00  0.00     0.025 A 
ATOM     13  C   UNL     1     480.657  37.445 457.231  1.00  0.00     0.016 A 
ATOM     14  C   UNL     1     481.749  37.566 456.366  1.00  0.00     0.051 A 
ATOM     15  C   UNL     1     482.958  38.103 456.826  1.00  0.00     0.157 A 
ATOM     16  C   UNL     1     481.977  38.397 459.026  1.00  0.00     0.062 A 
ATOM     17  C   UNL     1     483.073  38.518 458.163  1.00  0.00     0.158 A 
BRANCH  15  18
ATOM     18  O   UNL     1     484.044  38.225 455.961  1.00  0.00    -0.504 OA
ATOM     19  H   UNL     1     484.980  38.410 456.306  1.00  0.00     0.293 HD
ENDBRANCH  15  18
BRANCH  17  20
ATOM     20  O   UNL     1     484.267  39.043 458.655  1.00  0.00    -0.504 OA
ATOM     21  H   UNL     1     484.832  39.691 458.118  1.00  0.00     0.293 HD
ENDBRANCH  17  20
ENDBRANCH   1  12
BRANCH   2  22
ATOM     22  O   UNL     1     478.848  39.997 459.072  1.00  0.00    -0.502 OA
ATOM     23  H   UNL     1     478.815  40.084 458.064  1.00  0.00     0.293 HD
ENDBRANCH   2  22
BRANCH   6  24
ATOM     24  O   UNL     1     475.575  37.919 462.726  1.00  0.00    -0.507 OA
ATOM     25  H   UNL     1     475.529  38.888 462.449  1.00  0.00     0.293 HD
ENDBRANCH   6  24
BRANCH   8  26
ATOM     26  O   UNL     1     477.077  33.376 462.747  1.00  0.00    -0.508 OA
ATOM     27  H   UNL     1     476.903  33.200 463.730  1.00  0.00     0.293 HD
ENDBRANCH   8  26
TORSDOF 6
ENDMDL
MODEL 2
REMARK VINA RESULT:    -5.963      1.754      7.143
REMARK INTER + INTRA:          -7.512
REMARK INTER:                  -7.177
REMARK INTRA:                  -0.335
REMARK UNBOUND:                -0.329
REMARK SMILES O=c1c(O)c(-c2ccc(O)c(O)c2)oc2cc(O)cc(O)c12
REMARK SMILES IDX 5 1 3 2 2 3 1 4 22 5 20 6 19 7 17 8 16 9 15 10 14 11 6 12
REMARK SMILES IDX 7 13 8 14 9 15 13 16 11 17 10 18 12 20 4 22 21 24 18 26
REMARK H PARENT 10 19 12 21 4 23 21 25 18 27
REMARK Flexibility Score: inf
ROOT
ATOM      1  C   UNL     1     480.420  38.265 459.642  1.00  0.00     0.180 A 
ATOM      2  C   UNL     1     480.537  38.025 458.263  1.00  0.00     0.208 A 
ATOM      3  C   UNL     1     481.795  38.157 457.652  1.00  0.00     0.238 A 
ATOM      4  O   UNL     1     481.883  37.993 456.408  1.00  0.00    -0.285 OA
ATOM      5  C   UNL     1     482.922  38.511 458.432  1.00  0.00     0.111 A 
ATOM      6  C   UNL     1     484.251  38.633 457.926  1.00  0.00     0.134 A 
ATOM      7  C   UNL     1     485.267  39.115 458.762  1.00  0.00     0.093 A 
ATOM      8  C   UNL     1     485.015  39.418 460.099  1.00  0.00     0.123 A 
ATOM      9  C   UNL     1     483.732  39.246 460.619  1.00  0.00     0.094 A 
ATOM     10  C   UNL     1     482.691  38.800 459.802  1.00  0.00     0.146 A 
ATOM     11  O   UNL     1     481.483  38.660 460.334  1.00  0.00    -0.452 OA
ENDROOT
BRANCH   1  12
ATOM     12  C   UNL     1     479.133  38.123 460.360  1.00  0.00     0.025 A 
ATOM     13  C   UNL     1     478.312  39.249 460.538  1.00  0.00     0.016 A 
ATOM     14  C   UNL     1     477.103  39.141 461.231  1.00  0.00     0.051 A 
ATOM     15  C   UNL     1     476.705  37.911 461.770  1.00  0.00     0.157 A 
ATOM     16  C   UNL     1     478.739  36.895 460.921  1.00  0.00     0.062 A 
ATOM     17  C   UNL     1     477.529  36.783 461.616  1.00  0.00     0.158 A 
BRANCH  15  18
ATOM     18  O   UNL     1     475.498  37.806 462.459  1.00  0.00    -0.504 OA
ATOM     19  H   UNL     1     475.430  38.022 463.447  1.00  0.00     0.293 HD
ENDBRANCH  15  18
BRANCH  17  20
ATOM     20  O   UNL     1     477.168  35.548 462.154  1.00  0.00    -0.504 OA
ATOM     21  H   UNL     1     476.732  35.464 463.065  1.00  0.00     0.293 HD
ENDBRANCH  17  20
ENDBRANCH   1  12
BRANCH   2  22
ATOM     22  O   UNL     1     479.407  37.698 457.508  1.00  0.00    -0.502 OA
ATOM     23  H   UNL     1     478.516  37.470 457.933  1.00  0.00     0.293 HD
ENDBRANCH   2  22
BRANCH   6  24
ATOM     24  O   UNL     1     484.630  38.270 456.630  1.00  0.00    -0.507 OA
ATOM     25  H   UNL     1     484.290  38.709 455.788  1.00  0.00     0.293 HD
ENDBRANCH   6  24
BRANCH   8  26
ATOM     26  O   UNL     1     486.053  39.881 460.905  1.00  0.00    -0.508 OA
ATOM     27  H   UNL     1     486.583  40.711 460.661  1.00  0.00     0.293 HD
ENDBRANCH   8  26
TORSDOF 6
ENDMDL
MODEL 3
REMARK VINA RESULT:    -5.748      1.820      7.130
REMARK INTER + INTRA:          -7.253
REMARK INTER:                  -6.931
REMARK INTRA:                  -0.322
REMARK UNBOUND:                -0.329
REMARK SMILES O=c1c(O)c(-c2ccc(O)c(O)c2)oc2cc(O)cc(O)c12
REMARK SMILES IDX 5 1 3 2 2 3 1 4 22 5 20 6 19 7 17 8 16 9 15 10 14 11 6 12
REMARK SMILES IDX 7 13 8 14 9 15 13 16 11 17 10 18 12 20 4 22 21 24 18 26
REMARK H PARENT 10 19 12 21 4 23 21 25 18 27
REMARK Flexibility Score: inf
ROOT
ATOM      1  C   UNL     1     480.423  38.330 459.684  1.00  0.00     0.180 A 
ATOM      2  C   UNL     1     480.535  38.023 458.317  1.00  0.00     0.208 A 
ATOM      3  C   UNL     1     481.797  38.095 457.704  1.00  0.00     0.238 A 
ATOM      4  O   UNL     1     481.882  37.871 456.469  1.00  0.00    -0.285 OA
ATOM      5  C   UNL     1     482.932  38.456 458.470  1.00  0.00     0.111 A 
ATOM      6  C   UNL     1     484.264  38.521 457.962  1.00  0.00     0.134 A 
ATOM      7  C   UNL     1     485.291  39.015 458.776  1.00  0.00     0.093 A 
ATOM      8  C   UNL     1     485.046  39.386 460.097  1.00  0.00     0.123 A 
ATOM      9  C   UNL     1     483.758  39.270 460.622  1.00  0.00     0.094 A 
ATOM     10  C   UNL     1     482.707  38.814 459.824  1.00  0.00     0.146 A 
ATOM     11  O   UNL     1     481.494  38.729 460.359  1.00  0.00    -0.452 OA
ENDROOT
BRANCH   1  12
ATOM     12  C   UNL     1     479.132  38.254 460.404  1.00  0.00     0.025 A 
ATOM     13  C   UNL     1     478.747  37.045 461.008  1.00  0.00     0.016 A 
ATOM     14  C   UNL     1     477.524  36.945 461.676  1.00  0.00     0.051 A 
ATOM     15  C   UNL     1     476.659  38.046 461.735  1.00  0.00     0.157 A 
ATOM     16  C   UNL     1     478.252  39.350 460.449  1.00  0.00     0.062 A 
ATOM     17  C   UNL     1     477.025  39.253 461.115  1.00  0.00     0.158 A 
BRANCH  15  18
ATOM     18  O   UNL     1     475.440  37.944 462.403  1.00  0.00    -0.504 OA
ATOM     19  H   UNL     1     475.374  38.061 463.408  1.00  0.00     0.293 HD
ENDBRANCH  15  18
BRANCH  17  20
ATOM     20  O   UNL     1     476.180  40.362 461.144  1.00  0.00    -0.504 OA
ATOM     21  H   UNL     1     475.435  40.454 461.825  1.00  0.00     0.293 HD
ENDBRANCH  17  20
ENDBRANCH   1  12
BRANCH   2  22
ATOM     22  O   UNL     1     479.398  37.691 457.575  1.00  0.00    -0.502 OA
ATOM     23  H   UNL     1     478.915  36.808 457.688  1.00  0.00     0.293 HD
ENDBRANCH   2  22
BRANCH   6  24
ATOM     24  O   UNL     1     484.635  38.088 456.684  1.00  0.00    -0.507 OA
ATOM     25  H   UNL     1     484.806  37.127 456.430  1.00  0.00     0.293 HD
ENDBRANCH   6  24
BRANCH   8  26
ATOM     26  O   UNL     1     486.094  39.859 460.883  1.00  0.00    -0.508 OA
ATOM     27  H   UNL     1     486.170  39.619 461.865  1.00  0.00     0.293 HD
ENDBRANCH   8  26
TORSDOF 6
ENDMDL
MODEL 4
REMARK VINA RESULT:    -5.442      1.233      2.930
REMARK INTER + INTRA:          -6.885
REMARK INTER:                  -6.645
REMARK INTRA:                  -0.240
REMARK UNBOUND:                -0.329
REMARK SMILES O=c1c(O)c(-c2ccc(O)c(O)c2)oc2cc(O)cc(O)c12
REMARK SMILES IDX 5 1 3 2 2 3 1 4 22 5 20 6 19 7 17 8 16 9 15 10 14 11 6 12
REMARK SMILES IDX 7 13 8 14 9 15 13 16 11 17 10 18 12 20 4 22 21 24 18 26
REMARK H PARENT 10 19 12 21 4 23 21 25 18 27
REMARK Flexibility Score: inf
ROOT
ATOM      1  C   UNL     1     479.675  37.565 459.481  1.00  0.00     0.180 A 
ATOM      2  C   UNL     1     479.339  36.283 459.947  1.00  0.00     0.208 A 
ATOM      3  C   UNL     1     478.293  36.147 460.875  1.00  0.00     0.238 A 
ATOM      4  O   UNL     1     478.033  35.003 461.329  1.00  0.00    -0.285 OA
ATOM      5  C   UNL     1     477.587  37.294 461.313  1.00  0.00     0.111 A 
ATOM      6  C   UNL     1     476.485  37.269 462.219  1.00  0.00     0.134 A 
ATOM      7  C   UNL     1     475.944  38.475 462.683  1.00  0.00     0.093 A 
ATOM      8  C   UNL     1     476.424  39.702 462.225  1.00  0.00     0.123 A 
ATOM      9  C   UNL     1     477.462  39.736 461.293  1.00  0.00     0.094 A 
ATOM     10  C   UNL     1     478.044  38.550 460.839  1.00  0.00     0.146 A 
ATOM     11  O   UNL     1     479.037  38.627 459.960  1.00  0.00    -0.452 OA
ENDROOT
BRANCH   1  12
ATOM     12  C   UNL     1     480.748  37.785 458.485  1.00  0.00     0.025 A 
ATOM     13  C   UNL     1     480.544  37.394 457.152  1.00  0.00     0.016 A 
ATOM     14  C   UNL     1     481.552  37.573 456.200  1.00  0.00     0.051 A 
ATOM     15  C   UNL     1     482.782  38.130 456.570  1.00  0.00     0.157 A 
ATOM     16  C   UNL     1     481.992  38.326 458.857  1.00  0.00     0.062 A 
ATOM     17  C   UNL     1     483.004  38.506 457.906  1.00  0.00     0.158 A 
BRANCH  15  18
ATOM     18  O   UNL     1     483.784  38.310 455.618  1.00  0.00    -0.504 OA
ATOM     19  H   UNL     1     483.643  38.062 454.645  1.00  0.00     0.293 HD
ENDBRANCH  15  18
BRANCH  17  20
ATOM     20  O   UNL     1     484.223  39.050 458.309  1.00  0.00    -0.504 OA
ATOM     21  H   UNL     1     484.982  39.210 457.658  1.00  0.00     0.293 HD
ENDBRANCH  17  20
ENDBRANCH   1  12
BRANCH   2  22
ATOM     22  O   UNL     1     480.064  35.167 459.519  1.00  0.00    -0.502 OA
ATOM     23  H   UNL     1     480.429  35.084 458.578  1.00  0.00     0.293 HD
ENDBRANCH   2  22
BRANCH   6  24
ATOM     24  O   UNL     1     475.869  36.096 462.668  1.00  0.00    -0.507 OA
ATOM     25  H   UNL     1     474.874  35.934 462.668  1.00  0.00     0.293 HD
ENDBRANCH   6  24
BRANCH   8  26
ATOM     26  O   UNL     1     475.853  40.881 462.697  1.00  0.00    -0.508 OA
ATOM     27  H   UNL     1     476.273  41.407 463.454  1.00  0.00     0.293 HD
ENDBRANCH   8  26
TORSDOF 6
ENDMDL
MODEL 5
REMARK VINA RESULT:    -5.393      3.668      6.672
REMARK INTER + INTRA:          -6.826
REMARK INTER:                  -6.495
REMARK INTRA:                  -0.331
REMARK UNBOUND:                -0.329
REMARK SMILES O=c1c(O)c(-c2ccc(O)c(O)c2)oc2cc(O)cc(O)c12
REMARK SMILES IDX 5 1 3 2 2 3 1 4 22 5 20 6 19 7 17 8 16 9 15 10 14 11 6 12
REMARK SMILES IDX 7 13 8 14 9 15 13 16 11 17 10 18 12 20 4 22 21 24 18 26
REMARK H PARENT 10 19 12 21 4 23 21 25 18 27
REMARK Flexibility Score: inf
ROOT
ATOM      1  C   UNL     1     484.201  39.921 459.763  1.00  0.00     0.180 A 
ATOM      2  C   UNL     1     484.706  39.338 458.588  1.00  0.00     0.208 A 
ATOM      3  C   UNL     1     483.852  38.555 457.795  1.00  0.00     0.238 A 
ATOM      4  O   UNL     1     484.323  37.992 456.773  1.00  0.00    -0.285 OA
ATOM      5  C   UNL     1     482.500  38.378 458.178  1.00  0.00     0.111 A 
ATOM      6  C   UNL     1     481.536  37.638 457.430  1.00  0.00     0.134 A 
ATOM      7  C   UNL     1     480.262  37.420 457.969  1.00  0.00     0.093 A 
ATOM      8  C   UNL     1     479.897  37.968 459.198  1.00  0.00     0.123 A 
ATOM      9  C   UNL     1     480.813  38.743 459.911  1.00  0.00     0.094 A 
ATOM     10  C   UNL     1     482.103  38.948 459.415  1.00  0.00     0.146 A 
ATOM     11  O   UNL     1     482.948  39.683 460.130  1.00  0.00    -0.452 OA
ENDROOT
BRANCH   1  12
ATOM     12  C   UNL     1     485.034  40.779 460.637  1.00  0.00     0.025 A 
ATOM     13  C   UNL     1     485.725  40.203 461.715  1.00  0.00     0.016 A 
ATOM     14  C   UNL     1     486.499  40.998 462.565  1.00  0.00     0.051 A 
ATOM     15  C   UNL     1     486.581  42.381 462.360  1.00  0.00     0.157 A 
ATOM     16  C   UNL     1     485.101  42.171 460.446  1.00  0.00     0.062 A 
ATOM     17  C   UNL     1     485.875  42.970 461.296  1.00  0.00     0.158 A 
BRANCH  15  18
ATOM     18  O   UNL     1     487.355  43.170 463.207  1.00  0.00    -0.504 OA
ATOM     19  H   UNL     1     486.932  43.786 463.893  1.00  0.00     0.293 HD
ENDBRANCH  15  18
BRANCH  17  20
ATOM     20  O   UNL     1     485.924  44.346 461.075  1.00  0.00    -0.504 OA
ATOM     21  H   UNL     1     486.205  44.998 461.797  1.00  0.00     0.293 HD
ENDBRANCH  17  20
ENDBRANCH   1  12
BRANCH   2  22
ATOM     22  O   UNL     1     486.049  39.508 458.240  1.00  0.00    -0.502 OA
ATOM     23  H   UNL     1     486.801  39.040 458.732  1.00  0.00     0.293 HD
ENDBRANCH   2  22
BRANCH   6  24
ATOM     24  O   UNL     1     481.768  37.125 456.149  1.00  0.00    -0.507 OA
ATOM     25  H   UNL     1     481.311  36.312 455.765  1.00  0.00     0.293 HD
ENDBRANCH   6  24
BRANCH   8  26
ATOM     26  O   UNL     1     478.616  37.743 459.697  1.00  0.00    -0.508 OA
ATOM     27  H   UNL     1     478.075  36.932 459.419  1.00  0.00     0.293 HD
ENDBRANCH   8  26
TORSDOF 6
ENDMDL
MODEL 6
REMARK VINA RESULT:    -5.374      1.583      6.894
REMARK INTER + INTRA:          -6.803
REMARK INTER:                  -6.571
REMARK INTRA:                  -0.231
REMARK UNBOUND:                -0.329
REMARK SMILES O=c1c(O)c(-c2ccc(O)c(O)c2)oc2cc(O)cc(O)c12
REMARK SMILES IDX 5 1 3 2 2 3 1 4 22 5 20 6 19 7 17 8 16 9 15 10 14 11 6 12
REMARK SMILES IDX 7 13 8 14 9 15 13 16 11 17 10 18 12 20 4 22 21 24 18 26
REMARK H PARENT 10 19 12 21 4 23 21 25 18 27
REMARK Flexibility Score: inf
ROOT
ATOM      1  C   UNL     1     479.440  37.666 460.239  1.00  0.00     0.180 A 
ATOM      2  C   UNL     1     480.364  38.556 460.812  1.00  0.00     0.208 A 
ATOM      3  C   UNL     1     481.302  39.193 459.983  1.00  0.00     0.238 A 
ATOM      4  O   UNL     1     482.160  39.947 460.509  1.00  0.00    -0.285 OA
ATOM      5  C   UNL     1     481.292  38.944 458.589  1.00  0.00     0.111 A 
ATOM      6  C   UNL     1     482.169  39.564 457.649  1.00  0.00     0.134 A 
ATOM      7  C   UNL     1     482.157  39.146 456.313  1.00  0.00     0.093 A 
ATOM      8  C   UNL     1     481.258  38.177 455.870  1.00  0.00     0.123 A 
ATOM      9  C   UNL     1     480.356  37.607 456.768  1.00  0.00     0.094 A 
ATOM     10  C   UNL     1     480.367  37.978 458.114  1.00  0.00     0.146 A 
ATOM     11  O   UNL     1     479.499  37.403 458.939  1.00  0.00    -0.452 OA
ENDROOT
BRANCH   1  12
ATOM     12  C   UNL     1     478.407  36.976 461.045  1.00  0.00     0.025 A 
ATOM     13  C   UNL     1     478.459  35.579 461.186  1.00  0.00     0.016 A 
ATOM     14  C   UNL     1     477.483  34.906 461.925  1.00  0.00     0.051 A 
ATOM     15  C   UNL     1     476.431  35.615 462.518  1.00  0.00     0.157 A 
ATOM     16  C   UNL     1     477.338  37.682 461.625  1.00  0.00     0.062 A 
ATOM     17  C   UNL     1     476.358  37.010 462.364  1.00  0.00     0.158 A 
BRANCH  15  18
ATOM     18  O   UNL     1     475.459  34.942 463.256  1.00  0.00    -0.504 OA
ATOM     19  H   UNL     1     474.473  35.155 463.155  1.00  0.00     0.293 HD
ENDBRANCH  15  18
BRANCH  17  20
ATOM     20  O   UNL     1     475.315  37.744 462.930  1.00  0.00    -0.504 OA
ATOM     21  H   UNL     1     475.429  38.265 463.791  1.00  0.00     0.293 HD
ENDBRANCH  17  20
ENDBRANCH   1  12
BRANCH   2  22
ATOM     22  O   UNL     1     480.370  38.770 462.193  1.00  0.00    -0.502 OA
ATOM     23  H   UNL     1     479.528  38.985 462.714  1.00  0.00     0.293 HD
ENDBRANCH   2  22
BRANCH   6  24
ATOM     24  O   UNL     1     483.044  40.608 457.969  1.00  0.00    -0.507 OA
ATOM     25  H   UNL     1     482.843  41.587 457.833  1.00  0.00     0.293 HD
ENDBRANCH   6  24
BRANCH   8  26
ATOM     26  O   UNL     1     481.265  37.796 454.530  1.00  0.00    -0.508 OA
ATOM     27  H   UNL     1     481.494  36.849 454.250  1.00  0.00     0.293 HD
ENDBRANCH   8  26
TORSDOF 6
ENDMDL
MODEL 7
REMARK VINA RESULT:    -5.143      4.000      7.019
REMARK INTER + INTRA:          -6.525
REMARK INTER:                  -6.288
REMARK INTRA:                  -0.237
REMARK UNBOUND:                -0.329
REMARK SMILES O=c1c(O)c(-c2ccc(O)c(O)c2)oc2cc(O)cc(O)c12
REMARK SMILES IDX 5 1 3 2 2 3 1 4 22 5 20 6 19 7 17 8 16 9 15 10 14 11 6 12
REMARK SMILES IDX 7 13 8 14 9 15 13 16 11 17 10 18 12 20 4 22 21 24 18 26
REMARK H PARENT 10 19 12 21 4 23 21 25 18 27
REMARK Flexibility Score: inf
ROOT
ATOM      1  C   UNL     1     483.453  39.264 461.059  1.00  0.00     0.180 A 
ATOM      2  C   UNL     1     484.320  38.646 460.143  1.00  0.00     0.208 A 
ATOM      3  C   UNL     1     483.820  38.251 458.891  1.00  0.00     0.238 A 
ATOM      4  O   UNL     1     484.587  37.650 458.096  1.00  0.00    -0.285 OA
ATOM      5  C   UNL     1     482.463  38.494 458.567  1.00  0.00     0.111 A 
ATOM      6  C   UNL     1     481.860  38.173 457.313  1.00  0.00     0.134 A 
ATOM      7  C   UNL     1     480.479  38.340 457.148  1.00  0.00     0.093 A 
ATOM      8  C   UNL     1     479.692  38.875 458.167  1.00  0.00     0.123 A 
ATOM      9  C   UNL     1     480.282  39.248 459.376  1.00  0.00     0.094 A 
ATOM     10  C   UNL     1     481.650  39.061 459.582  1.00  0.00     0.146 A 
ATOM     11  O   UNL     1     482.170  39.419 460.751  1.00  0.00    -0.452 OA
ENDROOT
BRANCH   1  12
ATOM     12  C   UNL     1     483.912  39.730 462.388  1.00  0.00     0.025 A 
ATOM     13  C   UNL     1     484.753  40.851 462.474  1.00  0.00     0.016 A 
ATOM     14  C   UNL     1     485.215  41.295 463.716  1.00  0.00     0.051 A 
ATOM     15  C   UNL     1     484.858  40.615 464.887  1.00  0.00     0.157 A 
ATOM     16  C   UNL     1     483.572  39.038 463.564  1.00  0.00     0.062 A 
ATOM     17  C   UNL     1     484.034  39.479 464.809  1.00  0.00     0.158 A 
BRANCH  15  18
ATOM     18  O   UNL     1     485.319  41.061 466.125  1.00  0.00    -0.504 OA
ATOM     19  H   UNL     1     484.936  40.705 466.994  1.00  0.00     0.293 HD
ENDBRANCH  15  18
BRANCH  17  20
ATOM     20  O   UNL     1     483.673  38.772 465.956  1.00  0.00    -0.504 OA
ATOM     21  H   UNL     1     483.033  39.151 466.643  1.00  0.00     0.293 HD
ENDBRANCH  17  20
ENDBRANCH   1  12
BRANCH   2  22
ATOM     22  O   UNL     1     485.650  38.396 460.492  1.00  0.00    -0.502 OA
ATOM     23  H   UNL     1     485.969  37.484 460.798  1.00  0.00     0.293 HD
ENDBRANCH   2  22
BRANCH   6  24
ATOM     24  O   UNL     1     482.571  37.719 456.198  1.00  0.00    -0.507 OA
ATOM     25  H   UNL     1     483.526  37.396 456.219  1.00  0.00     0.293 HD
ENDBRANCH   6  24
BRANCH   8  26
ATOM     26  O   UNL     1     478.324  39.040 457.963  1.00  0.00    -0.508 OA
ATOM     27  H   UNL     1     477.928  39.072 457.030  1.00  0.00     0.293 HD
ENDBRANCH   8  26
TORSDOF 6
ENDMDL
MODEL 8
REMARK VINA RESULT:    -5.131      1.636      2.430
REMARK INTER + INTRA:          -6.510
REMARK INTER:                  -6.276
REMARK INTRA:                  -0.235
REMARK UNBOUND:                -0.329
REMARK SMILES O=c1c(O)c(-c2ccc(O)c(O)c2)oc2cc(O)cc(O)c12
REMARK SMILES IDX 5 1 3 2 2 3 1 4 22 5 20 6 19 7 17 8 16 9 15 10 14 11 6 12
REMARK SMILES IDX 7 13 8 14 9 15 13 16 11 17 10 18 12 20 4 22 21 24 18 26
REMARK H PARENT 10 19 12 21 4 23 21 25 18 27
REMARK Flexibility Score: inf
ROOT
ATOM      1  C   UNL     1     480.652  39.085 460.171  1.00  0.00     0.180 A 
ATOM      2  C   UNL     1     479.846  40.226 460.020  1.00  0.00     0.208 A 
ATOM      3  C   UNL     1     478.512  40.182 460.458  1.00  0.00     0.238 A 
ATOM      4  O   UNL     1     477.781  41.189 460.271  1.00  0.00    -0.285 OA
ATOM      5  C   UNL     1     478.006  39.002 461.055  1.00  0.00     0.111 A 
ATOM      6  C   UNL     1     476.683  38.858 461.570  1.00  0.00     0.134 A 
ATOM      7  C   UNL     1     476.250  37.605 462.021  1.00  0.00     0.093 A 
ATOM      8  C   UNL     1     477.110  36.508 462.034  1.00  0.00     0.123 A 
ATOM      9  C   UNL     1     478.424  36.652 461.588  1.00  0.00     0.094 A 
ATOM     10  C   UNL     1     478.874  37.881 461.100  1.00  0.00     0.146 A 
ATOM     11  O   UNL     1     480.129  37.972 460.674  1.00  0.00    -0.452 OA
ENDROOT
BRANCH   1  12
ATOM     12  C   UNL     1     482.073  39.063 459.756  1.00  0.00     0.025 A 
ATOM     13  C   UNL     1     483.019  39.795 460.493  1.00  0.00     0.016 A 
ATOM     14  C   UNL     1     484.362  39.806 460.107  1.00  0.00     0.051 A 
ATOM     15  C   UNL     1     484.776  39.099 458.971  1.00  0.00     0.157 A 
ATOM     16  C   UNL     1     482.489  38.372 458.605  1.00  0.00     0.062 A 
ATOM     17  C   UNL     1     483.834  38.382 458.214  1.00  0.00     0.158 A 
BRANCH  15  18
ATOM     18  O   UNL     1     486.117  39.110 458.589  1.00  0.00    -0.504 OA
ATOM     19  H   UNL     1     486.650  38.252 458.500  1.00  0.00     0.293 HD
ENDBRANCH  15  18
BRANCH  17  20
ATOM     20  O   UNL     1     484.212  37.681 457.070  1.00  0.00    -0.504 OA
ATOM     21  H   UNL     1     485.180  37.604 456.780  1.00  0.00     0.293 HD
ENDBRANCH  17  20
ENDBRANCH   1  12
BRANCH   2  22
ATOM     22  O   UNL     1     480.359  41.373 459.408  1.00  0.00    -0.502 OA
ATOM     23  H   UNL     1     480.528  42.232 459.918  1.00  0.00     0.293 HD
ENDBRANCH   2  22
BRANCH   6  24
ATOM     24  O   UNL     1     475.772  39.913 461.688  1.00  0.00    -0.507 OA
ATOM     25  H   UNL     1     474.769  39.811 461.658  1.00  0.00     0.293 HD
ENDBRANCH   6  24
BRANCH   8  26
ATOM     26  O   UNL     1     476.649  35.280 462.504  1.00  0.00    -0.508 OA
ATOM     27  H   UNL     1     477.290  34.549 462.793  1.00  0.00     0.293 HD
ENDBRANCH   8  26
TORSDOF 6
ENDMDL
MODEL 9
REMARK VINA RESULT:    -5.114      2.407      7.223
REMARK INTER + INTRA:          -6.490
REMARK INTER:                  -6.175
REMARK INTRA:                  -0.314
REMARK UNBOUND:                -0.329
REMARK SMILES O=c1c(O)c(-c2ccc(O)c(O)c2)oc2cc(O)cc(O)c12
REMARK SMILES IDX 5 1 3 2 2 3 1 4 22 5 20 6 19 7 17 8 16 9 15 10 14 11 6 12
REMARK SMILES IDX 7 13 8 14 9 15 13 16 11 17 10 18 12 20 4 22 21 24 18 26
REMARK H PARENT 10 19 12 21 4 23 21 25 18 27
REMARK Flexibility Score: inf
ROOT
ATOM      1  C   UNL     1     480.640  38.970 461.185  1.00  0.00     0.180 A 
ATOM      2  C   UNL     1     481.507  39.366 462.217  1.00  0.00     0.208 A 
ATOM      3  C   UNL     1     482.882  39.470 461.950  1.00  0.00     0.238 A 
ATOM      4  O   UNL     1     483.659  39.773 462.892  1.00  0.00    -0.285 OA
ATOM      5  C   UNL     1     483.370  39.192 460.650  1.00  0.00     0.111 A 
ATOM      6  C   UNL     1     484.737  39.304 460.257  1.00  0.00     0.134 A 
ATOM      7  C   UNL     1     485.126  38.880 458.980  1.00  0.00     0.093 A 
ATOM      8  C   UNL     1     484.189  38.408 458.062  1.00  0.00     0.123 A 
ATOM      9  C   UNL     1     482.840  38.350 458.416  1.00  0.00     0.094 A 
ATOM     10  C   UNL     1     482.427  38.734 459.694  1.00  0.00     0.146 A 
ATOM     11  O   UNL     1     481.136  38.653 459.994  1.00  0.00    -0.452 OA
ENDROOT
BRANCH   1  12
ATOM     12  C   UNL     1     479.177  38.862 461.383  1.00  0.00     0.025 A 
ATOM     13  C   UNL     1     478.378  40.013 461.279  1.00  0.00     0.016 A 
ATOM     14  C   UNL     1     476.998  39.937 461.483  1.00  0.00     0.051 A 
ATOM     15  C   UNL     1     476.398  38.714 461.810  1.00  0.00     0.157 A 
ATOM     16  C   UNL     1     478.574  37.641 461.732  1.00  0.00     0.062 A 
ATOM     17  C   UNL     1     477.191  37.561 461.938  1.00  0.00     0.158 A 
BRANCH  15  18
ATOM     18  O   UNL     1     475.021  38.641 462.011  1.00  0.00    -0.504 OA
ATOM     19  H   UNL     1     474.368  38.693 461.237  1.00  0.00     0.293 HD
ENDBRANCH  15  18
BRANCH  17  20
ATOM     20  O   UNL     1     476.626  36.332 462.278  1.00  0.00    -0.504 OA
ATOM     21  H   UNL     1     477.168  35.477 462.294  1.00  0.00     0.293 HD
ENDBRANCH  17  20
ENDBRANCH   1  12
BRANCH   2  22
ATOM     22  O   UNL     1     481.007  39.614 463.499  1.00  0.00    -0.502 OA
ATOM     23  H   UNL     1     480.391  40.392 463.701  1.00  0.00     0.293 HD
ENDBRANCH   2  22
BRANCH   6  24
ATOM     24  O   UNL     1     485.740  39.848 461.066  1.00  0.00    -0.507 OA
ATOM     25  H   UNL     1     486.715  39.904 460.813  1.00  0.00     0.293 HD
ENDBRANCH   6  24
BRANCH   8  26
ATOM     26  O   UNL     1     484.609  38.008 456.796  1.00  0.00    -0.508 OA
ATOM     27  H   UNL     1     484.619  38.652 456.013  1.00  0.00     0.293 HD
ENDBRANCH   8  26
TORSDOF 6
ENDMDL
