MODEL 1
REMARK VINA RESULT:    -3.409      0.000      0.000
REMARK INTER + INTRA:          -3.508
REMARK INTER:                  -3.508
REMARK INTRA:                   0.000
REMARK UNBOUND:                 0.000
REMARK SMILES CC1(C)[C@H]2CC[C@](C)(C2)[C@@H]1O
REMARK SMILES IDX 1 1 2 2 4 3 5 4 6 5 7 6 9 7 10 8 8 9 3 10 11 11
REMARK H PARENT 11 12
REMARK Flexibility Score: inf
ROOT
ATOM      1  C   UNL     1     143.991 139.477 141.644  1.00  0.00     0.014 C 
ATOM      2  C   UNL     1     144.093 140.243 142.985  1.00  0.00    -0.006 C 
ATOM      3  C   UNL     1     145.449 141.006 143.169  1.00  0.00    -0.002 C 
ATOM      4  C   UNL     1     145.802 141.835 141.916  1.00  0.00     0.005 C 
ATOM      5  C   UNL     1     144.731 142.935 141.922  1.00  0.00     0.010 C 
ATOM      6  C   UNL     1     143.967 142.661 143.239  1.00  0.00    -0.006 C 
ATOM      7  C   UNL     1     145.068 142.123 144.125  1.00  0.00     0.013 C 
ATOM      8  C   UNL     1     143.056 141.418 143.044  1.00  0.00     0.126 C 
ATOM      9  C   UNL     1     143.258 143.902 143.797  1.00  0.00     0.014 C 
ATOM     10  C   UNL     1     143.919 139.205 144.125  1.00  0.00     0.014 C 
ENDROOT
BRANCH   8  11
ATOM     11  O   UNL     1     142.163 141.287 144.124  1.00  0.00    -0.392 OA
ATOM     12  H   UNL     1     141.421 141.926 143.957  1.00  0.00     0.211 HD
ENDBRANCH   8  11
TORSDOF 1
ENDMDL
MODEL 2
REMARK VINA RESULT:    -3.401      3.648      5.387
REMARK INTER + INTRA:          -3.500
REMARK INTER:                  -3.500
REMARK INTRA:                   0.000
REMARK UNBOUND:                 0.000
REMARK SMILES CC1(C)[C@H]2CC[C@](C)(C2)[C@@H]1O
REMARK SMILES IDX 1 1 2 2 4 3 5 4 6 5 7 6 9 7 10 8 8 9 3 10 11 11
REMARK H PARENT 11 12
REMARK Flexibility Score: inf
ROOT
ATOM      1  C   UNL     1     139.460 137.649 141.643  1.00  0.00     0.014 C 
ATOM      2  C   UNL     1     140.230 137.543 142.982  1.00  0.00    -0.006 C 
ATOM      3  C   UNL     1     140.979 136.179 143.168  1.00  0.00    -0.002 C 
ATOM      4  C   UNL     1     141.798 135.812 141.912  1.00  0.00     0.005 C 
ATOM      5  C   UNL     1     142.910 136.871 141.910  1.00  0.00     0.010 C 
ATOM      6  C   UNL     1     142.650 137.642 143.225  1.00  0.00    -0.006 C 
ATOM      7  C   UNL     1     142.103 136.551 144.117  1.00  0.00     0.013 C 
ATOM      8  C   UNL     1     141.417 138.566 143.032  1.00  0.00     0.126 C 
ATOM      9  C   UNL     1     143.901 138.339 143.776  1.00  0.00     0.014 C 
ATOM     10  C   UNL     1     139.198 137.732 144.125  1.00  0.00     0.014 C 
ENDROOT
BRANCH   8  11
ATOM     11  O   UNL     1     141.300 139.465 144.109  1.00  0.00    -0.392 OA
ATOM     12  H   UNL     1     142.140 139.994 144.128  1.00  0.00     0.211 HD
ENDBRANCH   8  11
TORSDOF 1
ENDMDL
MODEL 3
REMARK VINA RESULT:    -3.395      3.624      5.338
REMARK INTER + INTRA:          -3.495
REMARK INTER:                  -3.495
REMARK INTRA:                   0.000
REMARK UNBOUND:                 0.000
REMARK SMILES CC1(C)[C@H]2CC[C@](C)(C2)[C@@H]1O
REMARK SMILES IDX 1 1 2 2 4 3 5 4 6 5 7 6 9 7 10 8 8 9 3 10 11 11
REMARK H PARENT 11 12
REMARK Flexibility Score: inf
ROOT
ATOM      1  C   UNL     1     142.146 143.910 141.643  1.00  0.00     0.014 C 
ATOM      2  C   UNL     1     141.379 144.019 142.984  1.00  0.00    -0.006 C 
ATOM      3  C   UNL     1     140.634 145.385 143.169  1.00  0.00    -0.002 C 
ATOM      4  C   UNL     1     139.812 145.752 141.916  1.00  0.00     0.005 C 
ATOM      5  C   UNL     1     138.698 144.695 141.918  1.00  0.00     0.010 C 
ATOM      6  C   UNL     1     138.959 143.926 143.233  1.00  0.00    -0.006 C 
ATOM      7  C   UNL     1     139.511 145.017 144.122  1.00  0.00     0.013 C 
ATOM      8  C   UNL     1     140.190 142.998 143.038  1.00  0.00     0.126 C 
ATOM      9  C   UNL     1     137.709 143.232 143.788  1.00  0.00     0.014 C 
ATOM     10  C   UNL     1     142.413 143.829 144.125  1.00  0.00     0.014 C 
ENDROOT
BRANCH   8  11
ATOM     11  O   UNL     1     140.308 142.101 144.116  1.00  0.00    -0.392 OA
ATOM     12  H   UNL     1     139.484 142.204 144.661  1.00  0.00     0.211 HD
ENDBRANCH   8  11
TORSDOF 1
ENDMDL
MODEL 4
REMARK VINA RESULT:    -3.385      5.898      7.548
REMARK INTER + INTRA:          -3.484
REMARK INTER:                  -3.484
REMARK INTRA:                   0.000
REMARK UNBOUND:                 0.000
REMARK SMILES CC1(C)[C@H]2CC[C@](C)(C2)[C@@H]1O
REMARK SMILES IDX 1 1 2 2 4 3 5 4 6 5 7 6 9 7 10 8 8 9 3 10 11 11
REMARK H PARENT 11 12
REMARK Flexibility Score: inf
ROOT
ATOM      1  C   UNL     1     137.667 142.115 141.644  1.00  0.00     0.014 C 
ATOM      2  C   UNL     1     137.577 141.347 142.985  1.00  0.00    -0.006 C 
ATOM      3  C   UNL     1     136.232 140.565 143.170  1.00  0.00    -0.002 C 
ATOM      4  C   UNL     1     135.890 139.731 141.917  1.00  0.00     0.005 C 
ATOM      5  C   UNL     1     136.977 138.647 141.922  1.00  0.00     0.010 C 
ATOM      6  C   UNL     1     137.737 138.932 143.238  1.00  0.00    -0.006 C 
ATOM      7  C   UNL     1     136.630 139.454 144.125  1.00  0.00     0.013 C 
ATOM      8  C   UNL     1     138.630 140.188 143.042  1.00  0.00     0.126 C 
ATOM      9  C   UNL     1     138.465 137.701 143.795  1.00  0.00     0.014 C 
ATOM     10  C   UNL     1     137.736 142.388 144.125  1.00  0.00     0.014 C 
ENDROOT
BRANCH   8  11
ATOM     11  O   UNL     1     139.522 140.331 144.122  1.00  0.00    -0.392 OA
ATOM     12  H   UNL     1     140.433 140.169 143.760  1.00  0.00     0.211 HD
ENDBRANCH   8  11
TORSDOF 1
ENDMDL
MODEL 5
REMARK VINA RESULT:    -3.218      3.884      5.683
REMARK INTER + INTRA:          -3.312
REMARK INTER:                  -3.312
REMARK INTRA:                   0.000
REMARK UNBOUND:                 0.000
REMARK SMILES CC1(C)[C@H]2CC[C@](C)(C2)[C@@H]1O
REMARK SMILES IDX 1 1 2 2 4 3 5 4 6 5 7 6 9 7 10 8 8 9 3 10 11 11
REMARK H PARENT 11 12
REMARK Flexibility Score: inf
ROOT
ATOM      1  C   UNL     1     137.892 143.259 143.815  1.00  0.00     0.014 C 
ATOM      2  C   UNL     1     138.770 143.580 142.580  1.00  0.00    -0.006 C 
ATOM      3  C   UNL     1     139.213 145.081 142.500  1.00  0.00    -0.002 C 
ATOM      4  C   UNL     1     139.779 145.573 143.849  1.00  0.00     0.005 C 
ATOM      5  C   UNL     1     141.091 144.785 143.975  1.00  0.00     0.010 C 
ATOM      6  C   UNL     1     141.163 144.024 142.631  1.00  0.00    -0.006 C 
ATOM      7  C   UNL     1     140.494 145.000 141.690  1.00  0.00     0.013 C 
ATOM      8  C   UNL     1     140.152 142.845 142.664  1.00  0.00     0.126 C 
ATOM      9  C   UNL     1     142.593 143.639 142.229  1.00  0.00     0.014 C 
ATOM     10  C   UNL     1     137.946 143.211 141.319  1.00  0.00     0.014 C 
ENDROOT
BRANCH   8  11
ATOM     11  O   UNL     1     140.364 141.983 141.572  1.00  0.00    -0.392 OA
ATOM     12  H   UNL     1     141.340 141.993 141.388  1.00  0.00     0.211 HD
ENDBRANCH   8  11
TORSDOF 1
ENDMDL
MODEL 6
REMARK VINA RESULT:    -3.182      1.182      3.304
REMARK INTER + INTRA:          -3.275
REMARK INTER:                  -3.275
REMARK INTRA:                   0.000
REMARK UNBOUND:                 0.000
REMARK SMILES CC1(C)[C@H]2CC[C@](C)(C2)[C@@H]1O
REMARK SMILES IDX 1 1 2 2 4 3 5 4 6 5 7 6 9 7 10 8 8 9 3 10 11 11
REMARK H PARENT 11 12
REMARK Flexibility Score: inf
ROOT
ATOM      1  C   UNL     1     143.208 143.776 143.784  1.00  0.00     0.014 C 
ATOM      2  C   UNL     1     143.566 142.848 142.597  1.00  0.00    -0.006 C 
ATOM      3  C   UNL     1     145.064 142.389 142.590  1.00  0.00    -0.002 C 
ATOM      4  C   UNL     1     145.500 141.872 143.977  1.00  0.00     0.005 C 
ATOM      5  C   UNL     1     144.695 140.574 144.125  1.00  0.00     0.010 C 
ATOM      6  C   UNL     1     143.983 140.455 142.757  1.00  0.00    -0.006 C 
ATOM      7  C   UNL     1     145.000 141.078 141.828  1.00  0.00     0.013 C 
ATOM      8  C   UNL     1     142.814 141.477 142.707  1.00  0.00     0.126 C 
ATOM      9  C   UNL     1     143.599 139.014 142.397  1.00  0.00     0.014 C 
ATOM     10  C   UNL     1     143.252 143.625 141.291  1.00  0.00     0.014 C 
ENDROOT
BRANCH   8  11
ATOM     11  O   UNL     1     141.991 141.230 141.593  1.00  0.00    -0.392 OA
ATOM     12  H   UNL     1     141.282 140.604 141.897  1.00  0.00     0.211 HD
ENDBRANCH   8  11
TORSDOF 1
ENDMDL
MODEL 7
REMARK VINA RESULT:    -3.175      3.614      5.427
REMARK INTER + INTRA:          -3.268
REMARK INTER:                  -3.268
REMARK INTRA:                   0.000
REMARK UNBOUND:                 0.000
REMARK SMILES CC1(C)[C@H]2CC[C@](C)(C2)[C@@H]1O
REMARK SMILES IDX 1 1 2 2 4 3 5 4 6 5 7 6 9 7 10 8 8 9 3 10 11 11
REMARK H PARENT 11 12
REMARK Flexibility Score: inf
ROOT
ATOM      1  C   UNL     1     143.861 138.384 143.605  1.00  0.00     0.014 C 
ATOM      2  C   UNL     1     142.887 137.999 142.465  1.00  0.00    -0.006 C 
ATOM      3  C   UNL     1     142.391 136.515 142.540  1.00  0.00    -0.002 C 
ATOM      4  C   UNL     1     141.906 136.155 143.960  1.00  0.00     0.005 C 
ATOM      5  C   UNL     1     140.633 137.001 144.110  1.00  0.00     0.010 C 
ATOM      6  C   UNL     1     140.491 137.653 142.715  1.00  0.00    -0.006 C 
ATOM      7  C   UNL     1     141.058 136.579 141.815  1.00  0.00     0.013 C 
ATOM      8  C   UNL     1     141.540 138.792 142.581  1.00  0.00     0.126 C 
ATOM      9  C   UNL     1     139.050 138.060 142.381  1.00  0.00     0.014 C 
ATOM     10  C   UNL     1     143.631 138.233 141.123  1.00  0.00     0.014 C 
ENDROOT
BRANCH   8  11
ATOM     11  O   UNL     1     141.279 139.570 141.438  1.00  0.00    -0.392 OA
ATOM     12  H   UNL     1     142.082 139.499 140.858  1.00  0.00     0.211 HD
ENDBRANCH   8  11
TORSDOF 1
ENDMDL
MODEL 8
REMARK VINA RESULT:    -3.175      3.234      4.771
REMARK INTER + INTRA:          -3.268
REMARK INTER:                  -3.268
REMARK INTRA:                   0.000
REMARK UNBOUND:                 0.000
REMARK SMILES CC1(C)[C@H]2CC[C@](C)(C2)[C@@H]1O
REMARK SMILES IDX 1 1 2 2 4 3 5 4 6 5 7 6 9 7 10 8 8 9 3 10 11 11
REMARK H PARENT 11 12
REMARK Flexibility Score: inf
ROOT
ATOM      1  C   UNL     1     140.763 136.038 144.050  1.00  0.00     0.014 C 
ATOM      2  C   UNL     1     141.684 136.928 143.181  1.00  0.00    -0.006 C 
ATOM      3  C   UNL     1     140.906 137.982 142.321  1.00  0.00    -0.002 C 
ATOM      4  C   UNL     1     139.871 138.749 143.172  1.00  0.00     0.005 C 
ATOM      5  C   UNL     1     140.754 139.584 144.110  1.00  0.00     0.010 C 
ATOM      6  C   UNL     1     142.181 139.273 143.603  1.00  0.00    -0.006 C 
ATOM      7  C   UNL     1     141.945 139.072 142.124  1.00  0.00     0.013 C 
ATOM      8  C   UNL     1     142.584 137.849 144.075  1.00  0.00     0.126 C 
ATOM      9  C   UNL     1     143.195 140.376 143.935  1.00  0.00     0.014 C 
ATOM     10  C   UNL     1     142.491 135.987 142.248  1.00  0.00     0.014 C 
ENDROOT
BRANCH   8  11
ATOM     11  O   UNL     1     143.957 137.627 143.855  1.00  0.00    -0.392 OA
ATOM     12  H   UNL     1     144.319 137.241 144.695  1.00  0.00     0.211 HD
ENDBRANCH   8  11
TORSDOF 1
ENDMDL
MODEL 9
REMARK VINA RESULT:    -3.150      1.619      3.240
REMARK INTER + INTRA:          -3.242
REMARK INTER:                  -3.242
REMARK INTRA:                   0.000
REMARK UNBOUND:                 0.000
REMARK SMILES CC1(C)[C@H]2CC[C@](C)(C2)[C@@H]1O
REMARK SMILES IDX 1 1 2 2 4 3 5 4 6 5 7 6 9 7 10 8 8 9 3 10 11 11
REMARK H PARENT 11 12
REMARK Flexibility Score: inf
ROOT
ATOM      1  C   UNL     1     141.688 142.106 143.336  1.00  0.00     0.014 C 
ATOM      2  C   UNL     1     143.153 142.571 143.147  1.00  0.00    -0.006 C 
ATOM      3  C   UNL     1     144.195 141.683 143.909  1.00  0.00    -0.002 C 
ATOM      4  C   UNL     1     143.949 140.182 143.651  1.00  0.00     0.005 C 
ATOM      5  C   UNL     1     144.314 140.027 142.168  1.00  0.00     0.010 C 
ATOM      6  C   UNL     1     144.828 141.436 141.794  1.00  0.00    -0.006 C 
ATOM      7  C   UNL     1     145.458 141.888 143.092  1.00  0.00     0.013 C 
ATOM      8  C   UNL     1     143.613 142.396 141.659  1.00  0.00     0.126 C 
ATOM      9  C   UNL     1     145.786 141.433 140.595  1.00  0.00     0.014 C 
ATOM     10  C   UNL     1     143.243 144.034 143.657  1.00  0.00     0.014 C 
ENDROOT
BRANCH   8  11
ATOM     11  O   UNL     1     144.010 143.615 141.077  1.00  0.00    -0.392 OA
ATOM     12  H   UNL     1     144.058 144.278 141.814  1.00  0.00     0.211 HD
ENDBRANCH   8  11
TORSDOF 1
ENDMDL
