MODEL 1
REMARK VINA RESULT:    -3.608      0.000      0.000
REMARK INTER + INTRA:         -10.535
REMARK INTER:                  -9.091
REMARK INTRA:                  -1.444
REMARK UNBOUND:                -1.444
REMARK SMILES CCCCCCCCCCCCCCCCCCCCCCCCCCCC(=O)[O-]
REMARK SMILES IDX 15 1 16 2 17 3 18 4 19 5 20 6 21 7 22 8 23 9 24 10 25 11
REMARK SMILES IDX 26 12 27 13 28 14 29 15 30 16 14 17 13 18 12 19 11 20 10 21
REMARK SMILES IDX 9 22 8 23 7 24 6 25 5 26 4 27 3 28 2 29 1 30
REMARK H PARENT
REMARK Flexibility Score: inf
ROOT
ATOM      1  C   UNL     1       8.802  -5.575  -6.428  1.00  0.00     0.000 C 
ENDROOT
BRANCH   1   2
ATOM      2  C   UNL     1       8.373  -4.125  -6.147  1.00  0.00     0.000 C 
BRANCH   2   3
ATOM      3  C   UNL     1       8.088  -3.884  -4.655  1.00  0.00     0.000 C 
BRANCH   3   4
ATOM      4  C   UNL     1       8.961  -4.746  -3.729  1.00  0.00     0.000 C 
BRANCH   4   5
ATOM      5  C   UNL     1       8.168  -5.780  -2.900  1.00  0.00     0.000 C 
BRANCH   5   6
ATOM      6  C   UNL     1       8.971  -7.025  -2.467  1.00  0.00     0.000 C 
BRANCH   6   7
ATOM      7  C   UNL     1       8.149  -8.165  -1.830  1.00  0.00     0.000 C 
BRANCH   7   8
ATOM      8  C   UNL     1       8.945  -9.123  -0.926  1.00  0.00     0.000 C 
BRANCH   8   9
ATOM      9  C   UNL     1       8.042 -10.074  -0.127  1.00  0.00     0.000 C 
BRANCH   9  10
ATOM     10  C   UNL     1       6.727  -9.385   0.264  1.00  0.00     0.000 C 
BRANCH  10  11
ATOM     11  C   UNL     1       5.978 -10.115   1.392  1.00  0.00     0.000 C 
BRANCH  11  12
ATOM     12  C   UNL     1       6.714 -10.157   2.748  1.00  0.00     0.006 C 
BRANCH  12  13
ATOM     13  C   UNL     1       5.882 -10.763   3.895  1.00  0.00     0.053 C 
BRANCH  13  14
ATOM     14  C   UNL     1       4.596 -10.027   4.126  1.00  0.00     0.041 C 
ATOM     15  O   UNL     1       4.612  -8.818   4.474  1.00  0.00    -0.550 OA
ATOM     16  O   UNL     1       3.380 -10.687   3.999  1.00  0.00    -0.550 OA
ENDBRANCH  13  14
ENDBRANCH  12  13
ENDBRANCH  11  12
ENDBRANCH  10  11
ENDBRANCH   9  10
ENDBRANCH   8   9
ENDBRANCH   7   8
ENDBRANCH   6   7
ENDBRANCH   5   6
ENDBRANCH   4   5
ENDBRANCH   3   4
ENDBRANCH   2   3
ENDBRANCH   1   2
BRANCH   1  17
ATOM     17  C   UNL     1       8.114  -6.176  -7.675  1.00  0.00     0.000 C 
BRANCH  17  18
ATOM     18  C   UNL     1       8.582  -7.606  -8.008  1.00  0.00     0.000 C 
BRANCH  18  19
ATOM     19  C   UNL     1       9.099  -8.418  -6.802  1.00  0.00     0.000 C 
BRANCH  19  20
ATOM     20  C   UNL     1       8.904  -9.945  -6.909  1.00  0.00     0.000 C 
BRANCH  20  21
ATOM     21  C   UNL     1       7.436 -10.415  -7.028  1.00  0.00     0.000 C 
BRANCH  21  22
ATOM     22  C   UNL     1       7.061 -10.989  -8.411  1.00  0.00    -0.000 C 
BRANCH  22  23
ATOM     23  C   UNL     1       7.157 -10.001  -9.592  1.00  0.00    -0.000 C 
BRANCH  23  24
ATOM     24  C   UNL     1       7.296 -10.650 -10.981  1.00  0.00    -0.000 C 
BRANCH  24  25
ATOM     25  C   UNL     1       5.953 -11.125 -11.561  1.00  0.00    -0.000 C 
BRANCH  25  26
ATOM     26  C   UNL     1       5.032  -9.943 -11.913  1.00  0.00    -0.000 C 
BRANCH  26  27
ATOM     27  C   UNL     1       3.565 -10.232 -11.542  1.00  0.00    -0.000 C 
BRANCH  27  28
ATOM     28  C   UNL     1       2.581  -9.201 -12.123  1.00  0.00    -0.000 C 
BRANCH  28  29
ATOM     29  C   UNL     1       2.488  -7.882 -11.336  1.00  0.00    -0.003 C 
ATOM     30  C   UNL     1       3.261  -6.737 -11.990  1.00  0.00     0.004 C 
ENDBRANCH  28  29
ENDBRANCH  27  28
ENDBRANCH  26  27
ENDBRANCH  25  26
ENDBRANCH  24  25
ENDBRANCH  23  24
ENDBRANCH  22  23
ENDBRANCH  21  22
ENDBRANCH  20  21
ENDBRANCH  19  20
ENDBRANCH  18  19
ENDBRANCH  17  18
ENDBRANCH   1  17
TORSDOF 26
ENDMDL
MODEL 2
REMARK VINA RESULT:    -2.976      1.601      2.371
REMARK INTER + INTRA:          -8.942
REMARK INTER:                  -7.972
REMARK INTRA:                  -0.970
REMARK UNBOUND:                -1.444
REMARK SMILES CCCCCCCCCCCCCCCCCCCCCCCCCCCC(=O)[O-]
REMARK SMILES IDX 15 1 16 2 17 3 18 4 19 5 20 6 21 7 22 8 23 9 24 10 25 11
REMARK SMILES IDX 26 12 27 13 28 14 29 15 30 16 14 17 13 18 12 19 11 20 10 21
REMARK SMILES IDX 9 22 8 23 7 24 6 25 5 26 4 27 3 28 2 29 1 30
REMARK H PARENT
REMARK Flexibility Score: inf
ROOT
ATOM      1  C   UNL     1       7.233  -4.797  -5.594  1.00  0.00     0.000 C 
ENDROOT
BRANCH   1   2
ATOM      2  C   UNL     1       7.644  -4.162  -4.255  1.00  0.00     0.000 C 
BRANCH   2   3
ATOM      3  C   UNL     1       8.618  -5.053  -3.466  1.00  0.00     0.000 C 
BRANCH   3   4
ATOM      4  C   UNL     1       8.010  -6.410  -3.074  1.00  0.00     0.000 C 
BRANCH   4   5
ATOM      5  C   UNL     1       8.846  -7.198  -2.043  1.00  0.00     0.000 C 
BRANCH   5   6
ATOM      6  C   UNL     1       8.082  -8.312  -1.297  1.00  0.00     0.000 C 
BRANCH   6   7
ATOM      7  C   UNL     1       8.956  -9.389  -0.621  1.00  0.00     0.000 C 
BRANCH   7   8
ATOM      8  C   UNL     1       8.524  -9.789   0.800  1.00  0.00     0.000 C 
BRANCH   8   9
ATOM      9  C   UNL     1       7.241 -10.634   0.816  1.00  0.00     0.000 C 
BRANCH   9  10
ATOM     10  C   UNL     1       6.792 -10.925   2.255  1.00  0.00     0.000 C 
BRANCH  10  11
ATOM     11  C   UNL     1       6.314  -9.668   3.002  1.00  0.00     0.000 C 
BRANCH  11  12
ATOM     12  C   UNL     1       5.658  -9.928   4.374  1.00  0.00     0.006 C 
BRANCH  12  13
ATOM     13  C   UNL     1       4.165 -10.301   4.295  1.00  0.00     0.053 C 
BRANCH  13  14
ATOM     14  C   UNL     1       3.264  -9.139   4.588  1.00  0.00     0.041 C 
ATOM     15  O   UNL     1       3.040  -8.795   5.777  1.00  0.00    -0.550 OA
ATOM     16  O   UNL     1       2.636  -8.463   3.549  1.00  0.00    -0.550 OA
ENDBRANCH  13  14
ENDBRANCH  12  13
ENDBRANCH  11  12
ENDBRANCH  10  11
ENDBRANCH   9  10
ENDBRANCH   8   9
ENDBRANCH   7   8
ENDBRANCH   6   7
ENDBRANCH   5   6
ENDBRANCH   4   5
ENDBRANCH   3   4
ENDBRANCH   2   3
ENDBRANCH   1   2
BRANCH   1  17
ATOM     17  C   UNL     1       8.021  -4.232  -6.797  1.00  0.00     0.000 C 
BRANCH  17  18
ATOM     18  C   UNL     1       9.124  -5.177  -7.311  1.00  0.00     0.000 C 
BRANCH  18  19
ATOM     19  C   UNL     1       8.801  -5.888  -8.642  1.00  0.00     0.000 C 
BRANCH  19  20
ATOM     20  C   UNL     1       9.019  -7.416  -8.637  1.00  0.00     0.000 C 
BRANCH  20  21
ATOM     21  C   UNL     1       7.790  -8.258  -9.053  1.00  0.00     0.000 C 
BRANCH  21  22
ATOM     22  C   UNL     1       7.837  -9.728  -8.585  1.00  0.00    -0.000 C 
BRANCH  22  23
ATOM     23  C   UNL     1       8.883 -10.618  -9.286  1.00  0.00    -0.000 C 
BRANCH  23  24
ATOM     24  C   UNL     1       8.945 -10.477 -10.818  1.00  0.00    -0.000 C 
BRANCH  24  25
ATOM     25  C   UNL     1       7.584 -10.700 -11.499  1.00  0.00    -0.000 C 
BRANCH  25  26
ATOM     26  C   UNL     1       6.750  -9.407 -11.549  1.00  0.00    -0.000 C 
BRANCH  26  27
ATOM     27  C   UNL     1       5.282  -9.659 -11.159  1.00  0.00    -0.000 C 
BRANCH  27  28
ATOM     28  C   UNL     1       5.056 -11.037 -10.512  1.00  0.00    -0.000 C 
BRANCH  28  29
ATOM     29  C   UNL     1       4.200 -11.019  -9.234  1.00  0.00    -0.003 C 
ATOM     30  C   UNL     1       4.245  -9.679  -8.501  1.00  0.00     0.004 C 
ENDBRANCH  28  29
ENDBRANCH  27  28
ENDBRANCH  26  27
ENDBRANCH  25  26
ENDBRANCH  24  25
ENDBRANCH  23  24
ENDBRANCH  22  23
ENDBRANCH  21  22
ENDBRANCH  20  21
ENDBRANCH  19  20
ENDBRANCH  18  19
ENDBRANCH  17  18
ENDBRANCH   1  17
TORSDOF 26
ENDMDL
MODEL 3
REMARK VINA RESULT:    -2.194      1.393      2.799
REMARK INTER + INTRA:          -6.974
REMARK INTER:                  -5.588
REMARK INTRA:                  -1.386
REMARK UNBOUND:                -1.444
REMARK SMILES CCCCCCCCCCCCCCCCCCCCCCCCCCCC(=O)[O-]
REMARK SMILES IDX 15 1 16 2 17 3 18 4 19 5 20 6 21 7 22 8 23 9 24 10 25 11
REMARK SMILES IDX 26 12 27 13 28 14 29 15 30 16 14 17 13 18 12 19 11 20 10 21
REMARK SMILES IDX 9 22 8 23 7 24 6 25 5 26 4 27 3 28 2 29 1 30
REMARK H PARENT
REMARK Flexibility Score: inf
ROOT
ATOM      1  C   UNL     1       9.052  -5.271  -5.480  1.00  0.00     0.000 C 
ENDROOT
BRANCH   1   2
ATOM      2  C   UNL     1       8.699  -4.230  -4.404  1.00  0.00     0.000 C 
BRANCH   2   3
ATOM      3  C   UNL     1       7.512  -4.674  -3.535  1.00  0.00     0.000 C 
BRANCH   3   4
ATOM      4  C   UNL     1       7.883  -5.772  -2.524  1.00  0.00     0.000 C 
BRANCH   4   5
ATOM      5  C   UNL     1       8.786  -6.882  -3.106  1.00  0.00     0.000 C 
BRANCH   5   6
ATOM      6  C   UNL     1       8.036  -8.122  -3.638  1.00  0.00     0.000 C 
BRANCH   6   7
ATOM      7  C   UNL     1       8.318  -9.446  -2.897  1.00  0.00     0.000 C 
BRANCH   7   8
ATOM      8  C   UNL     1       8.801  -9.296  -1.444  1.00  0.00     0.000 C 
BRANCH   8   9
ATOM      9  C   UNL     1       7.698  -9.592  -0.418  1.00  0.00     0.000 C 
BRANCH   9  10
ATOM     10  C   UNL     1       8.291 -10.169   0.877  1.00  0.00     0.000 C 
BRANCH  10  11
ATOM     11  C   UNL     1       7.309 -10.124   2.060  1.00  0.00     0.000 C 
BRANCH  11  12
ATOM     12  C   UNL     1       5.816 -10.215   1.678  1.00  0.00     0.006 C 
BRANCH  12  13
ATOM     13  C   UNL     1       4.928 -10.844   2.769  1.00  0.00     0.053 C 
BRANCH  13  14
ATOM     14  C   UNL     1       4.560  -9.868   3.846  1.00  0.00     0.041 C 
ATOM     15  O   UNL     1       5.397  -9.557   4.733  1.00  0.00    -0.550 OA
ATOM     16  O   UNL     1       3.278  -9.334   3.898  1.00  0.00    -0.550 OA
ENDBRANCH  13  14
ENDBRANCH  12  13
ENDBRANCH  11  12
ENDBRANCH  10  11
ENDBRANCH   9  10
ENDBRANCH   8   9
ENDBRANCH   7   8
ENDBRANCH   6   7
ENDBRANCH   5   6
ENDBRANCH   4   5
ENDBRANCH   3   4
ENDBRANCH   2   3
ENDBRANCH   1   2
BRANCH   1  17
ATOM     17  C   UNL     1       9.104  -4.673  -6.904  1.00  0.00     0.000 C 
BRANCH  17  18
ATOM     18  C   UNL     1       8.290  -5.474  -7.939  1.00  0.00     0.000 C 
BRANCH  18  19
ATOM     19  C   UNL     1       9.081  -6.575  -8.676  1.00  0.00     0.000 C 
BRANCH  19  20
ATOM     20  C   UNL     1       8.287  -7.339  -9.756  1.00  0.00     0.000 C 
BRANCH  20  21
ATOM     21  C   UNL     1       9.125  -8.300 -10.632  1.00  0.00     0.000 C 
BRANCH  21  22
ATOM     22  C   UNL     1       8.391  -8.823 -11.885  1.00  0.00    -0.000 C 
BRANCH  22  23
ATOM     23  C   UNL     1       7.204  -9.771 -11.616  1.00  0.00    -0.000 C 
BRANCH  23  24
ATOM     24  C   UNL     1       5.839  -9.274 -12.125  1.00  0.00    -0.000 C 
BRANCH  24  25
ATOM     25  C   UNL     1       4.894  -8.842 -10.991  1.00  0.00    -0.000 C 
BRANCH  25  26
ATOM     26  C   UNL     1       3.887  -9.950 -10.632  1.00  0.00    -0.000 C 
BRANCH  26  27
ATOM     27  C   UNL     1       4.166 -10.546  -9.240  1.00  0.00    -0.000 C 
BRANCH  27  28
ATOM     28  C   UNL     1       5.473 -10.029  -8.613  1.00  0.00    -0.000 C 
BRANCH  28  29
ATOM     29  C   UNL     1       6.478 -11.125  -8.217  1.00  0.00    -0.003 C 
ATOM     30  C   UNL     1       7.923 -10.630  -8.182  1.00  0.00     0.004 C 
ENDBRANCH  28  29
ENDBRANCH  27  28
ENDBRANCH  26  27
ENDBRANCH  25  26
ENDBRANCH  24  25
ENDBRANCH  23  24
ENDBRANCH  22  23
ENDBRANCH  21  22
ENDBRANCH  20  21
ENDBRANCH  19  20
ENDBRANCH  18  19
ENDBRANCH  17  18
ENDBRANCH   1  17
TORSDOF 26
ENDMDL
MODEL 4
REMARK VINA RESULT:    -1.809      1.218      2.028
REMARK INTER + INTRA:          -6.003
REMARK INTER:                  -4.632
REMARK INTRA:                  -1.371
REMARK UNBOUND:                -1.444
REMARK SMILES CCCCCCCCCCCCCCCCCCCCCCCCCCCC(=O)[O-]
REMARK SMILES IDX 15 1 16 2 17 3 18 4 19 5 20 6 21 7 22 8 23 9 24 10 25 11
REMARK SMILES IDX 26 12 27 13 28 14 29 15 30 16 14 17 13 18 12 19 11 20 10 21
REMARK SMILES IDX 9 22 8 23 7 24 6 25 5 26 4 27 3 28 2 29 1 30
REMARK H PARENT
REMARK Flexibility Score: inf
ROOT
ATOM      1  C   UNL     1       7.222  -4.447  -5.472  1.00  0.00     0.000 C 
ENDROOT
BRANCH   1   2
ATOM      2  C   UNL     1       7.772  -3.920  -4.136  1.00  0.00     0.000 C 
BRANCH   2   3
ATOM      3  C   UNL     1       8.761  -4.903  -3.489  1.00  0.00     0.000 C 
BRANCH   3   4
ATOM      4  C   UNL     1       8.179  -6.315  -3.313  1.00  0.00     0.000 C 
BRANCH   4   5
ATOM      5  C   UNL     1       8.949  -7.190  -2.299  1.00  0.00     0.000 C 
BRANCH   5   6
ATOM      6  C   UNL     1       8.102  -8.268  -1.592  1.00  0.00     0.000 C 
BRANCH   6   7
ATOM      7  C   UNL     1       8.894  -9.397  -0.900  1.00  0.00     0.000 C 
BRANCH   7   8
ATOM      8  C   UNL     1       8.394  -9.789   0.501  1.00  0.00     0.000 C 
BRANCH   8   9
ATOM      9  C   UNL     1       6.967  -9.295   0.782  1.00  0.00     0.000 C 
BRANCH   9  10
ATOM     10  C   UNL     1       6.174 -10.334   1.589  1.00  0.00     0.000 C 
BRANCH  10  11
ATOM     11  C   UNL     1       6.660 -10.466   3.042  1.00  0.00     0.000 C 
BRANCH  11  12
ATOM     12  C   UNL     1       5.543 -10.522   4.105  1.00  0.00     0.006 C 
BRANCH  12  13
ATOM     13  C   UNL     1       4.968  -9.143   4.483  1.00  0.00     0.053 C 
BRANCH  13  14
ATOM     14  C   UNL     1       3.474  -9.093   4.374  1.00  0.00     0.041 C 
ATOM     15  O   UNL     1       2.819 -10.142   4.142  1.00  0.00    -0.550 OA
ATOM     16  O   UNL     1       2.806  -7.879   4.483  1.00  0.00    -0.550 OA
ENDBRANCH  13  14
ENDBRANCH  12  13
ENDBRANCH  11  12
ENDBRANCH  10  11
ENDBRANCH   9  10
ENDBRANCH   8   9
ENDBRANCH   7   8
ENDBRANCH   6   7
ENDBRANCH   5   6
ENDBRANCH   4   5
ENDBRANCH   3   4
ENDBRANCH   2   3
ENDBRANCH   1   2
BRANCH   1  17
ATOM     17  C   UNL     1       8.073  -4.016  -6.687  1.00  0.00     0.000 C 
BRANCH  17  18
ATOM     18  C   UNL     1       9.125  -5.061  -7.106  1.00  0.00     0.000 C 
BRANCH  18  19
ATOM     19  C   UNL     1       8.865  -5.733  -8.470  1.00  0.00     0.000 C 
BRANCH  19  20
ATOM     20  C   UNL     1       8.491  -7.229  -8.402  1.00  0.00     0.000 C 
BRANCH  20  21
ATOM     21  C   UNL     1       7.234  -7.630  -9.208  1.00  0.00     0.000 C 
BRANCH  21  22
ATOM     22  C   UNL     1       6.859  -9.124  -9.101  1.00  0.00    -0.000 C 
BRANCH  22  23
ATOM     23  C   UNL     1       7.668 -10.081  -9.998  1.00  0.00    -0.000 C 
BRANCH  23  24
ATOM     24  C   UNL     1       7.146 -10.230 -11.439  1.00  0.00    -0.000 C 
BRANCH  24  25
ATOM     25  C   UNL     1       5.870 -11.084 -11.532  1.00  0.00    -0.000 C 
BRANCH  25  26
ATOM     26  C   UNL     1       4.664 -10.260 -12.019  1.00  0.00    -0.000 C 
BRANCH  26  27
ATOM     27  C   UNL     1       3.429 -10.471 -11.124  1.00  0.00    -0.000 C 
BRANCH  27  28
ATOM     28  C   UNL     1       2.113 -10.046 -11.800  1.00  0.00    -0.000 C 
BRANCH  28  29
ATOM     29  C   UNL     1       1.763  -8.556 -11.652  1.00  0.00    -0.003 C 
ATOM     30  C   UNL     1       0.258  -8.297 -11.585  1.00  0.00     0.004 C 
ENDBRANCH  28  29
ENDBRANCH  27  28
ENDBRANCH  26  27
ENDBRANCH  25  26
ENDBRANCH  24  25
ENDBRANCH  23  24
ENDBRANCH  22  23
ENDBRANCH  21  22
ENDBRANCH  20  21
ENDBRANCH  19  20
ENDBRANCH  18  19
ENDBRANCH  17  18
ENDBRANCH   1  17
TORSDOF 26
ENDMDL
MODEL 5
REMARK VINA RESULT:    -1.561      1.665      4.090
REMARK INTER + INTRA:          -5.377
REMARK INTER:                  -3.697
REMARK INTRA:                  -1.680
REMARK UNBOUND:                -1.444
REMARK SMILES CCCCCCCCCCCCCCCCCCCCCCCCCCCC(=O)[O-]
REMARK SMILES IDX 15 1 16 2 17 3 18 4 19 5 20 6 21 7 22 8 23 9 24 10 25 11
REMARK SMILES IDX 26 12 27 13 28 14 29 15 30 16 14 17 13 18 12 19 11 20 10 21
REMARK SMILES IDX 9 22 8 23 7 24 6 25 5 26 4 27 3 28 2 29 1 30
REMARK H PARENT
REMARK Flexibility Score: inf
ROOT
ATOM      1  C   UNL     1       8.372  -6.085  -7.002  1.00  0.00     0.000 C 
ENDROOT
BRANCH   1   2
ATOM      2  C   UNL     1       7.682  -5.545  -5.738  1.00  0.00     0.000 C 
BRANCH   2   3
ATOM      3  C   UNL     1       8.634  -5.503  -4.532  1.00  0.00     0.000 C 
BRANCH   3   4
ATOM      4  C   UNL     1       7.925  -5.778  -3.195  1.00  0.00     0.000 C 
BRANCH   4   5
ATOM      5  C   UNL     1       8.809  -6.495  -2.152  1.00  0.00     0.000 C 
BRANCH   5   6
ATOM      6  C   UNL     1       8.245  -7.831  -1.624  1.00  0.00     0.000 C 
BRANCH   6   7
ATOM      7  C   UNL     1       9.116  -8.563  -0.582  1.00  0.00     0.000 C 
BRANCH   7   8
ATOM      8  C   UNL     1       8.873 -10.079  -0.471  1.00  0.00     0.000 C 
BRANCH   8   9
ATOM      9  C   UNL     1       8.338 -10.495   0.907  1.00  0.00     0.000 C 
BRANCH   9  10
ATOM     10  C   UNL     1       6.828 -10.232   1.013  1.00  0.00     0.000 C 
BRANCH  10  11
ATOM     11  C   UNL     1       6.434  -9.506   2.310  1.00  0.00     0.000 C 
BRANCH  11  12
ATOM     12  C   UNL     1       6.172 -10.425   3.522  1.00  0.00     0.006 C 
BRANCH  12  13
ATOM     13  C   UNL     1       5.276  -9.794   4.605  1.00  0.00     0.053 C 
BRANCH  13  14
ATOM     14  C   UNL     1       3.816 -10.020   4.348  1.00  0.00     0.041 C 
ATOM     15  O   UNL     1       3.286 -11.125   4.631  1.00  0.00    -0.550 OA
ATOM     16  O   UNL     1       3.049  -9.024   3.754  1.00  0.00    -0.550 OA
ENDBRANCH  13  14
ENDBRANCH  12  13
ENDBRANCH  11  12
ENDBRANCH  10  11
ENDBRANCH   9  10
ENDBRANCH   8   9
ENDBRANCH   7   8
ENDBRANCH   6   7
ENDBRANCH   5   6
ENDBRANCH   4   5
ENDBRANCH   3   4
ENDBRANCH   2   3
ENDBRANCH   1   2
BRANCH   1  17
ATOM     17  C   UNL     1       7.688  -5.620  -8.308  1.00  0.00     0.000 C 
BRANCH  17  18
ATOM     18  C   UNL     1       7.686  -6.689  -9.418  1.00  0.00     0.000 C 
BRANCH  18  19
ATOM     19  C   UNL     1       6.631  -6.476 -10.523  1.00  0.00     0.000 C 
BRANCH  19  20
ATOM     20  C   UNL     1       5.486  -7.511 -10.545  1.00  0.00     0.000 C 
BRANCH  20  21
ATOM     21  C   UNL     1       5.883  -8.940 -10.107  1.00  0.00     0.000 C 
BRANCH  21  22
ATOM     22  C   UNL     1       4.811  -9.670  -9.270  1.00  0.00    -0.000 C 
BRANCH  22  23
ATOM     23  C   UNL     1       5.237 -11.029  -8.679  1.00  0.00    -0.000 C 
BRANCH  23  24
ATOM     24  C   UNL     1       6.678 -11.087  -8.138  1.00  0.00    -0.000 C 
BRANCH  24  25
ATOM     25  C   UNL     1       7.220  -9.711  -7.721  1.00  0.00    -0.000 C 
BRANCH  25  26
ATOM     26  C   UNL     1       8.719  -9.769  -7.370  1.00  0.00    -0.000 C 
BRANCH  26  27
ATOM     27  C   UNL     1       9.098 -11.104  -6.703  1.00  0.00    -0.000 C 
BRANCH  27  28
ATOM     28  C   UNL     1       8.991 -11.064  -5.168  1.00  0.00    -0.000 C 
BRANCH  28  29
ATOM     29  C   UNL     1       8.801  -9.660  -4.570  1.00  0.00    -0.003 C 
ATOM     30  C   UNL     1       7.351  -9.362  -4.188  1.00  0.00     0.004 C 
ENDBRANCH  28  29
ENDBRANCH  27  28
ENDBRANCH  26  27
ENDBRANCH  25  26
ENDBRANCH  24  25
ENDBRANCH  23  24
ENDBRANCH  22  23
ENDBRANCH  21  22
ENDBRANCH  20  21
ENDBRANCH  19  20
ENDBRANCH  18  19
ENDBRANCH  17  18
ENDBRANCH   1  17
TORSDOF 26
ENDMDL
MODEL 6
REMARK VINA RESULT:    -0.964     14.996     19.525
REMARK INTER + INTRA:          -3.873
REMARK INTER:                  -2.513
REMARK INTRA:                  -1.360
REMARK UNBOUND:                -1.444
REMARK SMILES CCCCCCCCCCCCCCCCCCCCCCCCCCCC(=O)[O-]
REMARK SMILES IDX 15 1 16 2 17 3 18 4 19 5 20 6 21 7 22 8 23 9 24 10 25 11
REMARK SMILES IDX 26 12 27 13 28 14 29 15 30 16 14 17 13 18 12 19 11 20 10 21
REMARK SMILES IDX 9 22 8 23 7 24 6 25 5 26 4 27 3 28 2 29 1 30
REMARK H PARENT
REMARK Flexibility Score: inf
ROOT
ATOM      1  C   UNL     1      -5.516   3.183 -11.673  1.00  0.00     0.000 C 
ENDROOT
BRANCH   1   2
ATOM      2  C   UNL     1      -7.014   3.156 -12.022  1.00  0.00     0.000 C 
BRANCH   2   3
ATOM      3  C   UNL     1      -7.612   4.569 -12.119  1.00  0.00     0.000 C 
BRANCH   3   4
ATOM      4  C   UNL     1      -8.725   4.824 -11.089  1.00  0.00     0.000 C 
BRANCH   4   5
ATOM      5  C   UNL     1     -10.123   5.025 -11.714  1.00  0.00     0.000 C 
BRANCH   5   6
ATOM      6  C   UNL     1     -10.472   6.483 -12.078  1.00  0.00     0.000 C 
BRANCH   6   7
ATOM      7  C   UNL     1      -9.584   7.567 -11.433  1.00  0.00     0.000 C 
BRANCH   7   8
ATOM      8  C   UNL     1      -8.231   7.806 -12.125  1.00  0.00     0.000 C 
BRANCH   8   9
ATOM      9  C   UNL     1      -7.195   8.454 -11.195  1.00  0.00     0.000 C 
BRANCH   9  10
ATOM     10  C   UNL     1      -7.748   8.599  -9.770  1.00  0.00     0.000 C 
BRANCH  10  11
ATOM     11  C   UNL     1      -7.385   7.414  -8.860  1.00  0.00     0.000 C 
BRANCH  11  12
ATOM     12  C   UNL     1      -7.790   7.574  -7.380  1.00  0.00     0.006 C 
BRANCH  12  13
ATOM     13  C   UNL     1      -8.611   6.395  -6.824  1.00  0.00     0.053 C 
BRANCH  13  14
ATOM     14  C   UNL     1     -10.023   6.386  -7.330  1.00  0.00     0.041 C 
ATOM     15  O   UNL     1     -10.515   5.334  -7.813  1.00  0.00    -0.550 OA
ATOM     16  O   UNL     1     -10.780   7.550  -7.309  1.00  0.00    -0.550 OA
ENDBRANCH  13  14
ENDBRANCH  12  13
ENDBRANCH  11  12
ENDBRANCH  10  11
ENDBRANCH   9  10
ENDBRANCH   8   9
ENDBRANCH   7   8
ENDBRANCH   6   7
ENDBRANCH   5   6
ENDBRANCH   4   5
ENDBRANCH   3   4
ENDBRANCH   2   3
ENDBRANCH   1   2
BRANCH   1  17
ATOM     17  C   UNL     1      -4.844   1.797 -11.794  1.00  0.00     0.000 C 
BRANCH  17  18
ATOM     18  C   UNL     1      -3.647   1.606 -10.842  1.00  0.00     0.000 C 
BRANCH  18  19
ATOM     19  C   UNL     1      -3.586   0.233 -10.141  1.00  0.00     0.000 C 
BRANCH  19  20
ATOM     20  C   UNL     1      -2.642  -0.796 -10.797  1.00  0.00     0.000 C 
BRANCH  20  21
ATOM     21  C   UNL     1      -3.233  -1.553 -12.009  1.00  0.00     0.000 C 
BRANCH  21  22
ATOM     22  C   UNL     1      -4.620  -2.179 -11.753  1.00  0.00    -0.000 C 
BRANCH  22  23
ATOM     23  C   UNL     1      -4.723  -3.697 -12.002  1.00  0.00    -0.000 C 
BRANCH  23  24
ATOM     24  C   UNL     1      -4.956  -4.554 -10.744  1.00  0.00    -0.000 C 
BRANCH  24  25
ATOM     25  C   UNL     1      -4.725  -6.055 -10.986  1.00  0.00    -0.000 C 
BRANCH  25  26
ATOM     26  C   UNL     1      -5.977  -6.740 -11.565  1.00  0.00    -0.000 C 
BRANCH  26  27
ATOM     27  C   UNL     1      -6.274  -8.077 -10.859  1.00  0.00    -0.000 C 
BRANCH  27  28
ATOM     28  C   UNL     1      -6.923  -9.118 -11.787  1.00  0.00    -0.000 C 
BRANCH  28  29
ATOM     29  C   UNL     1      -6.073 -10.374 -12.046  1.00  0.00    -0.003 C 
ATOM     30  C   UNL     1      -4.572 -10.119 -11.912  1.00  0.00     0.004 C 
ENDBRANCH  28  29
ENDBRANCH  27  28
ENDBRANCH  26  27
ENDBRANCH  25  26
ENDBRANCH  24  25
ENDBRANCH  23  24
ENDBRANCH  22  23
ENDBRANCH  21  22
ENDBRANCH  20  21
ENDBRANCH  19  20
ENDBRANCH  18  19
ENDBRANCH  17  18
ENDBRANCH   1  17
TORSDOF 26
ENDMDL
MODEL 7
REMARK VINA RESULT:    -0.903     13.935     18.996
REMARK INTER + INTRA:          -3.719
REMARK INTER:                  -1.770
REMARK INTRA:                  -1.949
REMARK UNBOUND:                -1.444
REMARK SMILES CCCCCCCCCCCCCCCCCCCCCCCCCCCC(=O)[O-]
REMARK SMILES IDX 15 1 16 2 17 3 18 4 19 5 20 6 21 7 22 8 23 9 24 10 25 11
REMARK SMILES IDX 26 12 27 13 28 14 29 15 30 16 14 17 13 18 12 19 11 20 10 21
REMARK SMILES IDX 9 22 8 23 7 24 6 25 5 26 4 27 3 28 2 29 1 30
REMARK H PARENT
REMARK Flexibility Score: inf
ROOT
ATOM      1  C   UNL     1      -4.103   1.374  -9.831  1.00  0.00     0.000 C 
ENDROOT
BRANCH   1   2
ATOM      2  C   UNL     1      -3.128   0.503 -10.641  1.00  0.00     0.000 C 
BRANCH   2   3
ATOM      3  C   UNL     1      -2.732  -0.777  -9.888  1.00  0.00     0.000 C 
BRANCH   3   4
ATOM      4  C   UNL     1      -1.873  -1.732 -10.734  1.00  0.00     0.000 C 
BRANCH   4   5
ATOM      5  C   UNL     1      -2.493  -2.090 -12.102  1.00  0.00     0.000 C 
BRANCH   5   6
ATOM      6  C   UNL     1      -3.906  -2.705 -12.037  1.00  0.00     0.000 C 
BRANCH   6   7
ATOM      7  C   UNL     1      -4.076  -3.897 -11.072  1.00  0.00     0.000 C 
BRANCH   7   8
ATOM      8  C   UNL     1      -5.529  -4.333 -10.815  1.00  0.00     0.000 C 
BRANCH   8   9
ATOM      9  C   UNL     1      -6.313  -4.583 -12.111  1.00  0.00     0.000 C 
BRANCH   9  10
ATOM     10  C   UNL     1      -7.379  -5.671 -11.907  1.00  0.00     0.000 C 
BRANCH  10  11
ATOM     11  C   UNL     1      -6.823  -7.095 -12.069  1.00  0.00     0.000 C 
BRANCH  11  12
ATOM     12  C   UNL     1      -6.348  -7.767 -10.763  1.00  0.00     0.006 C 
BRANCH  12  13
ATOM     13  C   UNL     1      -4.817  -7.877 -10.635  1.00  0.00     0.053 C 
BRANCH  13  14
ATOM     14  C   UNL     1      -4.252  -9.016 -11.430  1.00  0.00     0.041 C 
ATOM     15  O   UNL     1      -4.944 -10.046 -11.640  1.00  0.00    -0.550 OA
ATOM     16  O   UNL     1      -2.946  -8.960 -11.902  1.00  0.00    -0.550 OA
ENDBRANCH  13  14
ENDBRANCH  12  13
ENDBRANCH  11  12
ENDBRANCH  10  11
ENDBRANCH   9  10
ENDBRANCH   8   9
ENDBRANCH   7   8
ENDBRANCH   6   7
ENDBRANCH   5   6
ENDBRANCH   4   5
ENDBRANCH   3   4
ENDBRANCH   2   3
ENDBRANCH   1   2
BRANCH   1  17
ATOM     17  C   UNL     1      -4.150   2.840 -10.318  1.00  0.00     0.000 C 
BRANCH  17  18
ATOM     18  C   UNL     1      -5.208   3.094 -11.409  1.00  0.00     0.000 C 
BRANCH  18  19
ATOM     19  C   UNL     1      -5.090   4.457 -12.123  1.00  0.00     0.000 C 
BRANCH  19  20
ATOM     20  C   UNL     1      -6.252   5.438 -11.857  1.00  0.00     0.000 C 
BRANCH  20  21
ATOM     21  C   UNL     1      -6.531   5.740 -10.367  1.00  0.00     0.000 C 
BRANCH  21  22
ATOM     22  C   UNL     1      -6.292   7.209  -9.959  1.00  0.00    -0.000 C 
BRANCH  22  23
ATOM     23  C   UNL     1      -7.218   8.246 -10.627  1.00  0.00    -0.000 C 
BRANCH  23  24
ATOM     24  C   UNL     1      -8.057   9.099  -9.657  1.00  0.00    -0.000 C 
BRANCH  24  25
ATOM     25  C   UNL     1      -9.495   8.582  -9.491  1.00  0.00    -0.000 C 
BRANCH  25  26
ATOM     26  C   UNL     1      -9.724   7.964  -8.099  1.00  0.00    -0.000 C 
BRANCH  26  27
ATOM     27  C   UNL     1      -9.082   6.570  -7.981  1.00  0.00    -0.000 C 
BRANCH  27  28
ATOM     28  C   UNL     1     -10.044   5.428  -8.355  1.00  0.00    -0.000 C 
BRANCH  28  29
ATOM     29  C   UNL     1     -10.085   5.081  -9.853  1.00  0.00    -0.003 C 
ATOM     30  C   UNL     1     -11.076   3.965 -10.183  1.00  0.00     0.004 C 
ENDBRANCH  28  29
ENDBRANCH  27  28
ENDBRANCH  26  27
ENDBRANCH  25  26
ENDBRANCH  24  25
ENDBRANCH  23  24
ENDBRANCH  22  23
ENDBRANCH  21  22
ENDBRANCH  20  21
ENDBRANCH  19  20
ENDBRANCH  18  19
ENDBRANCH  17  18
ENDBRANCH   1  17
TORSDOF 26
ENDMDL
MODEL 8
REMARK VINA RESULT:    -0.660     13.347     18.489
REMARK INTER + INTRA:          -3.107
REMARK INTER:                  -2.157
REMARK INTRA:                  -0.950
REMARK UNBOUND:                -1.444
REMARK SMILES CCCCCCCCCCCCCCCCCCCCCCCCCCCC(=O)[O-]
REMARK SMILES IDX 15 1 16 2 17 3 18 4 19 5 20 6 21 7 22 8 23 9 24 10 25 11
REMARK SMILES IDX 26 12 27 13 28 14 29 15 30 16 14 17 13 18 12 19 11 20 10 21
REMARK SMILES IDX 9 22 8 23 7 24 6 25 5 26 4 27 3 28 2 29 1 30
REMARK H PARENT
REMARK Flexibility Score: inf
ROOT
ATOM      1  C   UNL     1      -3.826   0.740  -9.011  1.00  0.00     0.000 C 
ENDROOT
BRANCH   1   2
ATOM      2  C   UNL     1      -3.671  -0.172 -10.239  1.00  0.00     0.000 C 
BRANCH   2   3
ATOM      3  C   UNL     1      -2.695  -1.331  -9.980  1.00  0.00     0.000 C 
BRANCH   3   4
ATOM      4  C   UNL     1      -2.086  -1.906 -11.270  1.00  0.00     0.000 C 
BRANCH   4   5
ATOM      5  C   UNL     1      -3.058  -2.783 -12.088  1.00  0.00     0.000 C 
BRANCH   5   6
ATOM      6  C   UNL     1      -4.554  -2.469 -11.879  1.00  0.00     0.000 C 
BRANCH   6   7
ATOM      7  C   UNL     1      -5.227  -3.171 -10.681  1.00  0.00     0.000 C 
BRANCH   7   8
ATOM      8  C   UNL     1      -6.417  -4.080 -11.035  1.00  0.00     0.000 C 
BRANCH   8   9
ATOM      9  C   UNL     1      -6.076  -5.110 -12.122  1.00  0.00     0.000 C 
BRANCH   9  10
ATOM     10  C   UNL     1      -6.052  -6.533 -11.543  1.00  0.00     0.000 C 
BRANCH  10  11
ATOM     11  C   UNL     1      -4.734  -6.868 -10.825  1.00  0.00     0.000 C 
BRANCH  11  12
ATOM     12  C   UNL     1      -4.420  -8.374 -10.699  1.00  0.00     0.006 C 
BRANCH  12  13
ATOM     13  C   UNL     1      -3.804  -8.995 -11.967  1.00  0.00     0.053 C 
BRANCH  13  14
ATOM     14  C   UNL     1      -2.383  -9.428 -11.766  1.00  0.00     0.041 C 
ATOM     15  O   UNL     1      -2.057 -10.631 -11.932  1.00  0.00    -0.550 OA
ATOM     16  O   UNL     1      -1.425  -8.510 -11.351  1.00  0.00    -0.550 OA
ENDBRANCH  13  14
ENDBRANCH  12  13
ENDBRANCH  11  12
ENDBRANCH  10  11
ENDBRANCH   9  10
ENDBRANCH   8   9
ENDBRANCH   7   8
ENDBRANCH   6   7
ENDBRANCH   5   6
ENDBRANCH   4   5
ENDBRANCH   3   4
ENDBRANCH   2   3
ENDBRANCH   1   2
BRANCH   1  17
ATOM     17  C   UNL     1      -4.250   2.180  -9.378  1.00  0.00     0.000 C 
BRANCH  17  18
ATOM     18  C   UNL     1      -4.411   2.408 -10.894  1.00  0.00     0.000 C 
BRANCH  18  19
ATOM     19  C   UNL     1      -5.078   3.743 -11.283  1.00  0.00     0.000 C 
BRANCH  19  20
ATOM     20  C   UNL     1      -6.367   3.611 -12.122  1.00  0.00     0.000 C 
BRANCH  20  21
ATOM     21  C   UNL     1      -7.620   3.160 -11.337  1.00  0.00     0.000 C 
BRANCH  21  22
ATOM     22  C   UNL     1      -8.454   4.319 -10.750  1.00  0.00    -0.000 C 
BRANCH  22  23
ATOM     23  C   UNL     1      -9.536   3.912  -9.728  1.00  0.00    -0.000 C 
BRANCH  23  24
ATOM     24  C   UNL     1     -10.802   4.787  -9.728  1.00  0.00    -0.000 C 
BRANCH  24  25
ATOM     25  C   UNL     1     -10.548   6.214 -10.243  1.00  0.00    -0.000 C 
BRANCH  25  26
ATOM     26  C   UNL     1     -10.190   7.179  -9.099  1.00  0.00    -0.000 C 
BRANCH  26  27
ATOM     27  C   UNL     1      -9.379   6.479  -7.992  1.00  0.00    -0.000 C 
BRANCH  27  28
ATOM     28  C   UNL     1      -7.968   7.066  -7.813  1.00  0.00    -0.000 C 
BRANCH  28  29
ATOM     29  C   UNL     1      -7.515   8.014  -8.937  1.00  0.00    -0.003 C 
ATOM     30  C   UNL     1      -6.453   7.398  -9.848  1.00  0.00     0.004 C 
ENDBRANCH  28  29
ENDBRANCH  27  28
ENDBRANCH  26  27
ENDBRANCH  25  26
ENDBRANCH  24  25
ENDBRANCH  23  24
ENDBRANCH  22  23
ENDBRANCH  21  22
ENDBRANCH  20  21
ENDBRANCH  19  20
ENDBRANCH  18  19
ENDBRANCH  17  18
ENDBRANCH   1  17
TORSDOF 26
ENDMDL
