MODEL 1
REMARK VINA RESULT:    -4.270      0.000      0.000
REMARK INTER + INTRA:          -5.313
REMARK INTER:                  -5.144
REMARK INTRA:                  -0.169
REMARK UNBOUND:                -0.169
REMARK SMILES O=c1c(O)c(-c2ccc(O)cc2O)oc2cc(O)cc(O)c12
REMARK SMILES IDX 5 1 3 2 2 3 1 4 22 5 20 6 19 7 17 8 16 9 15 10 14 11 6 12
REMARK SMILES IDX 8 13 7 14 9 15 11 16 12 17 10 18 13 20 4 22 21 24 18 26
REMARK H PARENT 10 19 13 21 4 23 21 25 18 27
REMARK Flexibility Score: inf
ROOT
ATOM      1  C   UNL     1     178.623 173.171 168.847  1.00  0.00     0.184 A 
ATOM      2  C   UNL     1     179.179 172.536 167.725  1.00  0.00     0.208 A 
ATOM      3  C   UNL     1     180.397 173.008 167.210  1.00  0.00     0.238 A 
ATOM      4  O   UNL     1     180.864 172.470 166.173  1.00  0.00    -0.285 OA
ATOM      5  C   UNL     1     181.050 174.098 167.837  1.00  0.00     0.111 A 
ATOM      6  C   UNL     1     182.308 174.634 167.426  1.00  0.00     0.134 A 
ATOM      7  C   UNL     1     182.796 175.795 168.037  1.00  0.00     0.093 A 
ATOM      8  C   UNL     1     182.108 176.402 169.086  1.00  0.00     0.123 A 
ATOM      9  C   UNL     1     180.906 175.853 169.536  1.00  0.00     0.094 A 
ATOM     10  C   UNL     1     180.374 174.716 168.922  1.00  0.00     0.146 A 
ATOM     11  O   UNL     1     179.224 174.231 169.372  1.00  0.00    -0.451 OA
ENDROOT
BRANCH   1  12
ATOM     12  C   UNL     1     177.352 172.713 169.447  1.00  0.00     0.063 A 
ATOM     13  C   UNL     1     175.982 170.876 170.259  1.00  0.00     0.047 A 
ATOM     14  C   UNL     1     177.174 171.343 169.699  1.00  0.00     0.020 A 
ATOM     15  C   UNL     1     174.948 171.770 170.561  1.00  0.00     0.119 A 
ATOM     16  C   UNL     1     175.108 173.132 170.292  1.00  0.00     0.093 A 
ATOM     17  C   UNL     1     176.299 173.609 169.724  1.00  0.00     0.130 A 
BRANCH  15  18
ATOM     18  O   UNL     1     173.758 171.315 171.124  1.00  0.00    -0.508 OA
ATOM     19  H   UNL     1     173.753 170.721 171.945  1.00  0.00     0.293 HD
ENDBRANCH  15  18
BRANCH  17  20
ATOM     20  O   UNL     1     176.426 174.964 169.416  1.00  0.00    -0.507 OA
ATOM     21  H   UNL     1     177.235 175.323 168.922  1.00  0.00     0.293 HD
ENDBRANCH  17  20
ENDBRANCH   1  12
BRANCH   2  22
ATOM     22  O   UNL     1     178.505 171.475 167.117  1.00  0.00    -0.502 OA
ATOM     23  H   UNL     1     178.862 171.003 166.294  1.00  0.00     0.293 HD
ENDBRANCH   2  22
BRANCH   6  24
ATOM     24  O   UNL     1     183.122 174.052 166.450  1.00  0.00    -0.507 OA
ATOM     25  H   UNL     1     182.925 173.180 165.981  1.00  0.00     0.293 HD
ENDBRANCH   6  24
BRANCH   8  26
ATOM     26  O   UNL     1     182.631 177.547 169.681  1.00  0.00    -0.508 OA
ATOM     27  H   UNL     1     183.396 177.497 170.344  1.00  0.00     0.293 HD
ENDBRANCH   8  26
TORSDOF 6
ENDMDL
MODEL 2
REMARK VINA RESULT:    -2.986      1.301      3.177
REMARK INTER + INTRA:          -3.766
REMARK INTER:                  -3.937
REMARK INTRA:                   0.170
REMARK UNBOUND:                -0.169
REMARK SMILES O=c1c(O)c(-c2ccc(O)cc2O)oc2cc(O)cc(O)c12
REMARK SMILES IDX 5 1 3 2 2 3 1 4 22 5 20 6 19 7 17 8 16 9 15 10 14 11 6 12
REMARK SMILES IDX 8 13 7 14 9 15 11 16 12 17 10 18 13 20 4 22 21 24 18 26
REMARK H PARENT 10 19 13 21 4 23 21 25 18 27
REMARK Flexibility Score: inf
ROOT
ATOM      1  C   UNL     1     178.296 173.845 169.598  1.00  0.00     0.184 A 
ATOM      2  C   UNL     1     178.546 175.111 170.152  1.00  0.00     0.208 A 
ATOM      3  C   UNL     1     179.684 175.821 169.739  1.00  0.00     0.238 A 
ATOM      4  O   UNL     1     179.932 176.931 170.278  1.00  0.00    -0.285 OA
ATOM      5  C   UNL     1     180.547 175.261 168.766  1.00  0.00     0.111 A 
ATOM      6  C   UNL     1     181.708 175.910 168.243  1.00  0.00     0.134 A 
ATOM      7  C   UNL     1     182.560 175.209 167.381  1.00  0.00     0.093 A 
ATOM      8  C   UNL     1     182.262 173.912 166.969  1.00  0.00     0.123 A 
ATOM      9  C   UNL     1     181.099 173.289 167.427  1.00  0.00     0.094 A 
ATOM     10  C   UNL     1     180.247 173.948 168.318  1.00  0.00     0.146 A 
ATOM     11  O   UNL     1     179.158 173.318 168.737  1.00  0.00    -0.451 OA
ENDROOT
BRANCH   1  12
ATOM     12  C   UNL     1     177.107 173.053 169.978  1.00  0.00     0.063 A 
ATOM     13  C   UNL     1     174.800 173.008 170.743  1.00  0.00     0.047 A 
ATOM     14  C   UNL     1     175.940 173.725 170.372  1.00  0.00     0.020 A 
ATOM     15  C   UNL     1     174.818 171.607 170.739  1.00  0.00     0.119 A 
ATOM     16  C   UNL     1     175.983 170.930 170.370  1.00  0.00     0.093 A 
ATOM     17  C   UNL     1     177.134 171.642 170.002  1.00  0.00     0.130 A 
BRANCH  15  18
ATOM     18  O   UNL     1     173.686 170.882 171.103  1.00  0.00    -0.508 OA
ATOM     19  H   UNL     1     173.578 170.500 172.035  1.00  0.00     0.293 HD
ENDBRANCH  15  18
BRANCH  17  20
ATOM     20  O   UNL     1     178.305 170.954 169.683  1.00  0.00    -0.507 OA
ATOM     21  H   UNL     1     179.218 171.372 169.812  1.00  0.00     0.293 HD
ENDBRANCH  17  20
ENDBRANCH   1  12
BRANCH   2  22
ATOM     22  O   UNL     1     177.687 175.630 171.124  1.00  0.00    -0.502 OA
ATOM     23  H   UNL     1     177.503 175.152 171.998  1.00  0.00     0.293 HD
ENDBRANCH   2  22
BRANCH   6  24
ATOM     24  O   UNL     1     182.050 177.237 168.517  1.00  0.00    -0.507 OA
ATOM     25  H   UNL     1     181.799 178.027 167.940  1.00  0.00     0.293 HD
ENDBRANCH   6  24
BRANCH   8  26
ATOM     26  O   UNL     1     183.124 173.251 166.098  1.00  0.00    -0.508 OA
ATOM     27  H   UNL     1     184.128 173.379 166.148  1.00  0.00     0.293 HD
ENDBRANCH   8  26
TORSDOF 6
ENDMDL
