MODEL 1
REMARK VINA RESULT:    -3.530      0.000      0.000
REMARK INTER + INTRA:          -5.984
REMARK INTER:                  -5.387
REMARK INTRA:                  -0.597
REMARK UNBOUND:                -0.597
REMARK SMILES O=C([O-])CCCCCCCCC(=O)[O-]
REMARK SMILES IDX 7 1 6 2 5 3 4 4 2 5 1 6 3 7 8 8 9 9 10 10 11 11 12 12 13 13
REMARK SMILES IDX 14 14
REMARK H PARENT
REMARK Flexibility Score: inf
ROOT
ATOM      1  C   UNL     1       7.514   8.496  33.510  1.00  0.00     0.000 C 
ENDROOT
BRANCH   1   2
ATOM      2  C   UNL     1       6.764   9.728  32.971  1.00  0.00     0.000 C 
BRANCH   2   3
ATOM      3  C   UNL     1       5.627  10.243  33.873  1.00  0.00     0.006 C 
BRANCH   3   4
ATOM      4  C   UNL     1       5.087  11.609  33.431  1.00  0.00     0.053 C 
BRANCH   4   5
ATOM      5  C   UNL     1       5.238  12.610  34.532  1.00  0.00     0.041 C 
ATOM      6  O   UNL     1       5.415  12.227  35.719  1.00  0.00    -0.550 OA
ATOM      7  O   UNL     1       5.135  13.968  34.256  1.00  0.00    -0.550 OA
ENDBRANCH   4   5
ENDBRANCH   3   4
ENDBRANCH   2   3
ENDBRANCH   1   2
BRANCH   1   8
ATOM      8  C   UNL     1       6.624   7.247  33.608  1.00  0.00     0.000 C 
BRANCH   8   9
ATOM      9  C   UNL     1       6.532   6.706  35.053  1.00  0.00     0.000 C 
BRANCH   9  10
ATOM     10  C   UNL     1       7.568   7.328  36.008  1.00  0.00     0.006 C 
BRANCH  10  11
ATOM     11  C   UNL     1       8.431   6.297  36.749  1.00  0.00     0.053 C 
BRANCH  11  12
ATOM     12  C   UNL     1       8.990   5.264  35.817  1.00  0.00     0.041 C 
ATOM     13  O   UNL     1       9.789   5.603  34.905  1.00  0.00    -0.550 OA
ATOM     14  O   UNL     1       8.645   3.927  35.968  1.00  0.00    -0.550 OA
ENDBRANCH  11  12
ENDBRANCH  10  11
ENDBRANCH   9  10
ENDBRANCH   8   9
ENDBRANCH   1   8
TORSDOF 9
ENDMDL
MODEL 2
REMARK VINA RESULT:    -3.515      3.369      8.607
REMARK INTER + INTRA:          -5.962
REMARK INTER:                  -5.658
REMARK INTRA:                  -0.304
REMARK UNBOUND:                -0.597
REMARK SMILES O=C([O-])CCCCCCCCC(=O)[O-]
REMARK SMILES IDX 7 1 6 2 5 3 4 4 2 5 1 6 3 7 8 8 9 9 10 10 11 11 12 12 13 13
REMARK SMILES IDX 14 14
REMARK H PARENT
REMARK Flexibility Score: inf
ROOT
ATOM      1  C   UNL     1       5.385  13.035  33.824  1.00  0.00     0.000 C 
ENDROOT
BRANCH   1   2
ATOM      2  C   UNL     1       4.876  11.618  33.506  1.00  0.00     0.000 C 
BRANCH   2   3
ATOM      3  C   UNL     1       5.964  10.619  33.069  1.00  0.00     0.006 C 
BRANCH   3   4
ATOM      4  C   UNL     1       6.305   9.594  34.156  1.00  0.00     0.053 C 
BRANCH   4   5
ATOM      5  C   UNL     1       7.236   8.553  33.619  1.00  0.00     0.041 C 
ATOM      6  O   UNL     1       8.429   8.851  33.345  1.00  0.00    -0.550 OA
ATOM      7  O   UNL     1       6.775   7.267  33.374  1.00  0.00    -0.550 OA
ENDBRANCH   4   5
ENDBRANCH   3   4
ENDBRANCH   2   3
ENDBRANCH   1   2
BRANCH   1   8
ATOM      8  C   UNL     1       5.429  13.333  35.331  1.00  0.00     0.000 C 
BRANCH   8   9
ATOM      9  C   UNL     1       5.238  14.836  35.636  1.00  0.00     0.000 C 
BRANCH   9  10
ATOM     10  C   UNL     1       6.178  15.750  34.829  1.00  0.00     0.006 C 
BRANCH  10  11
ATOM     11  C   UNL     1       5.555  17.099  34.442  1.00  0.00     0.053 C 
BRANCH  11  12
ATOM     12  C   UNL     1       6.470  18.247  34.751  1.00  0.00     0.041 C 
ATOM     13  O   UNL     1       6.640  18.616  35.942  1.00  0.00    -0.550 OA
ATOM     14  O   UNL     1       7.148  18.895  33.727  1.00  0.00    -0.550 OA
ENDBRANCH  11  12
ENDBRANCH  10  11
ENDBRANCH   9  10
ENDBRANCH   8   9
ENDBRANCH   1   8
TORSDOF 9
ENDMDL
MODEL 3
REMARK VINA RESULT:    -3.494      0.705      7.103
REMARK INTER + INTRA:          -5.930
REMARK INTER:                  -5.554
REMARK INTRA:                  -0.376
REMARK UNBOUND:                -0.597
REMARK SMILES O=C([O-])CCCCCCCCC(=O)[O-]
REMARK SMILES IDX 7 1 6 2 5 3 4 4 2 5 1 6 3 7 8 8 9 9 10 10 11 11 12 12 13 13
REMARK SMILES IDX 14 14
REMARK H PARENT
REMARK Flexibility Score: inf
ROOT
ATOM      1  C   UNL     1       7.631   7.277  33.722  1.00  0.00     0.000 C 
ENDROOT
BRANCH   1   2
ATOM      2  C   UNL     1       6.711   6.763  34.844  1.00  0.00     0.000 C 
BRANCH   2   3
ATOM      3  C   UNL     1       7.262   5.564  35.638  1.00  0.00     0.006 C 
BRANCH   3   4
ATOM      4  C   UNL     1       8.657   5.824  36.220  1.00  0.00     0.053 C 
BRANCH   4   5
ATOM      5  C   UNL     1       9.655   4.883  35.623  1.00  0.00     0.041 C 
ATOM      6  O   UNL     1      10.396   5.261  34.677  1.00  0.00    -0.550 OA
ATOM      7  O   UNL     1       9.733   3.572  36.075  1.00  0.00    -0.550 OA
ENDBRANCH   4   5
ENDBRANCH   3   4
ENDBRANCH   2   3
ENDBRANCH   1   2
BRANCH   1   8
ATOM      8  C   UNL     1       7.774   8.808  33.716  1.00  0.00     0.000 C 
BRANCH   8   9
ATOM      9  C   UNL     1       6.564   9.506  33.055  1.00  0.00     0.000 C 
BRANCH   9  10
ATOM     10  C   UNL     1       5.679  10.276  34.052  1.00  0.00     0.006 C 
BRANCH  10  11
ATOM     11  C   UNL     1       5.195  11.637  33.532  1.00  0.00     0.053 C 
BRANCH  11  12
ATOM     12  C   UNL     1       5.277  12.700  34.587  1.00  0.00     0.041 C 
ATOM     13  O   UNL     1       5.241  13.916  34.263  1.00  0.00    -0.550 OA
ATOM     14  O   UNL     1       5.376  12.348  35.927  1.00  0.00    -0.550 OA
ENDBRANCH  11  12
ENDBRANCH  10  11
ENDBRANCH   9  10
ENDBRANCH   8   9
ENDBRANCH   1   8
TORSDOF 9
ENDMDL
MODEL 4
REMARK VINA RESULT:    -3.470      1.715      2.168
REMARK INTER + INTRA:          -5.892
REMARK INTER:                  -5.020
REMARK INTRA:                  -0.873
REMARK UNBOUND:                -0.597
REMARK SMILES O=C([O-])CCCCCCCCC(=O)[O-]
REMARK SMILES IDX 7 1 6 2 5 3 4 4 2 5 1 6 3 7 8 8 9 9 10 10 11 11 12 12 13 13
REMARK SMILES IDX 14 14
REMARK H PARENT
REMARK Flexibility Score: inf
ROOT
ATOM      1  C   UNL     1       7.867   8.893  33.447  1.00  0.00     0.000 C 
ENDROOT
BRANCH   1   2
ATOM      2  C   UNL     1       6.412   9.297  33.145  1.00  0.00     0.000 C 
BRANCH   2   3
ATOM      3  C   UNL     1       5.849  10.418  34.037  1.00  0.00     0.006 C 
BRANCH   3   4
ATOM      4  C   UNL     1       5.097   9.885  35.263  1.00  0.00     0.053 C 
BRANCH   4   5
ATOM      5  C   UNL     1       5.988   9.891  36.465  1.00  0.00     0.041 C 
ATOM      6  O   UNL     1       6.424   8.807  36.937  1.00  0.00    -0.550 OA
ATOM      7  O   UNL     1       6.298  11.089  37.095  1.00  0.00    -0.550 OA
ENDBRANCH   4   5
ENDBRANCH   3   4
ENDBRANCH   2   3
ENDBRANCH   1   2
BRANCH   1   8
ATOM      8  C   UNL     1       8.013   7.410  33.822  1.00  0.00     0.000 C 
BRANCH   8   9
ATOM      9  C   UNL     1       6.648   6.689  33.902  1.00  0.00     0.000 C 
BRANCH   9  10
ATOM     10  C   UNL     1       6.537   5.715  35.090  1.00  0.00     0.006 C 
BRANCH  10  11
ATOM     11  C   UNL     1       7.782   5.683  35.988  1.00  0.00     0.053 C 
BRANCH  11  12
ATOM     12  C   UNL     1       8.420   4.327  36.010  1.00  0.00     0.041 C 
ATOM     13  O   UNL     1       9.674   4.218  35.987  1.00  0.00    -0.550 OA
ATOM     14  O   UNL     1       7.632   3.185  36.076  1.00  0.00    -0.550 OA
ENDBRANCH  11  12
ENDBRANCH  10  11
ENDBRANCH   9  10
ENDBRANCH   8   9
ENDBRANCH   1   8
TORSDOF 9
ENDMDL
MODEL 5
REMARK VINA RESULT:    -3.412      1.633      2.352
REMARK INTER + INTRA:          -5.805
REMARK INTER:                  -5.134
REMARK INTRA:                  -0.670
REMARK UNBOUND:                -0.597
REMARK SMILES O=C([O-])CCCCCCCCC(=O)[O-]
REMARK SMILES IDX 7 1 6 2 5 3 4 4 2 5 1 6 3 7 8 8 9 9 10 10 11 11 12 12 13 13
REMARK SMILES IDX 14 14
REMARK H PARENT
REMARK Flexibility Score: inf
ROOT
ATOM      1  C   UNL     1       5.584   6.724  34.153  1.00  0.00     0.000 C 
ENDROOT
BRANCH   1   2
ATOM      2  C   UNL     1       6.738   7.439  33.428  1.00  0.00     0.000 C 
BRANCH   2   3
ATOM      3  C   UNL     1       7.051   8.856  33.943  1.00  0.00     0.006 C 
BRANCH   3   4
ATOM      4  C   UNL     1       6.434   9.957  33.073  1.00  0.00     0.053 C 
BRANCH   4   5
ATOM      5  C   UNL     1       5.402  10.717  33.845  1.00  0.00     0.041 C 
ATOM      6  O   UNL     1       4.978  11.823  33.419  1.00  0.00    -0.550 OA
ATOM      7  O   UNL     1       4.945  10.227  35.062  1.00  0.00    -0.550 OA
ENDBRANCH   4   5
ENDBRANCH   3   4
ENDBRANCH   2   3
ENDBRANCH   1   2
BRANCH   1   8
ATOM      8  C   UNL     1       5.380   5.276  33.677  1.00  0.00     0.000 C 
BRANCH   8   9
ATOM      9  C   UNL     1       5.636   4.249  34.803  1.00  0.00     0.000 C 
BRANCH   9  10
ATOM     10  C   UNL     1       6.447   4.819  35.981  1.00  0.00     0.006 C 
BRANCH  10  11
ATOM     11  C   UNL     1       7.902   4.330  36.031  1.00  0.00     0.053 C 
BRANCH  11  12
ATOM     12  C   UNL     1       8.876   5.468  35.983  1.00  0.00     0.041 C 
ATOM     13  O   UNL     1       9.516   5.708  34.926  1.00  0.00    -0.550 OA
ATOM     14  O   UNL     1       9.065   6.274  37.099  1.00  0.00    -0.550 OA
ENDBRANCH  11  12
ENDBRANCH  10  11
ENDBRANCH   9  10
ENDBRANCH   8   9
ENDBRANCH   1   8
TORSDOF 9
ENDMDL
MODEL 6
REMARK VINA RESULT:    -3.328      3.813      5.849
REMARK INTER + INTRA:          -5.675
REMARK INTER:                  -5.508
REMARK INTRA:                  -0.167
REMARK UNBOUND:                -0.597
REMARK SMILES O=C([O-])CCCCCCCCC(=O)[O-]
REMARK SMILES IDX 7 1 6 2 5 3 4 4 2 5 1 6 3 7 8 8 9 9 10 10 11 11 12 12 13 13
REMARK SMILES IDX 14 14
REMARK H PARENT
REMARK Flexibility Score: inf
ROOT
ATOM      1  C   UNL     1       4.948  14.424  34.278  1.00  0.00     0.000 C 
ENDROOT
BRANCH   1   2
ATOM      2  C   UNL     1       5.878  15.478  34.907  1.00  0.00     0.000 C 
BRANCH   2   3
ATOM      3  C   UNL     1       5.496  16.941  34.612  1.00  0.00     0.006 C 
BRANCH   3   4
ATOM      4  C   UNL     1       6.711  17.874  34.553  1.00  0.00     0.053 C 
BRANCH   4   5
ATOM      5  C   UNL     1       6.467  18.986  33.582  1.00  0.00     0.041 C 
ATOM      6  O   UNL     1       5.430  18.987  32.867  1.00  0.00    -0.550 OA
ATOM      7  O   UNL     1       7.408  19.996  33.430  1.00  0.00    -0.550 OA
ENDBRANCH   4   5
ENDBRANCH   3   4
ENDBRANCH   2   3
ENDBRANCH   1   2
BRANCH   1   8
ATOM      8  C   UNL     1       5.170  13.013  34.845  1.00  0.00     0.000 C 
BRANCH   8   9
ATOM      9  C   UNL     1       4.925  11.913  33.787  1.00  0.00     0.000 C 
BRANCH   9  10
ATOM     10  C   UNL     1       5.389  10.515  34.237  1.00  0.00     0.006 C 
BRANCH  10  11
ATOM     11  C   UNL     1       6.324   9.818  33.237  1.00  0.00     0.053 C 
BRANCH  11  12
ATOM     12  C   UNL     1       7.255   8.860  33.918  1.00  0.00     0.041 C 
ATOM     13  O   UNL     1       8.296   8.465  33.330  1.00  0.00    -0.550 OA
ATOM     14  O   UNL     1       6.984   8.418  35.207  1.00  0.00    -0.550 OA
ENDBRANCH  11  12
ENDBRANCH  10  11
ENDBRANCH   9  10
ENDBRANCH   8   9
ENDBRANCH   1   8
TORSDOF 9
ENDMDL
MODEL 7
REMARK VINA RESULT:    -3.326      2.077      2.905
REMARK INTER + INTRA:          -5.673
REMARK INTER:                  -5.302
REMARK INTRA:                  -0.371
REMARK UNBOUND:                -0.597
REMARK SMILES O=C([O-])CCCCCCCCC(=O)[O-]
REMARK SMILES IDX 7 1 6 2 5 3 4 4 2 5 1 6 3 7 8 8 9 9 10 10 11 11 12 12 13 13
REMARK SMILES IDX 14 14
REMARK H PARENT
REMARK Flexibility Score: inf
ROOT
ATOM      1  C   UNL     1       6.034  10.630  32.961  1.00  0.00     0.000 C 
ENDROOT
BRANCH   1   2
ATOM      2  C   UNL     1       4.975  11.560  33.580  1.00  0.00     0.000 C 
BRANCH   2   3
ATOM      3  C   UNL     1       5.272  12.013  35.022  1.00  0.00     0.006 C 
BRANCH   3   4
ATOM      4  C   UNL     1       5.093  13.523  35.221  1.00  0.00     0.053 C 
BRANCH   4   5
ATOM      5  C   UNL     1       5.896  13.993  36.393  1.00  0.00     0.041 C 
ATOM      6  O   UNL     1       5.922  15.216  36.694  1.00  0.00    -0.550 OA
ATOM      7  O   UNL     1       6.656  13.089  37.123  1.00  0.00    -0.550 OA
ENDBRANCH   4   5
ENDBRANCH   3   4
ENDBRANCH   2   3
ENDBRANCH   1   2
BRANCH   1   8
ATOM      8  C   UNL     1       6.387   9.436  33.862  1.00  0.00     0.000 C 
BRANCH   8   9
ATOM      9  C   UNL     1       7.698   8.743  33.428  1.00  0.00     0.000 C 
BRANCH   9  10
ATOM     10  C   UNL     1       7.769   7.258  33.828  1.00  0.00     0.006 C 
BRANCH  10  11
ATOM     11  C   UNL     1       6.403   6.557  33.863  1.00  0.00     0.053 C 
BRANCH  11  12
ATOM     12  C   UNL     1       6.228   5.736  35.106  1.00  0.00     0.041 C 
ATOM     13  O   UNL     1       6.108   4.486  35.026  1.00  0.00    -0.550 OA
ATOM     14  O   UNL     1       6.216   6.350  36.352  1.00  0.00    -0.550 OA
ENDBRANCH  11  12
ENDBRANCH  10  11
ENDBRANCH   9  10
ENDBRANCH   8   9
ENDBRANCH   1   8
TORSDOF 9
ENDMDL
MODEL 8
REMARK VINA RESULT:    -3.271      1.536      7.166
REMARK INTER + INTRA:          -5.589
REMARK INTER:                  -5.252
REMARK INTRA:                  -0.337
REMARK UNBOUND:                -0.597
REMARK SMILES O=C([O-])CCCCCCCCC(=O)[O-]
REMARK SMILES IDX 7 1 6 2 5 3 4 4 2 5 1 6 3 7 8 8 9 9 10 10 11 11 12 12 13 13
REMARK SMILES IDX 14 14
REMARK H PARENT
REMARK Flexibility Score: inf
ROOT
ATOM      1  C   UNL     1       6.723   9.356  33.322  1.00  0.00     0.000 C 
ENDROOT
BRANCH   1   2
ATOM      2  C   UNL     1       5.931   8.454  34.286  1.00  0.00     0.000 C 
BRANCH   2   3
ATOM      3  C   UNL     1       6.180   6.944  34.116  1.00  0.00     0.006 C 
BRANCH   3   4
ATOM      4  C   UNL     1       6.821   6.301  35.352  1.00  0.00     0.053 C 
BRANCH   4   5
ATOM      5  C   UNL     1       8.299   6.168  35.163  1.00  0.00     0.041 C 
ATOM      6  O   UNL     1       8.840   6.563  34.096  1.00  0.00    -0.550 OA
ATOM      7  O   UNL     1       9.074   5.564  36.144  1.00  0.00    -0.550 OA
ENDBRANCH   4   5
ENDBRANCH   3   4
ENDBRANCH   2   3
ENDBRANCH   1   2
BRANCH   1   8
ATOM      8  C   UNL     1       5.994  10.668  32.990  1.00  0.00     0.000 C 
BRANCH   8   9
ATOM      9  C   UNL     1       5.243  11.244  34.212  1.00  0.00     0.000 C 
BRANCH   9  10
ATOM     10  C   UNL     1       5.252  12.783  34.268  1.00  0.00     0.006 C 
BRANCH  10  11
ATOM     11  C   UNL     1       5.440  13.354  35.681  1.00  0.00     0.053 C 
BRANCH  11  12
ATOM     12  C   UNL     1       5.965  14.758  35.650  1.00  0.00     0.041 C 
ATOM     13  O   UNL     1       6.246  15.304  34.551  1.00  0.00    -0.550 OA
ATOM     14  O   UNL     1       6.124  15.471  36.832  1.00  0.00    -0.550 OA
ENDBRANCH  11  12
ENDBRANCH  10  11
ENDBRANCH   9  10
ENDBRANCH   8   9
ENDBRANCH   1   8
TORSDOF 9
ENDMDL
MODEL 9
REMARK VINA RESULT:    -3.224      1.751      2.941
REMARK INTER + INTRA:          -5.518
REMARK INTER:                  -5.154
REMARK INTRA:                  -0.365
REMARK UNBOUND:                -0.597
REMARK SMILES O=C([O-])CCCCCCCCC(=O)[O-]
REMARK SMILES IDX 7 1 6 2 5 3 4 4 2 5 1 6 3 7 8 8 9 9 10 10 11 11 12 12 13 13
REMARK SMILES IDX 14 14
REMARK H PARENT
REMARK Flexibility Score: inf
ROOT
ATOM      1  C   UNL     1       5.193  11.844  33.438  1.00  0.00     0.000 C 
ENDROOT
BRANCH   1   2
ATOM      2  C   UNL     1       4.920  11.881  34.953  1.00  0.00     0.000 C 
BRANCH   2   3
ATOM      3  C   UNL     1       5.066  13.268  35.607  1.00  0.00     0.006 C 
BRANCH   3   4
ATOM      4  C   UNL     1       5.458  14.361  34.605  1.00  0.00     0.053 C 
BRANCH   4   5
ATOM      5  C   UNL     1       6.130  15.497  35.310  1.00  0.00     0.041 C 
ATOM      6  O   UNL     1       6.034  15.613  36.561  1.00  0.00    -0.550 OA
ATOM      7  O   UNL     1       6.820  16.457  34.582  1.00  0.00    -0.550 OA
ENDBRANCH   4   5
ENDBRANCH   3   4
ENDBRANCH   2   3
ENDBRANCH   1   2
BRANCH   1   8
ATOM      8  C   UNL     1       6.003  10.612  33.004  1.00  0.00     0.000 C 
BRANCH   8   9
ATOM      9  C   UNL     1       5.973   9.488  34.064  1.00  0.00     0.000 C 
BRANCH   9  10
ATOM     10  C   UNL     1       7.146   8.498  33.942  1.00  0.00     0.006 C 
BRANCH  10  11
ATOM     11  C   UNL     1       7.428   7.706  35.227  1.00  0.00     0.053 C 
BRANCH  11  12
ATOM     12  C   UNL     1       8.104   6.399  34.941  1.00  0.00     0.041 C 
ATOM     13  O   UNL     1       9.102   6.357  34.175  1.00  0.00    -0.550 OA
ATOM     14  O   UNL     1       7.643   5.230  35.534  1.00  0.00    -0.550 OA
ENDBRANCH  11  12
ENDBRANCH  10  11
ENDBRANCH   9  10
ENDBRANCH   8   9
ENDBRANCH   1   8
TORSDOF 9
ENDMDL
