MODEL 1
REMARK VINA RESULT:    -3.255      0.000      0.000
REMARK INTER + INTRA:          -7.750
REMARK INTER:                  -6.110
REMARK INTRA:                  -1.640
REMARK UNBOUND:                -1.640
REMARK SMILES O=C([O-])CCCCCCCCCCCCCCC(=O)[O-]
REMARK SMILES IDX 10 1 9 2 8 3 7 4 6 5 5 6 4 7 2 8 1 9 3 10 11 11 12 12 13 13
REMARK SMILES IDX 14 14 15 15 16 16 17 17 18 18 19 19 20 20
REMARK H PARENT
REMARK Flexibility Score: inf
ROOT
ATOM      1  C   UNL     1      20.483   7.561  15.508  1.00  0.00     0.000 C 
ENDROOT
BRANCH   1   2
ATOM      2  C   UNL     1      19.036   7.103  15.765  1.00  0.00     0.000 C 
BRANCH   2   3
ATOM      3  C   UNL     1      18.233   8.105  16.613  1.00  0.00     0.000 C 
BRANCH   3   4
ATOM      4  C   UNL     1      18.452   9.585  16.248  1.00  0.00     0.000 C 
BRANCH   4   5
ATOM      5  C   UNL     1      18.641  10.485  17.478  1.00  0.00     0.000 C 
BRANCH   5   6
ATOM      6  C   UNL     1      20.085  10.422  17.990  1.00  0.00     0.006 C 
BRANCH   6   7
ATOM      7  C   UNL     1      21.067  10.944  16.937  1.00  0.00     0.053 C 
BRANCH   7   8
ATOM      8  C   UNL     1      21.278  12.416  17.101  1.00  0.00     0.041 C 
ATOM      9  O   UNL     1      21.184  12.948  18.240  1.00  0.00    -0.550 OA
ATOM     10  O   UNL     1      21.636  13.194  16.008  1.00  0.00    -0.550 OA
ENDBRANCH   7   8
ENDBRANCH   6   7
ENDBRANCH   5   6
ENDBRANCH   4   5
ENDBRANCH   3   4
ENDBRANCH   2   3
ENDBRANCH   1   2
BRANCH   1  11
ATOM     11  C   UNL     1      21.480   6.959  16.521  1.00  0.00     0.000 C 
BRANCH  11  12
ATOM     12  C   UNL     1      21.699   5.444  16.348  1.00  0.00     0.000 C 
BRANCH  12  13
ATOM     13  C   UNL     1      23.146   5.027  16.028  1.00  0.00     0.000 C 
BRANCH  13  14
ATOM     14  C   UNL     1      23.920   6.011  15.131  1.00  0.00     0.000 C 
BRANCH  14  15
ATOM     15  C   UNL     1      25.203   6.537  15.790  1.00  0.00     0.000 C 
BRANCH  15  16
ATOM     16  C   UNL     1      24.939   7.845  16.543  1.00  0.00     0.006 C 
BRANCH  16  17
ATOM     17  C   UNL     1      24.892   7.608  18.055  1.00  0.00     0.053 C 
BRANCH  17  18
ATOM     18  C   UNL     1      26.271   7.629  18.635  1.00  0.00     0.041 C 
ATOM     19  O   UNL     1      26.894   6.554  18.826  1.00  0.00    -0.550 OA
ATOM     20  O   UNL     1      26.852   8.837  18.999  1.00  0.00    -0.550 OA
ENDBRANCH  17  18
ENDBRANCH  16  17
ENDBRANCH  15  16
ENDBRANCH  14  15
ENDBRANCH  13  14
ENDBRANCH  12  13
ENDBRANCH  11  12
ENDBRANCH   1  11
TORSDOF 15
ENDMDL
MODEL 2
REMARK VINA RESULT:    -3.202      1.630      6.223
REMARK INTER + INTRA:          -7.650
REMARK INTER:                  -5.355
REMARK INTRA:                  -2.295
REMARK UNBOUND:                -1.640
REMARK SMILES O=C([O-])CCCCCCCCCCCCCCC(=O)[O-]
REMARK SMILES IDX 10 1 9 2 8 3 7 4 6 5 5 6 4 7 2 8 1 9 3 10 11 11 12 12 13 13
REMARK SMILES IDX 14 14 15 15 16 16 17 17 18 18 19 19 20 20
REMARK H PARENT
REMARK Flexibility Score: inf
ROOT
ATOM      1  C   UNL     1      21.593   7.713  16.840  1.00  0.00     0.000 C 
ENDROOT
BRANCH   1   2
ATOM      2  C   UNL     1      21.055   7.184  18.182  1.00  0.00     0.000 C 
BRANCH   2   3
ATOM      3  C   UNL     1      21.943   7.574  19.378  1.00  0.00     0.000 C 
BRANCH   3   4
ATOM      4  C   UNL     1      22.810   8.828  19.158  1.00  0.00     0.000 C 
BRANCH   4   5
ATOM      5  C   UNL     1      24.172   8.747  19.865  1.00  0.00     0.000 C 
BRANCH   5   6
ATOM      6  C   UNL     1      24.984   7.548  19.360  1.00  0.00     0.006 C 
BRANCH   6   7
ATOM      7  C   UNL     1      25.482   7.783  17.930  1.00  0.00     0.053 C 
BRANCH   7   8
ATOM      8  C   UNL     1      25.061   6.658  17.038  1.00  0.00     0.041 C 
ATOM      9  O   UNL     1      25.373   6.665  15.817  1.00  0.00    -0.550 OA
ATOM     10  O   UNL     1      24.373   5.572  17.564  1.00  0.00    -0.550 OA
ENDBRANCH   7   8
ENDBRANCH   6   7
ENDBRANCH   5   6
ENDBRANCH   4   5
ENDBRANCH   3   4
ENDBRANCH   2   3
ENDBRANCH   1   2
BRANCH   1  11
ATOM     11  C   UNL     1      20.505   7.757  15.746  1.00  0.00     0.000 C 
BRANCH  11  12
ATOM     12  C   UNL     1      19.079   7.528  16.281  1.00  0.00     0.000 C 
BRANCH  12  13
ATOM     13  C   UNL     1      18.124   8.725  16.124  1.00  0.00     0.000 C 
BRANCH  13  14
ATOM     14  C   UNL     1      17.984   9.610  17.376  1.00  0.00     0.000 C 
BRANCH  14  15
ATOM     15  C   UNL     1      18.688  10.967  17.229  1.00  0.00     0.000 C 
BRANCH  15  16
ATOM     16  C   UNL     1      20.045  10.962  17.940  1.00  0.00     0.006 C 
BRANCH  16  17
ATOM     17  C   UNL     1      21.172  11.338  16.973  1.00  0.00     0.053 C 
BRANCH  17  18
ATOM     18  C   UNL     1      21.341  12.823  16.914  1.00  0.00     0.041 C 
ATOM     19  O   UNL     1      21.105  13.529  17.928  1.00  0.00    -0.550 OA
ATOM     20  O   UNL     1      21.725  13.431  15.725  1.00  0.00    -0.550 OA
ENDBRANCH  17  18
ENDBRANCH  16  17
ENDBRANCH  15  16
ENDBRANCH  14  15
ENDBRANCH  13  14
ENDBRANCH  12  13
ENDBRANCH  11  12
ENDBRANCH   1  11
TORSDOF 15
ENDMDL
MODEL 3
REMARK VINA RESULT:    -3.171      2.598      4.801
REMARK INTER + INTRA:          -7.592
REMARK INTER:                  -5.249
REMARK INTRA:                  -2.343
REMARK UNBOUND:                -1.640
REMARK SMILES O=C([O-])CCCCCCCCCCCCCCC(=O)[O-]
REMARK SMILES IDX 10 1 9 2 8 3 7 4 6 5 5 6 4 7 2 8 1 9 3 10 11 11 12 12 13 13
REMARK SMILES IDX 14 14 15 15 16 16 17 17 18 18 19 19 20 20
REMARK H PARENT
REMARK Flexibility Score: inf
ROOT
ATOM      1  C   UNL     1      25.334   7.801  17.996  1.00  0.00     0.000 C 
ENDROOT
BRANCH   1   2
ATOM      2  C   UNL     1      24.370   8.283  19.096  1.00  0.00     0.000 C 
BRANCH   2   3
ATOM      3  C   UNL     1      23.094   7.428  19.189  1.00  0.00     0.000 C 
BRANCH   3   4
ATOM      4  C   UNL     1      21.802   8.142  18.747  1.00  0.00     0.000 C 
BRANCH   4   5
ATOM      5  C   UNL     1      21.976   9.661  18.601  1.00  0.00     0.000 C 
BRANCH   5   6
ATOM      6  C   UNL     1      21.629  10.122  17.181  1.00  0.00     0.006 C 
BRANCH   6   7
ATOM      7  C   UNL     1      20.603  11.258  17.205  1.00  0.00     0.053 C 
BRANCH   7   8
ATOM      8  C   UNL     1      21.291  12.587  17.182  1.00  0.00     0.041 C 
ATOM      9  O   UNL     1      21.629  13.145  18.260  1.00  0.00    -0.550 OA
ATOM     10  O   UNL     1      21.614  13.182  15.970  1.00  0.00    -0.550 OA
ENDBRANCH   7   8
ENDBRANCH   6   7
ENDBRANCH   5   6
ENDBRANCH   4   5
ENDBRANCH   3   4
ENDBRANCH   2   3
ENDBRANCH   1   2
BRANCH   1  11
ATOM     11  C   UNL     1      24.771   8.029  16.577  1.00  0.00     0.000 C 
BRANCH  11  12
ATOM     12  C   UNL     1      24.867   6.792  15.665  1.00  0.00     0.000 C 
BRANCH  12  13
ATOM     13  C   UNL     1      23.828   5.692  15.949  1.00  0.00     0.000 C 
BRANCH  13  14
ATOM     14  C   UNL     1      22.362   6.118  15.747  1.00  0.00     0.000 C 
BRANCH  14  15
ATOM     15  C   UNL     1      21.368   5.203  16.477  1.00  0.00     0.000 C 
BRANCH  15  16
ATOM     16  C   UNL     1      19.933   5.715  16.321  1.00  0.00     0.006 C 
BRANCH  16  17
ATOM     17  C   UNL     1      19.916   7.136  15.750  1.00  0.00     0.053 C 
BRANCH  17  18
ATOM     18  C   UNL     1      18.857   7.958  16.415  1.00  0.00     0.041 C 
ATOM     19  O   UNL     1      18.483   7.684  17.584  1.00  0.00    -0.550 OA
ATOM     20  O   UNL     1      18.257   9.004  15.726  1.00  0.00    -0.550 OA
ENDBRANCH  17  18
ENDBRANCH  16  17
ENDBRANCH  15  16
ENDBRANCH  14  15
ENDBRANCH  13  14
ENDBRANCH  12  13
ENDBRANCH  11  12
ENDBRANCH   1  11
TORSDOF 15
ENDMDL
MODEL 4
REMARK VINA RESULT:    -3.163      2.552      5.939
REMARK INTER + INTRA:          -7.576
REMARK INTER:                  -4.876
REMARK INTRA:                  -2.700
REMARK UNBOUND:                -1.640
REMARK SMILES O=C([O-])CCCCCCCCCCCCCCC(=O)[O-]
REMARK SMILES IDX 10 1 9 2 8 3 7 4 6 5 5 6 4 7 2 8 1 9 3 10 11 11 12 12 13 13
REMARK SMILES IDX 14 14 15 15 16 16 17 17 18 18 19 19 20 20
REMARK H PARENT
REMARK Flexibility Score: inf
ROOT
ATOM      1  C   UNL     1      25.947   7.483  17.832  1.00  0.00     0.000 C 
ENDROOT
BRANCH   1   2
ATOM      2  C   UNL     1      25.069   7.867  16.627  1.00  0.00     0.000 C 
BRANCH   2   3
ATOM      3  C   UNL     1      24.143   6.724  16.174  1.00  0.00     0.000 C 
BRANCH   3   4
ATOM      4  C   UNL     1      23.939   5.605  17.212  1.00  0.00     0.000 C 
BRANCH   4   5
ATOM      5  C   UNL     1      22.459   5.346  17.534  1.00  0.00     0.000 C 
BRANCH   5   6
ATOM      6  C   UNL     1      21.581   5.557  16.295  1.00  0.00     0.006 C 
BRANCH   6   7
ATOM      7  C   UNL     1      20.166   5.990  16.690  1.00  0.00     0.053 C 
BRANCH   7   8
ATOM      8  C   UNL     1      19.687   7.091  15.797  1.00  0.00     0.041 C 
ATOM      9  O   UNL     1      20.390   7.469  14.822  1.00  0.00    -0.550 OA
ATOM     10  O   UNL     1      18.438   7.662  16.005  1.00  0.00    -0.550 OA
ENDBRANCH   7   8
ENDBRANCH   6   7
ENDBRANCH   5   6
ENDBRANCH   4   5
ENDBRANCH   3   4
ENDBRANCH   2   3
ENDBRANCH   1   2
BRANCH   1  11
ATOM     11  C   UNL     1      25.633   8.331  19.083  1.00  0.00     0.000 C 
BRANCH  11  12
ATOM     12  C   UNL     1      24.885   7.557  20.185  1.00  0.00     0.000 C 
BRANCH  12  13
ATOM     13  C   UNL     1      23.376   7.846  20.275  1.00  0.00     0.000 C 
BRANCH  13  14
ATOM     14  C   UNL     1      22.910   9.100  19.512  1.00  0.00     0.000 C 
BRANCH  14  15
ATOM     15  C   UNL     1      21.752   8.814  18.546  1.00  0.00     0.000 C 
BRANCH  15  16
ATOM     16  C   UNL     1      21.927   9.586  17.234  1.00  0.00     0.006 C 
BRANCH  16  17
ATOM     17  C   UNL     1      20.781  10.580  17.024  1.00  0.00     0.053 C 
BRANCH  17  18
ATOM     18  C   UNL     1      21.233  11.975  17.323  1.00  0.00     0.041 C 
ATOM     19  O   UNL     1      21.411  12.341  18.513  1.00  0.00    -0.550 OA
ATOM     20  O   UNL     1      21.420  12.881  16.287  1.00  0.00    -0.550 OA
ENDBRANCH  17  18
ENDBRANCH  16  17
ENDBRANCH  15  16
ENDBRANCH  14  15
ENDBRANCH  13  14
ENDBRANCH  12  13
ENDBRANCH  11  12
ENDBRANCH   1  11
TORSDOF 15
ENDMDL
MODEL 5
REMARK VINA RESULT:    -3.149      0.970      5.969
REMARK INTER + INTRA:          -7.550
REMARK INTER:                  -5.273
REMARK INTRA:                  -2.277
REMARK UNBOUND:                -1.640
REMARK SMILES O=C([O-])CCCCCCCCCCCCCCC(=O)[O-]
REMARK SMILES IDX 10 1 9 2 8 3 7 4 6 5 5 6 4 7 2 8 1 9 3 10 11 11 12 12 13 13
REMARK SMILES IDX 14 14 15 15 16 16 17 17 18 18 19 19 20 20
REMARK H PARENT
REMARK Flexibility Score: inf
ROOT
ATOM      1  C   UNL     1      20.124   7.640  15.262  1.00  0.00     0.000 C 
ENDROOT
BRANCH   1   2
ATOM      2  C   UNL     1      21.283   6.700  15.642  1.00  0.00     0.000 C 
BRANCH   2   3
ATOM      3  C   UNL     1      21.292   6.337  17.138  1.00  0.00     0.000 C 
BRANCH   3   4
ATOM      4  C   UNL     1      22.661   6.472  17.829  1.00  0.00     0.000 C 
BRANCH   4   5
ATOM      5  C   UNL     1      23.825   6.603  16.835  1.00  0.00     0.000 C 
BRANCH   5   6
ATOM      6  C   UNL     1      24.632   7.880  17.095  1.00  0.00     0.006 C 
BRANCH   6   7
ATOM      7  C   UNL     1      24.946   8.039  18.586  1.00  0.00     0.053 C 
BRANCH   7   8
ATOM      8  C   UNL     1      26.365   7.656  18.866  1.00  0.00     0.041 C 
ATOM      9  O   UNL     1      26.787   6.510  18.553  1.00  0.00    -0.550 OA
ATOM     10  O   UNL     1      27.240   8.582  19.419  1.00  0.00    -0.550 OA
ENDBRANCH   7   8
ENDBRANCH   6   7
ENDBRANCH   5   6
ENDBRANCH   4   5
ENDBRANCH   3   4
ENDBRANCH   2   3
ENDBRANCH   1   2
BRANCH   1  11
ATOM     11  C   UNL     1      18.796   7.242  15.940  1.00  0.00     0.000 C 
BRANCH  11  12
ATOM     12  C   UNL     1      17.978   8.442  16.455  1.00  0.00     0.000 C 
BRANCH  12  13
ATOM     13  C   UNL     1      18.089   8.704  17.968  1.00  0.00     0.000 C 
BRANCH  13  14
ATOM     14  C   UNL     1      19.042   9.849  18.358  1.00  0.00     0.000 C 
BRANCH  14  15
ATOM     15  C   UNL     1      20.381   9.347  18.916  1.00  0.00     0.000 C 
BRANCH  15  16
ATOM     16  C   UNL     1      21.560  10.032  18.217  1.00  0.00     0.006 C 
BRANCH  16  17
ATOM     17  C   UNL     1      21.084  10.845  17.010  1.00  0.00     0.053 C 
BRANCH  17  18
ATOM     18  C   UNL     1      21.394  12.297  17.199  1.00  0.00     0.041 C 
ATOM     19  O   UNL     1      21.467  12.784  18.356  1.00  0.00    -0.550 OA
ATOM     20  O   UNL     1      21.563  13.120  16.093  1.00  0.00    -0.550 OA
ENDBRANCH  17  18
ENDBRANCH  16  17
ENDBRANCH  15  16
ENDBRANCH  14  15
ENDBRANCH  13  14
ENDBRANCH  12  13
ENDBRANCH  11  12
ENDBRANCH   1  11
TORSDOF 15
ENDMDL
MODEL 6
REMARK VINA RESULT:    -3.141      1.993      3.149
REMARK INTER + INTRA:          -7.536
REMARK INTER:                  -5.567
REMARK INTRA:                  -1.968
REMARK UNBOUND:                -1.640
REMARK SMILES O=C([O-])CCCCCCCCCCCCCCC(=O)[O-]
REMARK SMILES IDX 10 1 9 2 8 3 7 4 6 5 5 6 4 7 2 8 1 9 3 10 11 11 12 12 13 13
REMARK SMILES IDX 14 14 15 15 16 16 17 17 18 18 19 19 20 20
REMARK H PARENT
REMARK Flexibility Score: inf
ROOT
ATOM      1  C   UNL     1      21.705   9.082  17.124  1.00  0.00     0.000 C 
ENDROOT
BRANCH   1   2
ATOM      2  C   UNL     1      20.683   8.353  16.231  1.00  0.00     0.000 C 
BRANCH   2   3
ATOM      3  C   UNL     1      19.264   8.349  16.828  1.00  0.00     0.000 C 
BRANCH   3   4
ATOM      4  C   UNL     1      18.309   9.402  16.235  1.00  0.00     0.000 C 
BRANCH   4   5
ATOM      5  C   UNL     1      18.062  10.588  17.180  1.00  0.00     0.000 C 
BRANCH   5   6
ATOM      6  C   UNL     1      19.020  11.745  16.875  1.00  0.00     0.006 C 
BRANCH   6   7
ATOM      7  C   UNL     1      19.801  12.159  18.126  1.00  0.00     0.053 C 
BRANCH   7   8
ATOM      8  C   UNL     1      21.146  12.695  17.749  1.00  0.00     0.041 C 
ATOM      9  O   UNL     1      21.479  12.781  16.537  1.00  0.00    -0.550 OA
ATOM     10  O   UNL     1      22.012  13.155  18.733  1.00  0.00    -0.550 OA
ENDBRANCH   7   8
ENDBRANCH   6   7
ENDBRANCH   5   6
ENDBRANCH   4   5
ENDBRANCH   3   4
ENDBRANCH   2   3
ENDBRANCH   1   2
BRANCH   1  11
ATOM     11  C   UNL     1      21.462   8.824  18.627  1.00  0.00     0.000 C 
BRANCH  11  12
ATOM     12  C   UNL     1      22.491   9.509  19.546  1.00  0.00     0.000 C 
BRANCH  12  13
ATOM     13  C   UNL     1      23.530   8.565  20.178  1.00  0.00     0.000 C 
BRANCH  13  14
ATOM     14  C   UNL     1      24.923   8.605  19.524  1.00  0.00     0.000 C 
BRANCH  14  15
ATOM     15  C   UNL     1      25.521   7.208  19.305  1.00  0.00     0.000 C 
BRANCH  15  16
ATOM     16  C   UNL     1      26.097   7.071  17.892  1.00  0.00     0.006 C 
BRANCH  16  17
ATOM     17  C   UNL     1      25.184   7.739  16.860  1.00  0.00     0.053 C 
BRANCH  17  18
ATOM     18  C   UNL     1      24.536   6.711  15.987  1.00  0.00     0.041 C 
ATOM     19  O   UNL     1      23.492   6.124  16.367  1.00  0.00    -0.550 OA
ATOM     20  O   UNL     1      25.110   6.376  14.767  1.00  0.00    -0.550 OA
ENDBRANCH  17  18
ENDBRANCH  16  17
ENDBRANCH  15  16
ENDBRANCH  14  15
ENDBRANCH  13  14
ENDBRANCH  12  13
ENDBRANCH  11  12
ENDBRANCH   1  11
TORSDOF 15
ENDMDL
MODEL 7
REMARK VINA RESULT:    -3.135      1.888      6.542
REMARK INTER + INTRA:          -7.524
REMARK INTER:                  -5.458
REMARK INTRA:                  -2.066
REMARK UNBOUND:                -1.640
REMARK SMILES O=C([O-])CCCCCCCCCCCCCCC(=O)[O-]
REMARK SMILES IDX 10 1 9 2 8 3 7 4 6 5 5 6 4 7 2 8 1 9 3 10 11 11 12 12 13 13
REMARK SMILES IDX 14 14 15 15 16 16 17 17 18 18 19 19 20 20
REMARK H PARENT
REMARK Flexibility Score: inf
ROOT
ATOM      1  C   UNL     1      22.374   9.009  18.627  1.00  0.00     0.000 C 
ENDROOT
BRANCH   1   2
ATOM      2  C   UNL     1      22.606   7.635  19.281  1.00  0.00     0.000 C 
BRANCH   2   3
ATOM      3  C   UNL     1      23.955   7.544  20.019  1.00  0.00     0.000 C 
BRANCH   3   4
ATOM      4  C   UNL     1      24.950   8.673  19.690  1.00  0.00     0.000 C 
BRANCH   4   5
ATOM      5  C   UNL     1      26.308   8.151  19.198  1.00  0.00     0.000 C 
BRANCH   5   6
ATOM      6  C   UNL     1      26.128   7.022  18.177  1.00  0.00     0.006 C 
BRANCH   6   7
ATOM      7  C   UNL     1      25.686   7.573  16.818  1.00  0.00     0.053 C 
BRANCH   7   8
ATOM      8  C   UNL     1      24.897   6.546  16.068  1.00  0.00     0.041 C 
ATOM      9  O   UNL     1      25.033   6.427  14.821  1.00  0.00    -0.550 OA
ATOM     10  O   UNL     1      24.055   5.679  16.752  1.00  0.00    -0.550 OA
ENDBRANCH   7   8
ENDBRANCH   6   7
ENDBRANCH   5   6
ENDBRANCH   4   5
ENDBRANCH   3   4
ENDBRANCH   2   3
ENDBRANCH   1   2
BRANCH   1  11
ATOM     11  C   UNL     1      22.073   8.898  17.116  1.00  0.00     0.000 C 
BRANCH  11  12
ATOM     12  C   UNL     1      21.129   7.735  16.757  1.00  0.00     0.000 C 
BRANCH  12  13
ATOM     13  C   UNL     1      19.644   7.976  17.084  1.00  0.00     0.000 C 
BRANCH  13  14
ATOM     14  C   UNL     1      18.968   9.079  16.249  1.00  0.00     0.000 C 
BRANCH  14  15
ATOM     15  C   UNL     1      18.310  10.164  17.115  1.00  0.00     0.000 C 
BRANCH  15  16
ATOM     16  C   UNL     1      19.017  11.512  16.939  1.00  0.00     0.006 C 
BRANCH  16  17
ATOM     17  C   UNL     1      19.920  11.818  18.137  1.00  0.00     0.053 C 
BRANCH  17  18
ATOM     18  C   UNL     1      21.145  12.557  17.697  1.00  0.00     0.041 C 
ATOM     19  O   UNL     1      21.433  12.635  16.476  1.00  0.00    -0.550 OA
ATOM     20  O   UNL     1      21.988  13.126  18.643  1.00  0.00    -0.550 OA
ENDBRANCH  17  18
ENDBRANCH  16  17
ENDBRANCH  15  16
ENDBRANCH  14  15
ENDBRANCH  13  14
ENDBRANCH  12  13
ENDBRANCH  11  12
ENDBRANCH   1  11
TORSDOF 15
ENDMDL
MODEL 8
REMARK VINA RESULT:    -3.102      1.421      2.426
REMARK INTER + INTRA:          -7.461
REMARK INTER:                  -5.378
REMARK INTRA:                  -2.083
REMARK UNBOUND:                -1.640
REMARK SMILES O=C([O-])CCCCCCCCCCCCCCC(=O)[O-]
REMARK SMILES IDX 10 1 9 2 8 3 7 4 6 5 5 6 4 7 2 8 1 9 3 10 11 11 12 12 13 13
REMARK SMILES IDX 14 14 15 15 16 16 17 17 18 18 19 19 20 20
REMARK H PARENT
REMARK Flexibility Score: inf
ROOT
ATOM      1  C   UNL     1      21.330   6.490  15.865  1.00  0.00     0.000 C 
ENDROOT
BRANCH   1   2
ATOM      2  C   UNL     1      20.531   7.796  15.695  1.00  0.00     0.000 C 
BRANCH   2   3
ATOM      3  C   UNL     1      19.095   7.693  16.239  1.00  0.00     0.000 C 
BRANCH   3   4
ATOM      4  C   UNL     1      18.794   8.599  17.447  1.00  0.00     0.000 C 
BRANCH   4   5
ATOM      5  C   UNL     1      18.895  10.096  17.116  1.00  0.00     0.000 C 
BRANCH   5   6
ATOM      6  C   UNL     1      20.007  10.767  17.931  1.00  0.00     0.006 C 
BRANCH   6   7
ATOM      7  C   UNL     1      21.154  11.225  17.025  1.00  0.00     0.053 C 
BRANCH   7   8
ATOM      8  C   UNL     1      21.246  12.718  17.011  1.00  0.00     0.041 C 
ATOM      9  O   UNL     1      21.677  13.318  15.990  1.00  0.00    -0.550 OA
ATOM     10  O   UNL     1      20.800  13.453  18.102  1.00  0.00    -0.550 OA
ENDBRANCH   7   8
ENDBRANCH   6   7
ENDBRANCH   5   6
ENDBRANCH   4   5
ENDBRANCH   3   4
ENDBRANCH   2   3
ENDBRANCH   1   2
BRANCH   1  11
ATOM     11  C   UNL     1      22.408   6.599  16.965  1.00  0.00     0.000 C 
BRANCH  11  12
ATOM     12  C   UNL     1      21.866   6.370  18.389  1.00  0.00     0.000 C 
BRANCH  12  13
ATOM     13  C   UNL     1      21.916   7.601  19.311  1.00  0.00     0.000 C 
BRANCH  13  14
ATOM     14  C   UNL     1      22.954   8.666  18.913  1.00  0.00     0.000 C 
BRANCH  14  15
ATOM     15  C   UNL     1      23.961   8.966  20.032  1.00  0.00     0.000 C 
BRANCH  15  16
ATOM     16  C   UNL     1      25.232   8.126  19.869  1.00  0.00     0.006 C 
BRANCH  16  17
ATOM     17  C   UNL     1      25.836   8.311  18.474  1.00  0.00     0.053 C 
BRANCH  17  18
ATOM     18  C   UNL     1      26.210   6.988  17.883  1.00  0.00     0.041 C 
ATOM     19  O   UNL     1      26.770   6.113  18.592  1.00  0.00    -0.550 OA
ATOM     20  O   UNL     1      25.974   6.737  16.537  1.00  0.00    -0.550 OA
ENDBRANCH  17  18
ENDBRANCH  16  17
ENDBRANCH  15  16
ENDBRANCH  14  15
ENDBRANCH  13  14
ENDBRANCH  12  13
ENDBRANCH  11  12
ENDBRANCH   1  11
TORSDOF 15
ENDMDL
MODEL 9
REMARK VINA RESULT:    -3.066      2.738      4.695
REMARK INTER + INTRA:          -7.394
REMARK INTER:                  -4.987
REMARK INTRA:                  -2.407
REMARK UNBOUND:                -1.640
REMARK SMILES O=C([O-])CCCCCCCCCCCCCCC(=O)[O-]
REMARK SMILES IDX 10 1 9 2 8 3 7 4 6 5 5 6 4 7 2 8 1 9 3 10 11 11 12 12 13 13
REMARK SMILES IDX 14 14 15 15 16 16 17 17 18 18 19 19 20 20
REMARK H PARENT
REMARK Flexibility Score: inf
ROOT
ATOM      1  C   UNL     1      25.323   7.965  19.890  1.00  0.00     0.000 C 
ENDROOT
BRANCH   1   2
ATOM      2  C   UNL     1      24.095   8.894  19.893  1.00  0.00     0.000 C 
BRANCH   2   3
ATOM      3  C   UNL     1      22.764   8.125  19.983  1.00  0.00     0.000 C 
BRANCH   3   4
ATOM      4  C   UNL     1      21.804   8.355  18.801  1.00  0.00     0.000 C 
BRANCH   4   5
ATOM      5  C   UNL     1      22.457   9.110  17.634  1.00  0.00     0.000 C 
BRANCH   5   6
ATOM      6  C   UNL     1      21.475  10.103  17.001  1.00  0.00     0.006 C 
BRANCH   6   7
ATOM      7  C   UNL     1      20.931  11.082  18.046  1.00  0.00     0.053 C 
BRANCH   7   8
ATOM      8  C   UNL     1      21.250  12.492  17.658  1.00  0.00     0.041 C 
ATOM      9  O   UNL     1      21.525  12.775  16.461  1.00  0.00    -0.550 OA
ATOM     10  O   UNL     1      21.189  13.505  18.606  1.00  0.00    -0.550 OA
ENDBRANCH   7   8
ENDBRANCH   6   7
ENDBRANCH   5   6
ENDBRANCH   4   5
ENDBRANCH   3   4
ENDBRANCH   2   3
ENDBRANCH   1   2
BRANCH   1  11
ATOM     11  C   UNL     1      26.378   8.388  18.846  1.00  0.00     0.000 C 
BRANCH  11  12
ATOM     12  C   UNL     1      25.898   8.250  17.388  1.00  0.00     0.000 C 
BRANCH  12  13
ATOM     13  C   UNL     1      25.907   6.815  16.832  1.00  0.00     0.000 C 
BRANCH  13  14
ATOM     14  C   UNL     1      24.524   6.261  16.446  1.00  0.00     0.000 C 
BRANCH  14  15
ATOM     15  C   UNL     1      23.867   5.454  17.576  1.00  0.00     0.000 C 
BRANCH  15  16
ATOM     16  C   UNL     1      22.408   5.127  17.242  1.00  0.00     0.006 C 
BRANCH  16  17
ATOM     17  C   UNL     1      22.035   5.643  15.849  1.00  0.00     0.053 C 
BRANCH  17  18
ATOM     18  C   UNL     1      20.701   6.320  15.878  1.00  0.00     0.041 C 
ATOM     19  O   UNL     1      20.500   7.355  15.193  1.00  0.00    -0.550 OA
ATOM     20  O   UNL     1      19.690   5.827  16.693  1.00  0.00    -0.550 OA
ENDBRANCH  17  18
ENDBRANCH  16  17
ENDBRANCH  15  16
ENDBRANCH  14  15
ENDBRANCH  13  14
ENDBRANCH  12  13
ENDBRANCH  11  12
ENDBRANCH   1  11
TORSDOF 15
ENDMDL
