MODEL 1
REMARK VINA RESULT:    -3.581      0.000      0.000
REMARK INTER + INTRA:          -4.182
REMARK INTER:                  -4.104
REMARK INTRA:                  -0.078
REMARK UNBOUND:                -0.078
REMARK SMILES COc1cc(C=O)ccc1O
REMARK SMILES IDX 3 1 10 2 9 3 8 4 5 5 4 6 2 7 1 8 11 9 6 11 7 12
REMARK H PARENT 11 10
REMARK Flexibility Score: inf
ROOT
ATOM      1  C   UNL     1     116.118 115.120 111.906  1.00  0.00     0.161 A 
ATOM      2  C   UNL     1     117.195 114.214 111.900  1.00  0.00     0.157 A 
ATOM      3  C   UNL     1     118.510 114.689 111.921  1.00  0.00     0.051 A 
ATOM      4  C   UNL     1     118.765 116.061 111.946  1.00  0.00     0.015 A 
ATOM      5  C   UNL     1     117.707 116.978 111.951  1.00  0.00     0.018 A 
ATOM      6  C   UNL     1     116.383 116.504 111.931  1.00  0.00     0.062 A 
ENDROOT
BRANCH   1   7
ATOM      7  O   UNL     1     114.808 114.614 111.886  1.00  0.00    -0.493 OA
ATOM      8  C   UNL     1     113.997 114.423 113.040  1.00  0.00     0.278 C 
ENDBRANCH   1   7
BRANCH   2   9
ATOM      9  O   UNL     1     116.978 112.837 111.876  1.00  0.00    -0.504 OA
ATOM     10  H   UNL     1     116.459 112.385 111.133  1.00  0.00     0.293 HD
ENDBRANCH   2   9
BRANCH   5  11
ATOM     11  C   UNL     1     117.999 118.424 111.977  1.00  0.00     0.260 C 
ATOM     12  O   UNL     1     119.076 118.863 112.464  1.00  0.00    -0.298 OA
ENDBRANCH   5  11
TORSDOF 3
ENDMDL
MODEL 2
REMARK VINA RESULT:    -3.518      1.569      3.022
REMARK INTER + INTRA:          -4.110
REMARK INTER:                  -4.058
REMARK INTRA:                  -0.052
REMARK UNBOUND:                -0.078
REMARK SMILES COc1cc(C=O)ccc1O
REMARK SMILES IDX 3 1 10 2 9 3 8 4 5 5 4 6 2 7 1 8 11 9 6 11 7 12
REMARK H PARENT 11 10
REMARK Flexibility Score: inf
ROOT
ATOM      1  C   UNL     1     116.021 116.377 112.166  1.00  0.00     0.161 A 
ATOM      2  C   UNL     1     114.977 117.315 112.060  1.00  0.00     0.157 A 
ATOM      3  C   UNL     1     115.254 118.683 112.139  1.00  0.00     0.051 A 
ATOM      4  C   UNL     1     116.564 119.129 112.323  1.00  0.00     0.015 A 
ATOM      5  C   UNL     1     117.616 118.212 112.430  1.00  0.00     0.018 A 
ATOM      6  C   UNL     1     117.342 116.835 112.352  1.00  0.00     0.062 A 
ENDROOT
BRANCH   1   7
ATOM      7  O   UNL     1     115.714 115.009 112.082  1.00  0.00    -0.493 OA
ATOM      8  C   UNL     1     116.671 113.976 111.878  1.00  0.00     0.278 C 
ENDBRANCH   1   7
BRANCH   2   9
ATOM      9  O   UNL     1     113.657 116.905 111.875  1.00  0.00    -0.504 OA
ATOM     10  H   UNL     1     113.298 116.634 110.967  1.00  0.00     0.293 HD
ENDBRANCH   2   9
BRANCH   5  11
ATOM     11  C   UNL     1     118.993 118.706 112.625  1.00  0.00     0.260 C 
ATOM     12  O   UNL     1     119.976 118.123 112.093  1.00  0.00    -0.298 OA
ENDBRANCH   5  11
TORSDOF 3
ENDMDL
MODEL 3
REMARK VINA RESULT:    -3.501      1.978      3.697
REMARK INTER + INTRA:          -4.090
REMARK INTER:                  -4.033
REMARK INTRA:                  -0.057
REMARK UNBOUND:                -0.078
REMARK SMILES COc1cc(C=O)ccc1O
REMARK SMILES IDX 3 1 10 2 9 3 8 4 5 5 4 6 2 7 1 8 11 9 6 11 7 12
REMARK H PARENT 11 10
REMARK Flexibility Score: inf
ROOT
ATOM      1  C   UNL     1     115.220 117.079 112.073  1.00  0.00     0.161 A 
ATOM      2  C   UNL     1     114.298 116.023 111.942  1.00  0.00     0.157 A 
ATOM      3  C   UNL     1     114.750 114.702 111.879  1.00  0.00     0.051 A 
ATOM      4  C   UNL     1     116.116 114.418 111.944  1.00  0.00     0.015 A 
ATOM      5  C   UNL     1     117.049 115.454 112.074  1.00  0.00     0.018 A 
ATOM      6  C   UNL     1     116.598 116.785 112.137  1.00  0.00     0.062 A 
ENDROOT
BRANCH   1   7
ATOM      7  O   UNL     1     114.737 118.396 112.135  1.00  0.00    -0.493 OA
ATOM      8  C   UNL     1     115.521 119.557 111.884  1.00  0.00     0.278 C 
ENDBRANCH   1   7
BRANCH   2   9
ATOM      9  O   UNL     1     112.927 116.269 111.875  1.00  0.00    -0.504 OA
ATOM     10  H   UNL     1     112.519 117.140 112.191  1.00  0.00     0.293 HD
ENDBRANCH   2   9
BRANCH   5  11
ATOM     11  C   UNL     1     118.487 115.132 112.140  1.00  0.00     0.260 C 
ATOM     12  O   UNL     1     118.886 114.013 112.559  1.00  0.00    -0.298 OA
ENDBRANCH   5  11
TORSDOF 3
ENDMDL
MODEL 4
REMARK VINA RESULT:    -3.434      1.417      4.138
REMARK INTER + INTRA:          -4.014
REMARK INTER:                  -3.959
REMARK INTRA:                  -0.054
REMARK UNBOUND:                -0.078
REMARK SMILES COc1cc(C=O)ccc1O
REMARK SMILES IDX 3 1 10 2 9 3 8 4 5 5 4 6 2 7 1 8 11 9 6 11 7 12
REMARK H PARENT 11 10
REMARK Flexibility Score: inf
ROOT
ATOM      1  C   UNL     1     116.937 117.977 111.979  1.00  0.00     0.161 A 
ATOM      2  C   UNL     1     118.328 117.774 112.038  1.00  0.00     0.157 A 
ATOM      3  C   UNL     1     118.843 116.478 112.140  1.00  0.00     0.051 A 
ATOM      4  C   UNL     1     117.985 115.378 112.185  1.00  0.00     0.015 A 
ATOM      5  C   UNL     1     116.597 115.559 112.127  1.00  0.00     0.018 A 
ATOM      6  C   UNL     1     116.076 116.861 112.025  1.00  0.00     0.062 A 
ENDROOT
BRANCH   1   7
ATOM      7  O   UNL     1     116.448 119.289 111.875  1.00  0.00    -0.493 OA
ATOM      8  C   UNL     1     115.171 119.716 112.338  1.00  0.00     0.278 C 
ENDBRANCH   1   7
BRANCH   2   9
ATOM      9  O   UNL     1     119.216 118.849 111.995  1.00  0.00    -0.504 OA
ATOM     10  H   UNL     1     119.692 119.122 111.144  1.00  0.00     0.293 HD
ENDBRANCH   2   9
BRANCH   5  11
ATOM     11  C   UNL     1     115.709 114.383 112.176  1.00  0.00     0.260 C 
ATOM     12  O   UNL     1     114.455 114.513 112.189  1.00  0.00    -0.298 OA
ENDBRANCH   5  11
TORSDOF 3
ENDMDL
MODEL 5
REMARK VINA RESULT:    -3.426      1.267      2.797
REMARK INTER + INTRA:          -4.005
REMARK INTER:                  -3.950
REMARK INTRA:                  -0.055
REMARK UNBOUND:                -0.078
REMARK SMILES COc1cc(C=O)ccc1O
REMARK SMILES IDX 3 1 10 2 9 3 8 4 5 5 4 6 2 7 1 8 11 9 6 11 7 12
REMARK H PARENT 11 10
REMARK Flexibility Score: inf
ROOT
ATOM      1  C   UNL     1     116.170 115.127 112.291  1.00  0.00     0.161 A 
ATOM      2  C   UNL     1     114.765 115.173 112.220  1.00  0.00     0.157 A 
ATOM      3  C   UNL     1     114.109 116.402 112.110  1.00  0.00     0.051 A 
ATOM      4  C   UNL     1     114.839 117.592 112.071  1.00  0.00     0.015 A 
ATOM      5  C   UNL     1     116.238 117.567 112.140  1.00  0.00     0.018 A 
ATOM      6  C   UNL     1     116.901 116.332 112.251  1.00  0.00     0.062 A 
ENDROOT
BRANCH   1   7
ATOM      7  O   UNL     1     116.801 113.877 112.400  1.00  0.00    -0.493 OA
ATOM      8  C   UNL     1     118.089 113.573 111.875  1.00  0.00     0.278 C 
ENDBRANCH   1   7
BRANCH   2   9
ATOM      9  O   UNL     1     114.003 114.005 112.255  1.00  0.00    -0.504 OA
ATOM     10  H   UNL     1     114.407 113.092 112.086  1.00  0.00     0.293 HD
ENDBRANCH   2   9
BRANCH   5  11
ATOM     11  C   UNL     1     116.990 118.835 112.098  1.00  0.00     0.260 C 
ATOM     12  O   UNL     1     118.241 118.857 112.247  1.00  0.00    -0.298 OA
ENDBRANCH   5  11
TORSDOF 3
ENDMDL
MODEL 6
REMARK VINA RESULT:    -3.413      2.144      3.419
REMARK INTER + INTRA:          -3.989
REMARK INTER:                  -3.930
REMARK INTRA:                  -0.059
REMARK UNBOUND:                -0.078
REMARK SMILES COc1cc(C=O)ccc1O
REMARK SMILES IDX 3 1 10 2 9 3 8 4 5 5 4 6 2 7 1 8 11 9 6 11 7 12
REMARK H PARENT 11 10
REMARK Flexibility Score: inf
ROOT
ATOM      1  C   UNL     1     116.751 115.944 112.420  1.00  0.00     0.161 A 
ATOM      2  C   UNL     1     115.842 114.921 112.090  1.00  0.00     0.157 A 
ATOM      3  C   UNL     1     114.479 115.207 111.971  1.00  0.00     0.051 A 
ATOM      4  C   UNL     1     114.009 116.505 112.179  1.00  0.00     0.015 A 
ATOM      5  C   UNL     1     114.897 117.536 112.508  1.00  0.00     0.018 A 
ATOM      6  C   UNL     1     116.269 117.252 112.629  1.00  0.00     0.062 A 
ENDROOT
BRANCH   1   7
ATOM      7  O   UNL     1     118.115 115.627 112.532  1.00  0.00    -0.493 OA
ATOM      8  C   UNL     1     119.171 116.384 111.952  1.00  0.00     0.278 C 
ENDBRANCH   1   7
BRANCH   2   9
ATOM      9  O   UNL     1     116.276 113.613 111.875  1.00  0.00    -0.504 OA
ATOM     10  H   UNL     1     116.847 113.116 112.548  1.00  0.00     0.293 HD
ENDBRANCH   2   9
BRANCH   5  11
ATOM     11  C   UNL     1     114.378 118.900 112.723  1.00  0.00     0.260 C 
ATOM     12  O   UNL     1     115.125 119.909 112.602  1.00  0.00    -0.298 OA
ENDBRANCH   5  11
TORSDOF 3
ENDMDL
MODEL 7
REMARK VINA RESULT:    -3.410      2.038      2.416
REMARK INTER + INTRA:          -3.986
REMARK INTER:                  -3.934
REMARK INTRA:                  -0.052
REMARK UNBOUND:                -0.078
REMARK SMILES COc1cc(C=O)ccc1O
REMARK SMILES IDX 3 1 10 2 9 3 8 4 5 5 4 6 2 7 1 8 11 9 6 11 7 12
REMARK H PARENT 11 10
REMARK Flexibility Score: inf
ROOT
ATOM      1  C   UNL     1     116.623 115.954 112.155  1.00  0.00     0.161 A 
ATOM      2  C   UNL     1     118.011 116.093 111.970  1.00  0.00     0.157 A 
ATOM      3  C   UNL     1     118.582 117.366 111.881  1.00  0.00     0.051 A 
ATOM      4  C   UNL     1     117.782 118.507 111.972  1.00  0.00     0.015 A 
ATOM      5  C   UNL     1     116.399 118.390 112.155  1.00  0.00     0.018 A 
ATOM      6  C   UNL     1     115.821 117.111 112.246  1.00  0.00     0.062 A 
ENDROOT
BRANCH   1   7
ATOM      7  O   UNL     1     116.077 114.663 112.242  1.00  0.00    -0.493 OA
ATOM      8  C   UNL     1     114.698 114.381 112.455  1.00  0.00     0.278 C 
ENDBRANCH   1   7
BRANCH   2   9
ATOM      9  O   UNL     1     118.840 114.976 111.876  1.00  0.00    -0.504 OA
ATOM     10  H   UNL     1     118.482 114.055 111.654  1.00  0.00     0.293 HD
ENDBRANCH   2   9
BRANCH   5  11
ATOM     11  C   UNL     1     115.573 119.609 112.249  1.00  0.00     0.260 C 
ATOM     12  O   UNL     1     114.408 119.572 112.728  1.00  0.00    -0.298 OA
ENDBRANCH   5  11
TORSDOF 3
ENDMDL
