MODEL 1
REMARK VINA RESULT:     9.451      0.000      0.000
REMARK INTER + INTRA:          16.313
REMARK INTER:                  17.186
REMARK INTRA:                  -0.873
REMARK UNBOUND:                -0.873
REMARK SMILES CCCCCCCCCCCCCC[C@@H](C)C(=O)[O-]
REMARK SMILES IDX 9 1 10 2 11 3 12 4 13 5 14 6 15 7 16 8 17 9 18 10 19 11 8 12
REMARK SMILES IDX 7 13 6 14 5 15 4 16 3 17 2 18 1 19
REMARK H PARENT
REMARK Flexibility Score: inf
ROOT
ATOM      1  C   UNL     1      -9.352  30.894 -16.005  1.00  0.00     0.000 C 
ENDROOT
BRANCH   1   2
ATOM      2  C   UNL     1      -8.784  29.705 -16.798  1.00  0.00     0.000 C 
BRANCH   2   3
ATOM      3  C   UNL     1      -7.674  28.963 -16.038  1.00  0.00     0.000 C 
BRANCH   3   4
ATOM      4  C   UNL     1      -6.762  28.200 -17.011  1.00  0.00     0.000 C 
BRANCH   4   5
ATOM      5  C   UNL     1      -6.562  28.941 -18.343  1.00  0.00     0.001 C 
BRANCH   5   6
ATOM      6  C   UNL     1      -6.032  28.019 -19.460  1.00  0.00     0.009 C 
BRANCH   6   7
ATOM      7  C   UNL     1      -6.775  28.162 -20.806  1.00  0.00     0.032 C 
ATOM      8  C   UNL     1      -7.583  29.465 -20.901  1.00  0.00     0.014 C 
BRANCH   7   9
ATOM      9  C   UNL     1      -5.842  27.988 -21.978  1.00  0.00     0.044 C 
ATOM     10  O   UNL     1      -4.944  27.106 -21.966  1.00  0.00    -0.550 OA
ATOM     11  O   UNL     1      -6.006  28.778 -23.109  1.00  0.00    -0.550 OA
ENDBRANCH   7   9
ENDBRANCH   6   7
ENDBRANCH   5   6
ENDBRANCH   4   5
ENDBRANCH   3   4
ENDBRANCH   2   3
ENDBRANCH   1   2
BRANCH   1  12
ATOM     12  C   UNL     1      -8.947  32.251 -16.599  1.00  0.00     0.000 C 
BRANCH  12  13
ATOM     13  C   UNL     1      -8.689  33.281 -15.492  1.00  0.00    -0.000 C 
BRANCH  13  14
ATOM     14  C   UNL     1      -7.223  33.738 -15.497  1.00  0.00    -0.000 C 
BRANCH  14  15
ATOM     15  C   UNL     1      -7.014  35.048 -16.274  1.00  0.00    -0.000 C 
BRANCH  15  16
ATOM     16  C   UNL     1      -5.529  35.428 -16.407  1.00  0.00    -0.000 C 
BRANCH  16  17
ATOM     17  C   UNL     1      -5.139  35.744 -17.867  1.00  0.00    -0.000 C 
BRANCH  17  18
ATOM     18  C   UNL     1      -6.312  36.258 -18.720  1.00  0.00    -0.003 C 
ATOM     19  C   UNL     1      -5.911  37.380 -19.675  1.00  0.00     0.004 C 
ENDBRANCH  17  18
ENDBRANCH  16  17
ENDBRANCH  15  16
ENDBRANCH  14  15
ENDBRANCH  13  14
ENDBRANCH  12  13
ENDBRANCH   1  12
TORSDOF 14
ENDMDL
MODEL 2
REMARK VINA RESULT:    10.053      2.468      3.735
REMARK INTER + INTRA:          17.408
REMARK INTER:                  17.903
REMARK INTRA:                  -0.495
REMARK UNBOUND:                -0.873
REMARK SMILES CCCCCCCCCCCCCC[C@@H](C)C(=O)[O-]
REMARK SMILES IDX 9 1 10 2 11 3 12 4 13 5 14 6 15 7 16 8 17 9 18 10 19 11 8 12
REMARK SMILES IDX 7 13 6 14 5 15 4 16 3 17 2 18 1 19
REMARK H PARENT
REMARK Flexibility Score: inf
ROOT
ATOM      1  C   UNL     1      -9.430  30.706 -15.873  1.00  0.00     0.000 C 
ENDROOT
BRANCH   1   2
ATOM      2  C   UNL     1      -8.239  29.947 -15.264  1.00  0.00     0.000 C 
BRANCH   2   3
ATOM      3  C   UNL     1      -7.862  28.694 -16.069  1.00  0.00     0.000 C 
BRANCH   3   4
ATOM      4  C   UNL     1      -7.711  29.028 -17.561  1.00  0.00     0.000 C 
BRANCH   4   5
ATOM      5  C   UNL     1      -6.278  28.818 -18.075  1.00  0.00     0.001 C 
BRANCH   5   6
ATOM      6  C   UNL     1      -6.209  27.815 -19.244  1.00  0.00     0.009 C 
BRANCH   6   7
ATOM      7  C   UNL     1      -6.992  28.253 -20.502  1.00  0.00     0.032 C 
ATOM      8  C   UNL     1      -7.553  29.677 -20.384  1.00  0.00     0.014 C 
BRANCH   7   9
ATOM      9  C   UNL     1      -6.177  28.069 -21.757  1.00  0.00     0.044 C 
ATOM     10  O   UNL     1      -5.077  28.662 -21.909  1.00  0.00    -0.550 OA
ATOM     11  O   UNL     1      -6.620  27.193 -22.741  1.00  0.00    -0.550 OA
ENDBRANCH   7   9
ENDBRANCH   6   7
ENDBRANCH   5   6
ENDBRANCH   4   5
ENDBRANCH   3   4
ENDBRANCH   2   3
ENDBRANCH   1   2
BRANCH   1  12
ATOM     12  C   UNL     1      -9.050  32.113 -16.358  1.00  0.00     0.000 C 
BRANCH  12  13
ATOM     13  C   UNL     1      -9.195  32.228 -17.880  1.00  0.00    -0.000 C 
BRANCH  13  14
ATOM     14  C   UNL     1      -9.115  33.693 -18.332  1.00  0.00    -0.000 C 
BRANCH  14  15
ATOM     15  C   UNL     1      -9.802  33.934 -19.686  1.00  0.00    -0.000 C 
BRANCH  15  16
ATOM     16  C   UNL     1      -9.103  33.203 -20.845  1.00  0.00    -0.000 C 
BRANCH  16  17
ATOM     17  C   UNL     1     -10.035  32.185 -21.537  1.00  0.00    -0.000 C 
BRANCH  17  18
ATOM     18  C   UNL     1     -10.763  32.756 -22.766  1.00  0.00    -0.003 C 
ATOM     19  C   UNL     1     -12.029  31.979 -23.125  1.00  0.00     0.004 C 
ENDBRANCH  17  18
ENDBRANCH  16  17
ENDBRANCH  15  16
ENDBRANCH  14  15
ENDBRANCH  13  14
ENDBRANCH  12  13
ENDBRANCH   1  12
TORSDOF 14
ENDMDL
MODEL 3
REMARK VINA RESULT:    11.185      3.857      6.639
REMARK INTER + INTRA:          19.466
REMARK INTER:                  20.173
REMARK INTRA:                  -0.707
REMARK UNBOUND:                -0.873
REMARK SMILES CCCCCCCCCCCCCC[C@@H](C)C(=O)[O-]
REMARK SMILES IDX 9 1 10 2 11 3 12 4 13 5 14 6 15 7 16 8 17 9 18 10 19 11 8 12
REMARK SMILES IDX 7 13 6 14 5 15 4 16 3 17 2 18 1 19
REMARK H PARENT
REMARK Flexibility Score: inf
ROOT
ATOM      1  C   UNL     1      -5.517  28.015 -20.132  1.00  0.00     0.000 C 
ENDROOT
BRANCH   1   2
ATOM      2  C   UNL     1      -6.646  28.034 -19.089  1.00  0.00     0.000 C 
BRANCH   2   3
ATOM      3  C   UNL     1      -6.295  28.874 -17.852  1.00  0.00     0.000 C 
BRANCH   3   4
ATOM      4  C   UNL     1      -6.502  28.064 -16.564  1.00  0.00     0.000 C 
BRANCH   4   5
ATOM      5  C   UNL     1      -7.630  28.625 -15.684  1.00  0.00     0.001 C 
BRANCH   5   6
ATOM      6  C   UNL     1      -8.626  29.493 -16.481  1.00  0.00     0.009 C 
BRANCH   6   7
ATOM      7  C   UNL     1      -9.367  30.549 -15.632  1.00  0.00     0.032 C 
ATOM      8  C   UNL     1      -9.094  30.399 -14.128  1.00  0.00     0.014 C 
BRANCH   7   9
ATOM      9  C   UNL     1      -9.092  31.949 -16.119  1.00  0.00     0.044 C 
ATOM     10  O   UNL     1      -9.326  32.277 -17.312  1.00  0.00    -0.550 OA
ATOM     11  O   UNL     1      -8.621  32.905 -15.229  1.00  0.00    -0.550 OA
ENDBRANCH   7   9
ENDBRANCH   6   7
ENDBRANCH   5   6
ENDBRANCH   4   5
ENDBRANCH   3   4
ENDBRANCH   2   3
ENDBRANCH   1   2
BRANCH   1  12
ATOM     12  C   UNL     1      -5.930  27.324 -21.441  1.00  0.00     0.000 C 
BRANCH  12  13
ATOM     13  C   UNL     1      -6.350  28.353 -22.497  1.00  0.00    -0.000 C 
BRANCH  13  14
ATOM     14  C   UNL     1      -6.337  29.774 -21.916  1.00  0.00    -0.000 C 
BRANCH  14  15
ATOM     15  C   UNL     1      -7.747  30.299 -21.602  1.00  0.00    -0.000 C 
BRANCH  15  16
ATOM     16  C   UNL     1      -7.876  31.818 -21.811  1.00  0.00    -0.000 C 
BRANCH  16  17
ATOM     17  C   UNL     1      -9.333  32.305 -21.660  1.00  0.00    -0.000 C 
BRANCH  17  18
ATOM     18  C   UNL     1     -10.014  32.630 -23.001  1.00  0.00    -0.003 C 
ATOM     19  C   UNL     1     -11.476  32.191 -23.051  1.00  0.00     0.004 C 
ENDBRANCH  17  18
ENDBRANCH  16  17
ENDBRANCH  15  16
ENDBRANCH  14  15
ENDBRANCH  13  14
ENDBRANCH  12  13
ENDBRANCH   1  12
TORSDOF 14
ENDMDL
MODEL 4
REMARK VINA RESULT:    11.397      1.001      1.568
REMARK INTER + INTRA:          19.851
REMARK INTER:                  20.442
REMARK INTRA:                  -0.591
REMARK UNBOUND:                -0.873
REMARK SMILES CCCCCCCCCCCCCC[C@@H](C)C(=O)[O-]
REMARK SMILES IDX 9 1 10 2 11 3 12 4 13 5 14 6 15 7 16 8 17 9 18 10 19 11 8 12
REMARK SMILES IDX 7 13 6 14 5 15 4 16 3 17 2 18 1 19
REMARK H PARENT
REMARK Flexibility Score: inf
ROOT
ATOM      1  C   UNL     1      -9.206  29.993 -16.677  1.00  0.00     0.000 C 
ENDROOT
BRANCH   1   2
ATOM      2  C   UNL     1      -8.207  29.380 -15.682  1.00  0.00     0.000 C 
BRANCH   2   3
ATOM      3  C   UNL     1      -7.250  28.378 -16.344  1.00  0.00     0.000 C 
BRANCH   3   4
ATOM      4  C   UNL     1      -6.521  29.022 -17.533  1.00  0.00     0.000 C 
BRANCH   4   5
ATOM      5  C   UNL     1      -6.763  28.274 -18.854  1.00  0.00     0.001 C 
BRANCH   5   6
ATOM      6  C   UNL     1      -5.931  28.846 -20.019  1.00  0.00     0.009 C 
BRANCH   6   7
ATOM      7  C   UNL     1      -6.673  28.878 -21.373  1.00  0.00     0.032 C 
ATOM      8  C   UNL     1      -6.660  30.268 -22.025  1.00  0.00     0.014 C 
BRANCH   7   9
ATOM      9  C   UNL     1      -6.168  27.810 -22.310  1.00  0.00     0.044 C 
ATOM     10  O   UNL     1      -6.917  26.868 -22.683  1.00  0.00    -0.550 OA
ATOM     11  O   UNL     1      -4.875  27.891 -22.811  1.00  0.00    -0.550 OA
ENDBRANCH   7   9
ENDBRANCH   6   7
ENDBRANCH   5   6
ENDBRANCH   4   5
ENDBRANCH   3   4
ENDBRANCH   2   3
ENDBRANCH   1   2
BRANCH   1  12
ATOM     12  C   UNL     1      -8.695  31.302 -17.299  1.00  0.00     0.000 C 
BRANCH  12  13
ATOM     13  C   UNL     1      -9.393  32.516 -16.675  1.00  0.00    -0.000 C 
BRANCH  13  14
ATOM     14  C   UNL     1      -9.030  32.655 -15.189  1.00  0.00    -0.000 C 
BRANCH  14  15
ATOM     15  C   UNL     1      -7.687  33.370 -14.972  1.00  0.00    -0.000 C 
BRANCH  15  16
ATOM     16  C   UNL     1      -7.467  34.532 -15.956  1.00  0.00    -0.000 C 
BRANCH  16  17
ATOM     17  C   UNL     1      -5.969  34.814 -16.197  1.00  0.00    -0.000 C 
BRANCH  17  18
ATOM     18  C   UNL     1      -5.698  36.180 -16.851  1.00  0.00    -0.003 C 
ATOM     19  C   UNL     1      -5.544  36.097 -18.369  1.00  0.00     0.004 C 
ENDBRANCH  17  18
ENDBRANCH  16  17
ENDBRANCH  15  16
ENDBRANCH  14  15
ENDBRANCH  13  14
ENDBRANCH  12  13
ENDBRANCH   1  12
TORSDOF 14
ENDMDL
MODEL 5
REMARK VINA RESULT:    11.845      3.214      6.470
REMARK INTER + INTRA:          20.666
REMARK INTER:                  21.316
REMARK INTRA:                  -0.650
REMARK UNBOUND:                -0.873
REMARK SMILES CCCCCCCCCCCCCC[C@@H](C)C(=O)[O-]
REMARK SMILES IDX 9 1 10 2 11 3 12 4 13 5 14 6 15 7 16 8 17 9 18 10 19 11 8 12
REMARK SMILES IDX 7 13 6 14 5 15 4 16 3 17 2 18 1 19
REMARK H PARENT
REMARK Flexibility Score: inf
ROOT
ATOM      1  C   UNL     1      -7.164  28.203 -15.802  1.00  0.00     0.000 C 
ENDROOT
BRANCH   1   2
ATOM      2  C   UNL     1      -8.063  29.154 -14.996  1.00  0.00     0.000 C 
BRANCH   2   3
ATOM      3  C   UNL     1      -8.897  30.082 -15.893  1.00  0.00     0.000 C 
BRANCH   3   4
ATOM      4  C   UNL     1      -9.163  31.424 -15.193  1.00  0.00     0.000 C 
BRANCH   4   5
ATOM      5  C   UNL     1      -8.832  32.633 -16.083  1.00  0.00     0.001 C 
BRANCH   5   6
ATOM      6  C   UNL     1      -9.694  32.681 -17.361  1.00  0.00     0.009 C 
BRANCH   6   7
ATOM      7  C   UNL     1      -8.964  32.205 -18.636  1.00  0.00     0.032 C 
ATOM      8  C   UNL     1      -9.228  30.726 -18.954  1.00  0.00     0.014 C 
BRANCH   7   9
ATOM      9  C   UNL     1      -9.262  33.098 -19.814  1.00  0.00     0.044 C 
ATOM     10  O   UNL     1      -9.343  34.347 -19.677  1.00  0.00    -0.550 OA
ATOM     11  O   UNL     1      -9.399  32.541 -21.080  1.00  0.00    -0.550 OA
ENDBRANCH   7   9
ENDBRANCH   6   7
ENDBRANCH   5   6
ENDBRANCH   4   5
ENDBRANCH   3   4
ENDBRANCH   2   3
ENDBRANCH   1   2
BRANCH   1  12
ATOM     12  C   UNL     1      -7.065  28.594 -17.285  1.00  0.00     0.000 C 
BRANCH  12  13
ATOM     13  C   UNL     1      -5.748  28.103 -17.897  1.00  0.00    -0.000 C 
BRANCH  13  14
ATOM     14  C   UNL     1      -5.896  27.871 -19.408  1.00  0.00    -0.000 C 
BRANCH  14  15
ATOM     15  C   UNL     1      -7.160  28.526 -19.987  1.00  0.00    -0.000 C 
BRANCH  15  16
ATOM     16  C   UNL     1      -6.857  29.444 -21.184  1.00  0.00    -0.000 C 
BRANCH  16  17
ATOM     17  C   UNL     1      -5.704  28.901 -22.056  1.00  0.00    -0.000 C 
BRANCH  17  18
ATOM     18  C   UNL     1      -6.109  27.706 -22.935  1.00  0.00    -0.003 C 
ATOM     19  C   UNL     1      -5.051  26.605 -22.973  1.00  0.00     0.004 C 
ENDBRANCH  17  18
ENDBRANCH  16  17
ENDBRANCH  15  16
ENDBRANCH  14  15
ENDBRANCH  13  14
ENDBRANCH  12  13
ENDBRANCH   1  12
TORSDOF 14
ENDMDL
MODEL 6
REMARK VINA RESULT:    12.010      3.794      6.846
REMARK INTER + INTRA:          20.966
REMARK INTER:                  18.693
REMARK INTRA:                   2.273
REMARK UNBOUND:                -0.873
REMARK SMILES CCCCCCCCCCCCCC[C@@H](C)C(=O)[O-]
REMARK SMILES IDX 9 1 10 2 11 3 12 4 13 5 14 6 15 7 16 8 17 9 18 10 19 11 8 12
REMARK SMILES IDX 7 13 6 14 5 15 4 16 3 17 2 18 1 19
REMARK H PARENT
REMARK Flexibility Score: inf
ROOT
ATOM      1  C   UNL     1      -6.839  28.552 -18.044  1.00  0.00     0.000 C 
ENDROOT
BRANCH   1   2
ATOM      2  C   UNL     1      -6.362  27.885 -16.744  1.00  0.00     0.000 C 
BRANCH   2   3
ATOM      3  C   UNL     1      -7.414  27.949 -15.626  1.00  0.00     0.000 C 
BRANCH   3   4
ATOM      4  C   UNL     1      -7.351  29.297 -14.892  1.00  0.00     0.000 C 
BRANCH   4   5
ATOM      5  C   UNL     1      -8.670  29.652 -14.189  1.00  0.00     0.001 C 
BRANCH   5   6
ATOM      6  C   UNL     1      -9.603  30.502 -15.075  1.00  0.00     0.009 C 
BRANCH   6   7
ATOM      7  C   UNL     1      -8.998  30.892 -16.442  1.00  0.00     0.032 C 
ATOM      8  C   UNL     1      -9.657  30.152 -17.614  1.00  0.00     0.014 C 
BRANCH   7   9
ATOM      9  C   UNL     1      -8.996  32.385 -16.645  1.00  0.00     0.044 C 
ATOM     10  O   UNL     1      -9.352  32.890 -17.742  1.00  0.00    -0.550 OA
ATOM     11  O   UNL     1      -8.644  33.221 -15.593  1.00  0.00    -0.550 OA
ENDBRANCH   7   9
ENDBRANCH   6   7
ENDBRANCH   5   6
ENDBRANCH   4   5
ENDBRANCH   3   4
ENDBRANCH   2   3
ENDBRANCH   1   2
BRANCH   1  12
ATOM     12  C   UNL     1      -5.829  28.400 -19.193  1.00  0.00     0.000 C 
BRANCH  12  13
ATOM     13  C   UNL     1      -6.370  27.465 -20.280  1.00  0.00    -0.000 C 
BRANCH  13  14
ATOM     14  C   UNL     1      -5.225  26.860 -21.106  1.00  0.00    -0.000 C 
BRANCH  14  15
ATOM     15  C   UNL     1      -5.377  27.125 -22.612  1.00  0.00    -0.000 C 
BRANCH  15  16
ATOM     16  C   UNL     1      -6.190  28.396 -22.913  1.00  0.00    -0.000 C 
BRANCH  16  17
ATOM     17  C   UNL     1      -6.138  29.409 -21.748  1.00  0.00    -0.000 C 
BRANCH  17  18
ATOM     18  C   UNL     1      -7.375  30.321 -21.673  1.00  0.00    -0.003 C 
ATOM     19  C   UNL     1      -8.395  29.862 -20.633  1.00  0.00     0.004 C 
ENDBRANCH  17  18
ENDBRANCH  16  17
ENDBRANCH  15  16
ENDBRANCH  14  15
ENDBRANCH  13  14
ENDBRANCH  12  13
ENDBRANCH   1  12
TORSDOF 14
ENDMDL
