MODEL 1
REMARK VINA RESULT:    11.422      0.000      0.000
REMARK INTER + INTRA:          12.758
REMARK INTER:                  12.758
REMARK INTRA:                   0.000
REMARK UNBOUND:                 0.000
REMARK SMILES Oc1cc(O)c2c(ccc3ccc(O)c(O)c32)c1
REMARK SMILES IDX 9 1 8 2 7 3 18 4 2 5 3 6 4 7 6 8 17 9 10 10 11 11 12 12
REMARK SMILES IDX 13 13 15 14 16 15 1 17 5 19 14 21
REMARK H PARENT 16 16 1 18 5 20 14 22
REMARK Flexibility Score: inf
ROOT
ATOM      1  C   UNL     1      34.748  24.125  29.654  1.00  0.00     0.009 A 
ATOM      2  C   UNL     1      34.801  24.121  31.041  1.00  0.00     0.009 A 
ATOM      3  C   UNL     1      33.634  23.954  31.795  1.00  0.00    -0.010 A 
ATOM      4  C   UNL     1      33.706  24.030  33.194  1.00  0.00     0.055 A 
ATOM      5  C   UNL     1      32.545  23.999  33.962  1.00  0.00     0.119 A 
ATOM      6  C   UNL     1      31.301  23.953  33.334  1.00  0.00     0.093 A 
ATOM      7  C   UNL     1      31.206  23.899  31.936  1.00  0.00     0.127 A 
ATOM      8  C   UNL     1      32.381  23.759  31.146  1.00  0.00     0.035 A 
ATOM      9  C   UNL     1      32.372  23.536  29.729  1.00  0.00     0.039 A 
ATOM     10  C   UNL     1      33.552  23.829  28.990  1.00  0.00    -0.014 A 
ATOM     11  C   UNL     1      33.542  23.776  27.591  1.00  0.00     0.013 A 
ATOM     12  C   UNL     1      32.395  23.385  26.912  1.00  0.00     0.051 A 
ATOM     13  C   UNL     1      31.271  22.950  27.613  1.00  0.00     0.158 A 
ATOM     14  C   UNL     1      31.287  22.936  29.029  1.00  0.00     0.166 A 
ENDROOT
BRANCH  14  15
ATOM     15  O   UNL     1      30.310  22.227  29.733  1.00  0.00    -0.504 OA
ATOM     16  H   UNL     1      30.398  21.961  30.704  1.00  0.00     0.293 HD
ENDBRANCH  14  15
BRANCH   5  17
ATOM     17  O   UNL     1      32.639  24.052  35.352  1.00  0.00    -0.508 OA
ATOM     18  H   UNL     1      33.412  24.519  35.813  1.00  0.00     0.293 HD
ENDBRANCH   5  17
BRANCH   7  19
ATOM     19  O   UNL     1      29.954  24.084  31.349  1.00  0.00    -0.507 OA
ATOM     20  H   UNL     1      29.845  24.227  30.351  1.00  0.00     0.293 HD
ENDBRANCH   7  19
BRANCH  13  21
ATOM     21  O   UNL     1      30.162  22.532  26.876  1.00  0.00    -0.504 OA
ATOM     22  H   UNL     1      30.034  22.741  25.894  1.00  0.00     0.293 HD
ENDBRANCH  13  21
TORSDOF 4
ENDMDL
MODEL 2
REMARK VINA RESULT:    13.793      1.819      2.395
REMARK INTER + INTRA:          15.406
REMARK INTER:                  15.406
REMARK INTRA:                   0.000
REMARK UNBOUND:                 0.000
REMARK SMILES Oc1cc(O)c2c(ccc3ccc(O)c(O)c32)c1
REMARK SMILES IDX 9 1 8 2 7 3 18 4 2 5 3 6 4 7 6 8 17 9 10 10 11 11 12 12
REMARK SMILES IDX 13 13 15 14 16 15 1 17 5 19 14 21
REMARK H PARENT 16 16 1 18 5 20 14 22
REMARK Flexibility Score: inf
ROOT
ATOM      1  C   UNL     1      36.489  23.788  28.638  1.00  0.00     0.009 A 
ATOM      2  C   UNL     1      37.007  23.845  29.925  1.00  0.00     0.009 A 
ATOM      3  C   UNL     1      36.158  23.763  31.035  1.00  0.00    -0.010 A 
ATOM      4  C   UNL     1      36.700  23.899  32.322  1.00  0.00     0.055 A 
ATOM      5  C   UNL     1      35.865  23.953  33.436  1.00  0.00     0.119 A 
ATOM      6  C   UNL     1      34.481  23.931  33.265  1.00  0.00     0.093 A 
ATOM      7  C   UNL     1      33.919  23.817  31.985  1.00  0.00     0.127 A 
ATOM      8  C   UNL     1      34.756  23.592  30.856  1.00  0.00     0.035 A 
ATOM      9  C   UNL     1      34.263  23.305  29.540  1.00  0.00     0.039 A 
ATOM     10  C   UNL     1      35.132  23.513  28.432  1.00  0.00    -0.014 A 
ATOM     11  C   UNL     1      34.650  23.397  27.123  1.00  0.00     0.013 A 
ATOM     12  C   UNL     1      33.331  23.025  26.892  1.00  0.00     0.051 A 
ATOM     13  C   UNL     1      32.500  22.671  27.953  1.00  0.00     0.158 A 
ATOM     14  C   UNL     1      32.992  22.721  29.279  1.00  0.00     0.166 A 
ENDROOT
BRANCH  14  15
ATOM     15  O   UNL     1      32.292  22.087  30.310  1.00  0.00    -0.504 OA
ATOM     16  H   UNL     1      31.502  22.497  30.789  1.00  0.00     0.293 HD
ENDBRANCH  14  15
BRANCH   5  17
ATOM     17  O   UNL     1      36.424  24.065  34.708  1.00  0.00    -0.508 OA
ATOM     18  H   UNL     1      35.898  23.824  35.540  1.00  0.00     0.293 HD
ENDBRANCH   5  17
BRANCH   7  19
ATOM     19  O   UNL     1      32.548  24.029  31.843  1.00  0.00    -0.507 OA
ATOM     20  H   UNL     1      31.881  23.266  31.879  1.00  0.00     0.293 HD
ENDBRANCH   7  19
BRANCH  13  21
ATOM     21  O   UNL     1      31.197  22.268  27.655  1.00  0.00    -0.504 OA
ATOM     22  H   UNL     1      30.389  22.545  28.198  1.00  0.00     0.293 HD
ENDBRANCH  13  21
TORSDOF 4
ENDMDL
