MODEL 1
REMARK VINA RESULT:    -3.216      0.000      0.000
REMARK INTER + INTRA:          -4.020
REMARK INTER:                  -3.968
REMARK INTRA:                  -0.051
REMARK UNBOUND:                -0.051
REMARK SMILES CCCCCC(=O)[O-]
REMARK SMILES IDX 4 1 5 2 6 3 7 4 8 5 3 6 2 7 1 8
REMARK H PARENT
REMARK Flexibility Score: inf
ROOT
ATOM      1  C   UNL     1      12.714  30.780  34.221  1.00  0.00     0.006 C 
ENDROOT
BRANCH   1   2
ATOM      2  C   UNL     1      13.347  32.040  34.824  1.00  0.00     0.053 C 
BRANCH   2   3
ATOM      3  C   UNL     1      13.757  32.988  33.742  1.00  0.00     0.041 C 
ATOM      4  O   UNL     1      13.802  34.226  33.967  1.00  0.00    -0.550 OA
ATOM      5  O   UNL     1      14.042  32.509  32.469  1.00  0.00    -0.550 OA
ENDBRANCH   2   3
ENDBRANCH   1   2
BRANCH   1   6
ATOM      6  C   UNL     1      12.127  29.844  35.288  1.00  0.00     0.000 C 
BRANCH   6   7
ATOM      7  C   UNL     1      10.592  29.875  35.320  1.00  0.00    -0.003 C 
ATOM      8  C   UNL     1      10.040  28.797  36.249  1.00  0.00     0.004 C 
ENDBRANCH   6   7
ENDBRANCH   1   6
TORSDOF 4
ENDMDL
MODEL 2
REMARK VINA RESULT:    -3.152     11.168     11.786
REMARK INTER + INTRA:          -3.941
REMARK INTER:                  -3.819
REMARK INTRA:                  -0.122
REMARK UNBOUND:                -0.051
REMARK SMILES CCCCCC(=O)[O-]
REMARK SMILES IDX 4 1 5 2 6 3 7 4 8 5 3 6 2 7 1 8
REMARK H PARENT
REMARK Flexibility Score: inf
ROOT
ATOM      1  C   UNL     1      15.506  39.804  26.773  1.00  0.00     0.006 C 
ENDROOT
BRANCH   1   2
ATOM      2  C   UNL     1      14.445  38.697  26.740  1.00  0.00     0.053 C 
BRANCH   2   3
ATOM      3  C   UNL     1      14.446  38.013  25.410  1.00  0.00     0.041 C 
ATOM      4  O   UNL     1      13.373  37.560  24.929  1.00  0.00    -0.550 OA
ATOM      5  O   UNL     1      15.639  37.832  24.721  1.00  0.00    -0.550 OA
ENDBRANCH   2   3
ENDBRANCH   1   2
BRANCH   1   6
ATOM      6  C   UNL     1      15.024  41.064  27.508  1.00  0.00     0.000 C 
BRANCH   6   7
ATOM      7  C   UNL     1      13.716  40.834  28.279  1.00  0.00    -0.003 C 
ATOM      8  C   UNL     1      13.956  40.850  29.786  1.00  0.00     0.004 C 
ENDBRANCH   6   7
ENDBRANCH   1   6
TORSDOF 4
ENDMDL
MODEL 3
REMARK VINA RESULT:    -3.093      3.122      4.723
REMARK INTER + INTRA:          -3.867
REMARK INTER:                  -3.791
REMARK INTRA:                  -0.076
REMARK UNBOUND:                -0.051
REMARK SMILES CCCCCC(=O)[O-]
REMARK SMILES IDX 4 1 5 2 6 3 7 4 8 5 3 6 2 7 1 8
REMARK H PARENT
REMARK Flexibility Score: inf
ROOT
ATOM      1  C   UNL     1      12.187  30.189  32.964  1.00  0.00     0.006 C 
ENDROOT
BRANCH   1   2
ATOM      2  C   UNL     1      12.589  30.668  34.365  1.00  0.00     0.053 C 
BRANCH   2   3
ATOM      3  C   UNL     1      12.287  29.614  35.382  1.00  0.00     0.041 C 
ATOM      4  O   UNL     1      11.108  29.450  35.796  1.00  0.00    -0.550 OA
ATOM      5  O   UNL     1      13.315  28.842  35.911  1.00  0.00    -0.550 OA
ENDBRANCH   2   3
ENDBRANCH   1   2
BRANCH   1   6
ATOM      6  C   UNL     1      13.231  30.546  31.895  1.00  0.00     0.000 C 
BRANCH   6   7
ATOM      7  C   UNL     1      13.591  32.039  31.896  1.00  0.00    -0.003 C 
ATOM      8  C   UNL     1      13.454  32.638  30.499  1.00  0.00     0.004 C 
ENDBRANCH   6   7
ENDBRANCH   1   6
TORSDOF 4
ENDMDL
MODEL 4
REMARK VINA RESULT:    -3.045     11.595     12.756
REMARK INTER + INTRA:          -3.809
REMARK INTER:                  -3.573
REMARK INTRA:                  -0.236
REMARK UNBOUND:                -0.051
REMARK SMILES CCCCCC(=O)[O-]
REMARK SMILES IDX 4 1 5 2 6 3 7 4 8 5 3 6 2 7 1 8
REMARK H PARENT
REMARK Flexibility Score: inf
ROOT
ATOM      1  C   UNL     1      21.269  32.741  24.621  1.00  0.00     0.006 C 
ENDROOT
BRANCH   1   2
ATOM      2  C   UNL     1      20.485  31.485  24.221  1.00  0.00     0.053 C 
BRANCH   2   3
ATOM      3  C   UNL     1      19.651  31.005  25.366  1.00  0.00     0.041 C 
ATOM      4  O   UNL     1      20.169  30.310  26.280  1.00  0.00    -0.550 OA
ATOM      5  O   UNL     1      18.290  31.282  25.401  1.00  0.00    -0.550 OA
ENDBRANCH   2   3
ENDBRANCH   1   2
BRANCH   1   6
ATOM      6  C   UNL     1      20.793  33.998  23.876  1.00  0.00     0.000 C 
BRANCH   6   7
ATOM      7  C   UNL     1      19.594  34.671  24.558  1.00  0.00    -0.003 C 
ATOM      8  C   UNL     1      19.771  34.703  26.074  1.00  0.00     0.004 C 
ENDBRANCH   6   7
ENDBRANCH   1   6
TORSDOF 4
ENDMDL
MODEL 5
REMARK VINA RESULT:    -3.026     10.958     11.420
REMARK INTER + INTRA:          -3.785
REMARK INTER:                  -3.671
REMARK INTRA:                  -0.114
REMARK UNBOUND:                -0.051
REMARK SMILES CCCCCC(=O)[O-]
REMARK SMILES IDX 4 1 5 2 6 3 7 4 8 5 3 6 2 7 1 8
REMARK H PARENT
REMARK Flexibility Score: inf
ROOT
ATOM      1  C   UNL     1      14.164  39.589  27.302  1.00  0.00     0.006 C 
ENDROOT
BRANCH   1   2
ATOM      2  C   UNL     1      14.118  40.917  28.067  1.00  0.00     0.053 C 
BRANCH   2   3
ATOM      3  C   UNL     1      14.414  40.695  29.517  1.00  0.00     0.041 C 
ATOM      4  O   UNL     1      13.508  40.849  30.379  1.00  0.00    -0.550 OA
ATOM      5  O   UNL     1      15.701  40.365  29.922  1.00  0.00    -0.550 OA
ENDBRANCH   2   3
ENDBRANCH   1   2
BRANCH   1   6
ATOM      6  C   UNL     1      15.382  39.485  26.371  1.00  0.00     0.000 C 
BRANCH   6   7
ATOM      7  C   UNL     1      15.300  38.279  25.424  1.00  0.00    -0.003 C 
ATOM      8  C   UNL     1      13.892  37.689  25.405  1.00  0.00     0.004 C 
ENDBRANCH   6   7
ENDBRANCH   1   6
TORSDOF 4
ENDMDL
MODEL 6
REMARK VINA RESULT:    -3.012     10.556     11.296
REMARK INTER + INTRA:          -3.768
REMARK INTER:                  -3.542
REMARK INTRA:                  -0.226
REMARK UNBOUND:                -0.051
REMARK SMILES CCCCCC(=O)[O-]
REMARK SMILES IDX 4 1 5 2 6 3 7 4 8 5 3 6 2 7 1 8
REMARK H PARENT
REMARK Flexibility Score: inf
ROOT
ATOM      1  C   UNL     1      21.472  36.094  38.127  1.00  0.00     0.006 C 
ENDROOT
BRANCH   1   2
ATOM      2  C   UNL     1      21.150  37.454  38.759  1.00  0.00     0.053 C 
BRANCH   2   3
ATOM      3  C   UNL     1      19.689  37.753  38.637  1.00  0.00     0.041 C 
ATOM      4  O   UNL     1      19.205  38.108  37.530  1.00  0.00    -0.550 OA
ATOM      5  O   UNL     1      18.869  37.687  39.757  1.00  0.00    -0.550 OA
ENDBRANCH   2   3
ENDBRANCH   1   2
BRANCH   1   6
ATOM      6  C   UNL     1      22.466  36.205  36.960  1.00  0.00     0.000 C 
BRANCH   6   7
ATOM      7  C   UNL     1      21.782  36.569  35.634  1.00  0.00    -0.003 C 
ATOM      8  C   UNL     1      22.179  37.970  35.177  1.00  0.00     0.004 C 
ENDBRANCH   6   7
ENDBRANCH   1   6
TORSDOF 4
ENDMDL
MODEL 7
REMARK VINA RESULT:    -2.996      1.236      2.083
REMARK INTER + INTRA:          -3.748
REMARK INTER:                  -3.634
REMARK INTRA:                  -0.114
REMARK UNBOUND:                -0.051
REMARK SMILES CCCCCC(=O)[O-]
REMARK SMILES IDX 4 1 5 2 6 3 7 4 8 5 3 6 2 7 1 8
REMARK H PARENT
REMARK Flexibility Score: inf
ROOT
ATOM      1  C   UNL     1      13.261  31.432  32.362  1.00  0.00     0.006 C 
ENDROOT
BRANCH   1   2
ATOM      2  C   UNL     1      13.928  32.344  33.399  1.00  0.00     0.053 C 
BRANCH   2   3
ATOM      3  C   UNL     1      14.111  33.720  32.842  1.00  0.00     0.041 C 
ATOM      4  O   UNL     1      14.715  33.887  31.749  1.00  0.00    -0.550 OA
ATOM      5  O   UNL     1      13.657  34.825  33.552  1.00  0.00    -0.550 OA
ENDBRANCH   2   3
ENDBRANCH   1   2
BRANCH   1   6
ATOM      6  C   UNL     1      12.512  30.255  33.006  1.00  0.00     0.000 C 
BRANCH   6   7
ATOM      7  C   UNL     1      12.471  30.347  34.538  1.00  0.00    -0.003 C 
ATOM      8  C   UNL     1      11.060  30.105  35.066  1.00  0.00     0.004 C 
ENDBRANCH   6   7
ENDBRANCH   1   6
TORSDOF 4
ENDMDL
MODEL 8
REMARK VINA RESULT:    -2.975      9.194     10.184
REMARK INTER + INTRA:          -3.722
REMARK INTER:                  -3.530
REMARK INTRA:                  -0.191
REMARK UNBOUND:                -0.051
REMARK SMILES CCCCCC(=O)[O-]
REMARK SMILES IDX 4 1 5 2 6 3 7 4 8 5 3 6 2 7 1 8
REMARK H PARENT
REMARK Flexibility Score: inf
ROOT
ATOM      1  C   UNL     1      21.561  37.344  35.905  1.00  0.00     0.006 C 
ENDROOT
BRANCH   1   2
ATOM      2  C   UNL     1      21.104  36.980  34.487  1.00  0.00     0.053 C 
BRANCH   2   3
ATOM      3  C   UNL     1      19.611  37.019  34.394  1.00  0.00     0.041 C 
ATOM      4  O   UNL     1      18.941  37.681  35.230  1.00  0.00    -0.550 OA
ATOM      5  O   UNL     1      18.955  36.285  33.413  1.00  0.00    -0.550 OA
ENDBRANCH   2   3
ENDBRANCH   1   2
BRANCH   1   6
ATOM      6  C   UNL     1      22.219  36.163  36.635  1.00  0.00     0.000 C 
BRANCH   6   7
ATOM      7  C   UNL     1      21.620  35.922  38.028  1.00  0.00    -0.003 C 
ATOM      8  C   UNL     1      20.551  36.961  38.354  1.00  0.00     0.004 C 
ENDBRANCH   6   7
ENDBRANCH   1   6
TORSDOF 4
ENDMDL
MODEL 9
REMARK VINA RESULT:    -2.932     11.423     12.571
REMARK INTER + INTRA:          -3.669
REMARK INTER:                  -3.512
REMARK INTRA:                  -0.157
REMARK UNBOUND:                -0.051
REMARK SMILES CCCCCC(=O)[O-]
REMARK SMILES IDX 4 1 5 2 6 3 7 4 8 5 3 6 2 7 1 8
REMARK H PARENT
REMARK Flexibility Score: inf
ROOT
ATOM      1  C   UNL     1      20.513  34.720  24.252  1.00  0.00     0.006 C 
ENDROOT
BRANCH   1   2
ATOM      2  C   UNL     1      19.248  34.481  25.086  1.00  0.00     0.053 C 
BRANCH   2   3
ATOM      3  C   UNL     1      19.268  35.330  26.318  1.00  0.00     0.041 C 
ATOM      4  O   UNL     1      19.448  34.804  27.448  1.00  0.00    -0.550 OA
ATOM      5  O   UNL     1      19.038  36.698  26.224  1.00  0.00    -0.550 OA
ENDBRANCH   2   3
ENDBRANCH   1   2
BRANCH   1   6
ATOM      6  C   UNL     1      21.260  33.419  23.924  1.00  0.00     0.000 C 
BRANCH   6   7
ATOM      7  C   UNL     1      20.994  32.310  24.953  1.00  0.00    -0.003 C 
ATOM      8  C   UNL     1      20.546  31.021  24.268  1.00  0.00     0.004 C 
ENDBRANCH   6   7
ENDBRANCH   1   6
TORSDOF 4
ENDMDL
