MODEL 1
REMARK VINA RESULT:    13.362      0.000      0.000
REMARK INTER + INTRA:          20.070
REMARK INTER:                  18.829
REMARK INTRA:                   1.240
REMARK UNBOUND:                 1.240
REMARK SMILES O=C(C=Cc1ccc(O)cc1)CC(=O)C=Cc1ccc(O)cc1
REMARK SMILES IDX 12 1 2 2 1 3 3 4 4 5 5 6 6 7 7 8 8 9 11 10 10 11 9 12 13 14
REMARK SMILES IDX 14 15 15 16 16 17 17 18 18 19 23 20 19 21 22 22 20 23 21 24
REMARK H PARENT 9 13 21 25
REMARK Flexibility Score: inf
ROOT
ATOM      1  C   UNL     1     -39.894  22.344   7.258  1.00  0.00     0.160 C 
ENDROOT
BRANCH   1   2
ATOM      2  C   UNL     1     -40.885  21.885   8.283  1.00  0.00     0.163 C 
ATOM      3  O   UNL     1     -41.128  20.653   8.390  1.00  0.00    -0.294 OA
BRANCH   2   4
ATOM      4  C   UNL     1     -41.641  22.881   9.074  1.00  0.00     0.048 C 
ATOM      5  C   UNL     1     -42.115  24.049   8.611  1.00  0.00     0.012 C 
BRANCH   5   6
ATOM      6  C   UNL     1     -42.125  24.465   7.194  1.00  0.00    -0.025 A 
ATOM      7  C   UNL     1     -42.033  23.488   6.190  1.00  0.00     0.012 A 
ATOM      8  C   UNL     1     -41.995  23.861   4.844  1.00  0.00     0.047 A 
ATOM      9  C   UNL     1     -42.024  25.213   4.486  1.00  0.00     0.115 A 
ATOM     10  C   UNL     1     -42.124  25.824   6.832  1.00  0.00     0.012 A 
ATOM     11  C   UNL     1     -42.085  26.194   5.484  1.00  0.00     0.047 A 
BRANCH   9  12
ATOM     12  O   UNL     1     -41.987  25.571   3.140  1.00  0.00    -0.508 OA
ATOM     13  H   UNL     1     -42.706  26.151   2.726  1.00  0.00     0.293 HD
ENDBRANCH   9  12
ENDBRANCH   5   6
ENDBRANCH   2   4
ENDBRANCH   1   2
BRANCH   1  14
ATOM     14  C   UNL     1     -38.827  23.175   7.906  1.00  0.00     0.163 C 
ATOM     15  O   UNL     1     -38.542  22.975   9.118  1.00  0.00    -0.294 OA
BRANCH  14  16
ATOM     16  C   UNL     1     -38.094  24.187   7.117  1.00  0.00     0.048 C 
ATOM     17  C   UNL     1     -37.278  25.083   7.689  1.00  0.00     0.012 C 
BRANCH  17  18
ATOM     18  C   UNL     1     -36.514  26.102   6.929  1.00  0.00    -0.025 A 
ATOM     19  C   UNL     1     -36.344  27.425   7.390  1.00  0.00     0.012 A 
ATOM     20  C   UNL     1     -35.907  25.724   5.718  1.00  0.00     0.012 A 
ATOM     21  C   UNL     1     -35.606  28.346   6.641  1.00  0.00     0.047 A 
ATOM     22  C   UNL     1     -35.170  26.649   4.972  1.00  0.00     0.047 A 
ATOM     23  C   UNL     1     -35.019  27.964   5.431  1.00  0.00     0.115 A 
BRANCH  23  24
ATOM     24  O   UNL     1     -34.288  28.893   4.696  1.00  0.00    -0.508 OA
ATOM     25  H   UNL     1     -33.605  28.604   4.006  1.00  0.00     0.293 HD
ENDBRANCH  23  24
ENDBRANCH  17  18
ENDBRANCH  14  16
ENDBRANCH   1  14
TORSDOF 8
ENDMDL
MODEL 2
REMARK VINA RESULT:    15.149      2.355      2.676
REMARK INTER + INTRA:          22.588
REMARK INTER:                  21.829
REMARK INTRA:                   0.760
REMARK UNBOUND:                 1.240
REMARK SMILES O=C(C=Cc1ccc(O)cc1)CC(=O)C=Cc1ccc(O)cc1
REMARK SMILES IDX 12 1 2 2 1 3 3 4 4 5 5 6 6 7 7 8 8 9 11 10 10 11 9 12 13 14
REMARK SMILES IDX 14 15 15 16 16 17 17 18 18 19 23 20 19 21 22 22 20 23 21 24
REMARK H PARENT 9 13 21 25
REMARK Flexibility Score: inf
ROOT
ATOM      1  C   UNL     1     -39.350  23.560   7.003  1.00  0.00     0.160 C 
ENDROOT
BRANCH   1   2
ATOM      2  C   UNL     1     -39.598  22.801   8.271  1.00  0.00     0.163 C 
ATOM      3  O   UNL     1     -38.625  22.261   8.862  1.00  0.00    -0.294 OA
BRANCH   2   4
ATOM      4  C   UNL     1     -40.984  22.604   8.751  1.00  0.00     0.048 C 
ATOM      5  C   UNL     1     -42.078  23.190   8.239  1.00  0.00     0.012 C 
BRANCH   5   6
ATOM      6  C   UNL     1     -42.118  23.990   6.998  1.00  0.00    -0.025 A 
ATOM      7  C   UNL     1     -42.048  23.338   5.758  1.00  0.00     0.012 A 
ATOM      8  C   UNL     1     -42.037  24.077   4.571  1.00  0.00     0.047 A 
ATOM      9  C   UNL     1     -42.073  25.475   4.612  1.00  0.00     0.115 A 
ATOM     10  C   UNL     1     -42.123  25.396   7.035  1.00  0.00     0.012 A 
ATOM     11  C   UNL     1     -42.112  26.133   5.847  1.00  0.00     0.047 A 
BRANCH   9  12
ATOM     12  O   UNL     1     -42.063  26.198   3.421  1.00  0.00    -0.508 OA
ATOM     13  H   UNL     1     -41.417  26.964   3.272  1.00  0.00     0.293 HD
ENDBRANCH   9  12
ENDBRANCH   5   6
ENDBRANCH   2   4
ENDBRANCH   1   2
BRANCH   1  14
ATOM     14  C   UNL     1     -38.513  24.773   7.282  1.00  0.00     0.163 C 
ATOM     15  O   UNL     1     -39.082  25.853   7.599  1.00  0.00    -0.294 OA
BRANCH  14  16
ATOM     16  C   UNL     1     -37.040  24.686   7.225  1.00  0.00     0.048 C 
ATOM     17  C   UNL     1     -36.248  25.539   7.890  1.00  0.00     0.012 C 
BRANCH  17  18
ATOM     18  C   UNL     1     -34.767  25.473   7.870  1.00  0.00    -0.025 A 
ATOM     19  C   UNL     1     -34.031  25.292   6.679  1.00  0.00     0.012 A 
ATOM     20  C   UNL     1     -34.069  25.632   9.080  1.00  0.00     0.012 A 
ATOM     21  C   UNL     1     -32.634  25.247   6.711  1.00  0.00     0.047 A 
ATOM     22  C   UNL     1     -32.672  25.586   9.107  1.00  0.00     0.047 A 
ATOM     23  C   UNL     1     -31.950  25.391   7.922  1.00  0.00     0.115 A 
BRANCH  23  24
ATOM     24  O   UNL     1     -30.559  25.342   7.938  1.00  0.00    -0.508 OA
ATOM     25  H   UNL     1     -30.061  24.507   8.221  1.00  0.00     0.293 HD
ENDBRANCH  23  24
ENDBRANCH  17  18
ENDBRANCH  14  16
ENDBRANCH   1  14
TORSDOF 8
ENDMDL
