MODEL 1
REMARK VINA RESULT:    -4.813      0.000      0.000
REMARK INTER + INTRA:         -13.198
REMARK INTER:                 -11.003
REMARK INTRA:                  -2.195
REMARK UNBOUND:                -2.195
REMARK SMILES CCCCCCCCCCCCCCCCCCCCCCCC(=O)[O-]
REMARK SMILES IDX 13 1 14 2 15 3 16 4 17 5 18 6 19 7 20 8 21 9 22 10 23 11
REMARK SMILES IDX 24 12 25 13 26 14 12 15 11 16 10 17 9 18 8 19 7 20 6 21 5 22
REMARK SMILES IDX 4 23 3 24 2 25 1 26
REMARK H PARENT
REMARK Flexibility Score: inf
ROOT
ATOM      1  C   UNL     1      25.571  -1.079  37.095  1.00  0.00     0.000 C 
ENDROOT
BRANCH   1   2
ATOM      2  C   UNL     1      25.638   0.253  37.864  1.00  0.00     0.000 C 
BRANCH   2   3
ATOM      3  C   UNL     1      26.885   0.371  38.755  1.00  0.00     0.000 C 
BRANCH   3   4
ATOM      4  C   UNL     1      26.699   1.362  39.917  1.00  0.00     0.000 C 
BRANCH   4   5
ATOM      5  C   UNL     1      25.486   2.302  39.742  1.00  0.00     0.000 C 
BRANCH   5   6
ATOM      6  C   UNL     1      24.980   2.848  41.089  1.00  0.00     0.000 C 
BRANCH   6   7
ATOM      7  C   UNL     1      25.999   2.661  42.224  1.00  0.00     0.000 C 
BRANCH   7   8
ATOM      8  C   UNL     1      25.448   1.809  43.376  1.00  0.00     0.000 C 
BRANCH   8   9
ATOM      9  C   UNL     1      26.493   0.794  43.857  1.00  0.00     0.000 C 
BRANCH   9  10
ATOM     10  C   UNL     1      26.359  -0.534  43.097  1.00  0.00     0.006 C 
BRANCH  10  11
ATOM     11  C   UNL     1      27.682  -1.311  43.049  1.00  0.00     0.053 C 
BRANCH  11  12
ATOM     12  C   UNL     1      27.951  -2.060  44.320  1.00  0.00     0.041 C 
ATOM     13  O   UNL     1      27.324  -3.123  44.576  1.00  0.00    -0.550 OA
ATOM     14  O   UNL     1      28.912  -1.598  45.210  1.00  0.00    -0.550 OA
ENDBRANCH  11  12
ENDBRANCH  10  11
ENDBRANCH   9  10
ENDBRANCH   8   9
ENDBRANCH   7   8
ENDBRANCH   6   7
ENDBRANCH   5   6
ENDBRANCH   4   5
ENDBRANCH   3   4
ENDBRANCH   2   3
ENDBRANCH   1   2
BRANCH   1  15
ATOM     15  C   UNL     1      24.216  -1.391  36.433  1.00  0.00     0.000 C 
BRANCH  15  16
ATOM     16  C   UNL     1      23.931  -2.899  36.328  1.00  0.00     0.000 C 
BRANCH  16  17
ATOM     17  C   UNL     1      22.508  -3.262  36.783  1.00  0.00     0.000 C 
BRANCH  17  18
ATOM     18  C   UNL     1      22.005  -4.579  36.163  1.00  0.00    -0.000 C 
BRANCH  18  19
ATOM     19  C   UNL     1      22.882  -5.051  34.994  1.00  0.00    -0.000 C 
BRANCH  19  20
ATOM     20  C   UNL     1      22.878  -6.582  34.828  1.00  0.00    -0.000 C 
BRANCH  20  21
ATOM     21  C   UNL     1      23.839  -7.044  33.713  1.00  0.00    -0.000 C 
BRANCH  21  22
ATOM     22  C   UNL     1      24.835  -5.957  33.273  1.00  0.00    -0.000 C 
BRANCH  22  23
ATOM     23  C   UNL     1      26.298  -6.424  33.355  1.00  0.00    -0.000 C 
BRANCH  23  24
ATOM     24  C   UNL     1      27.237  -5.307  33.862  1.00  0.00    -0.000 C 
BRANCH  24  25
ATOM     25  C   UNL     1      26.716  -4.591  35.119  1.00  0.00    -0.003 C 
ATOM     26  C   UNL     1      26.636  -5.510  36.338  1.00  0.00     0.004 C 
ENDBRANCH  24  25
ENDBRANCH  23  24
ENDBRANCH  22  23
ENDBRANCH  21  22
ENDBRANCH  20  21
ENDBRANCH  19  20
ENDBRANCH  18  19
ENDBRANCH  17  18
ENDBRANCH  16  17
ENDBRANCH  15  16
ENDBRANCH   1  15
TORSDOF 22
ENDMDL
MODEL 2
REMARK VINA RESULT:    -4.810      2.084      3.691
REMARK INTER + INTRA:         -13.190
REMARK INTER:                 -10.821
REMARK INTRA:                  -2.369
REMARK UNBOUND:                -2.195
REMARK SMILES CCCCCCCCCCCCCCCCCCCCCCCC(=O)[O-]
REMARK SMILES IDX 13 1 14 2 15 3 16 4 17 5 18 6 19 7 20 8 21 9 22 10 23 11
REMARK SMILES IDX 24 12 25 13 26 14 12 15 11 16 10 17 9 18 8 19 7 20 6 21 5 22
REMARK SMILES IDX 4 23 3 24 2 25 1 26
REMARK H PARENT
REMARK Flexibility Score: inf
ROOT
ATOM      1  C   UNL     1      23.159  -2.945  36.743  1.00  0.00     0.000 C 
ENDROOT
BRANCH   1   2
ATOM      2  C   UNL     1      24.419  -2.579  35.937  1.00  0.00     0.000 C 
BRANCH   2   3
ATOM      3  C   UNL     1      25.535  -1.978  36.806  1.00  0.00     0.000 C 
BRANCH   3   4
ATOM      4  C   UNL     1      25.248  -0.526  37.228  1.00  0.00     0.000 C 
BRANCH   4   5
ATOM      5  C   UNL     1      26.329   0.077  38.151  1.00  0.00     0.000 C 
BRANCH   5   6
ATOM      6  C   UNL     1      26.408   1.608  38.025  1.00  0.00     0.000 C 
BRANCH   6   7
ATOM      7  C   UNL     1      25.104   2.305  38.444  1.00  0.00     0.000 C 
BRANCH   7   8
ATOM      8  C   UNL     1      24.985   2.467  39.966  1.00  0.00     0.000 C 
BRANCH   8   9
ATOM      9  C   UNL     1      26.239   3.134  40.548  1.00  0.00     0.000 C 
BRANCH   9  10
ATOM     10  C   UNL     1      26.208   3.115  42.083  1.00  0.00     0.006 C 
BRANCH  10  11
ATOM     11  C   UNL     1      26.066   1.693  42.643  1.00  0.00     0.053 C 
BRANCH  11  12
ATOM     12  C   UNL     1      25.985   1.675  44.141  1.00  0.00     0.041 C 
ATOM     13  O   UNL     1      25.040   1.076  44.719  1.00  0.00    -0.550 OA
ATOM     14  O   UNL     1      26.970   2.298  44.898  1.00  0.00    -0.550 OA
ENDBRANCH  11  12
ENDBRANCH  10  11
ENDBRANCH   9  10
ENDBRANCH   8   9
ENDBRANCH   7   8
ENDBRANCH   6   7
ENDBRANCH   5   6
ENDBRANCH   4   5
ENDBRANCH   3   4
ENDBRANCH   2   3
ENDBRANCH   1   2
BRANCH   1  15
ATOM     15  C   UNL     1      22.126  -3.809  35.996  1.00  0.00     0.000 C 
BRANCH  15  16
ATOM     16  C   UNL     1      22.350  -5.318  36.191  1.00  0.00     0.000 C 
BRANCH  16  17
ATOM     17  C   UNL     1      22.885  -6.002  34.923  1.00  0.00     0.000 C 
BRANCH  17  18
ATOM     18  C   UNL     1      24.145  -6.847  35.191  1.00  0.00    -0.000 C 
BRANCH  18  19
ATOM     19  C   UNL     1      25.001  -6.280  36.333  1.00  0.00    -0.000 C 
BRANCH  19  20
ATOM     20  C   UNL     1      26.503  -6.252  35.993  1.00  0.00    -0.000 C 
BRANCH  20  21
ATOM     21  C   UNL     1      26.811  -5.300  34.818  1.00  0.00    -0.000 C 
BRANCH  21  22
ATOM     22  C   UNL     1      28.282  -4.852  34.764  1.00  0.00    -0.000 C 
BRANCH  22  23
ATOM     23  C   UNL     1      28.477  -3.397  35.223  1.00  0.00    -0.000 C 
BRANCH  23  24
ATOM     24  C   UNL     1      29.947  -3.094  35.588  1.00  0.00    -0.000 C 
BRANCH  24  25
ATOM     25  C   UNL     1      30.205  -3.052  37.104  1.00  0.00    -0.003 C 
ATOM     26  C   UNL     1      28.918  -3.002  37.927  1.00  0.00     0.004 C 
ENDBRANCH  24  25
ENDBRANCH  23  24
ENDBRANCH  22  23
ENDBRANCH  21  22
ENDBRANCH  20  21
ENDBRANCH  19  20
ENDBRANCH  18  19
ENDBRANCH  17  18
ENDBRANCH  16  17
ENDBRANCH  15  16
ENDBRANCH   1  15
TORSDOF 22
ENDMDL
MODEL 3
REMARK VINA RESULT:    -4.699      2.583      9.073
REMARK INTER + INTRA:         -12.937
REMARK INTER:                 -10.719
REMARK INTRA:                  -2.218
REMARK UNBOUND:                -2.195
REMARK SMILES CCCCCCCCCCCCCCCCCCCCCCCC(=O)[O-]
REMARK SMILES IDX 13 1 14 2 15 3 16 4 17 5 18 6 19 7 20 8 21 9 22 10 23 11
REMARK SMILES IDX 24 12 25 13 26 14 12 15 11 16 10 17 9 18 8 19 7 20 6 21 5 22
REMARK SMILES IDX 4 23 3 24 2 25 1 26
REMARK H PARENT
REMARK Flexibility Score: inf
ROOT
ATOM      1  C   UNL     1      24.208  -2.661  36.403  1.00  0.00     0.000 C 
ENDROOT
BRANCH   1   2
ATOM      2  C   UNL     1      22.788  -3.190  36.674  1.00  0.00     0.000 C 
BRANCH   2   3
ATOM      3  C   UNL     1      22.287  -4.153  35.586  1.00  0.00     0.000 C 
BRANCH   3   4
ATOM      4  C   UNL     1      22.660  -5.619  35.867  1.00  0.00     0.000 C 
BRANCH   4   5
ATOM      5  C   UNL     1      23.103  -6.398  34.609  1.00  0.00     0.000 C 
BRANCH   5   6
ATOM      6  C   UNL     1      24.510  -7.001  34.770  1.00  0.00     0.000 C 
BRANCH   6   7
ATOM      7  C   UNL     1      25.484  -6.049  35.480  1.00  0.00     0.000 C 
BRANCH   7   8
ATOM      8  C   UNL     1      26.142  -5.050  34.516  1.00  0.00     0.000 C 
BRANCH   8   9
ATOM      9  C   UNL     1      27.527  -4.628  35.022  1.00  0.00     0.000 C 
BRANCH   9  10
ATOM     10  C   UNL     1      27.558  -4.574  36.557  1.00  0.00     0.006 C 
BRANCH  10  11
ATOM     11  C   UNL     1      28.329  -3.355  37.080  1.00  0.00     0.053 C 
BRANCH  11  12
ATOM     12  C   UNL     1      29.814  -3.554  37.031  1.00  0.00     0.041 C 
ATOM     13  O   UNL     1      30.373  -4.369  37.813  1.00  0.00    -0.550 OA
ATOM     14  O   UNL     1      30.579  -2.856  36.104  1.00  0.00    -0.550 OA
ENDBRANCH  11  12
ENDBRANCH  10  11
ENDBRANCH   9  10
ENDBRANCH   8   9
ENDBRANCH   7   8
ENDBRANCH   6   7
ENDBRANCH   5   6
ENDBRANCH   4   5
ENDBRANCH   3   4
ENDBRANCH   2   3
ENDBRANCH   1   2
BRANCH   1  15
ATOM     15  C   UNL     1      24.379  -1.135  36.524  1.00  0.00     0.000 C 
BRANCH  15  16
ATOM     16  C   UNL     1      25.657  -0.731  37.276  1.00  0.00     0.000 C 
BRANCH  16  17
ATOM     17  C   UNL     1      25.456   0.518  38.151  1.00  0.00     0.000 C 
BRANCH  17  18
ATOM     18  C   UNL     1      26.684   0.834  39.025  1.00  0.00    -0.000 C 
BRANCH  18  19
ATOM     19  C   UNL     1      26.564   2.190  39.738  1.00  0.00    -0.000 C 
BRANCH  19  20
ATOM     20  C   UNL     1      25.102   2.604  39.985  1.00  0.00    -0.000 C 
BRANCH  20  21
ATOM     21  C   UNL     1      24.888   3.139  41.417  1.00  0.00    -0.000 C 
BRANCH  21  22
ATOM     22  C   UNL     1      25.976   2.688  42.407  1.00  0.00    -0.000 C 
BRANCH  22  23
ATOM     23  C   UNL     1      25.475   1.620  43.395  1.00  0.00    -0.000 C 
BRANCH  23  24
ATOM     24  C   UNL     1      26.618   0.711  43.896  1.00  0.00    -0.000 C 
BRANCH  24  25
ATOM     25  C   UNL     1      26.718  -0.623  43.137  1.00  0.00    -0.003 C 
ATOM     26  C   UNL     1      27.615  -1.643  43.838  1.00  0.00     0.004 C 
ENDBRANCH  24  25
ENDBRANCH  23  24
ENDBRANCH  22  23
ENDBRANCH  21  22
ENDBRANCH  20  21
ENDBRANCH  19  20
ENDBRANCH  18  19
ENDBRANCH  17  18
ENDBRANCH  16  17
ENDBRANCH  15  16
ENDBRANCH   1  15
TORSDOF 22
ENDMDL
MODEL 4
REMARK VINA RESULT:    -4.614      2.327      5.802
REMARK INTER + INTRA:         -12.742
REMARK INTER:                 -10.718
REMARK INTRA:                  -2.024
REMARK UNBOUND:                -2.195
REMARK SMILES CCCCCCCCCCCCCCCCCCCCCCCC(=O)[O-]
REMARK SMILES IDX 13 1 14 2 15 3 16 4 17 5 18 6 19 7 20 8 21 9 22 10 23 11
REMARK SMILES IDX 24 12 25 13 26 14 12 15 11 16 10 17 9 18 8 19 7 20 6 21 5 22
REMARK SMILES IDX 4 23 3 24 2 25 1 26
REMARK H PARENT
REMARK Flexibility Score: inf
ROOT
ATOM      1  C   UNL     1      26.086   3.343  42.349  1.00  0.00     0.000 C 
ENDROOT
BRANCH   1   2
ATOM      2  C   UNL     1      26.433   2.422  43.533  1.00  0.00     0.000 C 
BRANCH   2   3
ATOM      3  C   UNL     1      25.315   1.420  43.862  1.00  0.00     0.000 C 
BRANCH   3   4
ATOM      4  C   UNL     1      25.742  -0.044  43.650  1.00  0.00     0.000 C 
BRANCH   4   5
ATOM      5  C   UNL     1      26.849  -0.220  42.587  1.00  0.00     0.000 C 
BRANCH   5   6
ATOM      6  C   UNL     1      27.692  -1.482  42.837  1.00  0.00     0.000 C 
BRANCH   6   7
ATOM      7  C   UNL     1      27.853  -1.802  44.330  1.00  0.00     0.000 C 
BRANCH   7   8
ATOM      8  C   UNL     1      27.574  -3.278  44.651  1.00  0.00     0.000 C 
BRANCH   8   9
ATOM      9  C   UNL     1      26.362  -3.792  43.864  1.00  0.00     0.000 C 
BRANCH   9  10
ATOM     10  C   UNL     1      25.825  -5.095  44.474  1.00  0.00     0.006 C 
BRANCH  10  11
ATOM     11  C   UNL     1      26.502  -5.434  45.809  1.00  0.00     0.053 C 
BRANCH  11  12
ATOM     12  C   UNL     1      25.526  -5.496  46.945  1.00  0.00     0.041 C 
ATOM     13  O   UNL     1      24.409  -6.057  46.794  1.00  0.00    -0.550 OA
ATOM     14  O   UNL     1      25.862  -4.954  48.181  1.00  0.00    -0.550 OA
ENDBRANCH  11  12
ENDBRANCH  10  11
ENDBRANCH   9  10
ENDBRANCH   8   9
ENDBRANCH   7   8
ENDBRANCH   6   7
ENDBRANCH   5   6
ENDBRANCH   4   5
ENDBRANCH   3   4
ENDBRANCH   2   3
ENDBRANCH   1   2
BRANCH   1  15
ATOM     15  C   UNL     1      24.823   2.954  41.558  1.00  0.00     0.000 C 
BRANCH  15  16
ATOM     16  C   UNL     1      25.126   2.544  40.107  1.00  0.00     0.000 C 
BRANCH  16  17
ATOM     17  C   UNL     1      26.607   2.730  39.739  1.00  0.00     0.000 C 
BRANCH  17  18
ATOM     18  C   UNL     1      27.093   1.707  38.695  1.00  0.00    -0.000 C 
BRANCH  18  19
ATOM     19  C   UNL     1      25.932   1.044  37.938  1.00  0.00    -0.000 C 
BRANCH  19  20
ATOM     20  C   UNL     1      25.974  -0.493  38.015  1.00  0.00    -0.000 C 
BRANCH  20  21
ATOM     21  C   UNL     1      25.235  -1.151  36.831  1.00  0.00    -0.000 C 
BRANCH  21  22
ATOM     22  C   UNL     1      25.918  -2.430  36.318  1.00  0.00    -0.000 C 
BRANCH  22  23
ATOM     23  C   UNL     1      24.920  -3.570  36.050  1.00  0.00    -0.000 C 
BRANCH  23  24
ATOM     24  C   UNL     1      23.547  -3.307  36.707  1.00  0.00    -0.000 C 
BRANCH  24  25
ATOM     25  C   UNL     1      22.366  -3.895  35.916  1.00  0.00    -0.003 C 
ATOM     26  C   UNL     1      21.728  -5.101  36.604  1.00  0.00     0.004 C 
ENDBRANCH  24  25
ENDBRANCH  23  24
ENDBRANCH  22  23
ENDBRANCH  21  22
ENDBRANCH  20  21
ENDBRANCH  19  20
ENDBRANCH  18  19
ENDBRANCH  17  18
ENDBRANCH  16  17
ENDBRANCH  15  16
ENDBRANCH   1  15
TORSDOF 22
ENDMDL
MODEL 5
REMARK VINA RESULT:    -4.593      1.494      2.864
REMARK INTER + INTRA:         -12.695
REMARK INTER:                 -10.998
REMARK INTRA:                  -1.697
REMARK UNBOUND:                -2.195
REMARK SMILES CCCCCCCCCCCCCCCCCCCCCCCC(=O)[O-]
REMARK SMILES IDX 13 1 14 2 15 3 16 4 17 5 18 6 19 7 20 8 21 9 22 10 23 11
REMARK SMILES IDX 24 12 25 13 26 14 12 15 11 16 10 17 9 18 8 19 7 20 6 21 5 22
REMARK SMILES IDX 4 23 3 24 2 25 1 26
REMARK H PARENT
REMARK Flexibility Score: inf
ROOT
ATOM      1  C   UNL     1      26.807   0.800  38.684  1.00  0.00     0.000 C 
ENDROOT
BRANCH   1   2
ATOM      2  C   UNL     1      26.772   2.177  39.372  1.00  0.00     0.000 C 
BRANCH   2   3
ATOM      3  C   UNL     1      25.589   2.334  40.342  1.00  0.00     0.000 C 
BRANCH   3   4
ATOM      4  C   UNL     1      25.842   3.395  41.427  1.00  0.00     0.000 C 
BRANCH   4   5
ATOM      5  C   UNL     1      26.351   2.808  42.762  1.00  0.00     0.000 C 
BRANCH   5   6
ATOM      6  C   UNL     1      25.695   1.454  43.084  1.00  0.00     0.000 C 
BRANCH   6   7
ATOM      7  C   UNL     1      26.650   0.488  43.801  1.00  0.00     0.000 C 
BRANCH   7   8
ATOM      8  C   UNL     1      26.523  -0.955  43.290  1.00  0.00     0.000 C 
BRANCH   8   9
ATOM      9  C   UNL     1      27.897  -1.636  43.219  1.00  0.00     0.000 C 
BRANCH   9  10
ATOM     10  C   UNL     1      27.748  -3.161  43.122  1.00  0.00     0.006 C 
BRANCH  10  11
ATOM     11  C   UNL     1      26.462  -3.663  43.792  1.00  0.00     0.053 C 
BRANCH  11  12
ATOM     12  C   UNL     1      26.365  -5.159  43.794  1.00  0.00     0.041 C 
ATOM     13  O   UNL     1      25.248  -5.724  43.943  1.00  0.00    -0.550 OA
ATOM     14  O   UNL     1      27.505  -5.930  43.605  1.00  0.00    -0.550 OA
ENDBRANCH  11  12
ENDBRANCH  10  11
ENDBRANCH   9  10
ENDBRANCH   8   9
ENDBRANCH   7   8
ENDBRANCH   6   7
ENDBRANCH   5   6
ENDBRANCH   4   5
ENDBRANCH   3   4
ENDBRANCH   2   3
ENDBRANCH   1   2
BRANCH   1  15
ATOM     15  C   UNL     1      25.521   0.404  37.934  1.00  0.00     0.000 C 
BRANCH  15  16
ATOM     16  C   UNL     1      25.626  -0.966  37.244  1.00  0.00     0.000 C 
BRANCH  16  17
ATOM     17  C   UNL     1      24.372  -1.310  36.423  1.00  0.00     0.000 C 
BRANCH  17  18
ATOM     18  C   UNL     1      24.058  -2.817  36.424  1.00  0.00    -0.000 C 
BRANCH  18  19
ATOM     19  C   UNL     1      22.590  -3.112  36.770  1.00  0.00    -0.000 C 
BRANCH  19  20
ATOM     20  C   UNL     1      22.034  -4.332  36.012  1.00  0.00    -0.000 C 
BRANCH  20  21
ATOM     21  C   UNL     1      23.026  -4.851  34.949  1.00  0.00    -0.000 C 
BRANCH  21  22
ATOM     22  C   UNL     1      22.950  -6.373  34.734  1.00  0.00    -0.000 C 
BRANCH  22  23
ATOM     23  C   UNL     1      24.299  -7.073  34.965  1.00  0.00    -0.000 C 
BRANCH  23  24
ATOM     24  C   UNL     1      25.078  -6.460  36.150  1.00  0.00    -0.000 C 
BRANCH  24  25
ATOM     25  C   UNL     1      26.559  -6.189  35.836  1.00  0.00    -0.003 C 
ATOM     26  C   UNL     1      27.066  -4.880  36.441  1.00  0.00     0.004 C 
ENDBRANCH  24  25
ENDBRANCH  23  24
ENDBRANCH  22  23
ENDBRANCH  21  22
ENDBRANCH  20  21
ENDBRANCH  19  20
ENDBRANCH  18  19
ENDBRANCH  17  18
ENDBRANCH  16  17
ENDBRANCH  15  16
ENDBRANCH   1  15
TORSDOF 22
ENDMDL
MODEL 6
REMARK VINA RESULT:    -4.544      5.833      9.638
REMARK INTER + INTRA:         -12.582
REMARK INTER:                  -9.782
REMARK INTRA:                  -2.800
REMARK UNBOUND:                -2.195
REMARK SMILES CCCCCCCCCCCCCCCCCCCCCCCC(=O)[O-]
REMARK SMILES IDX 13 1 14 2 15 3 16 4 17 5 18 6 19 7 20 8 21 9 22 10 23 11
REMARK SMILES IDX 24 12 25 13 26 14 12 15 11 16 10 17 9 18 8 19 7 20 6 21 5 22
REMARK SMILES IDX 4 23 3 24 2 25 1 26
REMARK H PARENT
REMARK Flexibility Score: inf
ROOT
ATOM      1  C   UNL     1      29.012  -3.388  46.071  1.00  0.00     0.000 C 
ENDROOT
BRANCH   1   2
ATOM      2  C   UNL     1      28.708  -4.863  46.391  1.00  0.00     0.000 C 
BRANCH   2   3
ATOM      3  C   UNL     1      29.139  -5.822  45.270  1.00  0.00     0.000 C 
BRANCH   3   4
ATOM      4  C   UNL     1      27.963  -6.623  44.684  1.00  0.00     0.000 C 
BRANCH   4   5
ATOM      5  C   UNL     1      26.989  -5.770  43.842  1.00  0.00     0.000 C 
BRANCH   5   6
ATOM      6  C   UNL     1      25.624  -5.603  44.533  1.00  0.00     0.000 C 
BRANCH   6   7
ATOM      7  C   UNL     1      25.088  -6.921  45.113  1.00  0.00     0.000 C 
BRANCH   7   8
ATOM      8  C   UNL     1      24.532  -6.756  46.535  1.00  0.00     0.000 C 
BRANCH   8   9
ATOM      9  C   UNL     1      25.660  -6.479  47.538  1.00  0.00     0.000 C 
BRANCH   9  10
ATOM     10  C   UNL     1      25.299  -5.302  48.457  1.00  0.00     0.006 C 
BRANCH  10  11
ATOM     11  C   UNL     1      24.460  -5.744  49.663  1.00  0.00     0.053 C 
BRANCH  11  12
ATOM     12  C   UNL     1      23.042  -5.262  49.580  1.00  0.00     0.041 C 
ATOM     13  O   UNL     1      22.215  -5.846  48.831  1.00  0.00    -0.550 OA
ATOM     14  O   UNL     1      22.628  -4.182  50.351  1.00  0.00    -0.550 OA
ENDBRANCH  11  12
ENDBRANCH  10  11
ENDBRANCH   9  10
ENDBRANCH   8   9
ENDBRANCH   7   8
ENDBRANCH   6   7
ENDBRANCH   5   6
ENDBRANCH   4   5
ENDBRANCH   3   4
ENDBRANCH   2   3
ENDBRANCH   1   2
BRANCH   1  15
ATOM     15  C   UNL     1      27.887  -2.624  45.348  1.00  0.00     0.000 C 
BRANCH  15  16
ATOM     16  C   UNL     1      28.280  -2.174  43.932  1.00  0.00     0.000 C 
BRANCH  16  17
ATOM     17  C   UNL     1      27.134  -1.453  43.203  1.00  0.00     0.000 C 
BRANCH  17  18
ATOM     18  C   UNL     1      26.857  -0.050  43.776  1.00  0.00    -0.000 C 
BRANCH  18  19
ATOM     19  C   UNL     1      25.366   0.319  43.732  1.00  0.00    -0.000 C 
BRANCH  19  20
ATOM     20  C   UNL     1      25.132   1.838  43.644  1.00  0.00    -0.000 C 
BRANCH  20  21
ATOM     21  C   UNL     1      26.438   2.606  43.346  1.00  0.00    -0.000 C 
BRANCH  21  22
ATOM     22  C   UNL     1      26.373   3.445  42.058  1.00  0.00    -0.000 C 
BRANCH  22  23
ATOM     23  C   UNL     1      25.378   2.880  41.030  1.00  0.00    -0.000 C 
BRANCH  23  24
ATOM     24  C   UNL     1      26.093   2.234  39.823  1.00  0.00    -0.000 C 
BRANCH  24  25
ATOM     25  C   UNL     1      26.452   0.755  40.044  1.00  0.00    -0.003 C 
ATOM     26  C   UNL     1      27.708   0.327  39.285  1.00  0.00     0.004 C 
ENDBRANCH  24  25
ENDBRANCH  23  24
ENDBRANCH  22  23
ENDBRANCH  21  22
ENDBRANCH  20  21
ENDBRANCH  19  20
ENDBRANCH  18  19
ENDBRANCH  17  18
ENDBRANCH  16  17
ENDBRANCH  15  16
ENDBRANCH   1  15
TORSDOF 22
ENDMDL
MODEL 7
REMARK VINA RESULT:    -4.538      1.329      3.201
REMARK INTER + INTRA:         -12.570
REMARK INTER:                 -10.410
REMARK INTRA:                  -2.160
REMARK UNBOUND:                -2.195
REMARK SMILES CCCCCCCCCCCCCCCCCCCCCCCC(=O)[O-]
REMARK SMILES IDX 13 1 14 2 15 3 16 4 17 5 18 6 19 7 20 8 21 9 22 10 23 11
REMARK SMILES IDX 24 12 25 13 26 14 12 15 11 16 10 17 9 18 8 19 7 20 6 21 5 22
REMARK SMILES IDX 4 23 3 24 2 25 1 26
REMARK H PARENT
REMARK Flexibility Score: inf
ROOT
ATOM      1  C   UNL     1      28.611  -0.967  39.377  1.00  0.00     0.000 C 
ENDROOT
BRANCH   1   2
ATOM      2  C   UNL     1      27.922   0.409  39.402  1.00  0.00     0.000 C 
BRANCH   2   3
ATOM      3  C   UNL     1      26.536   0.400  38.739  1.00  0.00     0.000 C 
BRANCH   3   4
ATOM      4  C   UNL     1      25.636   1.554  39.215  1.00  0.00     0.000 C 
BRANCH   4   5
ATOM      5  C   UNL     1      26.354   2.557  40.145  1.00  0.00     0.000 C 
BRANCH   5   6
ATOM      6  C   UNL     1      25.439   3.048  41.280  1.00  0.00     0.000 C 
BRANCH   6   7
ATOM      7  C   UNL     1      26.017   2.759  42.674  1.00  0.00     0.000 C 
BRANCH   7   8
ATOM      8  C   UNL     1      25.510   1.431  43.257  1.00  0.00     0.000 C 
BRANCH   8   9
ATOM      9  C   UNL     1      26.677   0.572  43.763  1.00  0.00     0.000 C 
BRANCH   9  10
ATOM     10  C   UNL     1      26.605  -0.847  43.181  1.00  0.00     0.006 C 
BRANCH  10  11
ATOM     11  C   UNL     1      27.931  -1.605  43.333  1.00  0.00     0.053 C 
BRANCH  11  12
ATOM     12  C   UNL     1      28.137  -2.121  44.726  1.00  0.00     0.041 C 
ATOM     13  O   UNL     1      27.395  -3.032  45.182  1.00  0.00    -0.550 OA
ATOM     14  O   UNL     1      29.166  -1.615  45.511  1.00  0.00    -0.550 OA
ENDBRANCH  11  12
ENDBRANCH  10  11
ENDBRANCH   9  10
ENDBRANCH   8   9
ENDBRANCH   7   8
ENDBRANCH   6   7
ENDBRANCH   5   6
ENDBRANCH   4   5
ENDBRANCH   3   4
ENDBRANCH   2   3
ENDBRANCH   1   2
BRANCH   1  15
ATOM     15  C   UNL     1      28.142  -1.919  38.260  1.00  0.00     0.000 C 
BRANCH  15  16
ATOM     16  C   UNL     1      29.202  -2.966  37.879  1.00  0.00     0.000 C 
BRANCH  16  17
ATOM     17  C   UNL     1      28.581  -4.252  37.309  1.00  0.00     0.000 C 
BRANCH  17  18
ATOM     18  C   UNL     1      27.368  -3.973  36.402  1.00  0.00    -0.000 C 
BRANCH  18  19
ATOM     19  C   UNL     1      26.736  -5.261  35.852  1.00  0.00    -0.000 C 
BRANCH  19  20
ATOM     20  C   UNL     1      25.848  -5.008  34.620  1.00  0.00    -0.000 C 
BRANCH  20  21
ATOM     21  C   UNL     1      24.886  -6.185  34.351  1.00  0.00    -0.000 C 
BRANCH  21  22
ATOM     22  C   UNL     1      23.530  -6.042  35.063  1.00  0.00    -0.000 C 
BRANCH  22  23
ATOM     23  C   UNL     1      22.926  -4.636  34.914  1.00  0.00    -0.000 C 
BRANCH  23  24
ATOM     24  C   UNL     1      22.103  -4.222  36.153  1.00  0.00    -0.000 C 
BRANCH  24  25
ATOM     25  C   UNL     1      22.659  -2.981  36.872  1.00  0.00    -0.003 C 
ATOM     26  C   UNL     1      23.902  -2.406  36.194  1.00  0.00     0.004 C 
ENDBRANCH  24  25
ENDBRANCH  23  24
ENDBRANCH  22  23
ENDBRANCH  21  22
ENDBRANCH  20  21
ENDBRANCH  19  20
ENDBRANCH  18  19
ENDBRANCH  17  18
ENDBRANCH  16  17
ENDBRANCH  15  16
ENDBRANCH   1  15
TORSDOF 22
ENDMDL
MODEL 8
REMARK VINA RESULT:    -4.536      2.892      9.240
REMARK INTER + INTRA:         -12.565
REMARK INTER:                 -10.858
REMARK INTRA:                  -1.707
REMARK UNBOUND:                -2.195
REMARK SMILES CCCCCCCCCCCCCCCCCCCCCCCC(=O)[O-]
REMARK SMILES IDX 13 1 14 2 15 3 16 4 17 5 18 6 19 7 20 8 21 9 22 10 23 11
REMARK SMILES IDX 24 12 25 13 26 14 12 15 11 16 10 17 9 18 8 19 7 20 6 21 5 22
REMARK SMILES IDX 4 23 3 24 2 25 1 26
REMARK H PARENT
REMARK Flexibility Score: inf
ROOT
ATOM      1  C   UNL     1      26.559   1.932  39.559  1.00  0.00     0.000 C 
ENDROOT
BRANCH   1   2
ATOM      2  C   UNL     1      26.614   0.539  38.905  1.00  0.00     0.000 C 
BRANCH   2   3
ATOM      3  C   UNL     1      25.609   0.376  37.753  1.00  0.00     0.000 C 
BRANCH   3   4
ATOM      4  C   UNL     1      25.607  -1.042  37.156  1.00  0.00     0.000 C 
BRANCH   4   5
ATOM      5  C   UNL     1      24.311  -1.393  36.394  1.00  0.00     0.000 C 
BRANCH   5   6
ATOM      6  C   UNL     1      24.033  -2.907  36.394  1.00  0.00     0.000 C 
BRANCH   6   7
ATOM      7  C   UNL     1      22.583  -3.243  36.774  1.00  0.00     0.000 C 
BRANCH   7   8
ATOM      8  C   UNL     1      22.172  -4.657  36.338  1.00  0.00     0.000 C 
BRANCH   8   9
ATOM      9  C   UNL     1      22.658  -4.956  34.914  1.00  0.00     0.000 C 
BRANCH   9  10
ATOM     10  C   UNL     1      23.141  -6.409  34.794  1.00  0.00     0.006 C 
BRANCH  10  11
ATOM     11  C   UNL     1      24.213  -6.753  35.837  1.00  0.00     0.053 C 
BRANCH  11  12
ATOM     12  C   UNL     1      25.553  -6.176  35.492  1.00  0.00     0.041 C 
ATOM     13  O   UNL     1      25.974  -6.212  34.305  1.00  0.00    -0.550 OA
ATOM     14  O   UNL     1      26.327  -5.575  36.477  1.00  0.00    -0.550 OA
ENDBRANCH  11  12
ENDBRANCH  10  11
ENDBRANCH   9  10
ENDBRANCH   8   9
ENDBRANCH   7   8
ENDBRANCH   6   7
ENDBRANCH   5   6
ENDBRANCH   4   5
ENDBRANCH   3   4
ENDBRANCH   2   3
ENDBRANCH   1   2
BRANCH   1  15
ATOM     15  C   UNL     1      25.147   2.519  39.743  1.00  0.00     0.000 C 
BRANCH  15  16
ATOM     16  C   UNL     1      24.881   3.004  41.178  1.00  0.00     0.000 C 
BRANCH  16  17
ATOM     17  C   UNL     1      25.946   2.515  42.172  1.00  0.00     0.000 C 
BRANCH  17  18
ATOM     18  C   UNL     1      25.371   2.248  43.576  1.00  0.00    -0.000 C 
BRANCH  18  19
ATOM     19  C   UNL     1      25.369   0.755  43.936  1.00  0.00    -0.000 C 
BRANCH  19  20
ATOM     20  C   UNL     1      26.784   0.149  43.968  1.00  0.00    -0.000 C 
BRANCH  20  21
ATOM     21  C   UNL     1      27.049  -0.762  42.751  1.00  0.00    -0.000 C 
BRANCH  21  22
ATOM     22  C   UNL     1      27.906  -1.995  43.085  1.00  0.00    -0.000 C 
BRANCH  22  23
ATOM     23  C   UNL     1      27.092  -3.127  43.733  1.00  0.00    -0.000 C 
BRANCH  23  24
ATOM     24  C   UNL     1      27.827  -3.756  44.938  1.00  0.00    -0.000 C 
BRANCH  24  25
ATOM     25  C   UNL     1      28.689  -2.752  45.722  1.00  0.00    -0.003 C 
ATOM     26  C   UNL     1      29.827  -3.420  46.494  1.00  0.00     0.004 C 
ENDBRANCH  24  25
ENDBRANCH  23  24
ENDBRANCH  22  23
ENDBRANCH  21  22
ENDBRANCH  20  21
ENDBRANCH  19  20
ENDBRANCH  18  19
ENDBRANCH  17  18
ENDBRANCH  16  17
ENDBRANCH  15  16
ENDBRANCH   1  15
TORSDOF 22
ENDMDL
MODEL 9
REMARK VINA RESULT:    -4.452      5.406      8.535
REMARK INTER + INTRA:         -12.372
REMARK INTER:                  -8.567
REMARK INTRA:                  -3.805
REMARK UNBOUND:                -2.195
REMARK SMILES CCCCCCCCCCCCCCCCCCCCCCCC(=O)[O-]
REMARK SMILES IDX 13 1 14 2 15 3 16 4 17 5 18 6 19 7 20 8 21 9 22 10 23 11
REMARK SMILES IDX 24 12 25 13 26 14 12 15 11 16 10 17 9 18 8 19 7 20 6 21 5 22
REMARK SMILES IDX 4 23 3 24 2 25 1 26
REMARK H PARENT
REMARK Flexibility Score: inf
ROOT
ATOM      1  C   UNL     1      28.711  -3.301  37.498  1.00  0.00     0.000 C 
ENDROOT
BRANCH   1   2
ATOM      2  C   UNL     1      30.134  -2.989  37.000  1.00  0.00     0.000 C 
BRANCH   2   3
ATOM      3  C   UNL     1      31.096  -4.179  37.148  1.00  0.00     0.000 C 
BRANCH   3   4
ATOM      4  C   UNL     1      32.048  -4.332  35.949  1.00  0.00     0.000 C 
BRANCH   4   5
ATOM      5  C   UNL     1      32.109  -5.769  35.385  1.00  0.00     0.000 C 
BRANCH   5   6
ATOM      6  C   UNL     1      31.545  -5.852  33.955  1.00  0.00     0.000 C 
BRANCH   6   7
ATOM      7  C   UNL     1      30.014  -5.731  33.915  1.00  0.00     0.000 C 
BRANCH   7   8
ATOM      8  C   UNL     1      29.530  -4.735  32.851  1.00  0.00     0.000 C 
BRANCH   8   9
ATOM      9  C   UNL     1      29.564  -3.298  33.386  1.00  0.00     0.000 C 
BRANCH   9  10
ATOM     10  C   UNL     1      30.471  -2.412  32.520  1.00  0.00     0.006 C 
BRANCH  10  11
ATOM     11  C   UNL     1      31.517  -1.660  33.356  1.00  0.00     0.053 C 
BRANCH  11  12
ATOM     12  C   UNL     1      32.135  -0.518  32.604  1.00  0.00     0.041 C 
ATOM     13  O   UNL     1      31.430   0.464  32.248  1.00  0.00    -0.550 OA
ATOM     14  O   UNL     1      33.495  -0.528  32.320  1.00  0.00    -0.550 OA
ENDBRANCH  11  12
ENDBRANCH  10  11
ENDBRANCH   9  10
ENDBRANCH   8   9
ENDBRANCH   7   8
ENDBRANCH   6   7
ENDBRANCH   5   6
ENDBRANCH   4   5
ENDBRANCH   3   4
ENDBRANCH   2   3
ENDBRANCH   1   2
BRANCH   1  15
ATOM     15  C   UNL     1      27.801  -4.023  36.487  1.00  0.00     0.000 C 
BRANCH  15  16
ATOM     16  C   UNL     1      27.639  -5.522  36.789  1.00  0.00     0.000 C 
BRANCH  16  17
ATOM     17  C   UNL     1      26.725  -6.231  35.776  1.00  0.00     0.000 C 
BRANCH  17  18
ATOM     18  C   UNL     1      26.346  -5.330  34.586  1.00  0.00    -0.000 C 
BRANCH  18  19
ATOM     19  C   UNL     1      25.379  -6.019  33.611  1.00  0.00    -0.000 C 
BRANCH  19  20
ATOM     20  C   UNL     1      24.247  -6.773  34.331  1.00  0.00    -0.000 C 
BRANCH  20  21
ATOM     21  C   UNL     1      22.949  -5.941  34.397  1.00  0.00    -0.000 C 
BRANCH  21  22
ATOM     22  C   UNL     1      22.556  -5.531  35.827  1.00  0.00    -0.000 C 
BRANCH  22  23
ATOM     23  C   UNL     1      22.230  -4.033  35.947  1.00  0.00    -0.000 C 
BRANCH  23  24
ATOM     24  C   UNL     1      23.297  -3.268  36.761  1.00  0.00    -0.000 C 
BRANCH  24  25
ATOM     25  C   UNL     1      24.279  -2.470  35.887  1.00  0.00    -0.003 C 
ATOM     26  C   UNL     1      25.157  -1.517  36.697  1.00  0.00     0.004 C 
ENDBRANCH  24  25
ENDBRANCH  23  24
ENDBRANCH  22  23
ENDBRANCH  21  22
ENDBRANCH  20  21
ENDBRANCH  19  20
ENDBRANCH  18  19
ENDBRANCH  17  18
ENDBRANCH  16  17
ENDBRANCH  15  16
ENDBRANCH   1  15
TORSDOF 22
ENDMDL
