MODEL 1
REMARK VINA RESULT:    -4.654      0.000      0.000
REMARK INTER + INTRA:          -5.024
REMARK INTER:                  -4.926
REMARK INTRA:                  -0.098
REMARK UNBOUND:                -0.098
REMARK SMILES C=C(C)[C@@H]1CC=C(C)C(=O)C1
REMARK SMILES IDX 8 1 7 2 6 3 5 4 4 5 11 6 9 7 10 8 2 9 1 10 3 11
REMARK H PARENT
REMARK Flexibility Score: inf
ROOT
ATOM      1  C   UNL     1      12.498 115.747  17.753  1.00  0.00     0.048 C 
ATOM      2  C   UNL     1      11.294 116.455  18.312  1.00  0.00    -0.012 C 
ATOM      3  C   UNL     1      10.746 116.044  19.468  1.00  0.00    -0.019 C 
ATOM      4  C   UNL     1       9.592 116.770  20.109  1.00  0.00     0.036 C 
ATOM      5  C   UNL     1       8.699 117.441  19.047  1.00  0.00     0.025 C 
ATOM      6  C   UNL     1       9.540 118.362  18.145  1.00  0.00     0.089 C 
ATOM      7  C   UNL     1      10.730 117.626  17.595  1.00  0.00     0.158 C 
ATOM      8  O   UNL     1      11.274 118.040  16.536  1.00  0.00    -0.295 OA
ENDROOT
BRANCH   5   9
ATOM      9  C   UNL     1       7.542 118.194  19.687  1.00  0.00    -0.077 C 
ATOM     10  C   UNL     1       7.501 118.359  21.019  1.00  0.00     0.008 C 
ATOM     11  C   UNL     1       6.420 118.768  18.856  1.00  0.00     0.039 C 
ENDBRANCH   5   9
TORSDOF 1
ENDMDL
MODEL 2
REMARK VINA RESULT:    -4.570      2.343      4.853
REMARK INTER + INTRA:          -4.936
REMARK INTER:                  -4.843
REMARK INTRA:                  -0.093
REMARK UNBOUND:                -0.098
REMARK SMILES C=C(C)[C@@H]1CC=C(C)C(=O)C1
REMARK SMILES IDX 8 1 7 2 6 3 5 4 4 5 11 6 9 7 10 8 2 9 1 10 3 11
REMARK H PARENT
REMARK Flexibility Score: inf
ROOT
ATOM      1  C   UNL     1       7.101 120.254  21.891  1.00  0.00     0.048 C 
ATOM      2  C   UNL     1       7.978 119.537  20.901  1.00  0.00    -0.012 C 
ATOM      3  C   UNL     1       8.593 120.224  19.923  1.00  0.00    -0.019 C 
ATOM      4  C   UNL     1       9.543 119.564  18.959  1.00  0.00     0.036 C 
ATOM      5  C   UNL     1       9.158 118.091  18.719  1.00  0.00     0.025 C 
ATOM      6  C   UNL     1       9.068 117.337  20.058  1.00  0.00     0.089 C 
ATOM      7  C   UNL     1       8.181 118.072  21.024  1.00  0.00     0.158 C 
ATOM      8  O   UNL     1       7.642 117.437  21.969  1.00  0.00    -0.295 OA
ENDROOT
BRANCH   5   9
ATOM      9  C   UNL     1      10.127 117.411  17.761  1.00  0.00    -0.077 C 
ATOM     10  C   UNL     1      10.263 117.868  16.506  1.00  0.00     0.008 C 
ATOM     11  C   UNL     1      10.948 116.219  18.188  1.00  0.00     0.039 C 
ENDBRANCH   5   9
TORSDOF 1
ENDMDL
MODEL 3
REMARK VINA RESULT:    -4.560      2.108      4.482
REMARK INTER + INTRA:          -4.924
REMARK INTER:                  -4.836
REMARK INTRA:                  -0.089
REMARK UNBOUND:                -0.098
REMARK SMILES C=C(C)[C@@H]1CC=C(C)C(=O)C1
REMARK SMILES IDX 8 1 7 2 6 3 5 4 4 5 11 6 9 7 10 8 2 9 1 10 3 11
REMARK H PARENT
REMARK Flexibility Score: inf
ROOT
ATOM      1  C   UNL     1       7.078 120.267  21.966  1.00  0.00     0.048 C 
ATOM      2  C   UNL     1       7.822 119.534  20.884  1.00  0.00    -0.012 C 
ATOM      3  C   UNL     1       7.540 118.246  20.625  1.00  0.00    -0.019 C 
ATOM      4  C   UNL     1       8.200 117.494  19.498  1.00  0.00     0.036 C 
ATOM      5  C   UNL     1       9.624 118.023  19.235  1.00  0.00     0.025 C 
ATOM      6  C   UNL     1       9.593 119.541  18.985  1.00  0.00     0.089 C 
ATOM      7  C   UNL     1       8.850 120.247  20.086  1.00  0.00     0.158 C 
ATOM      8  O   UNL     1       9.080 121.468  20.298  1.00  0.00    -0.295 OA
ENDROOT
BRANCH   5   9
ATOM      9  C   UNL     1      10.289 117.282  18.084  1.00  0.00    -0.077 C 
ATOM     10  C   UNL     1      10.944 116.133  18.312  1.00  0.00     0.008 C 
ATOM     11  C   UNL     1      10.235 117.812  16.672  1.00  0.00     0.039 C 
ENDBRANCH   5   9
TORSDOF 1
ENDMDL
MODEL 4
REMARK VINA RESULT:    -4.521      1.528      2.162
REMARK INTER + INTRA:          -4.884
REMARK INTER:                  -4.790
REMARK INTRA:                  -0.094
REMARK UNBOUND:                -0.098
REMARK SMILES C=C(C)[C@@H]1CC=C(C)C(=O)C1
REMARK SMILES IDX 8 1 7 2 6 3 5 4 4 5 11 6 9 7 10 8 2 9 1 10 3 11
REMARK H PARENT
REMARK Flexibility Score: inf
ROOT
ATOM      1  C   UNL     1      13.345 117.271  17.057  1.00  0.00     0.048 C 
ATOM      2  C   UNL     1      11.916 117.312  17.527  1.00  0.00    -0.012 C 
ATOM      3  C   UNL     1      10.985 117.953  16.800  1.00  0.00    -0.019 C 
ATOM      4  C   UNL     1       9.529 117.951  17.186  1.00  0.00     0.036 C 
ATOM      5  C   UNL     1       9.360 117.855  18.715  1.00  0.00     0.025 C 
ATOM      6  C   UNL     1      10.110 116.627  19.261  1.00  0.00     0.089 C 
ATOM      7  C   UNL     1      11.535 116.618  18.782  1.00  0.00     0.158 C 
ATOM      8  O   UNL     1      12.400 115.977  19.437  1.00  0.00    -0.295 OA
ENDROOT
BRANCH   5   9
ATOM      9  C   UNL     1       7.890 117.832  19.112  1.00  0.00    -0.077 C 
ATOM     10  C   UNL     1       7.539 117.970  20.400  1.00  0.00     0.008 C 
ATOM     11  C   UNL     1       6.801 117.653  18.083  1.00  0.00     0.039 C 
ENDBRANCH   5   9
TORSDOF 1
ENDMDL
MODEL 5
REMARK VINA RESULT:    -4.520      2.136      3.106
REMARK INTER + INTRA:          -4.882
REMARK INTER:                  -4.785
REMARK INTRA:                  -0.097
REMARK UNBOUND:                -0.098
REMARK SMILES C=C(C)[C@@H]1CC=C(C)C(=O)C1
REMARK SMILES IDX 8 1 7 2 6 3 5 4 4 5 11 6 9 7 10 8 2 9 1 10 3 11
REMARK H PARENT
REMARK Flexibility Score: inf
ROOT
ATOM      1  C   UNL     1       9.759 117.666  16.776  1.00  0.00     0.048 C 
ATOM      2  C   UNL     1       9.336 117.842  18.209  1.00  0.00    -0.012 C 
ATOM      3  C   UNL     1      10.256 118.074  19.160  1.00  0.00    -0.019 C 
ATOM      4  C   UNL     1       9.875 118.338  20.593  1.00  0.00     0.036 C 
ATOM      5  C   UNL     1       8.573 117.605  20.967  1.00  0.00     0.025 C 
ATOM      6  C   UNL     1       7.447 117.979  19.985  1.00  0.00     0.089 C 
ATOM      7  C   UNL     1       7.896 117.785  18.563  1.00  0.00     0.158 C 
ATOM      8  O   UNL     1       7.031 117.615  17.663  1.00  0.00    -0.295 OA
ENDROOT
BRANCH   5   9
ATOM      9  C   UNL     1       8.170 117.883  22.408  1.00  0.00    -0.077 C 
ATOM     10  C   UNL     1       7.443 118.972  22.705  1.00  0.00     0.008 C 
ATOM     11  C   UNL     1       8.573 116.958  23.530  1.00  0.00     0.039 C 
ENDBRANCH   5   9
TORSDOF 1
ENDMDL
MODEL 6
REMARK VINA RESULT:    -4.388      1.976      4.390
REMARK INTER + INTRA:          -4.743
REMARK INTER:                  -4.646
REMARK INTRA:                  -0.097
REMARK UNBOUND:                -0.098
REMARK SMILES C=C(C)[C@@H]1CC=C(C)C(=O)C1
REMARK SMILES IDX 8 1 7 2 6 3 5 4 4 5 11 6 9 7 10 8 2 9 1 10 3 11
REMARK H PARENT
REMARK Flexibility Score: inf
ROOT
ATOM      1  C   UNL     1       7.572 118.445  22.542  1.00  0.00     0.048 C 
ATOM      2  C   UNL     1       8.276 118.003  21.288  1.00  0.00    -0.012 C 
ATOM      3  C   UNL     1       9.371 117.229  21.366  1.00  0.00    -0.019 C 
ATOM      4  C   UNL     1      10.062 116.694  20.139  1.00  0.00     0.036 C 
ATOM      5  C   UNL     1       9.904 117.660  18.948  1.00  0.00     0.025 C 
ATOM      6  C   UNL     1       8.415 117.959  18.696  1.00  0.00     0.089 C 
ATOM      7  C   UNL     1       7.741 118.405  19.964  1.00  0.00     0.158 C 
ATOM      8  O   UNL     1       6.686 119.092  19.891  1.00  0.00    -0.295 OA
ENDROOT
BRANCH   5   9
ATOM      9  C   UNL     1      10.581 117.117  17.697  1.00  0.00    -0.077 C 
ATOM     10  C   UNL     1      10.439 117.754  16.525  1.00  0.00     0.008 C 
ATOM     11  C   UNL     1      11.418 115.861  17.739  1.00  0.00     0.039 C 
ENDBRANCH   5   9
TORSDOF 1
ENDMDL
MODEL 7
REMARK VINA RESULT:    -4.374      1.645      2.927
REMARK INTER + INTRA:          -4.728
REMARK INTER:                  -4.637
REMARK INTRA:                  -0.091
REMARK UNBOUND:                -0.098
REMARK SMILES C=C(C)[C@@H]1CC=C(C)C(=O)C1
REMARK SMILES IDX 8 1 7 2 6 3 5 4 4 5 11 6 9 7 10 8 2 9 1 10 3 11
REMARK H PARENT
REMARK Flexibility Score: inf
ROOT
ATOM      1  C   UNL     1       9.950 117.673  16.711  1.00  0.00     0.048 C 
ATOM      2  C   UNL     1       9.473 117.565  18.134  1.00  0.00    -0.012 C 
ATOM      3  C   UNL     1       8.255 118.018  18.474  1.00  0.00    -0.019 C 
ATOM      4  C   UNL     1       7.702 117.858  19.866  1.00  0.00     0.036 C 
ATOM      5  C   UNL     1       8.830 117.866  20.916  1.00  0.00     0.025 C 
ATOM      6  C   UNL     1       9.882 116.795  20.579  1.00  0.00     0.089 C 
ATOM      7  C   UNL     1      10.345 116.933  19.155  1.00  0.00     0.158 C 
ATOM      8  O   UNL     1      11.468 116.465  18.826  1.00  0.00    -0.295 OA
ENDROOT
BRANCH   5   9
ATOM      9  C   UNL     1       8.281 117.685  22.324  1.00  0.00    -0.077 C 
ATOM     10  C   UNL     1       7.562 118.662  22.898  1.00  0.00     0.008 C 
ATOM     11  C   UNL     1       8.529 116.418  23.107  1.00  0.00     0.039 C 
ENDBRANCH   5   9
TORSDOF 1
ENDMDL
MODEL 8
REMARK VINA RESULT:    -4.304      5.696      7.710
REMARK INTER + INTRA:          -4.654
REMARK INTER:                  -4.559
REMARK INTRA:                  -0.096
REMARK UNBOUND:                -0.098
REMARK SMILES C=C(C)[C@@H]1CC=C(C)C(=O)C1
REMARK SMILES IDX 8 1 7 2 6 3 5 4 4 5 11 6 9 7 10 8 2 9 1 10 3 11
REMARK H PARENT
REMARK Flexibility Score: inf
ROOT
ATOM      1  C   UNL     1      15.650 108.219  18.489  1.00  0.00     0.048 C 
ATOM      2  C   UNL     1      14.791 109.453  18.548  1.00  0.00    -0.012 C 
ATOM      3  C   UNL     1      13.896 109.606  19.539  1.00  0.00    -0.019 C 
ATOM      4  C   UNL     1      13.073 110.858  19.686  1.00  0.00     0.036 C 
ATOM      5  C   UNL     1      12.800 111.509  18.316  1.00  0.00     0.025 C 
ATOM      6  C   UNL     1      14.123 111.765  17.572  1.00  0.00     0.089 C 
ATOM      7  C   UNL     1      14.955 110.513  17.523  1.00  0.00     0.158 C 
ATOM      8  O   UNL     1      15.829 110.391  16.622  1.00  0.00    -0.295 OA
ENDROOT
BRANCH   5   9
ATOM      9  C   UNL     1      11.985 112.787  18.459  1.00  0.00    -0.077 C 
ATOM     10  C   UNL     1      11.662 113.504  17.371  1.00  0.00     0.008 C 
ATOM     11  C   UNL     1      11.527 113.281  19.809  1.00  0.00     0.039 C 
ENDBRANCH   5   9
TORSDOF 1
ENDMDL
MODEL 9
REMARK VINA RESULT:    -4.278      2.129      4.730
REMARK INTER + INTRA:          -4.626
REMARK INTER:                  -4.528
REMARK INTRA:                  -0.098
REMARK UNBOUND:                -0.098
REMARK SMILES C=C(C)[C@@H]1CC=C(C)C(=O)C1
REMARK SMILES IDX 8 1 7 2 6 3 5 4 4 5 11 6 9 7 10 8 2 9 1 10 3 11
REMARK H PARENT
REMARK Flexibility Score: inf
ROOT
ATOM      1  C   UNL     1       8.918 119.584  19.197  1.00  0.00     0.048 C 
ATOM      2  C   UNL     1       9.744 118.340  19.019  1.00  0.00    -0.012 C 
ATOM      3  C   UNL     1      10.521 118.195  17.932  1.00  0.00    -0.019 C 
ATOM      4  C   UNL     1      11.427 117.006  17.749  1.00  0.00     0.036 C 
ATOM      5  C   UNL     1      10.845 115.753  18.432  1.00  0.00     0.025 C 
ATOM      6  C   UNL     1      10.551 116.040  19.915  1.00  0.00     0.089 C 
ATOM      7  C   UNL     1       9.718 117.284  20.061  1.00  0.00     0.158 C 
ATOM      8  O   UNL     1       9.026 117.442  21.103  1.00  0.00    -0.295 OA
ENDROOT
BRANCH   5   9
ATOM      9  C   UNL     1      11.765 114.552  18.269  1.00  0.00    -0.077 C 
ATOM     10  C   UNL     1      12.967 114.698  17.689  1.00  0.00     0.008 C 
ATOM     11  C   UNL     1      11.358 113.179  18.745  1.00  0.00     0.039 C 
ENDBRANCH   5   9
TORSDOF 1
ENDMDL
