MODEL 1
REMARK VINA RESULT:    -4.104      0.000      0.000
REMARK INTER + INTRA:          -6.480
REMARK INTER:                  -6.263
REMARK INTRA:                  -0.218
REMARK UNBOUND:                -0.218
REMARK SMILES CC1=CCC[C@@H](C)C(=O)C[C@@H](C(C)C)C(=O)C1
REMARK SMILES IDX 8 1 9 2 6 3 7 4 5 5 4 6 3 7 2 8 1 9 10 11 11 12 15 13 16 14
REMARK SMILES IDX 17 15 12 17 13 18 14 19
REMARK H PARENT
REMARK Flexibility Score: 70.00
ROOT
ATOM      1  C   UNL     1     -13.979  13.696 -30.525  1.00  0.00     0.136 C 
ATOM      2  O   UNL     1     -13.763  14.892 -30.658  1.00  0.00    -0.299 OA
ENDROOT
BRANCH   1   3
ATOM      3  C   UNL     1     -14.063  12.813 -31.747  1.00  0.00     0.053 C 
ATOM      4  C   UNL     1     -12.938  13.143 -32.734  1.00  0.00     0.016 C 
BRANCH   3   5
ATOM      5  C   UNL     1     -15.457  12.976 -32.405  1.00  0.00     0.015 C 
BRANCH   5   6
ATOM      6  C   UNL     1     -16.556  13.601 -31.523  1.00  0.00     0.028 C 
BRANCH   6   7
ATOM      7  C   UNL     1     -17.708  12.711 -31.107  1.00  0.00    -0.028 C 
ATOM      8  C   UNL     1     -17.949  12.211 -29.870  1.00  0.00    -0.070 CG0
ATOM      9  C   UNL     1     -19.250  11.473 -29.662  1.00  0.00     0.039 C 
ATOM     10  G   UNL     1     -16.984  12.313 -28.700  1.00  0.00     0.000 G0
ENDBRANCH   6   7
ENDBRANCH   5   6
ENDBRANCH   3   5
ENDBRANCH   1   3
BRANCH   1  11
ATOM     11  C   UNL     1     -14.170  13.127 -29.139  1.00  0.00     0.087 C 
BRANCH  11  12
ATOM     12  C   UNL     1     -14.402  11.590 -29.087  1.00  0.00     0.066 C 
BRANCH  12  13
ATOM     13  C   UNL     1     -15.870  11.275 -28.789  1.00  0.00     0.140 C 
ATOM     14  O   UNL     1     -16.152  10.103 -28.580  1.00  0.00    -0.299 OA
BRANCH  13  15
ATOM     15  C   UNL     1     -16.988  12.305 -28.690  1.00  0.00     0.106 CG0
ATOM     16  G   UNL     1     -17.942  12.209 -29.870  1.00  0.00     0.000 G0
ENDBRANCH  13  15
ENDBRANCH  12  13
BRANCH  12  17
ATOM     17  C   UNL     1     -13.346  10.785 -28.257  1.00  0.00    -0.006 C 
ATOM     18  C   UNL     1     -12.939  11.532 -26.972  1.00  0.00     0.008 C 
ATOM     19  C   UNL     1     -12.070  10.521 -29.077  1.00  0.00     0.008 C 
ENDBRANCH  12  17
ENDBRANCH  11  12
ENDBRANCH   1  11
TORSDOF 1
ENDMDL
MODEL 2
REMARK VINA RESULT:    -3.790      1.749      4.032
REMARK INTER + INTRA:          -6.002
REMARK INTER:                  -6.357
REMARK INTRA:                   0.355
REMARK UNBOUND:                -0.218
REMARK SMILES CC1=CCC[C@@H](C)C(=O)C[C@@H](C(C)C)C(=O)C1
REMARK SMILES IDX 8 1 9 2 6 3 7 4 5 5 4 6 3 7 2 8 1 9 10 11 11 12 15 13 16 14
REMARK SMILES IDX 17 15 12 17 13 18 14 19
REMARK H PARENT
REMARK Flexibility Score: 70.00
ROOT
ATOM      1  C   UNL     1     -15.939  13.933 -30.425  1.00  0.00     0.136 C 
ATOM      2  O   UNL     1     -16.532  13.904 -31.494  1.00  0.00    -0.299 OA
ENDROOT
BRANCH   1   3
ATOM      3  C   UNL     1     -14.437  14.087 -30.409  1.00  0.00     0.053 C 
ATOM      4  C   UNL     1     -14.040  15.559 -30.566  1.00  0.00     0.016 C 
BRANCH   3   5
ATOM      5  C   UNL     1     -13.817  13.213 -31.529  1.00  0.00     0.015 C 
BRANCH   5   6
ATOM      6  C   UNL     1     -13.549  11.738 -31.169  1.00  0.00     0.028 C 
BRANCH   6   7
ATOM      7  C   UNL     1     -12.926  11.451 -29.819  1.00  0.00    -0.028 C 
ATOM      8  C   UNL     1     -13.521  10.857 -28.754  1.00  0.00    -0.070 CG0
ATOM      9  C   UNL     1     -12.650  10.536 -27.564  1.00  0.00     0.039 C 
ATOM     10  G   UNL     1     -15.004  10.531 -28.671  1.00  0.00     0.000 G0
ENDBRANCH   6   7
ENDBRANCH   5   6
ENDBRANCH   3   5
ENDBRANCH   1   3
BRANCH   1  11
ATOM     11  C   UNL     1     -16.722  13.799 -29.140  1.00  0.00     0.087 C 
BRANCH  11  12
ATOM     12  C   UNL     1     -17.031  12.337 -28.710  1.00  0.00     0.066 C 
BRANCH  12  13
ATOM     13  C   UNL     1     -15.802  11.693 -28.064  1.00  0.00     0.140 C 
ATOM     14  O   UNL     1     -15.460  12.126 -26.972  1.00  0.00    -0.299 OA
BRANCH  13  15
ATOM     15  C   UNL     1     -15.004  10.535 -28.651  1.00  0.00     0.106 CG0
ATOM     16  G   UNL     1     -13.522  10.865 -28.740  1.00  0.00     0.000 G0
ENDBRANCH  13  15
ENDBRANCH  12  13
BRANCH  12  17
ATOM     17  C   UNL     1     -17.773  11.470 -29.783  1.00  0.00    -0.006 C 
ATOM     18  C   UNL     1     -19.118  12.099 -30.195  1.00  0.00     0.008 C 
ATOM     19  C   UNL     1     -18.052  10.049 -29.260  1.00  0.00     0.008 C 
ENDBRANCH  12  17
ENDBRANCH  11  12
ENDBRANCH   1  11
TORSDOF 1
ENDMDL
MODEL 3
REMARK VINA RESULT:    -3.710      1.975      4.828
REMARK INTER + INTRA:          -5.879
REMARK INTER:                  -6.462
REMARK INTRA:                   0.583
REMARK UNBOUND:                -0.218
REMARK SMILES CC1=CCC[C@@H](C)C(=O)C[C@@H](C(C)C)C(=O)C1
REMARK SMILES IDX 8 1 9 2 6 3 7 4 5 5 4 6 3 7 2 8 1 9 10 11 11 12 15 13 16 14
REMARK SMILES IDX 17 15 12 17 13 18 14 19
REMARK H PARENT
REMARK Flexibility Score: 70.00
ROOT
ATOM      1  C   UNL     1     -15.801  11.832 -27.589  1.00  0.00     0.136 C 
ATOM      2  O   UNL     1     -16.018  11.824 -26.386  1.00  0.00    -0.299 OA
ENDROOT
BRANCH   1   3
ATOM      3  C   UNL     1     -14.751  10.911 -28.164  1.00  0.00     0.053 C 
ATOM      4  C   UNL     1     -14.086  10.087 -27.056  1.00  0.00     0.016 C 
BRANCH   3   5
ATOM      5  C   UNL     1     -13.708  11.745 -28.950  1.00  0.00     0.015 C 
BRANCH   5   6
ATOM      6  C   UNL     1     -13.694  11.547 -30.479  1.00  0.00     0.028 C 
BRANCH   6   7
ATOM      7  C   UNL     1     -13.285  12.729 -31.332  1.00  0.00    -0.028 C 
ATOM      8  C   UNL     1     -13.873  13.951 -31.371  1.00  0.00    -0.070 CG0
ATOM      9  C   UNL     1     -13.191  15.023 -32.188  1.00  0.00     0.039 C 
ATOM     10  G   UNL     1     -15.183  14.296 -30.680  1.00  0.00     0.000 G0
ENDBRANCH   6   7
ENDBRANCH   5   6
ENDBRANCH   3   5
ENDBRANCH   1   3
BRANCH   1  11
ATOM     11  C   UNL     1     -16.580  12.775 -28.476  1.00  0.00     0.087 C 
BRANCH  11  12
ATOM     12  C   UNL     1     -16.794  12.276 -29.934  1.00  0.00     0.066 C 
BRANCH  12  13
ATOM     13  C   UNL     1     -16.287  13.313 -30.940  1.00  0.00     0.140 C 
ATOM     14  O   UNL     1     -16.846  13.348 -32.027  1.00  0.00    -0.299 OA
BRANCH  13  15
ATOM     15  C   UNL     1     -15.178  14.325 -30.677  1.00  0.00     0.106 CG0
ATOM     16  G   UNL     1     -13.885  13.929 -31.373  1.00  0.00     0.000 G0
ENDBRANCH  13  15
ENDBRANCH  12  13
BRANCH  12  17
ATOM     17  C   UNL     1     -18.208  11.671 -30.229  1.00  0.00    -0.006 C 
ATOM     18  C   UNL     1     -19.339  12.612 -29.772  1.00  0.00     0.008 C 
ATOM     19  C   UNL     1     -18.398  10.318 -29.518  1.00  0.00     0.008 C 
ENDBRANCH  12  17
ENDBRANCH  11  12
ENDBRANCH   1  11
TORSDOF 1
ENDMDL
MODEL 4
REMARK VINA RESULT:    -3.491      1.698      3.612
REMARK INTER + INTRA:          -5.546
REMARK INTER:                  -5.717
REMARK INTRA:                   0.171
REMARK UNBOUND:                -0.218
REMARK SMILES CC1=CCC[C@@H](C)C(=O)C[C@@H](C(C)C)C(=O)C1
REMARK SMILES IDX 8 1 9 2 6 3 7 4 5 5 4 6 3 7 2 8 1 9 10 11 11 12 15 13 16 14
REMARK SMILES IDX 17 15 12 17 13 18 14 19
REMARK H PARENT
REMARK Flexibility Score: 70.00
ROOT
ATOM      1  C   UNL     1     -13.813  12.003 -28.688  1.00  0.00     0.136 C 
ATOM      2  O   UNL     1     -13.935  12.664 -27.667  1.00  0.00    -0.299 OA
ENDROOT
BRANCH   1   3
ATOM      3  C   UNL     1     -13.701  10.500 -28.596  1.00  0.00     0.053 C 
ATOM      4  C   UNL     1     -12.835   9.949 -29.734  1.00  0.00     0.016 C 
BRANCH   3   5
ATOM      5  C   UNL     1     -15.119   9.875 -28.613  1.00  0.00     0.015 C 
BRANCH   5   6
ATOM      6  C   UNL     1     -15.984  10.189 -29.850  1.00  0.00     0.028 C 
BRANCH   6   7
ATOM      7  C   UNL     1     -17.342  10.814 -29.611  1.00  0.00    -0.028 C 
ATOM      8  C   UNL     1     -17.795  11.995 -30.100  1.00  0.00    -0.070 CG0
ATOM      9  C   UNL     1     -19.244  12.339 -29.852  1.00  0.00     0.039 C 
ATOM     10  G   UNL     1     -16.934  13.003 -30.844  1.00  0.00     0.000 G0
ENDBRANCH   6   7
ENDBRANCH   5   6
ENDBRANCH   3   5
ENDBRANCH   1   3
BRANCH   1  11
ATOM     11  C   UNL     1     -13.761  12.708 -30.024  1.00  0.00     0.087 C 
BRANCH  11  12
ATOM     12  C   UNL     1     -14.546  14.049 -30.088  1.00  0.00     0.066 C 
BRANCH  12  13
ATOM     13  C   UNL     1     -16.045  13.808 -29.896  1.00  0.00     0.140 C 
ATOM     14  O   UNL     1     -16.567  14.322 -28.917  1.00  0.00    -0.299 OA
BRANCH  13  15
ATOM     15  C   UNL     1     -16.938  13.018 -30.845  1.00  0.00     0.106 CG0
ATOM     16  G   UNL     1     -17.784  11.999 -30.098  1.00  0.00     0.000 G0
ENDBRANCH  13  15
ENDBRANCH  12  13
BRANCH  12  17
ATOM     17  C   UNL     1     -14.151  14.994 -31.273  1.00  0.00    -0.006 C 
ATOM     18  C   UNL     1     -12.834  14.554 -31.941  1.00  0.00     0.008 C 
ATOM     19  C   UNL     1     -13.979  16.449 -30.796  1.00  0.00     0.008 C 
ENDBRANCH  12  17
ENDBRANCH  11  12
ENDBRANCH   1  11
TORSDOF 1
ENDMDL
MODEL 5
REMARK VINA RESULT:    -3.384      2.212      4.557
REMARK INTER + INTRA:          -5.381
REMARK INTER:                  -5.379
REMARK INTRA:                  -0.002
REMARK UNBOUND:                -0.218
REMARK SMILES CC1=CCC[C@@H](C)C(=O)C[C@@H](C(C)C)C(=O)C1
REMARK SMILES IDX 8 1 9 2 6 3 7 4 5 5 4 6 3 7 2 8 1 9 10 11 11 12 15 13 16 14
REMARK SMILES IDX 17 15 12 17 13 18 14 19
REMARK H PARENT
REMARK Flexibility Score: 70.00
ROOT
ATOM      1  C   UNL     1     -16.446  13.091 -29.455  1.00  0.00     0.136 C 
ATOM      2  O   UNL     1     -17.086  13.679 -28.595  1.00  0.00    -0.299 OA
ENDROOT
BRANCH   1   3
ATOM      3  C   UNL     1     -17.000  11.823 -30.061  1.00  0.00     0.053 C 
ATOM      4  C   UNL     1     -18.462  12.013 -30.476  1.00  0.00     0.016 C 
BRANCH   3   5
ATOM      5  C   UNL     1     -16.847  10.659 -29.049  1.00  0.00     0.015 C 
BRANCH   5   6
ATOM      6  C   UNL     1     -16.141  11.001 -27.722  1.00  0.00     0.028 C 
BRANCH   6   7
ATOM      7  C   UNL     1     -14.855  10.268 -27.406  1.00  0.00    -0.028 C 
ATOM      8  C   UNL     1     -13.590  10.734 -27.555  1.00  0.00    -0.070 CG0
ATOM      9  C   UNL     1     -12.467   9.876 -27.026  1.00  0.00     0.039 C 
ATOM     10  G   UNL     1     -13.233  12.040 -28.249  1.00  0.00     0.000 G0
ENDBRANCH   6   7
ENDBRANCH   5   6
ENDBRANCH   3   5
ENDBRANCH   1   3
BRANCH   1  11
ATOM     11  C   UNL     1     -15.106  13.639 -29.886  1.00  0.00     0.087 C 
BRANCH  11  12
ATOM     12  C   UNL     1     -14.219  12.645 -30.688  1.00  0.00     0.066 C 
BRANCH  12  13
ATOM     13  C   UNL     1     -13.246  11.916 -29.758  1.00  0.00     0.140 C 
ATOM     14  O   UNL     1     -12.405  11.202 -30.287  1.00  0.00    -0.299 OA
BRANCH  13  15
ATOM     15  C   UNL     1     -13.217  12.044 -28.240  1.00  0.00     0.106 CG0
ATOM     16  G   UNL     1     -13.588  10.735 -27.561  1.00  0.00     0.000 G0
ENDBRANCH  13  15
ENDBRANCH  12  13
BRANCH  12  17
ATOM     17  C   UNL     1     -13.603  13.220 -32.008  1.00  0.00    -0.006 C 
ATOM     18  C   UNL     1     -13.362  14.739 -31.913  1.00  0.00     0.008 C 
ATOM     19  C   UNL     1     -14.522  12.959 -33.216  1.00  0.00     0.008 C 
ENDBRANCH  12  17
ENDBRANCH  11  12
ENDBRANCH   1  11
TORSDOF 1
ENDMDL
MODEL 6
REMARK VINA RESULT:    -3.276      8.836     11.501
REMARK INTER + INTRA:          -5.217
REMARK INTER:                  -5.319
REMARK INTRA:                   0.102
REMARK UNBOUND:                -0.218
REMARK SMILES CC1=CCC[C@@H](C)C(=O)C[C@@H](C(C)C)C(=O)C1
REMARK SMILES IDX 8 1 9 2 6 3 7 4 5 5 4 6 3 7 2 8 1 9 10 11 11 12 15 13 16 14
REMARK SMILES IDX 17 15 12 17 13 18 14 19
REMARK H PARENT
REMARK Flexibility Score: 70.00
ROOT
ATOM      1  C   UNL     1     -27.564  12.611 -31.034  1.00  0.00     0.136 C 
ATOM      2  O   UNL     1     -27.195  12.300 -32.157  1.00  0.00    -0.299 OA
ENDROOT
BRANCH   1   3
ATOM      3  C   UNL     1     -28.979  12.307 -30.602  1.00  0.00     0.053 C 
ATOM      4  C   UNL     1     -29.759  13.602 -30.348  1.00  0.00     0.016 C 
BRANCH   3   5
ATOM      5  C   UNL     1     -28.952  11.407 -29.341  1.00  0.00     0.015 C 
BRANCH   5   6
ATOM      6  C   UNL     1     -28.070  10.146 -29.426  1.00  0.00     0.028 C 
BRANCH   6   7
ATOM      7  C   UNL     1     -26.985   9.981 -28.382  1.00  0.00    -0.028 C 
ATOM      8  C   UNL     1     -25.662  10.238 -28.530  1.00  0.00    -0.070 CG0
ATOM      9  C   UNL     1     -24.795  10.146 -27.298  1.00  0.00     0.039 C 
ATOM     10  G   UNL     1     -24.996  10.575 -29.855  1.00  0.00     0.000 G0
ENDBRANCH   6   7
ENDBRANCH   5   6
ENDBRANCH   3   5
ENDBRANCH   1   3
BRANCH   1  11
ATOM     11  C   UNL     1     -26.599  13.307 -30.103  1.00  0.00     0.087 C 
BRANCH  11  12
ATOM     12  C   UNL     1     -25.105  13.221 -30.524  1.00  0.00     0.066 C 
BRANCH  12  13
ATOM     13  C   UNL     1     -24.431  12.005 -29.881  1.00  0.00     0.140 C 
ATOM     14  O   UNL     1     -23.379  12.204 -29.291  1.00  0.00    -0.299 OA
BRANCH  13  15
ATOM     15  C   UNL     1     -24.989  10.587 -29.884  1.00  0.00     0.106 CG0
ATOM     16  G   UNL     1     -25.663  10.249 -28.564  1.00  0.00     0.000 G0
ENDBRANCH  13  15
ENDBRANCH  12  13
BRANCH  12  17
ATOM     17  C   UNL     1     -24.310  14.568 -30.439  1.00  0.00    -0.006 C 
ATOM     18  C   UNL     1     -25.234  15.789 -30.615  1.00  0.00     0.008 C 
ATOM     19  C   UNL     1     -23.213  14.641 -31.517  1.00  0.00     0.008 C 
ENDBRANCH  12  17
ENDBRANCH  11  12
ENDBRANCH   1  11
TORSDOF 1
ENDMDL
MODEL 7
REMARK VINA RESULT:    -2.982      8.831     11.046
REMARK INTER + INTRA:          -4.769
REMARK INTER:                  -5.733
REMARK INTRA:                   0.964
REMARK UNBOUND:                -0.218
REMARK SMILES CC1=CCC[C@@H](C)C(=O)C[C@@H](C(C)C)C(=O)C1
REMARK SMILES IDX 8 1 9 2 6 3 7 4 5 5 4 6 3 7 2 8 1 9 10 11 11 12 15 13 16 14
REMARK SMILES IDX 17 15 12 17 13 18 14 19
REMARK H PARENT
REMARK Flexibility Score: 70.00
ROOT
ATOM      1  C   UNL     1     -24.405  13.347 -30.122  1.00  0.00     0.136 C 
ATOM      2  O   UNL     1     -23.183  13.306 -30.120  1.00  0.00    -0.299 OA
ENDROOT
BRANCH   1   3
ATOM      3  C   UNL     1     -25.118  14.288 -31.064  1.00  0.00     0.053 C 
ATOM      4  C   UNL     1     -25.563  15.558 -30.329  1.00  0.00     0.016 C 
BRANCH   3   5
ATOM      5  C   UNL     1     -26.324  13.558 -31.708  1.00  0.00     0.015 C 
BRANCH   5   6
ATOM      6  C   UNL     1     -27.699  14.233 -31.535  1.00  0.00     0.028 C 
BRANCH   6   7
ATOM      7  C   UNL     1     -28.724  13.521 -30.678  1.00  0.00    -0.028 C 
ATOM      8  C   UNL     1     -28.720  12.214 -30.316  1.00  0.00    -0.070 CG0
ATOM      9  C   UNL     1     -29.768  11.766 -29.326  1.00  0.00     0.039 C 
ATOM     10  G   UNL     1     -27.759  11.173 -30.868  1.00  0.00     0.000 G0
ENDBRANCH   6   7
ENDBRANCH   5   6
ENDBRANCH   3   5
ENDBRANCH   1   3
BRANCH   1  11
ATOM     11  C   UNL     1     -25.178  12.463 -29.171  1.00  0.00     0.087 C 
BRANCH  11  12
ATOM     12  C   UNL     1     -25.340  10.987 -29.634  1.00  0.00     0.066 C 
BRANCH  12  13
ATOM     13  C   UNL     1     -26.820  10.628 -29.787  1.00  0.00     0.140 C 
ATOM     14  O   UNL     1     -27.297   9.876 -28.949  1.00  0.00    -0.299 OA
BRANCH  13  15
ATOM     15  C   UNL     1     -27.748  11.165 -30.870  1.00  0.00     0.106 CG0
ATOM     16  G   UNL     1     -28.725  12.189 -30.312  1.00  0.00     0.000 G0
ENDBRANCH  13  15
ENDBRANCH  12  13
BRANCH  12  17
ATOM     17  C   UNL     1     -24.461   9.948 -28.861  1.00  0.00    -0.006 C 
ATOM     18  C   UNL     1     -24.561  10.136 -27.335  1.00  0.00     0.008 C 
ATOM     19  C   UNL     1     -22.977  10.063 -29.258  1.00  0.00     0.008 C 
ENDBRANCH  12  17
ENDBRANCH  11  12
ENDBRANCH   1  11
TORSDOF 1
ENDMDL
MODEL 8
REMARK VINA RESULT:    -2.969      9.125     11.558
REMARK INTER + INTRA:          -4.749
REMARK INTER:                  -5.040
REMARK INTRA:                   0.291
REMARK UNBOUND:                -0.218
REMARK SMILES CC1=CCC[C@@H](C)C(=O)C[C@@H](C(C)C)C(=O)C1
REMARK SMILES IDX 8 1 9 2 6 3 7 4 5 5 4 6 3 7 2 8 1 9 10 11 11 12 15 13 16 14
REMARK SMILES IDX 17 15 12 17 13 18 14 19
REMARK H PARENT
REMARK Flexibility Score: 70.00
ROOT
ATOM      1  C   UNL     1     -26.323  13.518 -31.345  1.00  0.00     0.136 C 
ATOM      2  O   UNL     1     -25.871  13.486 -32.480  1.00  0.00    -0.299 OA
ENDROOT
BRANCH   1   3
ATOM      3  C   UNL     1     -25.595  14.294 -30.273  1.00  0.00     0.053 C 
ATOM      4  C   UNL     1     -25.888  15.794 -30.394  1.00  0.00     0.016 C 
BRANCH   3   5
ATOM      5  C   UNL     1     -24.075  14.006 -30.371  1.00  0.00     0.015 C 
BRANCH   5   6
ATOM      6  C   UNL     1     -23.649  12.536 -30.184  1.00  0.00     0.028 C 
BRANCH   6   7
ATOM      7  C   UNL     1     -24.184  11.803 -28.973  1.00  0.00    -0.028 C 
ATOM      8  C   UNL     1     -24.823  10.607 -28.957  1.00  0.00    -0.070 CG0
ATOM      9  C   UNL     1     -25.127  10.000 -27.609  1.00  0.00     0.039 C 
ATOM     10  G   UNL     1     -25.283   9.864 -30.202  1.00  0.00     0.000 G0
ENDBRANCH   6   7
ENDBRANCH   5   6
ENDBRANCH   3   5
ENDBRANCH   1   3
BRANCH   1  11
ATOM     11  C   UNL     1     -27.597  12.768 -31.034  1.00  0.00     0.087 C 
BRANCH  11  12
ATOM     12  C   UNL     1     -27.423  11.544 -30.090  1.00  0.00     0.066 C 
BRANCH  12  13
ATOM     13  C   UNL     1     -26.586  10.455 -30.767  1.00  0.00     0.140 C 
ATOM     14  O   UNL     1     -26.979  10.048 -31.851  1.00  0.00    -0.299 OA
BRANCH  13  15
ATOM     15  C   UNL     1     -25.288   9.875 -30.218  1.00  0.00     0.106 CG0
ATOM     16  G   UNL     1     -24.823  10.621 -28.977  1.00  0.00     0.000 G0
ENDBRANCH  13  15
ENDBRANCH  12  13
BRANCH  12  17
ATOM     17  C   UNL     1     -28.732  11.059 -29.381  1.00  0.00    -0.006 C 
ATOM     18  C   UNL     1     -29.761  10.515 -30.390  1.00  0.00     0.008 C 
ATOM     19  C   UNL     1     -29.398  12.201 -28.591  1.00  0.00     0.008 C 
ENDBRANCH  12  17
ENDBRANCH  11  12
ENDBRANCH   1  11
TORSDOF 1
ENDMDL
MODEL 9
REMARK VINA RESULT:    -2.380      9.776     12.434
REMARK INTER + INTRA:          -3.850
REMARK INTER:                  -4.256
REMARK INTRA:                   0.406
REMARK UNBOUND:                -0.218
REMARK SMILES CC1=CCC[C@@H](C)C(=O)C[C@@H](C(C)C)C(=O)C1
REMARK SMILES IDX 8 1 9 2 6 3 7 4 5 5 4 6 3 7 2 8 1 9 10 11 11 12 15 13 16 14
REMARK SMILES IDX 17 15 12 17 13 18 14 19
REMARK H PARENT
REMARK Flexibility Score: 70.00
ROOT
ATOM      1  C   UNL     1     -25.990  11.047 -29.354  1.00  0.00     0.136 C 
ATOM      2  O   UNL     1     -25.804  10.087 -30.088  1.00  0.00    -0.299 OA
ENDROOT
BRANCH   1   3
ATOM      3  C   UNL     1     -26.927  10.917 -28.178  1.00  0.00     0.053 C 
ATOM      4  C   UNL     1     -28.015   9.875 -28.462  1.00  0.00     0.016 C 
BRANCH   3   5
ATOM      5  C   UNL     1     -27.544  12.302 -27.853  1.00  0.00     0.015 C 
BRANCH   5   6
ATOM      6  C   UNL     1     -29.030  12.486 -28.220  1.00  0.00     0.028 C 
BRANCH   6   7
ATOM      7  C   UNL     1     -29.368  13.538 -29.255  1.00  0.00    -0.028 C 
ATOM      8  C   UNL     1     -29.205  13.445 -30.598  1.00  0.00    -0.070 CG0
ATOM      9  C   UNL     1     -29.761  14.566 -31.443  1.00  0.00     0.039 C 
ATOM     10  G   UNL     1     -28.471  12.312 -31.298  1.00  0.00     0.000 G0
ENDBRANCH   6   7
ENDBRANCH   5   6
ENDBRANCH   3   5
ENDBRANCH   1   3
BRANCH   1  11
ATOM     11  C   UNL     1     -25.287  12.352 -29.649  1.00  0.00     0.087 C 
BRANCH  11  12
ATOM     12  C   UNL     1     -26.102  13.355 -30.513  1.00  0.00     0.066 C 
BRANCH  12  13
ATOM     13  C   UNL     1     -26.992  12.610 -31.511  1.00  0.00     0.140 C 
ATOM     14  O   UNL     1     -26.455  12.193 -32.527  1.00  0.00    -0.299 OA
BRANCH  13  15
ATOM     15  C   UNL     1     -28.474  12.312 -31.316  1.00  0.00     0.106 CG0
ATOM     16  G   UNL     1     -29.179  13.441 -30.580  1.00  0.00     0.000 G0
ENDBRANCH  13  15
ENDBRANCH  12  13
BRANCH  12  17
ATOM     17  C   UNL     1     -25.280  14.555 -31.093  1.00  0.00    -0.006 C 
ATOM     18  C   UNL     1     -23.762  14.332 -30.947  1.00  0.00     0.008 C 
ATOM     19  C   UNL     1     -25.637  15.874 -30.384  1.00  0.00     0.008 C 
ENDBRANCH  12  17
ENDBRANCH  11  12
ENDBRANCH   1  11
TORSDOF 1
ENDMDL
