MODEL 1
REMARK VINA RESULT:    -2.454      0.000      0.000
REMARK INTER + INTRA:          -5.502
REMARK INTER:                  -3.960
REMARK INTRA:                  -1.542
REMARK UNBOUND:                -1.542
REMARK SMILES CCCCCCCCCCCCO
REMARK SMILES IDX 7 1 6 2 5 3 4 4 3 5 2 6 1 7 8 8 9 9 10 10 11 11 12 12 13 13
REMARK H PARENT 13 14
REMARK Flexibility Score: inf
ROOT
ATOM      1  C   UNL     1     237.740 225.956 235.632  1.00  0.00     0.000 C 
ENDROOT
BRANCH   1   2
ATOM      2  C   UNL     1     238.654 226.022 234.395  1.00  0.00    -0.000 C 
BRANCH   2   3
ATOM      3  C   UNL     1     240.015 226.674 234.690  1.00  0.00    -0.000 C 
BRANCH   3   4
ATOM      4  C   UNL     1     239.978 227.612 235.910  1.00  0.00    -0.000 C 
BRANCH   4   5
ATOM      5  C   UNL     1     239.753 229.104 235.590  1.00  0.00    -0.000 C 
BRANCH   5   6
ATOM      6  C   UNL     1     238.795 229.837 236.545  1.00  0.00    -0.003 C 
ATOM      7  C   UNL     1     238.373 228.980 237.738  1.00  0.00     0.004 C 
ENDBRANCH   5   6
ENDBRANCH   4   5
ENDBRANCH   3   4
ENDBRANCH   2   3
ENDBRANCH   1   2
BRANCH   1   8
ATOM      8  C   UNL     1     236.404 226.710 235.504  1.00  0.00     0.000 C 
BRANCH   8   9
ATOM      9  C   UNL     1     236.230 227.401 234.142  1.00  0.00     0.000 C 
BRANCH   9  10
ATOM     10  C   UNL     1     236.006 228.909 234.316  1.00  0.00     0.002 C 
BRANCH  10  11
ATOM     11  C   UNL     1     236.832 229.748 233.328  1.00  0.00     0.028 C 
BRANCH  11  12
ATOM     12  C   UNL     1     235.960 230.604 232.401  1.00  0.00     0.156 C 
BRANCH  12  13
ATOM     13  O   UNL     1     236.591 231.827 232.135  1.00  0.00    -0.396 OA
ATOM     14  H   UNL     1     236.948 231.767 231.211  1.00  0.00     0.210 HD
ENDBRANCH  12  13
ENDBRANCH  11  12
ENDBRANCH  10  11
ENDBRANCH   9  10
ENDBRANCH   8   9
ENDBRANCH   1   8
TORSDOF 11
ENDMDL
MODEL 2
REMARK VINA RESULT:    -2.442      8.635     10.480
REMARK INTER + INTRA:          -5.482
REMARK INTER:                  -4.077
REMARK INTRA:                  -1.406
REMARK UNBOUND:                -1.542
REMARK SMILES CCCCCCCCCCCCO
REMARK SMILES IDX 7 1 6 2 5 3 4 4 3 5 2 6 1 7 8 8 9 9 10 10 11 11 12 12 13 13
REMARK H PARENT 13 14
REMARK Flexibility Score: inf
ROOT
ATOM      1  C   UNL     1     227.094 232.426 235.110  1.00  0.00     0.000 C 
ENDROOT
BRANCH   1   2
ATOM      2  C   UNL     1     226.346 231.408 235.989  1.00  0.00    -0.000 C 
BRANCH   2   3
ATOM      3  C   UNL     1     225.715 230.264 235.178  1.00  0.00    -0.000 C 
BRANCH   3   4
ATOM      4  C   UNL     1     226.753 229.452 234.381  1.00  0.00    -0.000 C 
BRANCH   4   5
ATOM      5  C   UNL     1     227.656 228.528 235.223  1.00  0.00    -0.000 C 
BRANCH   5   6
ATOM      6  C   UNL     1     229.118 228.989 235.354  1.00  0.00    -0.003 C 
ATOM      7  C   UNL     1     229.502 229.347 236.789  1.00  0.00     0.004 C 
ENDBRANCH   5   6
ENDBRANCH   4   5
ENDBRANCH   3   4
ENDBRANCH   2   3
ENDBRANCH   1   2
BRANCH   1   8
ATOM      8  C   UNL     1     228.466 232.875 235.644  1.00  0.00     0.000 C 
BRANCH   8   9
ATOM      9  C   UNL     1     229.620 232.565 234.678  1.00  0.00     0.000 C 
BRANCH   9  10
ATOM     10  C   UNL     1     229.085 232.112 233.312  1.00  0.00     0.002 C 
BRANCH  10  11
ATOM     11  C   UNL     1     229.443 233.091 232.183  1.00  0.00     0.028 C 
BRANCH  11  12
ATOM     12  C   UNL     1     230.948 233.378 232.099  1.00  0.00     0.156 C 
BRANCH  12  13
ATOM     13  O   UNL     1     231.169 234.744 231.876  1.00  0.00    -0.396 OA
ATOM     14  H   UNL     1     232.150 234.862 231.786  1.00  0.00     0.210 HD
ENDBRANCH  12  13
ENDBRANCH  11  12
ENDBRANCH  10  11
ENDBRANCH   9  10
ENDBRANCH   8   9
ENDBRANCH   1   8
TORSDOF 11
ENDMDL
MODEL 3
REMARK VINA RESULT:    -2.415     13.157     15.094
REMARK INTER + INTRA:          -5.439
REMARK INTER:                  -3.880
REMARK INTRA:                  -1.559
REMARK UNBOUND:                -1.542
REMARK SMILES CCCCCCCCCCCCO
REMARK SMILES IDX 7 1 6 2 5 3 4 4 3 5 2 6 1 7 8 8 9 9 10 10 11 11 12 12 13 13
REMARK H PARENT 13 14
REMARK Flexibility Score: inf
ROOT
ATOM      1  C   UNL     1     229.306 239.252 236.062  1.00  0.00     0.000 C 
ENDROOT
BRANCH   1   2
ATOM      2  C   UNL     1     230.595 238.653 235.469  1.00  0.00    -0.000 C 
BRANCH   2   3
ATOM      3  C   UNL     1     231.053 239.367 234.186  1.00  0.00    -0.000 C 
BRANCH   3   4
ATOM      4  C   UNL     1     232.410 240.076 234.348  1.00  0.00    -0.000 C 
BRANCH   4   5
ATOM      5  C   UNL     1     232.342 241.523 234.877  1.00  0.00    -0.000 C 
BRANCH   5   6
ATOM      6  C   UNL     1     232.443 241.663 236.405  1.00  0.00    -0.003 C 
ATOM      7  C   UNL     1     232.187 243.089 236.891  1.00  0.00     0.004 C 
ENDBRANCH   5   6
ENDBRANCH   4   5
ENDBRANCH   3   4
ENDBRANCH   2   3
ENDBRANCH   1   2
BRANCH   1   8
ATOM      8  C   UNL     1     228.697 240.420 235.266  1.00  0.00     0.000 C 
BRANCH   8   9
ATOM      9  C   UNL     1     228.752 241.757 236.022  1.00  0.00     0.000 C 
BRANCH   9  10
ATOM     10  C   UNL     1     228.719 242.942 235.045  1.00  0.00     0.002 C 
BRANCH  10  11
ATOM     11  C   UNL     1     229.105 242.538 233.613  1.00  0.00     0.028 C 
BRANCH  11  12
ATOM     12  C   UNL     1     228.058 242.961 232.575  1.00  0.00     0.156 C 
BRANCH  12  13
ATOM     13  O   UNL     1     226.905 242.175 232.703  1.00  0.00    -0.396 OA
ATOM     14  H   UNL     1     227.164 241.373 233.229  1.00  0.00     0.210 HD
ENDBRANCH  12  13
ENDBRANCH  11  12
ENDBRANCH  10  11
ENDBRANCH   9  10
ENDBRANCH   8   9
ENDBRANCH   1   8
TORSDOF 11
ENDMDL
MODEL 4
REMARK VINA RESULT:    -2.379      9.845     11.954
REMARK INTER + INTRA:          -5.381
REMARK INTER:                  -4.062
REMARK INTRA:                  -1.319
REMARK UNBOUND:                -1.542
REMARK SMILES CCCCCCCCCCCCO
REMARK SMILES IDX 7 1 6 2 5 3 4 4 3 5 2 6 1 7 8 8 9 9 10 10 11 11 12 12 13 13
REMARK H PARENT 13 14
REMARK Flexibility Score: inf
ROOT
ATOM      1  C   UNL     1     229.093 230.585 235.056  1.00  0.00     0.000 C 
ENDROOT
BRANCH   1   2
ATOM      2  C   UNL     1     228.748 229.085 235.103  1.00  0.00    -0.000 C 
BRANCH   2   3
ATOM      3  C   UNL     1     227.617 228.760 236.092  1.00  0.00    -0.000 C 
BRANCH   3   4
ATOM      4  C   UNL     1     226.428 228.042 235.428  1.00  0.00    -0.000 C 
BRANCH   4   5
ATOM      5  C   UNL     1     225.491 228.943 234.598  1.00  0.00    -0.000 C 
BRANCH   5   6
ATOM      6  C   UNL     1     225.646 228.813 233.073  1.00  0.00    -0.003 C 
ATOM      7  C   UNL     1     225.695 227.360 232.601  1.00  0.00     0.004 C 
ENDBRANCH   5   6
ENDBRANCH   4   5
ENDBRANCH   3   4
ENDBRANCH   2   3
ENDBRANCH   1   2
BRANCH   1   8
ATOM      8  C   UNL     1     228.318 231.406 234.010  1.00  0.00     0.000 C 
BRANCH   8   9
ATOM      9  C   UNL     1     227.120 232.162 234.605  1.00  0.00     0.000 C 
BRANCH   9  10
ATOM     10  C   UNL     1     227.388 232.553 236.065  1.00  0.00     0.002 C 
BRANCH  10  11
ATOM     11  C   UNL     1     226.331 231.996 237.030  1.00  0.00     0.028 C 
BRANCH  11  12
ATOM     12  C   UNL     1     225.561 233.098 237.770  1.00  0.00     0.156 C 
BRANCH  12  13
ATOM     13  O   UNL     1     224.585 233.653 236.930  1.00  0.00    -0.396 OA
ATOM     14  H   UNL     1     224.642 233.164 236.067  1.00  0.00     0.210 HD
ENDBRANCH  12  13
ENDBRANCH  11  12
ENDBRANCH  10  11
ENDBRANCH   9  10
ENDBRANCH   8   9
ENDBRANCH   1   8
TORSDOF 11
ENDMDL
MODEL 5
REMARK VINA RESULT:    -2.379      8.307     10.072
REMARK INTER + INTRA:          -5.381
REMARK INTER:                  -3.962
REMARK INTRA:                  -1.419
REMARK UNBOUND:                -1.542
REMARK SMILES CCCCCCCCCCCCO
REMARK SMILES IDX 7 1 6 2 5 3 4 4 3 5 2 6 1 7 8 8 9 9 10 10 11 11 12 12 13 13
REMARK H PARENT 13 14
REMARK Flexibility Score: inf
ROOT
ATOM      1  C   UNL     1     226.346 230.171 234.195  1.00  0.00     0.000 C 
ENDROOT
BRANCH   1   2
ATOM      2  C   UNL     1     226.891 228.783 234.577  1.00  0.00    -0.000 C 
BRANCH   2   3
ATOM      3  C   UNL     1     226.720 228.461 236.070  1.00  0.00    -0.000 C 
BRANCH   3   4
ATOM      4  C   UNL     1     228.061 228.386 236.824  1.00  0.00    -0.000 C 
BRANCH   4   5
ATOM      5  C   UNL     1     229.308 228.746 235.992  1.00  0.00    -0.000 C 
BRANCH   5   6
ATOM      6  C   UNL     1     230.068 229.996 236.466  1.00  0.00    -0.003 C 
ATOM      7  C   UNL     1     229.361 230.725 237.608  1.00  0.00     0.004 C 
ENDBRANCH   5   6
ENDBRANCH   4   5
ENDBRANCH   3   4
ENDBRANCH   2   3
ENDBRANCH   1   2
BRANCH   1   8
ATOM      8  C   UNL     1     226.416 231.234 235.306  1.00  0.00     0.000 C 
BRANCH   8   9
ATOM      9  C   UNL     1     227.390 232.378 234.984  1.00  0.00     0.000 C 
BRANCH   9  10
ATOM     10  C   UNL     1     227.993 232.208 233.582  1.00  0.00     0.002 C 
BRANCH  10  11
ATOM     11  C   UNL     1     229.523 232.349 233.575  1.00  0.00     0.028 C 
BRANCH  11  12
ATOM     12  C   UNL     1     230.071 232.815 232.220  1.00  0.00     0.156 C 
BRANCH  12  13
ATOM     13  O   UNL     1     231.255 232.129 231.916  1.00  0.00    -0.396 OA
ATOM     14  H   UNL     1     231.522 231.644 232.741  1.00  0.00     0.210 HD
ENDBRANCH  12  13
ENDBRANCH  11  12
ENDBRANCH  10  11
ENDBRANCH   9  10
ENDBRANCH   8   9
ENDBRANCH   1   8
TORSDOF 11
ENDMDL
MODEL 6
REMARK VINA RESULT:    -2.372     11.134     14.235
REMARK INTER + INTRA:          -5.370
REMARK INTER:                  -4.255
REMARK INTRA:                  -1.115
REMARK UNBOUND:                -1.542
REMARK SMILES CCCCCCCCCCCCO
REMARK SMILES IDX 7 1 6 2 5 3 4 4 3 5 2 6 1 7 8 8 9 9 10 10 11 11 12 12 13 13
REMARK H PARENT 13 14
REMARK Flexibility Score: inf
ROOT
ATOM      1  C   UNL     1     231.049 241.913 234.631  1.00  0.00     0.000 C 
ENDROOT
BRANCH   1   2
ATOM      2  C   UNL     1     229.781 242.115 233.780  1.00  0.00    -0.000 C 
BRANCH   2   3
ATOM      3  C   UNL     1     228.485 241.856 234.566  1.00  0.00    -0.000 C 
BRANCH   3   4
ATOM      4  C   UNL     1     228.700 241.849 236.091  1.00  0.00    -0.000 C 
BRANCH   4   5
ATOM      5  C   UNL     1     228.365 240.521 236.800  1.00  0.00    -0.000 C 
BRANCH   5   6
ATOM      6  C   UNL     1     228.677 239.253 235.987  1.00  0.00    -0.003 C 
ATOM      7  C   UNL     1     229.570 238.268 236.741  1.00  0.00     0.004 C 
ENDBRANCH   5   6
ENDBRANCH   4   5
ENDBRANCH   3   4
ENDBRANCH   2   3
ENDBRANCH   1   2
BRANCH   1   8
ATOM      8  C   UNL     1     232.169 241.098 233.959  1.00  0.00     0.000 C 
BRANCH   8   9
ATOM      9  C   UNL     1     232.239 239.647 234.458  1.00  0.00     0.000 C 
BRANCH   9  10
ATOM     10  C   UNL     1     231.422 238.714 233.552  1.00  0.00     0.002 C 
BRANCH  10  11
ATOM     11  C   UNL     1     232.303 237.909 232.584  1.00  0.00     0.028 C 
BRANCH  11  12
ATOM     12  C   UNL     1     232.374 236.420 232.944  1.00  0.00     0.156 C 
BRANCH  12  13
ATOM     13  O   UNL     1     231.636 235.664 232.023  1.00  0.00    -0.396 OA
ATOM     14  H   UNL     1     231.846 236.029 231.123  1.00  0.00     0.210 HD
ENDBRANCH  12  13
ENDBRANCH  11  12
ENDBRANCH  10  11
ENDBRANCH   9  10
ENDBRANCH   8   9
ENDBRANCH   1   8
TORSDOF 11
ENDMDL
MODEL 7
REMARK VINA RESULT:    -2.358      1.874      4.460
REMARK INTER + INTRA:          -5.348
REMARK INTER:                  -4.225
REMARK INTRA:                  -1.122
REMARK UNBOUND:                -1.542
REMARK SMILES CCCCCCCCCCCCO
REMARK SMILES IDX 7 1 6 2 5 3 4 4 3 5 2 6 1 7 8 8 9 9 10 10 11 11 12 12 13 13
REMARK H PARENT 13 14
REMARK Flexibility Score: inf
ROOT
ATOM      1  C   UNL     1     236.153 226.840 235.798  1.00  0.00     0.000 C 
ENDROOT
BRANCH   1   2
ATOM      2  C   UNL     1     236.135 228.177 236.562  1.00  0.00    -0.000 C 
BRANCH   2   3
ATOM      3  C   UNL     1     235.204 229.220 235.922  1.00  0.00    -0.000 C 
BRANCH   3   4
ATOM      4  C   UNL     1     235.940 230.511 235.516  1.00  0.00    -0.000 C 
BRANCH   4   5
ATOM      5  C   UNL     1     235.608 231.046 234.109  1.00  0.00    -0.000 C 
BRANCH   5   6
ATOM      6  C   UNL     1     236.303 230.310 232.951  1.00  0.00    -0.003 C 
ATOM      7  C   UNL     1     235.319 229.759 231.920  1.00  0.00     0.004 C 
ENDBRANCH   5   6
ENDBRANCH   4   5
ENDBRANCH   3   4
ENDBRANCH   2   3
ENDBRANCH   1   2
BRANCH   1   8
ATOM      8  C   UNL     1     236.245 226.959 234.266  1.00  0.00     0.000 C 
BRANCH   8   9
ATOM      9  C   UNL     1     237.691 226.960 233.748  1.00  0.00     0.000 C 
BRANCH   9  10
ATOM     10  C   UNL     1     238.599 226.114 234.652  1.00  0.00     0.002 C 
BRANCH  10  11
ATOM     11  C   UNL     1     239.927 226.816 234.978  1.00  0.00     0.028 C 
BRANCH  11  12
ATOM     12  C   UNL     1     239.732 228.146 235.716  1.00  0.00     0.156 C 
BRANCH  12  13
ATOM     13  O   UNL     1     240.068 229.218 234.878  1.00  0.00    -0.396 OA
ATOM     14  H   UNL     1     240.480 228.824 234.064  1.00  0.00     0.210 HD
ENDBRANCH  12  13
ENDBRANCH  11  12
ENDBRANCH  10  11
ENDBRANCH   9  10
ENDBRANCH   8   9
ENDBRANCH   1   8
TORSDOF 11
ENDMDL
MODEL 8
REMARK VINA RESULT:    -2.358     11.979     14.226
REMARK INTER + INTRA:          -5.348
REMARK INTER:                  -3.826
REMARK INTRA:                  -1.522
REMARK UNBOUND:                -1.542
REMARK SMILES CCCCCCCCCCCCO
REMARK SMILES IDX 7 1 6 2 5 3 4 4 3 5 2 6 1 7 8 8 9 9 10 10 11 11 12 12 13 13
REMARK H PARENT 13 14
REMARK Flexibility Score: inf
ROOT
ATOM      1  C   UNL     1     231.735 238.110 234.982  1.00  0.00     0.000 C 
ENDROOT
BRANCH   1   2
ATOM      2  C   UNL     1     231.371 238.908 233.717  1.00  0.00    -0.000 C 
BRANCH   2   3
ATOM      3  C   UNL     1     232.367 240.040 233.415  1.00  0.00    -0.000 C 
BRANCH   3   4
ATOM      4  C   UNL     1     231.798 241.437 233.724  1.00  0.00    -0.000 C 
BRANCH   4   5
ATOM      5  C   UNL     1     230.288 241.481 234.036  1.00  0.00    -0.000 C 
BRANCH   5   6
ATOM      6  C   UNL     1     229.934 241.796 235.499  1.00  0.00    -0.003 C 
ATOM      7  C   UNL     1     229.128 240.684 236.169  1.00  0.00     0.004 C 
ENDBRANCH   5   6
ENDBRANCH   4   5
ENDBRANCH   3   4
ENDBRANCH   2   3
ENDBRANCH   1   2
BRANCH   1   8
ATOM      8  C   UNL     1     232.954 238.635 235.764  1.00  0.00     0.000 C 
BRANCH   8   9
ATOM      9  C   UNL     1     232.567 239.434 237.017  1.00  0.00     0.000 C 
BRANCH   9  10
ATOM     10  C   UNL     1     233.330 240.765 237.077  1.00  0.00     0.002 C 
BRANCH  10  11
ATOM     11  C   UNL     1     232.642 241.802 237.979  1.00  0.00     0.028 C 
BRANCH  11  12
ATOM     12  C   UNL     1     233.473 243.078 238.160  1.00  0.00     0.156 C 
BRANCH  12  13
ATOM     13  O   UNL     1     233.467 243.831 236.978  1.00  0.00    -0.396 OA
ATOM     14  H   UNL     1     232.704 244.462 237.048  1.00  0.00     0.210 HD
ENDBRANCH  12  13
ENDBRANCH  11  12
ENDBRANCH  10  11
ENDBRANCH   9  10
ENDBRANCH   8   9
ENDBRANCH   1   8
TORSDOF 11
ENDMDL
MODEL 9
REMARK VINA RESULT:    -2.358      9.812     12.184
REMARK INTER + INTRA:          -5.347
REMARK INTER:                  -3.889
REMARK INTRA:                  -1.458
REMARK UNBOUND:                -1.542
REMARK SMILES CCCCCCCCCCCCO
REMARK SMILES IDX 7 1 6 2 5 3 4 4 3 5 2 6 1 7 8 8 9 9 10 10 11 11 12 12 13 13
REMARK H PARENT 13 14
REMARK Flexibility Score: inf
ROOT
ATOM      1  C   UNL     1     232.098 237.504 232.655  1.00  0.00     0.000 C 
ENDROOT
BRANCH   1   2
ATOM      2  C   UNL     1     232.913 236.223 232.909  1.00  0.00    -0.000 C 
BRANCH   2   3
ATOM      3  C   UNL     1     233.093 235.913 234.405  1.00  0.00    -0.000 C 
BRANCH   3   4
ATOM      4  C   UNL     1     232.006 236.559 235.285  1.00  0.00    -0.000 C 
BRANCH   4   5
ATOM      5  C   UNL     1     232.527 237.429 236.446  1.00  0.00    -0.000 C 
BRANCH   5   6
ATOM      6  C   UNL     1     233.765 238.281 236.117  1.00  0.00    -0.003 C 
ATOM      7  C   UNL     1     233.656 239.714 236.638  1.00  0.00     0.004 C 
ENDBRANCH   5   6
ENDBRANCH   4   5
ENDBRANCH   3   4
ENDBRANCH   2   3
ENDBRANCH   1   2
BRANCH   1   8
ATOM      8  C   UNL     1     232.927 238.754 232.311  1.00  0.00     0.000 C 
BRANCH   8   9
ATOM      9  C   UNL     1     232.515 239.992 233.122  1.00  0.00     0.000 C 
BRANCH   9  10
ATOM     10  C   UNL     1     231.161 239.771 233.811  1.00  0.00     0.002 C 
BRANCH  10  11
ATOM     11  C   UNL     1     230.704 240.993 234.623  1.00  0.00     0.028 C 
BRANCH  11  12
ATOM     12  C   UNL     1     230.067 242.083 233.751  1.00  0.00     0.156 C 
BRANCH  12  13
ATOM     13  O   UNL     1     228.691 241.851 233.616  1.00  0.00    -0.396 OA
ATOM     14  H   UNL     1     228.591 241.107 232.966  1.00  0.00     0.210 HD
ENDBRANCH  12  13
ENDBRANCH  11  12
ENDBRANCH  10  11
ENDBRANCH   9  10
ENDBRANCH   8   9
ENDBRANCH   1   8
TORSDOF 11
ENDMDL
