MODEL 1
REMARK VINA RESULT:    -4.214      0.000      0.000
REMARK INTER + INTRA:          -5.467
REMARK INTER:                  -5.199
REMARK INTRA:                  -0.268
REMARK UNBOUND:                -0.268
REMARK SMILES COc1cc(-c2oc3cc(O)cc(O)c3c(=O)c2O)ccc1O
REMARK SMILES IDX 6 1 18 2 16 3 17 4 15 5 13 6 12 7 10 8 9 9 8 10 7 11 5 12
REMARK SMILES IDX 3 13 22 14 4 15 21 16 20 17 2 18 1 19 23 20 19 22 14 24
REMARK SMILES IDX 11 26
REMARK H PARENT 23 21 19 23 14 25 11 27
REMARK Flexibility Score: inf
ROOT
ATOM      1  C   UNL     1      12.008   8.139  28.582  1.00  0.00     0.180 A 
ATOM      2  C   UNL     1      10.718   8.310  28.052  1.00  0.00     0.208 A 
ATOM      3  C   UNL     1       9.939   9.393  28.489  1.00  0.00     0.238 A 
ATOM      4  O   UNL     1       8.806   9.572  27.971  1.00  0.00    -0.285 OA
ATOM      5  C   UNL     1      10.455  10.282  29.463  1.00  0.00     0.111 A 
ATOM      6  C   UNL     1       9.739  11.390  30.009  1.00  0.00     0.134 A 
ATOM      7  C   UNL     1      10.394  12.279  30.870  1.00  0.00     0.093 A 
ATOM      8  C   UNL     1      11.720  12.064  31.255  1.00  0.00     0.123 A 
ATOM      9  C   UNL     1      12.408  10.953  30.774  1.00  0.00     0.094 A 
ATOM     10  C   UNL     1      11.793  10.068  29.886  1.00  0.00     0.146 A 
ATOM     11  O   UNL     1      12.488   9.027  29.444  1.00  0.00    -0.452 OA
ENDROOT
BRANCH   1  12
ATOM     12  C   UNL     1      12.879   7.007  28.186  1.00  0.00     0.025 A 
ATOM     13  C   UNL     1      14.044   4.920  28.709  1.00  0.00     0.161 A 
ATOM     14  C   UNL     1      14.581   4.906  27.409  1.00  0.00     0.157 A 
ATOM     15  C   UNL     1      13.198   5.980  29.092  1.00  0.00     0.062 A 
ATOM     16  C   UNL     1      14.280   5.939  26.516  1.00  0.00     0.051 A 
ATOM     17  C   UNL     1      13.442   6.986  26.903  1.00  0.00     0.016 A 
BRANCH  13  18
ATOM     18  O   UNL     1      14.373   3.875  29.588  1.00  0.00    -0.493 OA
ATOM     19  C   UNL     1      14.111   3.884  30.987  1.00  0.00     0.278 C 
ENDBRANCH  13  18
BRANCH  14  20
ATOM     20  O   UNL     1      15.420   3.875  26.985  1.00  0.00    -0.504 OA
ATOM     21  H   UNL     1      16.429   3.943  27.040  1.00  0.00     0.293 HD
ENDBRANCH  14  20
ENDBRANCH   1  12
BRANCH   2  22
ATOM     22  O   UNL     1      10.237   7.432  27.075  1.00  0.00    -0.502 OA
ATOM     23  H   UNL     1      10.468   7.531  26.094  1.00  0.00     0.293 HD
ENDBRANCH   2  22
BRANCH   6  24
ATOM     24  O   UNL     1       8.387  11.644  29.761  1.00  0.00    -0.507 OA
ATOM     25  H   UNL     1       7.905  12.492  30.020  1.00  0.00     0.293 HD
ENDBRANCH   6  24
BRANCH   8  26
ATOM     26  O   UNL     1      12.359  12.946  32.124  1.00  0.00    -0.508 OA
ATOM     27  H   UNL     1      12.844  13.768  31.784  1.00  0.00     0.293 HD
ENDBRANCH   8  26
TORSDOF 6
ENDMDL
MODEL 2
REMARK VINA RESULT:    -2.205      1.149      2.783
REMARK INTER + INTRA:          -2.989
REMARK INTER:                  -2.774
REMARK INTRA:                  -0.215
REMARK UNBOUND:                -0.268
REMARK SMILES COc1cc(-c2oc3cc(O)cc(O)c3c(=O)c2O)ccc1O
REMARK SMILES IDX 6 1 18 2 16 3 17 4 15 5 13 6 12 7 10 8 9 9 8 10 7 11 5 12
REMARK SMILES IDX 3 13 22 14 4 15 21 16 20 17 2 18 1 19 23 20 19 22 14 24
REMARK SMILES IDX 11 26
REMARK H PARENT 23 21 19 23 14 25 11 27
REMARK Flexibility Score: inf
ROOT
ATOM      1  C   UNL     1      12.482   8.371  29.156  1.00  0.00     0.180 A 
ATOM      2  C   UNL     1      13.167   9.216  30.045  1.00  0.00     0.208 A 
ATOM      3  C   UNL     1      12.505  10.339  30.565  1.00  0.00     0.238 A 
ATOM      4  O   UNL     1      13.106  11.062  31.402  1.00  0.00    -0.285 OA
ATOM      5  C   UNL     1      11.171  10.611  30.178  1.00  0.00     0.111 A 
ATOM      6  C   UNL     1      10.415  11.742  30.613  1.00  0.00     0.134 A 
ATOM      7  C   UNL     1       9.061  11.841  30.270  1.00  0.00     0.093 A 
ATOM      8  C   UNL     1       8.452  10.882  29.456  1.00  0.00     0.123 A 
ATOM      9  C   UNL     1       9.197   9.807  28.979  1.00  0.00     0.094 A 
ATOM     10  C   UNL     1      10.540   9.661  29.332  1.00  0.00     0.146 A 
ATOM     11  O   UNL     1      11.210   8.616  28.864  1.00  0.00    -0.452 OA
ENDROOT
BRANCH   1  12
ATOM     12  C   UNL     1      13.122   7.182  28.547  1.00  0.00     0.025 A 
ATOM     13  C   UNL     1      14.171   4.979  28.744  1.00  0.00     0.161 A 
ATOM     14  C   UNL     1      14.387   4.969  27.354  1.00  0.00     0.157 A 
ATOM     15  C   UNL     1      13.543   6.095  29.334  1.00  0.00     0.062 A 
ATOM     16  C   UNL     1      13.987   6.059  26.576  1.00  0.00     0.051 A 
ATOM     17  C   UNL     1      13.367   7.161  27.167  1.00  0.00     0.016 A 
BRANCH  13  18
ATOM     18  O   UNL     1      14.592   3.875  29.503  1.00  0.00    -0.493 OA
ATOM     19  C   UNL     1      14.759   3.883  30.916  1.00  0.00     0.278 C 
ENDBRANCH  13  18
BRANCH  14  20
ATOM     20  O   UNL     1      14.999   3.884  26.728  1.00  0.00    -0.504 OA
ATOM     21  H   UNL     1      14.597   2.955  26.741  1.00  0.00     0.293 HD
ENDBRANCH  14  20
ENDBRANCH   1  12
BRANCH   2  22
ATOM     22  O   UNL     1      14.478   8.917  30.430  1.00  0.00    -0.502 OA
ATOM     23  H   UNL     1      15.165   8.550  29.783  1.00  0.00     0.293 HD
ENDBRANCH   2  22
BRANCH   6  24
ATOM     24  O   UNL     1      10.951  12.801  31.352  1.00  0.00    -0.507 OA
ATOM     25  H   UNL     1      11.041  13.748  31.015  1.00  0.00     0.293 HD
ENDBRANCH   6  24
BRANCH   8  26
ATOM     26  O   UNL     1       7.108  10.997  29.107  1.00  0.00    -0.508 OA
ATOM     27  H   UNL     1       6.819  11.115  28.143  1.00  0.00     0.293 HD
ENDBRANCH   8  26
TORSDOF 6
ENDMDL
