MODEL 1
REMARK VINA RESULT:    -3.766      0.000      0.000
REMARK INTER + INTRA:          -6.454
REMARK INTER:                  -5.748
REMARK INTRA:                  -0.706
REMARK UNBOUND:                -0.706
REMARK SMILES CCCCCCCCCCC(=O)[O-]
REMARK SMILES IDX 7 1 8 2 9 3 10 4 11 5 12 6 13 7 6 8 5 9 4 10 3 11 2 12 1 13
REMARK H PARENT
REMARK Flexibility Score: inf
ROOT
ATOM      1  C   UNL     1     -21.496   4.049 -25.765  1.00  0.00     0.000 C 
ENDROOT
BRANCH   1   2
ATOM      2  C   UNL     1     -21.996   2.608 -25.949  1.00  0.00     0.000 C 
BRANCH   2   3
ATOM      3  C   UNL     1     -21.040   1.752 -26.794  1.00  0.00     0.006 C 
BRANCH   3   4
ATOM      4  C   UNL     1     -20.976   0.295 -26.318  1.00  0.00     0.053 C 
BRANCH   4   5
ATOM      5  C   UNL     1     -19.715   0.051 -25.551  1.00  0.00     0.041 C 
ATOM      6  O   UNL     1     -18.629  -0.143 -26.160  1.00  0.00    -0.550 OA
ATOM      7  O   UNL     1     -19.746  -0.010 -24.164  1.00  0.00    -0.550 OA
ENDBRANCH   4   5
ENDBRANCH   3   4
ENDBRANCH   2   3
ENDBRANCH   1   2
BRANCH   1   8
ATOM      8  C   UNL     1     -21.271   4.366 -24.282  1.00  0.00     0.000 C 
BRANCH   8   9
ATOM      9  C   UNL     1     -20.026   3.646 -23.748  1.00  0.00    -0.000 C 
BRANCH   9  10
ATOM     10  C   UNL     1     -20.330   2.931 -22.425  1.00  0.00    -0.000 C 
BRANCH  10  11
ATOM     11  C   UNL     1     -21.130   3.837 -21.481  1.00  0.00    -0.000 C 
BRANCH  11  12
ATOM     12  C   UNL     1     -20.355   4.099 -20.184  1.00  0.00    -0.003 C 
ATOM     13  C   UNL     1     -19.605   2.850 -19.730  1.00  0.00     0.004 C 
ENDBRANCH  11  12
ENDBRANCH  10  11
ENDBRANCH   9  10
ENDBRANCH   8   9
ENDBRANCH   1   8
TORSDOF 9
ENDMDL
MODEL 2
REMARK VINA RESULT:    -3.507     11.666     13.584
REMARK INTER + INTRA:          -6.058
REMARK INTER:                  -4.872
REMARK INTRA:                  -1.185
REMARK UNBOUND:                -0.706
REMARK SMILES CCCCCCCCCCC(=O)[O-]
REMARK SMILES IDX 7 1 8 2 9 3 10 4 11 5 12 6 13 7 6 8 5 9 4 10 3 11 2 12 1 13
REMARK H PARENT
REMARK Flexibility Score: inf
ROOT
ATOM      1  C   UNL     1      -9.794  -0.113 -24.915  1.00  0.00     0.000 C 
ENDROOT
BRANCH   1   2
ATOM      2  C   UNL     1      -8.570   0.709 -25.343  1.00  0.00     0.000 C 
BRANCH   2   3
ATOM      3  C   UNL     1      -7.257   0.168 -24.756  1.00  0.00     0.006 C 
BRANCH   3   4
ATOM      4  C   UNL     1      -7.418  -1.227 -24.138  1.00  0.00     0.053 C 
BRANCH   4   5
ATOM      5  C   UNL     1      -6.570  -1.355 -22.911  1.00  0.00     0.041 C 
ATOM      6  O   UNL     1      -6.382  -0.358 -22.164  1.00  0.00    -0.550 OA
ATOM      7  O   UNL     1      -5.948  -2.561 -22.618  1.00  0.00    -0.550 OA
ENDBRANCH   4   5
ENDBRANCH   3   4
ENDBRANCH   2   3
ENDBRANCH   1   2
BRANCH   1   8
ATOM      8  C   UNL     1     -10.876  -0.092 -26.000  1.00  0.00     0.000 C 
BRANCH   8   9
ATOM      9  C   UNL     1     -10.281  -0.412 -27.377  1.00  0.00    -0.000 C 
BRANCH   9  10
ATOM     10  C   UNL     1     -10.563  -1.868 -27.773  1.00  0.00    -0.000 C 
BRANCH  10  11
ATOM     11  C   UNL     1      -9.275  -2.699 -27.764  1.00  0.00    -0.000 C 
BRANCH  11  12
ATOM     12  C   UNL     1      -8.039  -1.799 -27.872  1.00  0.00    -0.003 C 
ATOM     13  C   UNL     1      -6.770  -2.558 -27.498  1.00  0.00     0.004 C 
ENDBRANCH  11  12
ENDBRANCH  10  11
ENDBRANCH   9  10
ENDBRANCH   8   9
ENDBRANCH   1   8
TORSDOF 9
ENDMDL
MODEL 3
REMARK VINA RESULT:    -3.490     12.295     13.673
REMARK INTER + INTRA:          -6.033
REMARK INTER:                  -4.609
REMARK INTRA:                  -1.424
REMARK UNBOUND:                -0.706
REMARK SMILES CCCCCCCCCCC(=O)[O-]
REMARK SMILES IDX 7 1 8 2 9 3 10 4 11 5 12 6 13 7 6 8 5 9 4 10 3 11 2 12 1 13
REMARK H PARENT
REMARK Flexibility Score: inf
ROOT
ATOM      1  C   UNL     1      -9.779  -0.212 -24.729  1.00  0.00     0.000 C 
ENDROOT
BRANCH   1   2
ATOM      2  C   UNL     1      -8.676  -0.928 -23.935  1.00  0.00     0.000 C 
BRANCH   2   3
ATOM      3  C   UNL     1      -7.700  -1.698 -24.839  1.00  0.00     0.006 C 
BRANCH   3   4
ATOM      4  C   UNL     1      -6.240  -1.277 -24.625  1.00  0.00     0.053 C 
BRANCH   4   5
ATOM      5  C   UNL     1      -5.856  -1.437 -23.188  1.00  0.00     0.041 C 
ATOM      6  O   UNL     1      -5.577  -0.426 -22.489  1.00  0.00    -0.550 OA
ATOM      7  O   UNL     1      -5.760  -2.706 -22.631  1.00  0.00    -0.550 OA
ENDBRANCH   4   5
ENDBRANCH   3   4
ENDBRANCH   2   3
ENDBRANCH   1   2
BRANCH   1   8
ATOM      8  C   UNL     1      -9.537  -0.336 -26.237  1.00  0.00     0.000 C 
BRANCH   8   9
ATOM      9  C   UNL     1      -9.433   1.046 -26.893  1.00  0.00    -0.000 C 
BRANCH   9  10
ATOM     10  C   UNL     1      -8.088   1.215 -27.612  1.00  0.00    -0.000 C 
BRANCH  10  11
ATOM     11  C   UNL     1      -7.001   1.691 -26.640  1.00  0.00    -0.000 C 
BRANCH  11  12
ATOM     12  C   UNL     1      -7.561   2.722 -25.653  1.00  0.00    -0.003 C 
ATOM     13  C   UNL     1      -7.123   2.410 -24.225  1.00  0.00     0.004 C 
ENDBRANCH  11  12
ENDBRANCH  10  11
ENDBRANCH   9  10
ENDBRANCH   8   9
ENDBRANCH   1   8
TORSDOF 9
ENDMDL
MODEL 4
REMARK VINA RESULT:    -3.451     12.181     13.731
REMARK INTER + INTRA:          -5.973
REMARK INTER:                  -4.808
REMARK INTRA:                  -1.165
REMARK UNBOUND:                -0.706
REMARK SMILES CCCCCCCCCCC(=O)[O-]
REMARK SMILES IDX 7 1 8 2 9 3 10 4 11 5 12 6 13 7 6 8 5 9 4 10 3 11 2 12 1 13
REMARK H PARENT
REMARK Flexibility Score: inf
ROOT
ATOM      1  C   UNL     1      -7.032  -0.724 -22.647  1.00  0.00     0.000 C 
ENDROOT
BRANCH   1   2
ATOM      2  C   UNL     1      -6.558  -2.017 -23.327  1.00  0.00     0.000 C 
BRANCH   2   3
ATOM      3  C   UNL     1      -7.694  -2.758 -24.048  1.00  0.00     0.006 C 
BRANCH   3   4
ATOM      4  C   UNL     1      -7.195  -3.592 -25.236  1.00  0.00     0.053 C 
BRANCH   4   5
ATOM      5  C   UNL     1      -8.344  -4.260 -25.924  1.00  0.00     0.041 C 
ATOM      6  O   UNL     1      -8.965  -3.664 -26.845  1.00  0.00    -0.550 OA
ATOM      7  O   UNL     1      -8.762  -5.519 -25.516  1.00  0.00    -0.550 OA
ENDBRANCH   4   5
ENDBRANCH   3   4
ENDBRANCH   2   3
ENDBRANCH   1   2
BRANCH   1   8
ATOM      8  C   UNL     1      -6.068   0.433 -22.937  1.00  0.00     0.000 C 
BRANCH   8   9
ATOM      9  C   UNL     1      -6.198   0.909 -24.388  1.00  0.00    -0.000 C 
BRANCH   9  10
ATOM     10  C   UNL     1      -7.640   1.332 -24.701  1.00  0.00    -0.000 C 
BRANCH  10  11
ATOM     11  C   UNL     1      -8.029   0.942 -26.132  1.00  0.00    -0.000 C 
BRANCH  11  12
ATOM     12  C   UNL     1      -9.145  -0.110 -26.131  1.00  0.00    -0.003 C 
ATOM     13  C   UNL     1      -9.999  -0.004 -24.871  1.00  0.00     0.004 C 
ENDBRANCH  11  12
ENDBRANCH  10  11
ENDBRANCH   9  10
ENDBRANCH   8   9
ENDBRANCH   1   8
TORSDOF 9
ENDMDL
MODEL 5
REMARK VINA RESULT:    -3.401     14.118     16.015
REMARK INTER + INTRA:          -5.896
REMARK INTER:                  -5.506
REMARK INTRA:                  -0.391
REMARK UNBOUND:                -0.706
REMARK SMILES CCCCCCCCCCC(=O)[O-]
REMARK SMILES IDX 7 1 8 2 9 3 10 4 11 5 12 6 13 7 6 8 5 9 4 10 3 11 2 12 1 13
REMARK H PARENT
REMARK Flexibility Score: inf
ROOT
ATOM      1  C   UNL     1      -6.667  -4.968 -25.516  1.00  0.00     0.000 C 
ENDROOT
BRANCH   1   2
ATOM      2  C   UNL     1      -7.974  -4.163 -25.506  1.00  0.00     0.000 C 
BRANCH   2   3
ATOM      3  C   UNL     1      -8.031  -3.140 -24.361  1.00  0.00     0.006 C 
BRANCH   3   4
ATOM      4  C   UNL     1      -6.911  -2.094 -24.447  1.00  0.00     0.053 C 
BRANCH   4   5
ATOM      5  C   UNL     1      -6.307  -1.865 -23.098  1.00  0.00     0.041 C 
ATOM      6  O   UNL     1      -5.659  -2.784 -22.529  1.00  0.00    -0.550 OA
ATOM      7  O   UNL     1      -6.499  -0.655 -22.446  1.00  0.00    -0.550 OA
ENDBRANCH   4   5
ENDBRANCH   3   4
ENDBRANCH   2   3
ENDBRANCH   1   2
BRANCH   1   8
ATOM      8  C   UNL     1      -6.891  -6.370 -26.096  1.00  0.00     0.000 C 
BRANCH   8   9
ATOM      9  C   UNL     1      -8.372  -6.763 -26.030  1.00  0.00    -0.000 C 
BRANCH   9  10
ATOM     10  C   UNL     1      -8.571  -8.228 -26.441  1.00  0.00    -0.000 C 
BRANCH  10  11
ATOM     11  C   UNL     1      -9.648  -8.899 -25.580  1.00  0.00    -0.000 C 
BRANCH  11  12
ATOM     12  C   UNL     1      -9.705 -10.407 -25.849  1.00  0.00    -0.003 C 
ATOM     13  C   UNL     1     -10.988 -10.786 -26.584  1.00  0.00     0.004 C 
ENDBRANCH  11  12
ENDBRANCH  10  11
ENDBRANCH   9  10
ENDBRANCH   8   9
ENDBRANCH   1   8
TORSDOF 9
ENDMDL
MODEL 6
REMARK VINA RESULT:    -3.387      1.843      2.766
REMARK INTER + INTRA:          -5.874
REMARK INTER:                  -4.863
REMARK INTRA:                  -1.011
REMARK UNBOUND:                -0.706
REMARK SMILES CCCCCCCCCCC(=O)[O-]
REMARK SMILES IDX 7 1 8 2 9 3 10 4 11 5 12 6 13 7 6 8 5 9 4 10 3 11 2 12 1 13
REMARK H PARENT
REMARK Flexibility Score: inf
ROOT
ATOM      1  C   UNL     1     -22.906   3.067 -27.128  1.00  0.00     0.000 C 
ENDROOT
BRANCH   1   2
ATOM      2  C   UNL     1     -21.792   2.150 -27.655  1.00  0.00     0.000 C 
BRANCH   2   3
ATOM      3  C   UNL     1     -21.275   1.173 -26.587  1.00  0.00     0.006 C 
BRANCH   3   4
ATOM      4  C   UNL     1     -20.451   0.026 -27.187  1.00  0.00     0.053 C 
BRANCH   4   5
ATOM      5  C   UNL     1     -19.435  -0.458 -26.200  1.00  0.00     0.041 C 
ATOM      6  O   UNL     1     -19.489  -0.082 -24.998  1.00  0.00    -0.550 OA
ATOM      7  O   UNL     1     -18.401  -1.285 -26.616  1.00  0.00    -0.550 OA
ENDBRANCH   4   5
ENDBRANCH   3   4
ENDBRANCH   2   3
ENDBRANCH   1   2
BRANCH   1   8
ATOM      8  C   UNL     1     -23.493   2.522 -25.821  1.00  0.00     0.000 C 
BRANCH   8   9
ATOM      9  C   UNL     1     -23.654   3.638 -24.782  1.00  0.00    -0.000 C 
BRANCH   9  10
ATOM     10  C   UNL     1     -22.303   4.290 -24.459  1.00  0.00    -0.000 C 
BRANCH  10  11
ATOM     11  C   UNL     1     -21.430   3.355 -23.613  1.00  0.00    -0.000 C 
BRANCH  11  12
ATOM     12  C   UNL     1     -19.997   3.889 -23.508  1.00  0.00    -0.003 C 
ATOM     13  C   UNL     1     -19.240   3.697 -24.819  1.00  0.00     0.004 C 
ENDBRANCH  11  12
ENDBRANCH  10  11
ENDBRANCH   9  10
ENDBRANCH   8   9
ENDBRANCH   1   8
TORSDOF 9
ENDMDL
MODEL 7
REMARK VINA RESULT:    -3.376     13.137     14.983
REMARK INTER + INTRA:          -5.858
REMARK INTER:                  -4.925
REMARK INTRA:                  -0.934
REMARK UNBOUND:                -0.706
REMARK SMILES CCCCCCCCCCC(=O)[O-]
REMARK SMILES IDX 7 1 8 2 9 3 10 4 11 5 12 6 13 7 6 8 5 9 4 10 3 11 2 12 1 13
REMARK H PARENT
REMARK Flexibility Score: inf
ROOT
ATOM      1  C   UNL     1      -6.236  -2.239 -23.237  1.00  0.00     0.000 C 
ENDROOT
BRANCH   1   2
ATOM      2  C   UNL     1      -5.458  -0.915 -23.224  1.00  0.00     0.000 C 
BRANCH   2   3
ATOM      3  C   UNL     1      -6.325   0.277 -22.791  1.00  0.00     0.006 C 
BRANCH   3   4
ATOM      4  C   UNL     1      -5.519   1.358 -22.057  1.00  0.00     0.053 C 
BRANCH   4   5
ATOM      5  C   UNL     1      -5.960   2.721 -22.489  1.00  0.00     0.041 C 
ATOM      6  O   UNL     1      -5.334   3.743 -22.102  1.00  0.00    -0.550 OA
ATOM      7  O   UNL     1      -7.093   2.866 -23.279  1.00  0.00    -0.550 OA
ENDBRANCH   4   5
ENDBRANCH   3   4
ENDBRANCH   2   3
ENDBRANCH   1   2
BRANCH   1   8
ATOM      8  C   UNL     1      -5.703  -3.178 -24.326  1.00  0.00     0.000 C 
BRANCH   8   9
ATOM      9  C   UNL     1      -6.844  -3.708 -25.203  1.00  0.00    -0.000 C 
BRANCH   9  10
ATOM     10  C   UNL     1      -8.133  -2.909 -24.971  1.00  0.00    -0.000 C 
BRANCH  10  11
ATOM     11  C   UNL     1      -8.499  -2.084 -26.211  1.00  0.00    -0.000 C 
BRANCH  11  12
ATOM     12  C   UNL     1      -8.460  -0.583 -25.903  1.00  0.00    -0.003 C 
ATOM     13  C   UNL     1      -9.423  -0.228 -24.774  1.00  0.00     0.004 C 
ENDBRANCH  11  12
ENDBRANCH  10  11
ENDBRANCH   9  10
ENDBRANCH   8   9
ENDBRANCH   1   8
TORSDOF 9
ENDMDL
MODEL 8
REMARK VINA RESULT:    -3.374     11.760     13.596
REMARK INTER + INTRA:          -5.856
REMARK INTER:                  -4.553
REMARK INTRA:                  -1.302
REMARK UNBOUND:                -0.706
REMARK SMILES CCCCCCCCCCC(=O)[O-]
REMARK SMILES IDX 7 1 8 2 9 3 10 4 11 5 12 6 13 7 6 8 5 9 4 10 3 11 2 12 1 13
REMARK H PARENT
REMARK Flexibility Score: inf
ROOT
ATOM      1  C   UNL     1      -8.074  -2.580 -25.866  1.00  0.00     0.000 C 
ENDROOT
BRANCH   1   2
ATOM      2  C   UNL     1      -7.005  -1.538 -26.231  1.00  0.00     0.000 C 
BRANCH   2   3
ATOM      3  C   UNL     1      -6.900  -0.409 -25.194  1.00  0.00     0.006 C 
BRANCH   3   4
ATOM      4  C   UNL     1      -7.589  -0.760 -23.868  1.00  0.00     0.053 C 
BRANCH   4   5
ATOM      5  C   UNL     1      -6.571  -0.977 -22.793  1.00  0.00     0.041 C 
ATOM      6  O   UNL     1      -6.216  -0.021 -22.053  1.00  0.00    -0.550 OA
ATOM      7  O   UNL     1      -5.978  -2.223 -22.639  1.00  0.00    -0.550 OA
ENDBRANCH   4   5
ENDBRANCH   3   4
ENDBRANCH   2   3
ENDBRANCH   1   2
BRANCH   1   8
ATOM      8  C   UNL     1      -8.958  -2.905 -27.076  1.00  0.00     0.000 C 
BRANCH   8   9
ATOM      9  C   UNL     1      -9.447  -1.623 -27.762  1.00  0.00    -0.000 C 
BRANCH   9  10
ATOM     10  C   UNL     1     -10.673  -1.047 -27.041  1.00  0.00    -0.000 C 
BRANCH  10  11
ATOM     11  C   UNL     1     -10.368   0.338 -26.458  1.00  0.00    -0.000 C 
BRANCH  11  12
ATOM     12  C   UNL     1      -9.522   1.169 -27.430  1.00  0.00    -0.003 C 
ATOM     13  C   UNL     1      -8.851   2.337 -26.715  1.00  0.00     0.004 C 
ENDBRANCH  11  12
ENDBRANCH  10  11
ENDBRANCH   9  10
ENDBRANCH   8   9
ENDBRANCH   1   8
TORSDOF 9
ENDMDL
MODEL 9
REMARK VINA RESULT:    -3.292     11.857     13.747
REMARK INTER + INTRA:          -5.730
REMARK INTER:                  -4.620
REMARK INTRA:                  -1.111
REMARK UNBOUND:                -0.706
REMARK SMILES CCCCCCCCCCC(=O)[O-]
REMARK SMILES IDX 7 1 8 2 9 3 10 4 11 5 12 6 13 7 6 8 5 9 4 10 3 11 2 12 1 13
REMARK H PARENT
REMARK Flexibility Score: inf
ROOT
ATOM      1  C   UNL     1      -8.648  -1.571 -24.676  1.00  0.00     0.000 C 
ENDROOT
BRANCH   1   2
ATOM      2  C   UNL     1      -7.315  -1.534 -25.440  1.00  0.00     0.000 C 
BRANCH   2   3
ATOM      3  C   UNL     1      -6.612  -0.172 -25.339  1.00  0.00     0.006 C 
BRANCH   3   4
ATOM      4  C   UNL     1      -5.312  -0.237 -24.527  1.00  0.00     0.053 C 
BRANCH   4   5
ATOM      5  C   UNL     1      -5.586  -0.731 -23.141  1.00  0.00     0.041 C 
ATOM      6  O   UNL     1      -6.078   0.044 -22.278  1.00  0.00    -0.550 OA
ATOM      7  O   UNL     1      -5.255  -2.032 -22.789  1.00  0.00    -0.550 OA
ENDBRANCH   4   5
ENDBRANCH   3   4
ENDBRANCH   2   3
ENDBRANCH   1   2
BRANCH   1   8
ATOM      8  C   UNL     1      -9.294  -0.182 -24.635  1.00  0.00     0.000 C 
BRANCH   8   9
ATOM      9  C   UNL     1     -10.485  -0.100 -25.598  1.00  0.00    -0.000 C 
BRANCH   9  10
ATOM     10  C   UNL     1     -10.115   0.681 -26.866  1.00  0.00    -0.000 C 
BRANCH  10  11
ATOM     11  C   UNL     1     -10.045  -0.249 -28.083  1.00  0.00    -0.000 C 
BRANCH  11  12
ATOM     12  C   UNL     1     -10.673  -1.611 -27.770  1.00  0.00    -0.003 C 
ATOM     13  C   UNL     1      -9.722  -2.750 -28.124  1.00  0.00     0.004 C 
ENDBRANCH  11  12
ENDBRANCH  10  11
ENDBRANCH   9  10
ENDBRANCH   8   9
ENDBRANCH   1   8
TORSDOF 9
ENDMDL
