MODEL 1
REMARK VINA RESULT:    -4.174      0.000      0.000
REMARK INTER + INTRA:         -15.746
REMARK INTER:                 -10.518
REMARK INTRA:                  -5.228
REMARK UNBOUND:                -5.228
REMARK SMILES CCCCCCCCCCCCCCCCCCCCCCCCCCCC(=O)[O-]
REMARK SMILES IDX 15 1 16 2 17 3 18 4 19 5 20 6 21 7 22 8 23 9 24 10 25 11
REMARK SMILES IDX 26 12 27 13 28 14 29 15 30 16 14 17 13 18 12 19 11 20 10 21
REMARK SMILES IDX 9 22 8 23 7 24 6 25 5 26 4 27 3 28 2 29 1 30
REMARK H PARENT
REMARK Flexibility Score: inf
ROOT
ATOM      1  C   UNL     1      -0.068 -20.290 -14.665  1.00  0.00     0.000 C 
ENDROOT
BRANCH   1   2
ATOM      2  C   UNL     1       0.921 -21.300 -15.283  1.00  0.00     0.000 C 
BRANCH   2   3
ATOM      3  C   UNL     1       0.341 -22.166 -16.418  1.00  0.00     0.000 C 
BRANCH   3   4
ATOM      4  C   UNL     1       0.191 -23.659 -16.074  1.00  0.00     0.000 C 
BRANCH   4   5
ATOM      5  C   UNL     1      -1.273 -24.091 -15.835  1.00  0.00     0.000 C 
BRANCH   5   6
ATOM      6  C   UNL     1      -1.470 -24.743 -14.456  1.00  0.00     0.000 C 
BRANCH   6   7
ATOM      7  C   UNL     1      -0.223 -25.522 -13.986  1.00  0.00     0.000 C 
BRANCH   7   8
ATOM      8  C   UNL     1       0.234 -25.169 -12.557  1.00  0.00     0.000 C 
BRANCH   8   9
ATOM      9  C   UNL     1      -0.152 -23.756 -12.088  1.00  0.00     0.000 C 
BRANCH   9  10
ATOM     10  C   UNL     1       1.013 -22.755 -12.194  1.00  0.00     0.000 C 
BRANCH  10  11
ATOM     11  C   UNL     1       0.865 -21.569 -11.227  1.00  0.00     0.000 C 
BRANCH  11  12
ATOM     12  C   UNL     1       1.869 -20.441 -11.517  1.00  0.00     0.006 C 
BRANCH  12  13
ATOM     13  C   UNL     1       2.969 -20.919 -12.471  1.00  0.00     0.053 C 
BRANCH  13  14
ATOM     14  C   UNL     1       4.287 -21.010 -11.766  1.00  0.00     0.041 C 
ATOM     15  O   UNL     1       5.320 -21.365 -12.395  1.00  0.00    -0.550 OA
ATOM     16  O   UNL     1       4.376 -20.705 -10.413  1.00  0.00    -0.550 OA
ENDBRANCH  13  14
ENDBRANCH  12  13
ENDBRANCH  11  12
ENDBRANCH  10  11
ENDBRANCH   9  10
ENDBRANCH   8   9
ENDBRANCH   7   8
ENDBRANCH   6   7
ENDBRANCH   5   6
ENDBRANCH   4   5
ENDBRANCH   3   4
ENDBRANCH   2   3
ENDBRANCH   1   2
BRANCH   1  17
ATOM     17  C   UNL     1      -1.557 -20.556 -14.969  1.00  0.00     0.000 C 
BRANCH  17  18
ATOM     18  C   UNL     1      -2.374 -21.116 -13.791  1.00  0.00     0.000 C 
BRANCH  18  19
ATOM     19  C   UNL     1      -3.725 -21.702 -14.226  1.00  0.00     0.000 C 
BRANCH  19  20
ATOM     20  C   UNL     1      -3.978 -21.437 -15.718  1.00  0.00     0.000 C 
BRANCH  20  21
ATOM     21  C   UNL     1      -5.360 -20.821 -15.987  1.00  0.00     0.000 C 
BRANCH  21  22
ATOM     22  C   UNL     1      -6.156 -20.566 -14.694  1.00  0.00    -0.000 C 
BRANCH  22  23
ATOM     23  C   UNL     1      -7.110 -19.369 -14.819  1.00  0.00    -0.000 C 
BRANCH  23  24
ATOM     24  C   UNL     1      -6.848 -18.536 -16.084  1.00  0.00    -0.000 C 
BRANCH  24  25
ATOM     25  C   UNL     1      -6.247 -17.154 -15.773  1.00  0.00    -0.000 C 
BRANCH  25  26
ATOM     26  C   UNL     1      -4.993 -16.827 -16.612  1.00  0.00    -0.000 C 
BRANCH  26  27
ATOM     27  C   UNL     1      -3.747 -17.577 -16.115  1.00  0.00    -0.000 C 
BRANCH  27  28
ATOM     28  C   UNL     1      -3.636 -17.510 -14.587  1.00  0.00    -0.000 C 
BRANCH  28  29
ATOM     29  C   UNL     1      -2.235 -17.063 -14.155  1.00  0.00    -0.003 C 
ATOM     30  C   UNL     1      -1.932 -17.508 -12.728  1.00  0.00     0.004 C 
ENDBRANCH  28  29
ENDBRANCH  27  28
ENDBRANCH  26  27
ENDBRANCH  25  26
ENDBRANCH  24  25
ENDBRANCH  23  24
ENDBRANCH  22  23
ENDBRANCH  21  22
ENDBRANCH  20  21
ENDBRANCH  19  20
ENDBRANCH  18  19
ENDBRANCH  17  18
ENDBRANCH   1  17
TORSDOF 26
ENDMDL
MODEL 2
REMARK VINA RESULT:    -4.088      2.349      4.342
REMARK INTER + INTRA:         -15.530
REMARK INTER:                 -11.885
REMARK INTRA:                  -3.645
REMARK UNBOUND:                -5.228
REMARK SMILES CCCCCCCCCCCCCCCCCCCCCCCCCCCC(=O)[O-]
REMARK SMILES IDX 15 1 16 2 17 3 18 4 19 5 20 6 21 7 22 8 23 9 24 10 25 11
REMARK SMILES IDX 26 12 27 13 28 14 29 15 30 16 14 17 13 18 12 19 11 20 10 21
REMARK SMILES IDX 9 22 8 23 7 24 6 25 5 26 4 27 3 28 2 29 1 30
REMARK H PARENT
REMARK Flexibility Score: inf
ROOT
ATOM      1  C   UNL     1      -1.282 -21.240 -13.563  1.00  0.00     0.000 C 
ENDROOT
BRANCH   1   2
ATOM      2  C   UNL     1       0.163 -20.705 -13.645  1.00  0.00     0.000 C 
BRANCH   2   3
ATOM      3  C   UNL     1       0.975 -21.210 -14.853  1.00  0.00     0.000 C 
BRANCH   3   4
ATOM      4  C   UNL     1       0.132 -21.565 -16.091  1.00  0.00     0.000 C 
BRANCH   4   5
ATOM      5  C   UNL     1       0.233 -23.052 -16.499  1.00  0.00     0.000 C 
BRANCH   5   6
ATOM      6  C   UNL     1      -1.091 -23.806 -16.283  1.00  0.00     0.000 C 
BRANCH   6   7
ATOM      7  C   UNL     1      -1.075 -24.676 -15.007  1.00  0.00     0.000 C 
BRANCH   7   8
ATOM      8  C   UNL     1       0.336 -24.931 -14.442  1.00  0.00     0.000 C 
BRANCH   8   9
ATOM      9  C   UNL     1       0.380 -25.244 -12.937  1.00  0.00     0.000 C 
BRANCH   9  10
ATOM     10  C   UNL     1       0.698 -24.005 -12.081  1.00  0.00     0.000 C 
BRANCH  10  11
ATOM     11  C   UNL     1       1.994 -24.161 -11.269  1.00  0.00     0.000 C 
BRANCH  11  12
ATOM     12  C   UNL     1       2.504 -22.825 -10.707  1.00  0.00     0.006 C 
BRANCH  12  13
ATOM     13  C   UNL     1       2.913 -21.876 -11.838  1.00  0.00     0.053 C 
BRANCH  13  14
ATOM     14  C   UNL     1       4.249 -21.257 -11.561  1.00  0.00     0.041 C 
ATOM     15  O   UNL     1       5.194 -21.393 -12.384  1.00  0.00    -0.550 OA
ATOM     16  O   UNL     1       4.453 -20.533 -10.393  1.00  0.00    -0.550 OA
ENDBRANCH  13  14
ENDBRANCH  12  13
ENDBRANCH  11  12
ENDBRANCH  10  11
ENDBRANCH   9  10
ENDBRANCH   8   9
ENDBRANCH   7   8
ENDBRANCH   6   7
ENDBRANCH   5   6
ENDBRANCH   4   5
ENDBRANCH   3   4
ENDBRANCH   2   3
ENDBRANCH   1   2
BRANCH   1  17
ATOM     17  C   UNL     1      -2.382 -20.160 -13.518  1.00  0.00     0.000 C 
BRANCH  17  18
ATOM     18  C   UNL     1      -3.790 -20.645 -13.907  1.00  0.00     0.000 C 
BRANCH  18  19
ATOM     19  C   UNL     1      -3.782 -21.609 -15.101  1.00  0.00     0.000 C 
BRANCH  19  20
ATOM     20  C   UNL     1      -4.543 -21.006 -16.292  1.00  0.00     0.000 C 
BRANCH  20  21
ATOM     21  C   UNL     1      -4.946 -19.541 -16.059  1.00  0.00     0.000 C 
BRANCH  21  22
ATOM     22  C   UNL     1      -6.452 -19.302 -16.264  1.00  0.00    -0.000 C 
BRANCH  22  23
ATOM     23  C   UNL     1      -7.256 -19.478 -14.966  1.00  0.00    -0.000 C 
BRANCH  23  24
ATOM     24  C   UNL     1      -8.208 -20.683 -15.021  1.00  0.00    -0.000 C 
BRANCH  24  25
ATOM     25  C   UNL     1      -7.560 -21.977 -14.497  1.00  0.00    -0.000 C 
BRANCH  25  26
ATOM     26  C   UNL     1      -7.687 -23.167 -15.472  1.00  0.00    -0.000 C 
BRANCH  26  27
ATOM     27  C   UNL     1      -9.105 -23.760 -15.486  1.00  0.00    -0.000 C 
BRANCH  27  28
ATOM     28  C   UNL     1      -9.352 -24.566 -16.767  1.00  0.00    -0.000 C 
BRANCH  28  29
ATOM     29  C   UNL     1      -8.095 -25.337 -17.184  1.00  0.00    -0.003 C 
ATOM     30  C   UNL     1      -8.455 -26.687 -17.795  1.00  0.00     0.004 C 
ENDBRANCH  28  29
ENDBRANCH  27  28
ENDBRANCH  26  27
ENDBRANCH  25  26
ENDBRANCH  24  25
ENDBRANCH  23  24
ENDBRANCH  22  23
ENDBRANCH  21  22
ENDBRANCH  20  21
ENDBRANCH  19  20
ENDBRANCH  18  19
ENDBRANCH  17  18
ENDBRANCH   1  17
TORSDOF 26
ENDMDL
MODEL 3
REMARK VINA RESULT:    -4.058     10.471     15.177
REMARK INTER + INTRA:         -15.453
REMARK INTER:                 -11.520
REMARK INTRA:                  -3.933
REMARK UNBOUND:                -5.228
REMARK SMILES CCCCCCCCCCCCCCCCCCCCCCCCCCCC(=O)[O-]
REMARK SMILES IDX 15 1 16 2 17 3 18 4 19 5 20 6 21 7 22 8 23 9 24 10 25 11
REMARK SMILES IDX 26 12 27 13 28 14 29 15 30 16 14 17 13 18 12 19 11 20 10 21
REMARK SMILES IDX 9 22 8 23 7 24 6 25 5 26 4 27 3 28 2 29 1 30
REMARK H PARENT
REMARK Flexibility Score: inf
ROOT
ATOM      1  C   UNL     1       2.694 -27.597   0.193  1.00  0.00     0.000 C 
ENDROOT
BRANCH   1   2
ATOM      2  C   UNL     1       4.233 -27.648   0.090  1.00  0.00     0.000 C 
BRANCH   2   3
ATOM      3  C   UNL     1       4.905 -26.307  -0.263  1.00  0.00     0.000 C 
BRANCH   3   4
ATOM      4  C   UNL     1       4.829 -25.240   0.844  1.00  0.00     0.000 C 
BRANCH   4   5
ATOM      5  C   UNL     1       4.205 -23.907   0.373  1.00  0.00     0.000 C 
BRANCH   5   6
ATOM      6  C   UNL     1       3.335 -24.084  -0.882  1.00  0.00     0.000 C 
BRANCH   6   7
ATOM      7  C   UNL     1       3.596 -22.992  -1.942  1.00  0.00     0.000 C 
BRANCH   7   8
ATOM      8  C   UNL     1       2.325 -22.505  -2.665  1.00  0.00     0.000 C 
BRANCH   8   9
ATOM      9  C   UNL     1       2.536 -21.302  -3.600  1.00  0.00     0.000 C 
BRANCH   9  10
ATOM     10  C   UNL     1       1.521 -21.262  -4.756  1.00  0.00     0.000 C 
BRANCH  10  11
ATOM     11  C   UNL     1       2.118 -20.686  -6.050  1.00  0.00     0.000 C 
BRANCH  11  12
ATOM     12  C   UNL     1       2.261 -21.743  -7.157  1.00  0.00     0.006 C 
BRANCH  12  13
ATOM     13  C   UNL     1       3.678 -21.739  -7.740  1.00  0.00     0.053 C 
BRANCH  13  14
ATOM     14  C   UNL     1       3.653 -21.433  -9.206  1.00  0.00     0.041 C 
ATOM     15  O   UNL     1       3.990 -22.313 -10.043  1.00  0.00    -0.550 OA
ATOM     16  O   UNL     1       3.261 -20.176  -9.649  1.00  0.00    -0.550 OA
ENDBRANCH  13  14
ENDBRANCH  12  13
ENDBRANCH  11  12
ENDBRANCH  10  11
ENDBRANCH   9  10
ENDBRANCH   8   9
ENDBRANCH   7   8
ENDBRANCH   6   7
ENDBRANCH   5   6
ENDBRANCH   4   5
ENDBRANCH   3   4
ENDBRANCH   2   3
ENDBRANCH   1   2
BRANCH   1  17
ATOM     17  C   UNL     1       2.049 -28.748   0.991  1.00  0.00     0.000 C 
BRANCH  17  18
ATOM     18  C   UNL     1       1.111 -29.660   0.181  1.00  0.00     0.000 C 
BRANCH  18  19
ATOM     19  C   UNL     1       0.802 -29.109  -1.219  1.00  0.00     0.000 C 
BRANCH  19  20
ATOM     20  C   UNL     1      -0.176 -30.031  -1.962  1.00  0.00     0.000 C 
BRANCH  20  21
ATOM     21  C   UNL     1      -0.186 -31.462  -1.402  1.00  0.00     0.000 C 
BRANCH  21  22
ATOM     22  C   UNL     1       0.555 -32.460  -2.312  1.00  0.00    -0.000 C 
BRANCH  22  23
ATOM     23  C   UNL     1       1.923 -32.868  -1.744  1.00  0.00    -0.000 C 
BRANCH  23  24
ATOM     24  C   UNL     1       3.093 -32.306  -2.566  1.00  0.00    -0.000 C 
BRANCH  24  25
ATOM     25  C   UNL     1       3.856 -31.189  -1.830  1.00  0.00    -0.000 C 
BRANCH  25  26
ATOM     26  C   UNL     1       4.060 -29.920  -2.684  1.00  0.00    -0.000 C 
BRANCH  26  27
ATOM     27  C   UNL     1       3.250 -29.959  -3.990  1.00  0.00    -0.000 C 
BRANCH  27  28
ATOM     28  C   UNL     1       3.059 -28.549  -4.562  1.00  0.00    -0.000 C 
BRANCH  28  29
ATOM     29  C   UNL     1       3.265 -27.483  -3.480  1.00  0.00    -0.003 C 
ATOM     30  C   UNL     1       3.345 -26.088  -4.091  1.00  0.00     0.004 C 
ENDBRANCH  28  29
ENDBRANCH  27  28
ENDBRANCH  26  27
ENDBRANCH  25  26
ENDBRANCH  24  25
ENDBRANCH  23  24
ENDBRANCH  22  23
ENDBRANCH  21  22
ENDBRANCH  20  21
ENDBRANCH  19  20
ENDBRANCH  18  19
ENDBRANCH  17  18
ENDBRANCH   1  17
TORSDOF 26
ENDMDL
MODEL 4
REMARK VINA RESULT:    -3.986      8.581     12.936
REMARK INTER + INTRA:         -15.272
REMARK INTER:                 -11.652
REMARK INTRA:                  -3.621
REMARK UNBOUND:                -5.228
REMARK SMILES CCCCCCCCCCCCCCCCCCCCCCCCCCCC(=O)[O-]
REMARK SMILES IDX 15 1 16 2 17 3 18 4 19 5 20 6 21 7 22 8 23 9 24 10 25 11
REMARK SMILES IDX 26 12 27 13 28 14 29 15 30 16 14 17 13 18 12 19 11 20 10 21
REMARK SMILES IDX 9 22 8 23 7 24 6 25 5 26 4 27 3 28 2 29 1 30
REMARK H PARENT
REMARK Flexibility Score: inf
ROOT
ATOM      1  C   UNL     1      -1.300 -20.285  -6.341  1.00  0.00     0.000 C 
ENDROOT
BRANCH   1   2
ATOM      2  C   UNL     1      -2.300 -20.355  -5.169  1.00  0.00     0.000 C 
BRANCH   2   3
ATOM      3  C   UNL     1      -2.431 -21.741  -4.507  1.00  0.00     0.000 C 
BRANCH   3   4
ATOM      4  C   UNL     1      -2.189 -21.752  -2.987  1.00  0.00     0.000 C 
BRANCH   4   5
ATOM      5  C   UNL     1      -3.394 -22.278  -2.175  1.00  0.00     0.000 C 
BRANCH   5   6
ATOM      6  C   UNL     1      -4.697 -22.266  -2.993  1.00  0.00     0.000 C 
BRANCH   6   7
ATOM      7  C   UNL     1      -5.826 -21.476  -2.296  1.00  0.00     0.000 C 
BRANCH   7   8
ATOM      8  C   UNL     1      -6.662 -20.605  -3.253  1.00  0.00     0.000 C 
BRANCH   8   9
ATOM      9  C   UNL     1      -6.187 -20.617  -4.716  1.00  0.00     0.000 C 
BRANCH   9  10
ATOM     10  C   UNL     1      -7.303 -20.237  -5.706  1.00  0.00     0.000 C 
BRANCH  10  11
ATOM     11  C   UNL     1      -7.837 -18.814  -5.481  1.00  0.00     0.000 C 
BRANCH  11  12
ATOM     12  C   UNL     1      -9.289 -18.644  -5.956  1.00  0.00     0.006 C 
BRANCH  12  13
ATOM     13  C   UNL     1      -9.382 -18.748  -7.482  1.00  0.00     0.053 C 
BRANCH  13  14
ATOM     14  C   UNL     1     -10.310 -19.851  -7.888  1.00  0.00     0.041 C 
ATOM     15  O   UNL     1     -10.497 -20.105  -9.108  1.00  0.00    -0.550 OA
ATOM     16  O   UNL     1     -10.971 -20.597  -6.920  1.00  0.00    -0.550 OA
ENDBRANCH  13  14
ENDBRANCH  12  13
ENDBRANCH  11  12
ENDBRANCH  10  11
ENDBRANCH   9  10
ENDBRANCH   8   9
ENDBRANCH   7   8
ENDBRANCH   6   7
ENDBRANCH   5   6
ENDBRANCH   4   5
ENDBRANCH   3   4
ENDBRANCH   2   3
ENDBRANCH   1   2
BRANCH   1  17
ATOM     17  C   UNL     1       0.181 -20.142  -5.937  1.00  0.00     0.000 C 
BRANCH  17  18
ATOM     18  C   UNL     1       0.435 -19.302  -4.672  1.00  0.00     0.000 C 
BRANCH  18  19
ATOM     19  C   UNL     1       1.560 -19.868  -3.795  1.00  0.00     0.000 C 
BRANCH  19  20
ATOM     20  C   UNL     1       1.671 -21.390  -3.968  1.00  0.00     0.000 C 
BRANCH  20  21
ATOM     21  C   UNL     1       2.718 -22.019  -3.034  1.00  0.00     0.000 C 
BRANCH  21  22
ATOM     22  C   UNL     1       3.066 -23.467  -3.424  1.00  0.00    -0.000 C 
BRANCH  22  23
ATOM     23  C   UNL     1       4.581 -23.699  -3.525  1.00  0.00    -0.000 C 
BRANCH  23  24
ATOM     24  C   UNL     1       5.023 -24.094  -4.943  1.00  0.00    -0.000 C 
BRANCH  24  25
ATOM     25  C   UNL     1       3.835 -24.335  -5.891  1.00  0.00    -0.000 C 
BRANCH  25  26
ATOM     26  C   UNL     1       3.784 -23.346  -7.076  1.00  0.00    -0.000 C 
BRANCH  26  27
ATOM     27  C   UNL     1       2.405 -22.685  -7.224  1.00  0.00    -0.000 C 
BRANCH  27  28
ATOM     28  C   UNL     1       1.540 -23.440  -8.241  1.00  0.00    -0.000 C 
BRANCH  28  29
ATOM     29  C   UNL     1       0.135 -23.701  -7.685  1.00  0.00    -0.003 C 
ATOM     30  C   UNL     1       0.167 -23.872  -6.170  1.00  0.00     0.004 C 
ENDBRANCH  28  29
ENDBRANCH  27  28
ENDBRANCH  26  27
ENDBRANCH  25  26
ENDBRANCH  24  25
ENDBRANCH  23  24
ENDBRANCH  22  23
ENDBRANCH  21  22
ENDBRANCH  20  21
ENDBRANCH  19  20
ENDBRANCH  18  19
ENDBRANCH  17  18
ENDBRANCH   1  17
TORSDOF 26
ENDMDL
MODEL 5
REMARK VINA RESULT:    -3.980      1.468      2.971
REMARK INTER + INTRA:         -15.258
REMARK INTER:                 -10.902
REMARK INTRA:                  -4.355
REMARK UNBOUND:                -5.228
REMARK SMILES CCCCCCCCCCCCCCCCCCCCCCCCCCCC(=O)[O-]
REMARK SMILES IDX 15 1 16 2 17 3 18 4 19 5 20 6 21 7 22 8 23 9 24 10 25 11
REMARK SMILES IDX 26 12 27 13 28 14 29 15 30 16 14 17 13 18 12 19 11 20 10 21
REMARK SMILES IDX 9 22 8 23 7 24 6 25 5 26 4 27 3 28 2 29 1 30
REMARK H PARENT
REMARK Flexibility Score: inf
ROOT
ATOM      1  C   UNL     1      -2.854 -23.523 -16.509  1.00  0.00     0.000 C 
ENDROOT
BRANCH   1   2
ATOM      2  C   UNL     1      -1.918 -24.621 -15.962  1.00  0.00     0.000 C 
BRANCH   2   3
ATOM      3  C   UNL     1      -0.504 -24.140 -15.582  1.00  0.00     0.000 C 
BRANCH   3   4
ATOM      4  C   UNL     1      -0.023 -22.894 -16.348  1.00  0.00     0.000 C 
BRANCH   4   5
ATOM      5  C   UNL     1       0.952 -22.011 -15.537  1.00  0.00     0.000 C 
BRANCH   5   6
ATOM      6  C   UNL     1       0.368 -20.619 -15.241  1.00  0.00     0.000 C 
BRANCH   6   7
ATOM      7  C   UNL     1      -1.101 -20.682 -14.769  1.00  0.00     0.000 C 
BRANCH   7   8
ATOM      8  C   UNL     1      -1.267 -20.646 -13.237  1.00  0.00     0.000 C 
BRANCH   8   9
ATOM      9  C   UNL     1      -0.702 -21.871 -12.499  1.00  0.00     0.000 C 
BRANCH   9  10
ATOM     10  C   UNL     1       0.289 -21.489 -11.384  1.00  0.00     0.000 C 
BRANCH  10  11
ATOM     11  C   UNL     1       0.833 -20.060 -11.539  1.00  0.00     0.000 C 
BRANCH  11  12
ATOM     12  C   UNL     1       2.241 -20.027 -12.155  1.00  0.00     0.006 C 
BRANCH  12  13
ATOM     13  C   UNL     1       2.772 -21.445 -12.385  1.00  0.00     0.053 C 
BRANCH  13  14
ATOM     14  C   UNL     1       4.090 -21.641 -11.702  1.00  0.00     0.041 C 
ATOM     15  O   UNL     1       4.133 -22.055 -10.513  1.00  0.00    -0.550 OA
ATOM     16  O   UNL     1       5.272 -21.364 -12.378  1.00  0.00    -0.550 OA
ENDBRANCH  13  14
ENDBRANCH  12  13
ENDBRANCH  11  12
ENDBRANCH  10  11
ENDBRANCH   9  10
ENDBRANCH   8   9
ENDBRANCH   7   8
ENDBRANCH   6   7
ENDBRANCH   5   6
ENDBRANCH   4   5
ENDBRANCH   3   4
ENDBRANCH   2   3
ENDBRANCH   1   2
BRANCH   1  17
ATOM     17  C   UNL     1      -4.352 -23.889 -16.536  1.00  0.00     0.000 C 
BRANCH  17  18
ATOM     18  C   UNL     1      -5.300 -22.802 -15.999  1.00  0.00     0.000 C 
BRANCH  18  19
ATOM     19  C   UNL     1      -4.761 -22.108 -14.739  1.00  0.00     0.000 C 
BRANCH  19  20
ATOM     20  C   UNL     1      -5.823 -22.097 -13.629  1.00  0.00     0.000 C 
BRANCH  20  21
ATOM     21  C   UNL     1      -7.254 -22.221 -14.174  1.00  0.00     0.000 C 
BRANCH  21  22
ATOM     22  C   UNL     1      -8.068 -20.926 -14.002  1.00  0.00    -0.000 C 
BRANCH  22  23
ATOM     23  C   UNL     1      -8.201 -20.139 -15.315  1.00  0.00    -0.000 C 
BRANCH  23  24
ATOM     24  C   UNL     1      -7.020 -19.186 -15.552  1.00  0.00    -0.000 C 
BRANCH  24  25
ATOM     25  C   UNL     1      -6.582 -18.450 -14.273  1.00  0.00    -0.000 C 
BRANCH  25  26
ATOM     26  C   UNL     1      -5.051 -18.425 -14.072  1.00  0.00    -0.000 C 
BRANCH  26  27
ATOM     27  C   UNL     1      -4.288 -18.481 -15.405  1.00  0.00    -0.000 C 
BRANCH  27  28
ATOM     28  C   UNL     1      -3.360 -17.269 -15.560  1.00  0.00    -0.000 C 
BRANCH  28  29
ATOM     29  C   UNL     1      -3.688 -16.484 -16.834  1.00  0.00    -0.003 C 
ATOM     30  C   UNL     1      -5.154 -16.066 -16.862  1.00  0.00     0.004 C 
ENDBRANCH  28  29
ENDBRANCH  27  28
ENDBRANCH  26  27
ENDBRANCH  25  26
ENDBRANCH  24  25
ENDBRANCH  23  24
ENDBRANCH  22  23
ENDBRANCH  21  22
ENDBRANCH  20  21
ENDBRANCH  19  20
ENDBRANCH  18  19
ENDBRANCH  17  18
ENDBRANCH   1  17
TORSDOF 26
ENDMDL
MODEL 6
REMARK VINA RESULT:    -3.969      1.615      3.823
REMARK INTER + INTRA:         -15.231
REMARK INTER:                 -10.212
REMARK INTRA:                  -5.018
REMARK UNBOUND:                -5.228
REMARK SMILES CCCCCCCCCCCCCCCCCCCCCCCCCCCC(=O)[O-]
REMARK SMILES IDX 15 1 16 2 17 3 18 4 19 5 20 6 21 7 22 8 23 9 24 10 25 11
REMARK SMILES IDX 26 12 27 13 28 14 29 15 30 16 14 17 13 18 12 19 11 20 10 21
REMARK SMILES IDX 9 22 8 23 7 24 6 25 5 26 4 27 3 28 2 29 1 30
REMARK H PARENT
REMARK Flexibility Score: inf
ROOT
ATOM      1  C   UNL     1      -2.708 -22.165 -12.008  1.00  0.00     0.000 C 
ENDROOT
BRANCH   1   2
ATOM      2  C   UNL     1      -1.253 -22.309 -11.516  1.00  0.00     0.000 C 
BRANCH   2   3
ATOM      3  C   UNL     1      -0.609 -23.683 -11.781  1.00  0.00     0.000 C 
BRANCH   3   4
ATOM      4  C   UNL     1      -1.586 -24.765 -12.277  1.00  0.00     0.000 C 
BRANCH   4   5
ATOM      5  C   UNL     1      -1.327 -25.208 -13.734  1.00  0.00     0.000 C 
BRANCH   5   6
ATOM      6  C   UNL     1       0.163 -25.130 -14.109  1.00  0.00     0.000 C 
BRANCH   6   7
ATOM      7  C   UNL     1       0.394 -24.436 -15.469  1.00  0.00     0.000 C 
BRANCH   7   8
ATOM      8  C   UNL     1      -0.529 -23.227 -15.719  1.00  0.00     0.000 C 
BRANCH   8   9
ATOM      9  C   UNL     1       0.202 -21.890 -15.924  1.00  0.00     0.000 C 
BRANCH   9  10
ATOM     10  C   UNL     1       1.175 -21.562 -14.777  1.00  0.00     0.000 C 
BRANCH  10  11
ATOM     11  C   UNL     1       0.848 -20.230 -14.084  1.00  0.00     0.000 C 
BRANCH  11  12
ATOM     12  C   UNL     1       1.535 -20.091 -12.716  1.00  0.00     0.006 C 
BRANCH  12  13
ATOM     13  C   UNL     1       2.566 -21.205 -12.505  1.00  0.00     0.053 C 
BRANCH  13  14
ATOM     14  C   UNL     1       3.955 -20.703 -12.752  1.00  0.00     0.041 C 
ATOM     15  O   UNL     1       4.137 -19.590 -13.315  1.00  0.00    -0.550 OA
ATOM     16  O   UNL     1       5.050 -21.465 -12.363  1.00  0.00    -0.550 OA
ENDBRANCH  13  14
ENDBRANCH  12  13
ENDBRANCH  11  12
ENDBRANCH  10  11
ENDBRANCH   9  10
ENDBRANCH   8   9
ENDBRANCH   7   8
ENDBRANCH   6   7
ENDBRANCH   5   6
ENDBRANCH   4   5
ENDBRANCH   3   4
ENDBRANCH   2   3
ENDBRANCH   1   2
BRANCH   1  17
ATOM     17  C   UNL     1      -2.874 -21.493 -13.386  1.00  0.00     0.000 C 
BRANCH  17  18
ATOM     18  C   UNL     1      -3.798 -22.234 -14.368  1.00  0.00     0.000 C 
BRANCH  18  19
ATOM     19  C   UNL     1      -3.760 -21.645 -15.785  1.00  0.00     0.000 C 
BRANCH  19  20
ATOM     20  C   UNL     1      -4.029 -20.133 -15.753  1.00  0.00     0.000 C 
BRANCH  20  21
ATOM     21  C   UNL     1      -5.212 -19.721 -16.644  1.00  0.00     0.000 C 
BRANCH  21  22
ATOM     22  C   UNL     1      -5.635 -18.257 -16.428  1.00  0.00    -0.000 C 
BRANCH  22  23
ATOM     23  C   UNL     1      -5.386 -17.781 -14.989  1.00  0.00    -0.000 C 
BRANCH  23  24
ATOM     24  C   UNL     1      -6.524 -18.174 -14.033  1.00  0.00    -0.000 C 
BRANCH  24  25
ATOM     25  C   UNL     1      -6.098 -19.242 -13.009  1.00  0.00    -0.000 C 
BRANCH  25  26
ATOM     26  C   UNL     1      -6.791 -20.605 -13.217  1.00  0.00    -0.000 C 
BRANCH  26  27
ATOM     27  C   UNL     1      -8.149 -20.466 -13.923  1.00  0.00    -0.000 C 
BRANCH  27  28
ATOM     28  C   UNL     1      -8.162 -21.235 -15.249  1.00  0.00    -0.000 C 
BRANCH  28  29
ATOM     29  C   UNL     1      -8.224 -22.748 -15.009  1.00  0.00    -0.003 C 
ATOM     30  C   UNL     1      -7.071 -23.463 -15.705  1.00  0.00     0.004 C 
ENDBRANCH  28  29
ENDBRANCH  27  28
ENDBRANCH  26  27
ENDBRANCH  25  26
ENDBRANCH  24  25
ENDBRANCH  23  24
ENDBRANCH  22  23
ENDBRANCH  21  22
ENDBRANCH  20  21
ENDBRANCH  19  20
ENDBRANCH  18  19
ENDBRANCH  17  18
ENDBRANCH   1  17
TORSDOF 26
ENDMDL
MODEL 7
REMARK VINA RESULT:    -3.917      1.449      2.561
REMARK INTER + INTRA:         -15.099
REMARK INTER:                 -10.994
REMARK INTRA:                  -4.105
REMARK UNBOUND:                -5.228
REMARK SMILES CCCCCCCCCCCCCCCCCCCCCCCCCCCC(=O)[O-]
REMARK SMILES IDX 15 1 16 2 17 3 18 4 19 5 20 6 21 7 22 8 23 9 24 10 25 11
REMARK SMILES IDX 26 12 27 13 28 14 29 15 30 16 14 17 13 18 12 19 11 20 10 21
REMARK SMILES IDX 9 22 8 23 7 24 6 25 5 26 4 27 3 28 2 29 1 30
REMARK H PARENT
REMARK Flexibility Score: inf
ROOT
ATOM      1  C   UNL     1       1.498 -21.360 -14.878  1.00  0.00     0.000 C 
ENDROOT
BRANCH   1   2
ATOM      2  C   UNL     1       0.343 -21.642 -15.860  1.00  0.00     0.000 C 
BRANCH   2   3
ATOM      3  C   UNL     1       0.316 -23.070 -16.440  1.00  0.00     0.000 C 
BRANCH   3   4
ATOM      4  C   UNL     1      -1.093 -23.656 -16.638  1.00  0.00     0.000 C 
BRANCH   4   5
ATOM      5  C   UNL     1      -2.191 -22.898 -15.856  1.00  0.00     0.000 C 
BRANCH   5   6
ATOM      6  C   UNL     1      -2.659 -23.673 -14.613  1.00  0.00     0.000 C 
BRANCH   6   7
ATOM      7  C   UNL     1      -1.804 -23.363 -13.366  1.00  0.00     0.000 C 
BRANCH   7   8
ATOM      8  C   UNL     1      -1.100 -24.597 -12.768  1.00  0.00     0.000 C 
BRANCH   8   9
ATOM      9  C   UNL     1       0.410 -24.676 -13.048  1.00  0.00     0.000 C 
BRANCH   9  10
ATOM     10  C   UNL     1       1.240 -24.918 -11.774  1.00  0.00     0.000 C 
BRANCH  10  11
ATOM     11  C   UNL     1       1.214 -23.719 -10.812  1.00  0.00     0.000 C 
BRANCH  11  12
ATOM     12  C   UNL     1       1.908 -22.478 -11.396  1.00  0.00     0.006 C 
BRANCH  12  13
ATOM     13  C   UNL     1       3.395 -22.457 -11.027  1.00  0.00     0.053 C 
BRANCH  13  14
ATOM     14  C   UNL     1       4.073 -21.252 -11.603  1.00  0.00     0.041 C 
ATOM     15  O   UNL     1       3.690 -20.095 -11.282  1.00  0.00    -0.550 OA
ATOM     16  O   UNL     1       5.126 -21.406 -12.496  1.00  0.00    -0.550 OA
ENDBRANCH  13  14
ENDBRANCH  12  13
ENDBRANCH  11  12
ENDBRANCH  10  11
ENDBRANCH   9  10
ENDBRANCH   8   9
ENDBRANCH   7   8
ENDBRANCH   6   7
ENDBRANCH   5   6
ENDBRANCH   4   5
ENDBRANCH   3   4
ENDBRANCH   2   3
ENDBRANCH   1   2
BRANCH   1  17
ATOM     17  C   UNL     1       1.310 -20.122 -13.978  1.00  0.00     0.000 C 
BRANCH  17  18
ATOM     18  C   UNL     1      -0.100 -19.953 -13.385  1.00  0.00     0.000 C 
BRANCH  18  19
ATOM     19  C   UNL     1      -0.800 -18.674 -13.864  1.00  0.00     0.000 C 
BRANCH  19  20
ATOM     20  C   UNL     1      -2.303 -18.727 -13.550  1.00  0.00     0.000 C 
BRANCH  20  21
ATOM     21  C   UNL     1      -2.983 -19.986 -14.109  1.00  0.00     0.000 C 
BRANCH  21  22
ATOM     22  C   UNL     1      -4.415 -20.173 -13.576  1.00  0.00    -0.000 C 
BRANCH  22  23
ATOM     23  C   UNL     1      -5.481 -19.890 -14.645  1.00  0.00    -0.000 C 
BRANCH  23  24
ATOM     24  C   UNL     1      -4.869 -19.592 -16.023  1.00  0.00    -0.000 C 
BRANCH  24  25
ATOM     25  C   UNL     1      -5.767 -18.691 -16.890  1.00  0.00    -0.000 C 
BRANCH  25  26
ATOM     26  C   UNL     1      -6.873 -17.972 -16.089  1.00  0.00    -0.000 C 
BRANCH  26  27
ATOM     27  C   UNL     1      -6.935 -16.468 -16.401  1.00  0.00    -0.000 C 
BRANCH  27  28
ATOM     28  C   UNL     1      -6.157 -15.658 -15.358  1.00  0.00    -0.000 C 
BRANCH  28  29
ATOM     29  C   UNL     1      -6.093 -16.400 -14.018  1.00  0.00    -0.003 C 
ATOM     30  C   UNL     1      -6.644 -15.540 -12.886  1.00  0.00     0.004 C 
ENDBRANCH  28  29
ENDBRANCH  27  28
ENDBRANCH  26  27
ENDBRANCH  25  26
ENDBRANCH  24  25
ENDBRANCH  23  24
ENDBRANCH  22  23
ENDBRANCH  21  22
ENDBRANCH  20  21
ENDBRANCH  19  20
ENDBRANCH  18  19
ENDBRANCH  17  18
ENDBRANCH   1  17
TORSDOF 26
ENDMDL
MODEL 8
REMARK VINA RESULT:    -3.902      3.846      8.490
REMARK INTER + INTRA:         -15.061
REMARK INTER:                 -11.699
REMARK INTRA:                  -3.362
REMARK UNBOUND:                -5.228
REMARK SMILES CCCCCCCCCCCCCCCCCCCCCCCCCCCC(=O)[O-]
REMARK SMILES IDX 15 1 16 2 17 3 18 4 19 5 20 6 21 7 22 8 23 9 24 10 25 11
REMARK SMILES IDX 26 12 27 13 28 14 29 15 30 16 14 17 13 18 12 19 11 20 10 21
REMARK SMILES IDX 9 22 8 23 7 24 6 25 5 26 4 27 3 28 2 29 1 30
REMARK H PARENT
REMARK Flexibility Score: inf
ROOT
ATOM      1  C   UNL     1       0.049 -23.996 -15.258  1.00  0.00     0.000 C 
ENDROOT
BRANCH   1   2
ATOM      2  C   UNL     1      -1.289 -24.749 -15.404  1.00  0.00     0.000 C 
BRANCH   2   3
ATOM      3  C   UNL     1      -2.355 -24.392 -14.350  1.00  0.00     0.000 C 
BRANCH   3   4
ATOM      4  C   UNL     1      -3.102 -23.073 -14.613  1.00  0.00     0.000 C 
BRANCH   4   5
ATOM      5  C   UNL     1      -3.386 -22.814 -16.110  1.00  0.00     0.000 C 
BRANCH   5   6
ATOM      6  C   UNL     1      -4.879 -22.570 -16.386  1.00  0.00     0.000 C 
BRANCH   6   7
ATOM      7  C   UNL     1      -5.795 -23.340 -15.409  1.00  0.00     0.000 C 
BRANCH   7   8
ATOM      8  C   UNL     1      -7.290 -23.286 -15.780  1.00  0.00     0.000 C 
BRANCH   8   9
ATOM      9  C   UNL     1      -8.196 -22.652 -14.711  1.00  0.00     0.000 C 
BRANCH   9  10
ATOM     10  C   UNL     1      -7.712 -21.258 -14.272  1.00  0.00     0.000 C 
BRANCH  10  11
ATOM     11  C   UNL     1      -8.121 -20.150 -15.257  1.00  0.00     0.000 C 
BRANCH  11  12
ATOM     12  C   UNL     1      -6.911 -19.459 -15.905  1.00  0.00     0.006 C 
BRANCH  12  13
ATOM     13  C   UNL     1      -7.162 -17.956 -16.070  1.00  0.00     0.053 C 
BRANCH  13  14
ATOM     14  C   UNL     1      -6.465 -17.427 -17.285  1.00  0.00     0.041 C 
ATOM     15  O   UNL     1      -5.206 -17.415 -17.340  1.00  0.00    -0.550 OA
ATOM     16  O   UNL     1      -7.206 -16.944 -18.357  1.00  0.00    -0.550 OA
ENDBRANCH  13  14
ENDBRANCH  12  13
ENDBRANCH  11  12
ENDBRANCH  10  11
ENDBRANCH   9  10
ENDBRANCH   8   9
ENDBRANCH   7   8
ENDBRANCH   6   7
ENDBRANCH   5   6
ENDBRANCH   4   5
ENDBRANCH   3   4
ENDBRANCH   2   3
ENDBRANCH   1   2
BRANCH   1  17
ATOM     17  C   UNL     1       0.300 -22.890 -16.303  1.00  0.00     0.000 C 
BRANCH  17  18
ATOM     18  C   UNL     1       0.389 -21.462 -15.736  1.00  0.00     0.000 C 
BRANCH  18  19
ATOM     19  C   UNL     1       0.781 -21.431 -14.252  1.00  0.00     0.000 C 
BRANCH  19  20
ATOM     20  C   UNL     1       1.491 -20.113 -13.905  1.00  0.00     0.000 C 
BRANCH  20  21
ATOM     21  C   UNL     1       3.021 -20.252 -13.877  1.00  0.00     0.000 C 
BRANCH  21  22
ATOM     22  C   UNL     1       3.604 -20.108 -12.459  1.00  0.00    -0.000 C 
BRANCH  22  23
ATOM     23  C   UNL     1       4.340 -21.374 -11.996  1.00  0.00    -0.000 C 
BRANCH  23  24
ATOM     24  C   UNL     1       3.682 -22.020 -10.766  1.00  0.00    -0.000 C 
BRANCH  24  25
ATOM     25  C   UNL     1       2.645 -23.094 -11.141  1.00  0.00    -0.000 C 
BRANCH  25  26
ATOM     26  C   UNL     1       1.186 -22.648 -10.902  1.00  0.00    -0.000 C 
BRANCH  26  27
ATOM     27  C   UNL     1       1.071 -21.617  -9.768  1.00  0.00    -0.000 C 
BRANCH  27  28
ATOM     28  C   UNL     1       0.349 -20.352 -10.247  1.00  0.00    -0.000 C 
BRANCH  28  29
ATOM     29  C   UNL     1       1.227 -19.110 -10.054  1.00  0.00    -0.003 C 
ATOM     30  C   UNL     1       1.037 -18.513  -8.664  1.00  0.00     0.004 C 
ENDBRANCH  28  29
ENDBRANCH  27  28
ENDBRANCH  26  27
ENDBRANCH  25  26
ENDBRANCH  24  25
ENDBRANCH  23  24
ENDBRANCH  22  23
ENDBRANCH  21  22
ENDBRANCH  20  21
ENDBRANCH  19  20
ENDBRANCH  18  19
ENDBRANCH  17  18
ENDBRANCH   1  17
TORSDOF 26
ENDMDL
MODEL 9
REMARK VINA RESULT:    -3.892     11.163     15.695
REMARK INTER + INTRA:         -15.035
REMARK INTER:                 -10.451
REMARK INTRA:                  -4.584
REMARK UNBOUND:                -5.228
REMARK SMILES CCCCCCCCCCCCCCCCCCCCCCCCCCCC(=O)[O-]
REMARK SMILES IDX 15 1 16 2 17 3 18 4 19 5 20 6 21 7 22 8 23 9 24 10 25 11
REMARK SMILES IDX 26 12 27 13 28 14 29 15 30 16 14 17 13 18 12 19 11 20 10 21
REMARK SMILES IDX 9 22 8 23 7 24 6 25 5 26 4 27 3 28 2 29 1 30
REMARK H PARENT
REMARK Flexibility Score: inf
ROOT
ATOM      1  C   UNL     1       3.260 -28.045  -3.044  1.00  0.00     0.000 C 
ENDROOT
BRANCH   1   2
ATOM      2  C   UNL     1       3.194 -27.480  -1.611  1.00  0.00     0.000 C 
BRANCH   2   3
ATOM      3  C   UNL     1       4.508 -27.578  -0.812  1.00  0.00     0.000 C 
BRANCH   3   4
ATOM      4  C   UNL     1       4.506 -26.811   0.523  1.00  0.00     0.000 C 
BRANCH   4   5
ATOM      5  C   UNL     1       5.437 -25.578   0.527  1.00  0.00     0.000 C 
BRANCH   5   6
ATOM      6  C   UNL     1       4.721 -24.310   1.022  1.00  0.00     0.000 C 
BRANCH   6   7
ATOM      7  C   UNL     1       3.455 -23.986   0.201  1.00  0.00     0.000 C 
BRANCH   7   8
ATOM      8  C   UNL     1       3.733 -23.185  -1.087  1.00  0.00     0.000 C 
BRANCH   8   9
ATOM      9  C   UNL     1       3.335 -23.900  -2.389  1.00  0.00     0.000 C 
BRANCH   9  10
ATOM     10  C   UNL     1       4.549 -24.435  -3.169  1.00  0.00     0.000 C 
BRANCH  10  11
ATOM     11  C   UNL     1       4.196 -24.845  -4.608  1.00  0.00     0.000 C 
BRANCH  11  12
ATOM     12  C   UNL     1       4.448 -23.718  -5.622  1.00  0.00     0.006 C 
BRANCH  12  13
ATOM     13  C   UNL     1       3.140 -23.278  -6.288  1.00  0.00     0.053 C 
BRANCH  13  14
ATOM     14  C   UNL     1       2.095 -24.343  -6.171  1.00  0.00     0.041 C 
ATOM     15  O   UNL     1       1.223 -24.280  -5.264  1.00  0.00    -0.550 OA
ATOM     16  O   UNL     1       2.083 -25.408  -7.064  1.00  0.00    -0.550 OA
ENDBRANCH  13  14
ENDBRANCH  12  13
ENDBRANCH  11  12
ENDBRANCH  10  11
ENDBRANCH   9  10
ENDBRANCH   8   9
ENDBRANCH   7   8
ENDBRANCH   6   7
ENDBRANCH   5   6
ENDBRANCH   4   5
ENDBRANCH   3   4
ENDBRANCH   2   3
ENDBRANCH   1   2
BRANCH   1  17
ATOM     17  C   UNL     1       4.126 -29.310  -3.215  1.00  0.00     0.000 C 
BRANCH  17  18
ATOM     18  C   UNL     1       3.454 -30.626  -2.784  1.00  0.00     0.000 C 
BRANCH  18  19
ATOM     19  C   UNL     1       4.046 -31.206  -1.493  1.00  0.00     0.000 C 
BRANCH  19  20
ATOM     20  C   UNL     1       3.519 -32.627  -1.243  1.00  0.00     0.000 C 
BRANCH  20  21
ATOM     21  C   UNL     1       2.545 -33.100  -2.334  1.00  0.00     0.000 C 
BRANCH  21  22
ATOM     22  C   UNL     1       1.210 -33.605  -1.758  1.00  0.00    -0.000 C 
BRANCH  22  23
ATOM     23  C   UNL     1       0.085 -33.610  -2.804  1.00  0.00    -0.000 C 
BRANCH  23  24
ATOM     24  C   UNL     1       0.217 -32.462  -3.818  1.00  0.00    -0.000 C 
BRANCH  24  25
ATOM     25  C   UNL     1      -1.137 -31.816  -4.165  1.00  0.00    -0.000 C 
BRANCH  25  26
ATOM     26  C   UNL     1      -1.422 -30.524  -3.369  1.00  0.00    -0.000 C 
BRANCH  26  27
ATOM     27  C   UNL     1      -0.144 -29.718  -3.088  1.00  0.00    -0.000 C 
BRANCH  27  28
ATOM     28  C   UNL     1      -0.112 -29.224  -1.637  1.00  0.00    -0.000 C 
BRANCH  28  29
ATOM     29  C   UNL     1       0.502 -30.279  -0.709  1.00  0.00    -0.003 C 
ATOM     30  C   UNL     1       1.138 -29.631   0.516  1.00  0.00     0.004 C 
ENDBRANCH  28  29
ENDBRANCH  27  28
ENDBRANCH  26  27
ENDBRANCH  25  26
ENDBRANCH  24  25
ENDBRANCH  23  24
ENDBRANCH  22  23
ENDBRANCH  21  22
ENDBRANCH  20  21
ENDBRANCH  19  20
ENDBRANCH  18  19
ENDBRANCH  17  18
ENDBRANCH   1  17
TORSDOF 26
ENDMDL
