MODEL 1
REMARK VINA RESULT:    -5.131      0.000      0.000
REMARK INTER + INTRA:          -6.829
REMARK INTER:                  -7.231
REMARK INTRA:                   0.402
REMARK UNBOUND:                 0.402
REMARK SMILES CC1=CCC(=C(C)C)C(=O)CC(C)=CCC1
REMARK SMILES IDX 12 1 14 2 13 3 15 4 16 5 2 6 1 7 3 8 11 10 9 11 10 12 5 13
REMARK SMILES IDX 6 14 7 15 8 16 4 17
REMARK H PARENT
REMARK Flexibility Score: 60.00
ROOT
ATOM      1  C   UNL     1      -7.534  33.834  22.252  1.00  0.00    -0.070 C 
ATOM      2  C   UNL     1      -7.606  33.009  21.180  1.00  0.00    -0.027 C 
ATOM      3  C   UNL     1      -7.741  35.309  22.009  1.00  0.00     0.039 C 
ENDROOT
BRANCH   2   4
ATOM      4  C   UNL     1      -7.537  31.501  21.207  1.00  0.00     0.032 C 
BRANCH   4   5
ATOM      5  C   UNL     1      -8.854  30.855  21.674  1.00  0.00     0.034 C 
BRANCH   5   6
ATOM      6  C   UNL     1      -8.640  29.875  22.812  1.00  0.00    -0.077 C 
ATOM      7  C   UNL     1      -7.860  28.616  22.534  1.00  0.00     0.039 C 
ATOM      8  C   UNL     1      -9.132  30.054  24.058  1.00  0.00    -0.023 CG0
ATOM      9  G   UNL     1      -9.964  31.227  24.519  1.00  0.00     0.000 G0
ENDBRANCH   5   6
ENDBRANCH   4   5
ENDBRANCH   2   4
BRANCH   1  10
ATOM     10  C   UNL     1      -7.324  33.350  23.677  1.00  0.00     0.111 C 
BRANCH  10  11
ATOM     11  C   UNL     1      -8.600  33.413  24.478  1.00  0.00     0.163 C 
ATOM     12  O   UNL     1      -9.228  34.505  24.511  1.00  0.00    -0.294 OA
BRANCH  11  13
ATOM     13  C   UNL     1      -9.099  32.242  25.266  1.00  0.00    -0.002 C 
ATOM     14  C   UNL     1      -8.847  32.116  26.604  1.00  0.00    -0.069 C 
ATOM     15  C   UNL     1      -8.113  33.188  27.377  1.00  0.00     0.039 C 
ATOM     16  C   UNL     1      -9.323  30.910  27.385  1.00  0.00     0.039 C 
BRANCH  13  17
ATOM     17  C   UNL     1      -9.964  31.234  24.530  1.00  0.00     0.066 CG0
ATOM     18  G   UNL     1      -9.116  30.072  24.069  1.00  0.00     0.000 G0
ENDBRANCH  13  17
ENDBRANCH  11  13
ENDBRANCH  10  11
ENDBRANCH   1  10
TORSDOF 0
ENDMDL
MODEL 2
REMARK VINA RESULT:    -5.020      1.886      4.324
REMARK INTER + INTRA:          -6.673
REMARK INTER:                  -7.082
REMARK INTRA:                   0.409
REMARK UNBOUND:                 0.402
REMARK SMILES CC1=CCC(=C(C)C)C(=O)CC(C)=CCC1
REMARK SMILES IDX 12 1 14 2 13 3 15 4 16 5 2 6 1 7 3 8 11 10 9 11 10 12 5 13
REMARK SMILES IDX 6 14 7 15 8 16 4 17
REMARK H PARENT
REMARK Flexibility Score: 60.00
ROOT
ATOM      1  C   UNL     1      -8.636  32.728  26.647  1.00  0.00    -0.070 C 
ATOM      2  C   UNL     1      -8.219  33.853  26.019  1.00  0.00    -0.027 C 
ATOM      3  C   UNL     1      -8.377  32.624  28.130  1.00  0.00     0.039 C 
ENDROOT
BRANCH   2   4
ATOM      4  C   UNL     1      -8.465  34.212  24.573  1.00  0.00     0.032 C 
BRANCH   4   5
ATOM      5  C   UNL     1      -7.355  33.698  23.638  1.00  0.00     0.034 C 
BRANCH   5   6
ATOM      6  C   UNL     1      -7.904  32.835  22.517  1.00  0.00    -0.077 C 
ATOM      7  C   UNL     1      -8.624  33.513  21.380  1.00  0.00     0.039 C 
ATOM      8  C   UNL     1      -7.807  31.487  22.493  1.00  0.00    -0.023 CG0
ATOM      9  G   UNL     1      -7.157  30.628  23.552  1.00  0.00     0.000 G0
ENDBRANCH   5   6
ENDBRANCH   4   5
ENDBRANCH   2   4
BRANCH   1  10
ATOM     10  C   UNL     1      -9.398  31.609  25.958  1.00  0.00     0.111 C 
BRANCH  10  11
ATOM     11  C   UNL     1      -8.525  30.401  25.728  1.00  0.00     0.163 C 
ATOM     12  O   UNL     1      -7.997  29.849  26.732  1.00  0.00    -0.294 OA
BRANCH  11  13
ATOM     13  C   UNL     1      -8.231  29.886  24.354  1.00  0.00    -0.002 C 
ATOM     14  C   UNL     1      -8.936  28.848  23.810  1.00  0.00    -0.069 C 
ATOM     15  C   UNL     1     -10.099  28.211  24.537  1.00  0.00     0.039 C 
ATOM     16  C   UNL     1      -8.608  28.308  22.435  1.00  0.00     0.039 C 
BRANCH  13  17
ATOM     17  C   UNL     1      -7.164  30.615  23.557  1.00  0.00     0.066 CG0
ATOM     18  G   UNL     1      -7.814  31.479  22.503  1.00  0.00     0.000 G0
ENDBRANCH  13  17
ENDBRANCH  11  13
ENDBRANCH  10  11
ENDBRANCH   1  10
TORSDOF 0
ENDMDL
MODEL 3
REMARK VINA RESULT:    -5.019      1.449      3.746
REMARK INTER + INTRA:          -6.670
REMARK INTER:                  -7.038
REMARK INTRA:                   0.368
REMARK UNBOUND:                 0.402
REMARK SMILES CC1=CCC(=C(C)C)C(=O)CC(C)=CCC1
REMARK SMILES IDX 12 1 14 2 13 3 15 4 16 5 2 6 1 7 3 8 11 10 9 11 10 12 5 13
REMARK SMILES IDX 6 14 7 15 8 16 4 17
REMARK H PARENT
REMARK Flexibility Score: 60.00
ROOT
ATOM      1  C   UNL     1      -7.741  34.055  23.441  1.00  0.00    -0.070 C 
ATOM      2  C   UNL     1      -7.902  34.816  24.550  1.00  0.00    -0.027 C 
ATOM      3  C   UNL     1      -7.714  34.765  22.109  1.00  0.00     0.039 C 
ENDROOT
BRANCH   2   4
ATOM      4  C   UNL     1      -7.853  34.333  25.980  1.00  0.00     0.032 C 
BRANCH   4   5
ATOM      5  C   UNL     1      -9.106  33.531  26.377  1.00  0.00     0.034 C 
BRANCH   5   6
ATOM      6  C   UNL     1      -8.761  32.148  26.895  1.00  0.00    -0.077 C 
ATOM      7  C   UNL     1      -7.866  32.040  28.103  1.00  0.00     0.039 C 
ATOM      8  C   UNL     1      -9.189  31.003  26.318  1.00  0.00    -0.023 CG0
ATOM      9  G   UNL     1     -10.058  30.905  25.087  1.00  0.00     0.000 G0
ENDBRANCH   5   6
ENDBRANCH   4   5
ENDBRANCH   2   4
BRANCH   1  10
ATOM     10  C   UNL     1      -7.524  32.552  23.473  1.00  0.00     0.111 C 
BRANCH  10  11
ATOM     11  C   UNL     1      -8.771  31.803  23.074  1.00  0.00     0.163 C 
ATOM     12  O   UNL     1      -9.430  32.229  22.087  1.00  0.00    -0.294 OA
BRANCH  11  13
ATOM     13  C   UNL     1      -9.262  30.617  23.843  1.00  0.00    -0.002 C 
ATOM     14  C   UNL     1      -8.931  29.340  23.486  1.00  0.00    -0.069 C 
ATOM     15  C   UNL     1      -7.990  29.057  22.336  1.00  0.00     0.039 C 
ATOM     16  C   UNL     1      -9.464  28.145  24.247  1.00  0.00     0.039 C 
BRANCH  13  17
ATOM     17  C   UNL     1     -10.087  30.896  25.088  1.00  0.00     0.066 CG0
ATOM     18  G   UNL     1      -9.180  30.995  26.291  1.00  0.00     0.000 G0
ENDBRANCH  13  17
ENDBRANCH  11  13
ENDBRANCH  10  11
ENDBRANCH   1  10
TORSDOF 0
ENDMDL
MODEL 4
REMARK VINA RESULT:    -4.982      1.521      2.574
REMARK INTER + INTRA:          -6.618
REMARK INTER:                  -7.261
REMARK INTRA:                   0.644
REMARK UNBOUND:                 0.402
REMARK SMILES CC1=CCC(=C(C)C)C(=O)CC(C)=CCC1
REMARK SMILES IDX 12 1 14 2 13 3 15 4 16 5 2 6 1 7 3 8 11 10 9 11 10 12 5 13
REMARK SMILES IDX 6 14 7 15 8 16 4 17
REMARK H PARENT
REMARK Flexibility Score: 60.00
ROOT
ATOM      1  C   UNL     1      -7.933  32.336  21.129  1.00  0.00    -0.070 C 
ATOM      2  C   UNL     1      -7.784  30.991  21.171  1.00  0.00    -0.027 C 
ATOM      3  C   UNL     1      -7.111  33.096  20.117  1.00  0.00     0.039 C 
ENDROOT
BRANCH   2   4
ATOM      4  C   UNL     1      -8.576  30.030  22.024  1.00  0.00     0.032 C 
BRANCH   4   5
ATOM      5  C   UNL     1      -7.900  29.744  23.378  1.00  0.00     0.034 C 
BRANCH   5   6
ATOM      6  C   UNL     1      -8.713  30.269  24.547  1.00  0.00    -0.077 C 
ATOM      7  C   UNL     1      -9.847  29.423  25.065  1.00  0.00     0.039 C 
ATOM      8  C   UNL     1      -8.493  31.466  25.135  1.00  0.00    -0.023 CG0
ATOM      9  G   UNL     1      -7.433  32.465  24.737  1.00  0.00     0.000 G0
ENDBRANCH   5   6
ENDBRANCH   4   5
ENDBRANCH   2   4
BRANCH   1  10
ATOM     10  C   UNL     1      -8.920  33.103  21.992  1.00  0.00     0.111 C 
BRANCH  10  11
ATOM     11  C   UNL     1      -8.218  34.074  22.909  1.00  0.00     0.163 C 
ATOM     12  O   UNL     1      -7.737  35.125  22.406  1.00  0.00    -0.294 OA
BRANCH  11  13
ATOM     13  C   UNL     1      -8.037  33.795  24.368  1.00  0.00    -0.002 C 
ATOM     14  C   UNL     1      -8.469  34.670  25.326  1.00  0.00    -0.069 C 
ATOM     15  C   UNL     1      -9.217  35.934  24.967  1.00  0.00     0.039 C 
ATOM     16  C   UNL     1      -8.248  34.399  26.799  1.00  0.00     0.039 C 
BRANCH  13  17
ATOM     17  C   UNL     1      -7.420  32.460  24.745  1.00  0.00     0.066 CG0
ATOM     18  G   UNL     1      -8.506  31.483  25.128  1.00  0.00     0.000 G0
ENDBRANCH  13  17
ENDBRANCH  11  13
ENDBRANCH  10  11
ENDBRANCH   1  10
TORSDOF 0
ENDMDL
MODEL 5
REMARK VINA RESULT:    -4.808      1.653      4.099
REMARK INTER + INTRA:          -6.373
REMARK INTER:                  -6.917
REMARK INTRA:                   0.544
REMARK UNBOUND:                 0.402
REMARK SMILES CC1=CCC(=C(C)C)C(=O)CC(C)=CCC1
REMARK SMILES IDX 12 1 14 2 13 3 15 4 16 5 2 6 1 7 3 8 11 10 9 11 10 12 5 13
REMARK SMILES IDX 6 14 7 15 8 16 4 17
REMARK H PARENT
REMARK Flexibility Score: 60.00
ROOT
ATOM      1  C   UNL     1      -8.312  34.116  25.554  1.00  0.00    -0.070 C 
ATOM      2  C   UNL     1      -8.231  33.673  26.831  1.00  0.00    -0.027 C 
ATOM      3  C   UNL     1      -7.527  35.355  25.196  1.00  0.00     0.039 C 
ENDROOT
BRANCH   2   4
ATOM      4  C   UNL     1      -8.843  32.406  27.378  1.00  0.00     0.032 C 
BRANCH   4   5
ATOM      5  C   UNL     1      -7.932  31.179  27.190  1.00  0.00     0.034 C 
BRANCH   5   6
ATOM      6  C   UNL     1      -8.624  30.062  26.432  1.00  0.00    -0.077 C 
ATOM      7  C   UNL     1      -9.630  29.215  27.168  1.00  0.00     0.039 C 
ATOM      8  C   UNL     1      -8.371  29.765  25.137  1.00  0.00    -0.023 CG0
ATOM      9  G   UNL     1      -7.376  30.472  24.247  1.00  0.00     0.000 G0
ENDBRANCH   5   6
ENDBRANCH   4   5
ENDBRANCH   2   4
BRANCH   1  10
ATOM     10  C   UNL     1      -9.090  33.404  24.460  1.00  0.00     0.111 C 
BRANCH  10  11
ATOM     11  C   UNL     1      -8.170  32.789  23.435  1.00  0.00     0.163 C 
ATOM     12  O   UNL     1      -7.466  33.561  22.730  1.00  0.00    -0.294 OA
BRANCH  11  13
ATOM     13  C   UNL     1      -8.117  31.311  23.204  1.00  0.00    -0.002 C 
ATOM     14  C   UNL     1      -8.646  30.740  22.080  1.00  0.00    -0.069 C 
ATOM     15  C   UNL     1      -9.248  31.577  20.973  1.00  0.00     0.039 C 
ATOM     16  C   UNL     1      -8.622  29.242  21.871  1.00  0.00     0.039 C 
BRANCH  13  17
ATOM     17  C   UNL     1      -7.383  30.477  24.238  1.00  0.00     0.066 CG0
ATOM     18  G   UNL     1      -8.378  29.770  25.127  1.00  0.00     0.000 G0
ENDBRANCH  13  17
ENDBRANCH  11  13
ENDBRANCH  10  11
ENDBRANCH   1  10
TORSDOF 0
ENDMDL
MODEL 6
REMARK VINA RESULT:    -4.747      1.413      1.700
REMARK INTER + INTRA:          -6.287
REMARK INTER:                  -6.948
REMARK INTRA:                   0.661
REMARK UNBOUND:                 0.402
REMARK SMILES CC1=CCC(=C(C)C)C(=O)CC(C)=CCC1
REMARK SMILES IDX 12 1 14 2 13 3 15 4 16 5 2 6 1 7 3 8 11 10 9 11 10 12 5 13
REMARK SMILES IDX 6 14 7 15 8 16 4 17
REMARK H PARENT
REMARK Flexibility Score: 60.00
ROOT
ATOM      1  C   UNL     1      -8.477  33.709  22.990  1.00  0.00    -0.070 C 
ATOM      2  C   UNL     1      -7.925  33.293  21.826  1.00  0.00    -0.027 C 
ATOM      3  C   UNL     1      -8.242  35.143  23.397  1.00  0.00     0.039 C 
ENDROOT
BRANCH   2   4
ATOM      4  C   UNL     1      -8.116  31.942  21.179  1.00  0.00     0.032 C 
BRANCH   4   5
ATOM      5  C   UNL     1      -7.171  30.870  21.753  1.00  0.00     0.034 C 
BRANCH   5   6
ATOM      6  C   UNL     1      -7.925  29.769  22.474  1.00  0.00    -0.077 C 
ATOM      7  C   UNL     1      -8.706  28.778  21.649  1.00  0.00     0.039 C 
ATOM      8  C   UNL     1      -7.959  29.639  23.819  1.00  0.00    -0.023 CG0
ATOM      9  G   UNL     1      -7.274  30.549  24.811  1.00  0.00     0.000 G0
ENDBRANCH   5   6
ENDBRANCH   4   5
ENDBRANCH   2   4
BRANCH   1  10
ATOM     10  C   UNL     1      -9.363  32.837  23.864  1.00  0.00     0.111 C 
BRANCH  10  11
ATOM     11  C   UNL     1      -8.754  32.617  25.227  1.00  0.00     0.163 C 
ATOM     12  O   UNL     1      -8.596  33.618  25.976  1.00  0.00    -0.294 OA
BRANCH  11  13
ATOM     13  C   UNL     1      -8.293  31.267  25.679  1.00  0.00    -0.002 C 
ATOM     14  C   UNL     1      -8.818  30.662  26.788  1.00  0.00    -0.069 C 
ATOM     15  C   UNL     1      -9.944  31.292  27.576  1.00  0.00     0.039 C 
ATOM     16  C   UNL     1      -8.319  29.314  27.260  1.00  0.00     0.039 C 
BRANCH  13  17
ATOM     17  C   UNL     1      -7.268  30.561  24.810  1.00  0.00     0.066 CG0
ATOM     18  G   UNL     1      -7.968  29.653  23.827  1.00  0.00     0.000 G0
ENDBRANCH  13  17
ENDBRANCH  11  13
ENDBRANCH  10  11
ENDBRANCH   1  10
TORSDOF 0
ENDMDL
MODEL 7
REMARK VINA RESULT:    -4.666      2.075      5.377
REMARK INTER + INTRA:          -6.173
REMARK INTER:                  -6.752
REMARK INTRA:                   0.579
REMARK UNBOUND:                 0.402
REMARK SMILES CC1=CCC(=C(C)C)C(=O)CC(C)=CCC1
REMARK SMILES IDX 12 1 14 2 13 3 15 4 16 5 2 6 1 7 3 8 11 10 9 11 10 12 5 13
REMARK SMILES IDX 6 14 7 15 8 16 4 17
REMARK H PARENT
REMARK Flexibility Score: 60.00
ROOT
ATOM      1  C   UNL     1      -9.234  30.834  25.864  1.00  0.00    -0.070 C 
ATOM      2  C   UNL     1      -8.889  31.695  26.851  1.00  0.00    -0.027 C 
ATOM      3  C   UNL     1      -9.115  29.358  26.156  1.00  0.00     0.039 C 
ENDROOT
BRANCH   2   4
ATOM      4  C   UNL     1      -9.029  33.198  26.815  1.00  0.00     0.032 C 
BRANCH   4   5
ATOM      5  C   UNL     1      -7.820  33.889  26.157  1.00  0.00     0.034 C 
BRANCH   5   6
ATOM      6  C   UNL     1      -8.204  34.627  24.888  1.00  0.00    -0.077 C 
ATOM      7  C   UNL     1      -8.953  35.928  25.017  1.00  0.00     0.039 C 
ATOM      8  C   UNL     1      -7.934  34.171  23.644  1.00  0.00    -0.023 CG0
ATOM      9  G   UNL     1      -7.228  32.878  23.312  1.00  0.00     0.000 G0
ENDBRANCH   5   6
ENDBRANCH   4   5
ENDBRANCH   2   4
BRANCH   1  10
ATOM     10  C   UNL     1      -9.789  31.270  24.519  1.00  0.00     0.111 C 
BRANCH  10  11
ATOM     11  C   UNL     1      -8.862  30.899  23.389  1.00  0.00     0.163 C 
ATOM     12  O   UNL     1      -8.649  29.676  23.172  1.00  0.00    -0.294 OA
BRANCH  11  13
ATOM     13  C   UNL     1      -8.159  31.935  22.569  1.00  0.00    -0.002 C 
ATOM     14  C   UNL     1      -8.398  32.076  21.230  1.00  0.00    -0.069 C 
ATOM     15  C   UNL     1      -9.438  31.241  20.518  1.00  0.00     0.039 C 
ATOM     16  C   UNL     1      -7.655  33.101  20.400  1.00  0.00     0.039 C 
BRANCH  13  17
ATOM     17  C   UNL     1      -7.221  32.877  23.303  1.00  0.00     0.066 CG0
ATOM     18  G   UNL     1      -7.947  34.157  23.646  1.00  0.00     0.000 G0
ENDBRANCH  13  17
ENDBRANCH  11  13
ENDBRANCH  10  11
ENDBRANCH   1  10
TORSDOF 0
ENDMDL
MODEL 8
REMARK VINA RESULT:    -4.634      1.805      3.355
REMARK INTER + INTRA:          -6.129
REMARK INTER:                  -6.959
REMARK INTRA:                   0.830
REMARK UNBOUND:                 0.402
REMARK SMILES CC1=CCC(=C(C)C)C(=O)CC(C)=CCC1
REMARK SMILES IDX 12 1 14 2 13 3 15 4 16 5 2 6 1 7 3 8 11 10 9 11 10 12 5 13
REMARK SMILES IDX 6 14 7 15 8 16 4 17
REMARK H PARENT
REMARK Flexibility Score: 60.00
ROOT
ATOM      1  C   UNL     1      -7.490  30.423  22.655  1.00  0.00    -0.070 C 
ATOM      2  C   UNL     1      -7.171  31.313  21.684  1.00  0.00    -0.027 C 
ATOM      3  C   UNL     1      -6.385  29.984  23.584  1.00  0.00     0.039 C 
ENDROOT
BRANCH   2   4
ATOM      4  C   UNL     1      -8.133  31.963  20.718  1.00  0.00     0.032 C 
BRANCH   4   5
ATOM      5  C   UNL     1      -9.199  32.817  21.429  1.00  0.00     0.034 C 
BRANCH   5   6
ATOM      6  C   UNL     1      -8.612  33.645  22.557  1.00  0.00    -0.077 C 
ATOM      7  C   UNL     1      -7.568  34.678  22.217  1.00  0.00     0.039 C 
ATOM      8  C   UNL     1      -8.953  33.491  23.856  1.00  0.00    -0.023 CG0
ATOM      9  G   UNL     1      -9.947  32.490  24.395  1.00  0.00     0.000 G0
ENDBRANCH   5   6
ENDBRANCH   4   5
ENDBRANCH   2   4
BRANCH   1  10
ATOM     10  C   UNL     1      -8.896  29.902  22.894  1.00  0.00     0.111 C 
BRANCH  10  11
ATOM     11  C   UNL     1      -9.295  30.026  24.343  1.00  0.00     0.163 C 
ATOM     12  O   UNL     1      -9.720  28.995  24.933  1.00  0.00    -0.294 OA
BRANCH  11  13
ATOM     13  C   UNL     1      -9.251  31.334  25.068  1.00  0.00    -0.002 C 
ATOM     14  C   UNL     1      -8.552  31.487  26.234  1.00  0.00    -0.069 C 
ATOM     15  C   UNL     1      -7.726  30.362  26.816  1.00  0.00     0.039 C 
ATOM     16  C   UNL     1      -8.544  32.803  26.981  1.00  0.00     0.039 C 
BRANCH  13  17
ATOM     17  C   UNL     1      -9.955  32.510  24.414  1.00  0.00     0.066 CG0
ATOM     18  G   UNL     1      -8.934  33.474  23.859  1.00  0.00     0.000 G0
ENDBRANCH  13  17
ENDBRANCH  11  13
ENDBRANCH  10  11
ENDBRANCH   1  10
TORSDOF 0
ENDMDL
MODEL 9
REMARK VINA RESULT:    -4.318      1.792      3.297
REMARK INTER + INTRA:          -5.683
REMARK INTER:                  -6.960
REMARK INTRA:                   1.277
REMARK UNBOUND:                 0.402
REMARK SMILES CC1=CCC(=C(C)C)C(=O)CC(C)=CCC1
REMARK SMILES IDX 12 1 14 2 13 3 15 4 16 5 2 6 1 7 3 8 11 10 9 11 10 12 5 13
REMARK SMILES IDX 6 14 7 15 8 16 4 17
REMARK H PARENT
REMARK Flexibility Score: 60.00
ROOT
ATOM      1  C   UNL     1      -8.062  30.194  23.698  1.00  0.00    -0.070 C 
ATOM      2  C   UNL     1      -7.913  30.081  22.356  1.00  0.00    -0.027 C 
ATOM      3  C   UNL     1      -6.813  30.396  24.521  1.00  0.00     0.039 C 
ENDROOT
BRANCH   2   4
ATOM      4  C   UNL     1      -9.025  29.980  21.339  1.00  0.00     0.032 C 
BRANCH   4   5
ATOM      5  C   UNL     1      -9.447  31.353  20.785  1.00  0.00     0.034 C 
BRANCH   5   6
ATOM      6  C   UNL     1      -8.504  32.460  21.218  1.00  0.00    -0.077 C 
ATOM      7  C   UNL     1      -7.263  32.704  20.398  1.00  0.00     0.039 C 
ATOM      8  C   UNL     1      -8.700  33.225  22.316  1.00  0.00    -0.023 CG0
ATOM      9  G   UNL     1      -9.857  33.109  23.278  1.00  0.00     0.000 G0
ENDBRANCH   5   6
ENDBRANCH   4   5
ENDBRANCH   2   4
BRANCH   1  10
ATOM     10  C   UNL     1      -9.408  30.194  24.401  1.00  0.00     0.111 C 
BRANCH  10  11
ATOM     11  C   UNL     1      -9.600  31.437  25.233  1.00  0.00     0.163 C 
ATOM     12  O   UNL     1     -10.039  31.303  26.408  1.00  0.00    -0.294 OA
BRANCH  11  13
ATOM     13  C   UNL     1      -9.339  32.805  24.686  1.00  0.00    -0.002 C 
ATOM     14  C   UNL     1      -8.608  33.729  25.380  1.00  0.00    -0.069 C 
ATOM     15  C   UNL     1      -7.963  33.396  26.707  1.00  0.00     0.039 C 
ATOM     16  C   UNL     1      -8.380  35.123  24.837  1.00  0.00     0.039 C 
BRANCH  13  17
ATOM     17  C   UNL     1      -9.856  33.100  23.290  1.00  0.00     0.066 CG0
ATOM     18  G   UNL     1      -8.697  33.218  22.328  1.00  0.00     0.000 G0
ENDBRANCH  13  17
ENDBRANCH  11  13
ENDBRANCH  10  11
ENDBRANCH   1  10
TORSDOF 0
ENDMDL
