MODEL 1
REMARK VINA RESULT:     0.489      0.000      0.000
REMARK INTER + INTRA:           2.626
REMARK INTER:                   0.718
REMARK INTRA:                   1.908
REMARK UNBOUND:                 1.908
REMARK SMILES Cc1cc2c(C(C)C)c(O)c(O)c(C=O)c2c(O)c1-c1c(C)cc2c(C(C)C)c(O)c(O)c(C=O)c2c1O
REMARK SMILES IDX 1 1 2 2 3 3 4 4 16 5 13 6 11 7 9 8 5 9 17 10 19 11 20 12
REMARK SMILES IDX 37 13 21 14 36 15 23 16 22 17 24 18 33 19 25 20 31 21 29 22
REMARK SMILES IDX 38 23 34 25 35 26 26 27 27 28 28 29 32 30 30 32 18 34 6 36
REMARK SMILES IDX 7 37 8 38 14 39 15 40 10 41 12 43
REMARK H PARENT 38 24 32 31 30 33 18 35 10 42 12 44
REMARK Flexibility Score: inf
ROOT
ATOM      1  C   UNL     1      79.834 -27.113  88.548  1.00  0.00     0.045 C 
ATOM      2  C   UNL     1      80.984 -26.333  87.959  1.00  0.00    -0.039 A 
ATOM      3  C   UNL     1      82.031 -25.929  88.788  1.00  0.00     0.013 A 
ATOM      4  C   UNL     1      83.117 -25.166  88.304  1.00  0.00    -0.006 A 
ATOM      5  C   UNL     1      83.200 -24.902  86.902  1.00  0.00     0.039 A 
ATOM      6  C   UNL     1      84.343 -24.208  86.398  1.00  0.00     0.072 A 
ATOM      7  C   UNL     1      85.408 -23.886  87.265  1.00  0.00     0.169 A 
ATOM      8  C   UNL     1      85.325 -24.178  88.630  1.00  0.00     0.162 A 
ATOM      9  C   UNL     1      84.139 -24.699  89.187  1.00  0.00     0.008 A 
ATOM     10  C   UNL     1      82.159 -25.378  86.047  1.00  0.00     0.132 A 
ATOM     11  C   UNL     1      81.043 -26.053  86.585  1.00  0.00     0.031 A 
ENDROOT
BRANCH  11  12
ATOM     12  C   UNL     1      79.935 -26.497  85.695  1.00  0.00     0.031 A 
ATOM     13  C   UNL     1      78.662 -25.896  85.789  1.00  0.00     0.132 A 
ATOM     14  C   UNL     1      80.169 -27.505  84.746  1.00  0.00    -0.039 A 
ATOM     15  C   UNL     1      77.616 -26.280  84.897  1.00  0.00     0.039 A 
ATOM     16  C   UNL     1      79.118 -27.955  83.947  1.00  0.00     0.013 A 
ATOM     17  C   UNL     1      81.533 -28.135  84.601  1.00  0.00     0.045 C 
ATOM     18  C   UNL     1      77.820 -27.407  84.046  1.00  0.00    -0.006 A 
ATOM     19  C   UNL     1      76.369 -25.587  84.837  1.00  0.00     0.072 A 
ATOM     20  C   UNL     1      76.732 -27.943  83.291  1.00  0.00     0.008 A 
ATOM     21  C   UNL     1      75.369 -26.021  83.941  1.00  0.00     0.169 A 
ATOM     22  C   UNL     1      75.547 -27.186  83.187  1.00  0.00     0.162 A 
BRANCH  13  23
ATOM     23  O   UNL     1      78.428 -24.939  86.784  1.00  0.00    -0.507 OA
ATOM     24  H   UNL     1      79.076 -24.197  87.016  1.00  0.00     0.293 HD
ENDBRANCH  13  23
BRANCH  19  25
ATOM     25  C   UNL     1      76.123 -24.357  85.617  1.00  0.00     0.264 C 
ATOM     26  O   UNL     1      75.913 -23.259  85.035  1.00  0.00    -0.298 OA
ENDBRANCH  19  25
BRANCH  20  27
ATOM     27  C   UNL     1      76.833 -29.306  82.584  1.00  0.00     0.017 C 
ATOM     28  C   UNL     1      77.537 -30.334  83.476  1.00  0.00     0.012 C 
ATOM     29  C   UNL     1      77.484 -29.234  81.190  1.00  0.00     0.012 C 
ENDBRANCH  20  27
BRANCH  21  30
ATOM     30  O   UNL     1      74.183 -25.298  83.760  1.00  0.00    -0.504 OA
ATOM     31  H   UNL     1      73.694 -25.223  82.878  1.00  0.00     0.293 HD
ENDBRANCH  21  30
BRANCH  22  32
ATOM     32  O   UNL     1      74.543 -27.583  82.299  1.00  0.00    -0.504 OA
ATOM     33  H   UNL     1      74.727 -28.111  81.456  1.00  0.00     0.293 HD
ENDBRANCH  22  32
ENDBRANCH  11  12
BRANCH  10  34
ATOM     34  O   UNL     1      82.244 -25.207  84.660  1.00  0.00    -0.507 OA
ATOM     35  H   UNL     1      82.323 -24.307  84.203  1.00  0.00     0.293 HD
ENDBRANCH  10  34
BRANCH   9  36
ATOM     36  C   UNL     1      83.983 -24.765  90.718  1.00  0.00     0.017 C 
ATOM     37  C   UNL     1      85.214 -24.183  91.419  1.00  0.00     0.012 C 
ATOM     38  C   UNL     1      82.684 -24.119  91.241  1.00  0.00     0.012 C 
ENDBRANCH   9  36
BRANCH   6  39
ATOM     39  C   UNL     1      84.445 -23.798  84.981  1.00  0.00     0.264 C 
ATOM     40  O   UNL     1      83.586 -23.031  84.468  1.00  0.00    -0.298 OA
ENDBRANCH   6  39
BRANCH   8  41
ATOM     41  O   UNL     1      86.432 -23.937  89.447  1.00  0.00    -0.504 OA
ATOM     42  H   UNL     1      86.938 -23.060  89.449  1.00  0.00     0.293 HD
ENDBRANCH   8  41
BRANCH   7  43
ATOM     43  O   UNL     1      86.559 -23.233  86.808  1.00  0.00    -0.504 OA
ATOM     44  H   UNL     1      86.899 -22.355  87.175  1.00  0.00     0.293 HD
ENDBRANCH   7  43
TORSDOF 11
ENDMDL
MODEL 2
REMARK VINA RESULT:     0.892      1.924      8.917
REMARK INTER + INTRA:           3.218
REMARK INTER:                   0.326
REMARK INTRA:                   2.892
REMARK UNBOUND:                 1.908
REMARK SMILES Cc1cc2c(C(C)C)c(O)c(O)c(C=O)c2c(O)c1-c1c(C)cc2c(C(C)C)c(O)c(O)c(C=O)c2c1O
REMARK SMILES IDX 1 1 2 2 3 3 4 4 16 5 13 6 11 7 9 8 5 9 17 10 19 11 20 12
REMARK SMILES IDX 37 13 21 14 36 15 23 16 22 17 24 18 33 19 25 20 31 21 29 22
REMARK SMILES IDX 38 23 34 25 35 26 26 27 27 28 28 29 32 30 30 32 18 34 6 36
REMARK SMILES IDX 7 37 8 38 14 39 15 40 10 41 12 43
REMARK H PARENT 38 24 32 31 30 33 18 35 10 42 12 44
REMARK Flexibility Score: inf
ROOT
ATOM      1  C   UNL     1      79.757 -22.738  86.757  1.00  0.00     0.045 C 
ATOM      2  C   UNL     1      79.382 -24.040  86.091  1.00  0.00    -0.039 A 
ATOM      3  C   UNL     1      78.085 -24.209  85.605  1.00  0.00     0.013 A 
ATOM      4  C   UNL     1      77.664 -25.416  85.005  1.00  0.00    -0.006 A 
ATOM      5  C   UNL     1      78.628 -26.450  84.789  1.00  0.00     0.039 A 
ATOM      6  C   UNL     1      78.224 -27.636  84.102  1.00  0.00     0.072 A 
ATOM      7  C   UNL     1      76.923 -27.728  83.565  1.00  0.00     0.169 A 
ATOM      8  C   UNL     1      76.000 -26.697  83.759  1.00  0.00     0.162 A 
ATOM      9  C   UNL     1      76.310 -25.594  84.583  1.00  0.00     0.008 A 
ATOM     10  C   UNL     1      79.972 -26.243  85.228  1.00  0.00     0.132 A 
ATOM     11  C   UNL     1      80.328 -25.060  85.909  1.00  0.00     0.031 A 
ENDROOT
BRANCH  11  12
ATOM     12  C   UNL     1      81.716 -24.874  86.413  1.00  0.00     0.031 A 
ATOM     13  C   UNL     1      81.953 -24.661  87.788  1.00  0.00     0.132 A 
ATOM     14  C   UNL     1      82.794 -24.934  85.516  1.00  0.00    -0.039 A 
ATOM     15  C   UNL     1      83.287 -24.542  88.281  1.00  0.00     0.039 A 
ATOM     16  C   UNL     1      84.091 -24.712  85.981  1.00  0.00     0.013 A 
ATOM     17  C   UNL     1      82.570 -25.201  84.047  1.00  0.00     0.045 C 
ATOM     18  C   UNL     1      84.358 -24.450  87.343  1.00  0.00    -0.006 A 
ATOM     19  C   UNL     1      83.586 -24.496  89.676  1.00  0.00     0.072 A 
ATOM     20  C   UNL     1      85.677 -24.128  87.788  1.00  0.00     0.008 A 
ATOM     21  C   UNL     1      84.925 -24.367  90.101  1.00  0.00     0.169 A 
ATOM     22  C   UNL     1      85.952 -24.178  89.171  1.00  0.00     0.162 A 
BRANCH  13  23
ATOM     23  O   UNL     1      80.863 -24.539  88.659  1.00  0.00    -0.507 OA
ATOM     24  H   UNL     1      80.524 -23.655  89.019  1.00  0.00     0.293 HD
ENDBRANCH  13  23
BRANCH  19  25
ATOM     25  C   UNL     1      82.541 -24.682  90.704  1.00  0.00     0.264 C 
ATOM     26  O   UNL     1      82.235 -23.743  91.485  1.00  0.00    -0.298 OA
ENDBRANCH  19  25
BRANCH  20  27
ATOM     27  C   UNL     1      86.794 -23.749  86.799  1.00  0.00     0.017 C 
ATOM     28  C   UNL     1      86.740 -24.633  85.549  1.00  0.00     0.012 C 
ATOM     29  C   UNL     1      88.201 -23.747  87.425  1.00  0.00     0.012 C 
ENDBRANCH  20  27
BRANCH  21  30
ATOM     30  O   UNL     1      85.274 -24.444  91.456  1.00  0.00    -0.504 OA
ATOM     31  H   UNL     1      86.219 -24.578  91.791  1.00  0.00     0.293 HD
ENDBRANCH  21  30
BRANCH  22  32
ATOM     32  O   UNL     1      87.270 -24.066  89.623  1.00  0.00    -0.504 OA
ATOM     33  H   UNL     1      87.807 -23.212  89.554  1.00  0.00     0.293 HD
ENDBRANCH  22  32
ENDBRANCH  11  12
BRANCH  10  34
ATOM     34  O   UNL     1      80.961 -27.197  84.964  1.00  0.00    -0.507 OA
ATOM     35  H   UNL     1      81.674 -27.093  84.252  1.00  0.00     0.293 HD
ENDBRANCH  10  34
BRANCH   9  36
ATOM     36  C   UNL     1      75.196 -24.612  84.990  1.00  0.00     0.017 C 
ATOM     37  C   UNL     1      74.899 -23.623  83.858  1.00  0.00     0.012 C 
ATOM     38  C   UNL     1      73.908 -25.299  85.484  1.00  0.00     0.012 C 
ENDBRANCH   9  36
BRANCH   6  39
ATOM     39  C   UNL     1      79.132 -28.792  83.943  1.00  0.00     0.264 C 
ATOM     40  O   UNL     1      79.659 -29.051  82.828  1.00  0.00    -0.298 OA
ENDBRANCH   6  39
BRANCH   8  41
ATOM     41  O   UNL     1      74.753 -26.771  83.135  1.00  0.00    -0.504 OA
ATOM     42  H   UNL     1      73.980 -27.312  83.504  1.00  0.00     0.293 HD
ENDBRANCH   8  41
BRANCH   7  43
ATOM     43  O   UNL     1      76.496 -28.860  82.860  1.00  0.00    -0.504 OA
ATOM     44  H   UNL     1      76.888 -29.784  82.975  1.00  0.00     0.293 HD
ENDBRANCH   7  43
TORSDOF 11
ENDMDL
MODEL 3
REMARK VINA RESULT:     0.897      1.948      4.298
REMARK INTER + INTRA:           3.224
REMARK INTER:                   1.481
REMARK INTRA:                   1.743
REMARK UNBOUND:                 1.908
REMARK SMILES Cc1cc2c(C(C)C)c(O)c(O)c(C=O)c2c(O)c1-c1c(C)cc2c(C(C)C)c(O)c(O)c(C=O)c2c1O
REMARK SMILES IDX 1 1 2 2 3 3 4 4 16 5 13 6 11 7 9 8 5 9 17 10 19 11 20 12
REMARK SMILES IDX 37 13 21 14 36 15 23 16 22 17 24 18 33 19 25 20 31 21 29 22
REMARK SMILES IDX 38 23 34 25 35 26 26 27 27 28 28 29 32 30 30 32 18 34 6 36
REMARK SMILES IDX 7 37 8 38 14 39 15 40 10 41 12 43
REMARK H PARENT 38 24 32 31 30 33 18 35 10 42 12 44
REMARK Flexibility Score: inf
ROOT
ATOM      1  C   UNL     1      82.681 -24.066  84.184  1.00  0.00     0.045 C 
ATOM      2  C   UNL     1      83.022 -24.226  85.645  1.00  0.00    -0.039 A 
ATOM      3  C   UNL     1      84.322 -23.956  86.077  1.00  0.00     0.013 A 
ATOM      4  C   UNL     1      84.712 -24.121  87.424  1.00  0.00    -0.006 A 
ATOM      5  C   UNL     1      83.716 -24.464  88.391  1.00  0.00     0.039 A 
ATOM      6  C   UNL     1      84.091 -24.544  89.767  1.00  0.00     0.072 A 
ATOM      7  C   UNL     1      85.398 -24.190  90.161  1.00  0.00     0.169 A 
ATOM      8  C   UNL     1      86.354 -23.828  89.207  1.00  0.00     0.162 A 
ATOM      9  C   UNL     1      86.067 -23.912  87.828  1.00  0.00     0.008 A 
ATOM     10  C   UNL     1      82.372 -24.673  87.953  1.00  0.00     0.132 A 
ATOM     11  C   UNL     1      82.044 -24.591  86.583  1.00  0.00     0.031 A 
ENDROOT
BRANCH  11  12
ATOM     12  C   UNL     1      80.654 -24.865  86.127  1.00  0.00     0.031 A 
ATOM     13  C   UNL     1      80.383 -25.966  85.287  1.00  0.00     0.132 A 
ATOM     14  C   UNL     1      79.607 -24.033  86.556  1.00  0.00    -0.039 A 
ATOM     15  C   UNL     1      79.042 -26.263  84.898  1.00  0.00     0.039 A 
ATOM     16  C   UNL     1      78.312 -24.260  86.089  1.00  0.00     0.013 A 
ATOM     17  C   UNL     1      79.867 -22.873  87.487  1.00  0.00     0.045 C 
ATOM     18  C   UNL     1      78.013 -25.325  85.211  1.00  0.00    -0.006 A 
ATOM     19  C   UNL     1      78.696 -27.456  84.194  1.00  0.00     0.072 A 
ATOM     20  C   UNL     1      76.704 -25.488  84.665  1.00  0.00     0.008 A 
ATOM     21  C   UNL     1      77.355 -27.689  83.827  1.00  0.00     0.169 A 
ATOM     22  C   UNL     1      76.376 -26.715  84.053  1.00  0.00     0.162 A 
BRANCH  13  23
ATOM     23  O   UNL     1      81.446 -26.746  84.817  1.00  0.00    -0.507 OA
ATOM     24  H   UNL     1      81.384 -27.743  84.650  1.00  0.00     0.293 HD
ENDBRANCH  13  23
BRANCH  19  25
ATOM     25  C   UNL     1      79.690 -28.515  83.921  1.00  0.00     0.264 C 
ATOM     26  O   UNL     1      80.119 -28.706  82.752  1.00  0.00    -0.298 OA
ENDBRANCH  19  25
BRANCH  20  27
ATOM     27  C   UNL     1      75.650 -24.368  84.746  1.00  0.00     0.017 C 
ATOM     28  C   UNL     1      74.404 -24.845  85.499  1.00  0.00     0.012 C 
ATOM     29  C   UNL     1      75.282 -23.763  83.379  1.00  0.00     0.012 C 
ENDBRANCH  20  27
BRANCH  21  30
ATOM     30  O   UNL     1      76.952 -28.900  83.249  1.00  0.00    -0.504 OA
ATOM     31  H   UNL     1      77.216 -29.199  82.319  1.00  0.00     0.293 HD
ENDBRANCH  21  30
BRANCH  22  32
ATOM     32  O   UNL     1      75.053 -26.981  83.689  1.00  0.00    -0.504 OA
ATOM     33  H   UNL     1      74.752 -27.867  83.305  1.00  0.00     0.293 HD
ENDBRANCH  22  32
ENDBRANCH  11  12
BRANCH  10  34
ATOM     34  O   UNL     1      81.355 -24.932  88.879  1.00  0.00    -0.507 OA
ATOM     35  H   UNL     1      81.484 -25.471  89.727  1.00  0.00     0.293 HD
ENDBRANCH  10  34
BRANCH   9  36
ATOM     36  C   UNL     1      87.207 -23.761  86.803  1.00  0.00     0.017 C 
ATOM     37  C   UNL     1      88.565 -24.039  87.453  1.00  0.00     0.012 C 
ATOM     38  C   UNL     1      87.013 -24.604  85.527  1.00  0.00     0.012 C 
ENDBRANCH   9  36
BRANCH   6  39
ATOM     39  C   UNL     1      83.146 -25.004  90.807  1.00  0.00     0.264 C 
ATOM     40  O   UNL     1      82.684 -24.200  91.660  1.00  0.00    -0.298 OA
ENDBRANCH   6  39
BRANCH   8  41
ATOM     41  O   UNL     1      87.609 -23.388  89.632  1.00  0.00    -0.504 OA
ATOM     42  H   UNL     1      88.368 -23.179  88.994  1.00  0.00     0.293 HD
ENDBRANCH   8  41
BRANCH   7  43
ATOM     43  O   UNL     1      85.799 -24.226  91.502  1.00  0.00    -0.504 OA
ATOM     44  H   UNL     1      86.557 -23.678  91.884  1.00  0.00     0.293 HD
ENDBRANCH   7  43
TORSDOF 11
ENDMDL
MODEL 4
REMARK VINA RESULT:     0.948      1.510      3.031
REMARK INTER + INTRA:           3.300
REMARK INTER:                   2.063
REMARK INTRA:                   1.237
REMARK UNBOUND:                 1.908
REMARK SMILES Cc1cc2c(C(C)C)c(O)c(O)c(C=O)c2c(O)c1-c1c(C)cc2c(C(C)C)c(O)c(O)c(C=O)c2c1O
REMARK SMILES IDX 1 1 2 2 3 3 4 4 16 5 13 6 11 7 9 8 5 9 17 10 19 11 20 12
REMARK SMILES IDX 37 13 21 14 36 15 23 16 22 17 24 18 33 19 25 20 31 21 29 22
REMARK SMILES IDX 38 23 34 25 35 26 26 27 27 28 28 29 32 30 30 32 18 34 6 36
REMARK SMILES IDX 7 37 8 38 14 39 15 40 10 41 12 43
REMARK H PARENT 38 24 32 31 30 33 18 35 10 42 12 44
REMARK Flexibility Score: inf
ROOT
ATOM      1  C   UNL     1      79.573 -26.751  88.779  1.00  0.00     0.045 C 
ATOM      2  C   UNL     1      80.711 -26.037  88.091  1.00  0.00    -0.039 A 
ATOM      3  C   UNL     1      81.869 -25.744  88.813  1.00  0.00     0.013 A 
ATOM      4  C   UNL     1      82.952 -25.046  88.236  1.00  0.00    -0.006 A 
ATOM      5  C   UNL     1      82.906 -24.736  86.841  1.00  0.00     0.039 A 
ATOM      6  C   UNL     1      84.039 -24.110  86.236  1.00  0.00     0.072 A 
ATOM      7  C   UNL     1      85.212 -23.901  86.990  1.00  0.00     0.169 A 
ATOM      8  C   UNL     1      85.254 -24.238  88.347  1.00  0.00     0.162 A 
ATOM      9  C   UNL     1      84.096 -24.690  89.015  1.00  0.00     0.008 A 
ATOM     10  C   UNL     1      81.745 -25.100  86.091  1.00  0.00     0.132 A 
ATOM     11  C   UNL     1      80.643 -25.710  86.728  1.00  0.00     0.031 A 
ENDROOT
BRANCH  11  12
ATOM     12  C   UNL     1      79.416 -26.036  85.953  1.00  0.00     0.031 A 
ATOM     13  C   UNL     1      79.441 -27.048  84.970  1.00  0.00     0.132 A 
ATOM     14  C   UNL     1      78.223 -25.345  86.219  1.00  0.00    -0.039 A 
ATOM     15  C   UNL     1      78.250 -27.402  84.267  1.00  0.00     0.039 A 
ATOM     16  C   UNL     1      77.085 -25.616  85.458  1.00  0.00     0.013 A 
ATOM     17  C   UNL     1      78.161 -24.285  87.293  1.00  0.00     0.045 C 
ATOM     18  C   UNL     1      77.089 -26.591  84.436  1.00  0.00    -0.006 A 
ATOM     19  C   UNL     1      78.184 -28.527  83.391  1.00  0.00     0.072 A 
ATOM     20  C   UNL     1      75.947 -26.790  83.601  1.00  0.00     0.008 A 
ATOM     21  C   UNL     1      76.981 -28.820  82.716  1.00  0.00     0.169 A 
ATOM     22  C   UNL     1      75.882 -27.959  82.815  1.00  0.00     0.162 A 
BRANCH  13  23
ATOM     23  O   UNL     1      80.654 -27.683  84.672  1.00  0.00    -0.507 OA
ATOM     24  H   UNL     1      80.949 -27.924  83.734  1.00  0.00     0.293 HD
ENDBRANCH  13  23
BRANCH  19  25
ATOM     25  C   UNL     1      79.316 -29.466  83.242  1.00  0.00     0.264 C 
ATOM     26  O   UNL     1      79.186 -30.681  83.547  1.00  0.00    -0.298 OA
ENDBRANCH  19  25
BRANCH  20  27
ATOM     27  C   UNL     1      74.791 -25.774  83.557  1.00  0.00     0.017 C 
ATOM     28  C   UNL     1      75.325 -24.339  83.539  1.00  0.00     0.012 C 
ATOM     29  C   UNL     1      73.750 -25.972  84.675  1.00  0.00     0.012 C 
ENDBRANCH  20  27
BRANCH  21  30
ATOM     30  O   UNL     1      76.835 -29.982  81.948  1.00  0.00    -0.504 OA
ATOM     31  H   UNL     1      76.243 -30.051  81.131  1.00  0.00     0.293 HD
ENDBRANCH  21  30
BRANCH  22  32
ATOM     32  O   UNL     1      74.700 -28.283  82.144  1.00  0.00    -0.504 OA
ATOM     33  H   UNL     1      74.128 -27.597  81.668  1.00  0.00     0.293 HD
ENDBRANCH  22  32
ENDBRANCH  11  12
BRANCH  10  34
ATOM     34  O   UNL     1      81.694 -24.884  84.709  1.00  0.00    -0.507 OA
ATOM     35  H   UNL     1      80.907 -24.464  84.229  1.00  0.00     0.293 HD
ENDBRANCH  10  34
BRANCH   9  36
ATOM     36  C   UNL     1      84.100 -24.803  90.551  1.00  0.00     0.017 C 
ATOM     37  C   UNL     1      85.419 -24.285  91.133  1.00  0.00     0.012 C 
ATOM     38  C   UNL     1      82.889 -24.133  91.229  1.00  0.00     0.012 C 
ENDBRANCH   9  36
BRANCH   6  39
ATOM     39  C   UNL     1      84.020 -23.655  84.829  1.00  0.00     0.264 C 
ATOM     40  O   UNL     1      83.268 -22.712  84.466  1.00  0.00    -0.298 OA
ENDBRANCH   6  39
BRANCH   8  41
ATOM     41  O   UNL     1      86.457 -24.112  89.044  1.00  0.00    -0.504 OA
ATOM     42  H   UNL     1      87.286 -24.647  88.819  1.00  0.00     0.293 HD
ENDBRANCH   8  41
BRANCH   7  43
ATOM     43  O   UNL     1      86.355 -23.319  86.429  1.00  0.00    -0.504 OA
ATOM     44  H   UNL     1      86.724 -23.552  85.518  1.00  0.00     0.293 HD
ENDBRANCH   7  43
TORSDOF 11
ENDMDL
MODEL 5
REMARK VINA RESULT:     1.646      1.480      2.902
REMARK INTER + INTRA:           4.323
REMARK INTER:                   2.905
REMARK INTRA:                   1.419
REMARK UNBOUND:                 1.908
REMARK SMILES Cc1cc2c(C(C)C)c(O)c(O)c(C=O)c2c(O)c1-c1c(C)cc2c(C(C)C)c(O)c(O)c(C=O)c2c1O
REMARK SMILES IDX 1 1 2 2 3 3 4 4 16 5 13 6 11 7 9 8 5 9 17 10 19 11 20 12
REMARK SMILES IDX 37 13 21 14 36 15 23 16 22 17 24 18 33 19 25 20 31 21 29 22
REMARK SMILES IDX 38 23 34 25 35 26 26 27 27 28 28 29 32 30 30 32 18 34 6 36
REMARK SMILES IDX 7 37 8 38 14 39 15 40 10 41 12 43
REMARK H PARENT 38 24 32 31 30 33 18 35 10 42 12 44
REMARK Flexibility Score: inf
ROOT
ATOM      1  C   UNL     1      82.122 -24.673  83.489  1.00  0.00     0.045 C 
ATOM      2  C   UNL     1      82.325 -24.956  84.958  1.00  0.00    -0.039 A 
ATOM      3  C   UNL     1      83.481 -24.495  85.589  1.00  0.00     0.013 A 
ATOM      4  C   UNL     1      83.746 -24.760  86.950  1.00  0.00    -0.006 A 
ATOM      5  C   UNL     1      82.745 -25.418  87.730  1.00  0.00     0.039 A 
ATOM      6  C   UNL     1      82.973 -25.606  89.128  1.00  0.00     0.072 A 
ATOM      7  C   UNL     1      84.124 -25.057  89.732  1.00  0.00     0.169 A 
ATOM      8  C   UNL     1      85.080 -24.389  88.961  1.00  0.00     0.162 A 
ATOM      9  C   UNL     1      84.972 -24.343  87.555  1.00  0.00     0.008 A 
ATOM     10  C   UNL     1      81.533 -25.828  87.093  1.00  0.00     0.132 A 
ATOM     11  C   UNL     1      81.349 -25.630  85.708  1.00  0.00     0.031 A 
ENDROOT
BRANCH  11  12
ATOM     12  C   UNL     1      80.108 -26.109  85.041  1.00  0.00     0.031 A 
ATOM     13  C   UNL     1      78.867 -25.499  85.323  1.00  0.00     0.132 A 
ATOM     14  C   UNL     1      80.181 -27.159  84.112  1.00  0.00    -0.039 A 
ATOM     15  C   UNL     1      77.686 -25.919  84.640  1.00  0.00     0.039 A 
ATOM     16  C   UNL     1      79.011 -27.640  83.523  1.00  0.00     0.013 A 
ATOM     17  C   UNL     1      81.503 -27.800  83.764  1.00  0.00     0.045 C 
ATOM     18  C   UNL     1      77.747 -27.083  83.817  1.00  0.00    -0.006 A 
ATOM     19  C   UNL     1      76.444 -25.225  84.761  1.00  0.00     0.072 A 
ATOM     20  C   UNL     1      76.548 -27.648  83.283  1.00  0.00     0.008 A 
ATOM     21  C   UNL     1      75.309 -25.694  84.070  1.00  0.00     0.169 A 
ATOM     22  C   UNL     1      75.360 -26.892  83.348  1.00  0.00     0.162 A 
BRANCH  13  23
ATOM     23  O   UNL     1      78.802 -24.498  86.299  1.00  0.00    -0.507 OA
ATOM     24  H   UNL     1      78.711 -24.682  87.291  1.00  0.00     0.293 HD
ENDBRANCH  13  23
BRANCH  19  25
ATOM     25  C   UNL     1      76.330 -23.960  85.517  1.00  0.00     0.264 C 
ATOM     26  O   UNL     1      75.882 -22.920  84.963  1.00  0.00    -0.298 OA
ENDBRANCH  19  25
BRANCH  20  27
ATOM     27  C   UNL     1      76.533 -29.042  82.630  1.00  0.00     0.017 C 
ATOM     28  C   UNL     1      77.388 -30.029  83.430  1.00  0.00     0.012 C 
ATOM     29  C   UNL     1      76.929 -29.033  81.142  1.00  0.00     0.012 C 
ENDBRANCH  20  27
BRANCH  21  30
ATOM     30  O   UNL     1      74.106 -24.975  84.061  1.00  0.00    -0.504 OA
ATOM     31  H   UNL     1      73.193 -25.400  83.972  1.00  0.00     0.293 HD
ENDBRANCH  21  30
BRANCH  22  32
ATOM     32  O   UNL     1      74.221 -27.324  82.663  1.00  0.00    -0.504 OA
ATOM     33  H   UNL     1      73.966 -26.984  81.744  1.00  0.00     0.293 HD
ENDBRANCH  22  32
ENDBRANCH  11  12
BRANCH  10  34
ATOM     34  O   UNL     1      80.498 -26.404  87.839  1.00  0.00    -0.507 OA
ATOM     35  H   UNL     1      79.737 -25.880  88.253  1.00  0.00     0.293 HD
ENDBRANCH  10  34
BRANCH   9  36
ATOM     36  C   UNL     1      86.160 -23.834  86.718  1.00  0.00     0.017 C 
ATOM     37  C   UNL     1      87.391 -23.602  87.600  1.00  0.00     0.012 C 
ATOM     38  C   UNL     1      86.499 -24.728  85.509  1.00  0.00     0.012 C 
ENDBRANCH   9  36
BRANCH   6  39
ATOM     39  C   UNL     1      82.039 -26.379  89.974  1.00  0.00     0.264 C 
ATOM     40  O   UNL     1      81.835 -27.604  89.758  1.00  0.00    -0.298 OA
ENDBRANCH   6  39
BRANCH   8  41
ATOM     41  O   UNL     1      86.159 -23.772  89.598  1.00  0.00    -0.504 OA
ATOM     42  H   UNL     1      86.547 -22.886  89.297  1.00  0.00     0.293 HD
ENDBRANCH   8  41
BRANCH   7  43
ATOM     43  O   UNL     1      84.372 -25.193  91.103  1.00  0.00    -0.504 OA
ATOM     44  H   UNL     1      83.742 -25.640  91.754  1.00  0.00     0.293 HD
ENDBRANCH   7  43
TORSDOF 11
ENDMDL
MODEL 6
REMARK VINA RESULT:     1.712      1.114      9.268
REMARK INTER + INTRA:           4.421
REMARK INTER:                   1.471
REMARK INTRA:                   2.950
REMARK UNBOUND:                 1.908
REMARK SMILES Cc1cc2c(C(C)C)c(O)c(O)c(C=O)c2c(O)c1-c1c(C)cc2c(C(C)C)c(O)c(O)c(C=O)c2c1O
REMARK SMILES IDX 1 1 2 2 3 3 4 4 16 5 13 6 11 7 9 8 5 9 17 10 19 11 20 12
REMARK SMILES IDX 37 13 21 14 36 15 23 16 22 17 24 18 33 19 25 20 31 21 29 22
REMARK SMILES IDX 38 23 34 25 35 26 26 27 27 28 28 29 32 30 30 32 18 34 6 36
REMARK SMILES IDX 7 37 8 38 14 39 15 40 10 41 12 43
REMARK H PARENT 38 24 32 31 30 33 18 35 10 42 12 44
REMARK Flexibility Score: inf
ROOT
ATOM      1  C   UNL     1      82.339 -28.580  85.722  1.00  0.00     0.045 C 
ATOM      2  C   UNL     1      81.069 -27.822  85.420  1.00  0.00    -0.039 A 
ATOM      3  C   UNL     1      80.111 -28.398  84.585  1.00  0.00     0.013 A 
ATOM      4  C   UNL     1      78.920 -27.724  84.236  1.00  0.00    -0.006 A 
ATOM      5  C   UNL     1      78.638 -26.464  84.850  1.00  0.00     0.039 A 
ATOM      6  C   UNL     1      77.393 -25.823  84.568  1.00  0.00     0.072 A 
ATOM      7  C   UNL     1      76.428 -26.480  83.776  1.00  0.00     0.169 A 
ATOM      8  C   UNL     1      76.707 -27.726  83.206  1.00  0.00     0.162 A 
ATOM      9  C   UNL     1      77.990 -28.302  83.318  1.00  0.00     0.008 A 
ATOM     10  C   UNL     1      79.593 -25.910  85.759  1.00  0.00     0.132 A 
ATOM     11  C   UNL     1      80.814 -26.572  86.006  1.00  0.00     0.031 A 
ENDROOT
BRANCH  11  12
ATOM     12  C   UNL     1      81.827 -25.962  86.909  1.00  0.00     0.031 A 
ATOM     13  C   UNL     1      83.124 -25.672  86.434  1.00  0.00     0.132 A 
ATOM     14  C   UNL     1      81.480 -25.658  88.235  1.00  0.00    -0.039 A 
ATOM     15  C   UNL     1      84.077 -25.033  87.283  1.00  0.00     0.039 A 
ATOM     16  C   UNL     1      82.444 -25.132  89.096  1.00  0.00     0.013 A 
ATOM     17  C   UNL     1      80.088 -25.923  88.756  1.00  0.00     0.045 C 
ATOM     18  C   UNL     1      83.764 -24.871  88.665  1.00  0.00    -0.006 A 
ATOM     19  C   UNL     1      85.337 -24.565  86.802  1.00  0.00     0.072 A 
ATOM     20  C   UNL     1      84.765 -24.425  89.581  1.00  0.00     0.008 A 
ATOM     21  C   UNL     1      86.242 -23.951  87.692  1.00  0.00     0.169 A 
ATOM     22  C   UNL     1      85.963 -23.890  89.062  1.00  0.00     0.162 A 
BRANCH  13  23
ATOM     23  O   UNL     1      83.473 -26.041  85.129  1.00  0.00    -0.507 OA
ATOM     24  H   UNL     1      84.427 -26.132  84.805  1.00  0.00     0.293 HD
ENDBRANCH  13  23
BRANCH  19  25
ATOM     25  C   UNL     1      85.690 -24.612  85.368  1.00  0.00     0.264 C 
ATOM     26  O   UNL     1      86.687 -25.273  84.973  1.00  0.00    -0.298 OA
ENDBRANCH  19  25
BRANCH  20  27
ATOM     27  C   UNL     1      84.559 -24.500  91.104  1.00  0.00     0.017 C 
ATOM     28  C   UNL     1      83.128 -24.104  91.482  1.00  0.00     0.012 C 
ATOM     29  C   UNL     1      85.595 -23.695  91.910  1.00  0.00     0.012 C 
ENDBRANCH  20  27
BRANCH  21  30
ATOM     30  O   UNL     1      87.433 -23.367  87.240  1.00  0.00    -0.504 OA
ATOM     31  H   UNL     1      88.333 -23.499  87.683  1.00  0.00     0.293 HD
ENDBRANCH  21  30
BRANCH  22  32
ATOM     32  O   UNL     1      86.874 -23.264  89.917  1.00  0.00    -0.504 OA
ATOM     33  H   UNL     1      87.734 -23.701  90.224  1.00  0.00     0.293 HD
ENDBRANCH  22  32
ENDBRANCH  11  12
BRANCH  10  34
ATOM     34  O   UNL     1      79.317 -24.719  86.440  1.00  0.00    -0.507 OA
ATOM     35  H   UNL     1      79.435 -23.796  86.038  1.00  0.00     0.293 HD
ENDBRANCH  10  34
BRANCH   9  36
ATOM     36  C   UNL     1      78.345 -29.537  82.470  1.00  0.00     0.017 C 
ATOM     37  C   UNL     1      77.812 -30.818  83.118  1.00  0.00     0.012 C 
ATOM     38  C   UNL     1      77.904 -29.430  80.996  1.00  0.00     0.012 C 
ENDBRANCH   9  36
BRANCH   6  39
ATOM     39  C   UNL     1      77.081 -24.470  85.073  1.00  0.00     0.264 C 
ATOM     40  O   UNL     1      76.315 -24.310  86.061  1.00  0.00    -0.298 OA
ENDBRANCH   6  39
BRANCH   8  41
ATOM     41  O   UNL     1      75.700 -28.397  82.509  1.00  0.00    -0.504 OA
ATOM     42  H   UNL     1      75.839 -28.810  81.595  1.00  0.00     0.293 HD
ENDBRANCH   8  41
BRANCH   7  43
ATOM     43  O   UNL     1      75.184 -25.901  83.499  1.00  0.00    -0.504 OA
ATOM     44  H   UNL     1      74.476 -25.714  84.194  1.00  0.00     0.293 HD
ENDBRANCH   7  43
TORSDOF 11
ENDMDL
MODEL 7
REMARK VINA RESULT:     2.815      2.858      9.094
REMARK INTER + INTRA:           6.039
REMARK INTER:                   4.838
REMARK INTRA:                   1.201
REMARK UNBOUND:                 1.908
REMARK SMILES Cc1cc2c(C(C)C)c(O)c(O)c(C=O)c2c(O)c1-c1c(C)cc2c(C(C)C)c(O)c(O)c(C=O)c2c1O
REMARK SMILES IDX 1 1 2 2 3 3 4 4 16 5 13 6 11 7 9 8 5 9 17 10 19 11 20 12
REMARK SMILES IDX 37 13 21 14 36 15 23 16 22 17 24 18 33 19 25 20 31 21 29 22
REMARK SMILES IDX 38 23 34 25 35 26 26 27 27 28 28 29 32 30 30 32 18 34 6 36
REMARK SMILES IDX 7 37 8 38 14 39 15 40 10 41 12 43
REMARK H PARENT 38 24 32 31 30 33 18 35 10 42 12 44
REMARK Flexibility Score: inf
ROOT
ATOM      1  C   UNL     1      80.172 -22.648  85.035  1.00  0.00     0.045 C 
ATOM      2  C   UNL     1      79.134 -23.587  85.598  1.00  0.00    -0.039 A 
ATOM      3  C   UNL     1      77.825 -23.526  85.118  1.00  0.00     0.013 A 
ATOM      4  C   UNL     1      76.802 -24.352  85.631  1.00  0.00    -0.006 A 
ATOM      5  C   UNL     1      77.145 -25.359  86.586  1.00  0.00     0.039 A 
ATOM      6  C   UNL     1      76.127 -26.255  87.038  1.00  0.00     0.072 A 
ATOM      7  C   UNL     1      74.838 -26.199  86.469  1.00  0.00     0.169 A 
ATOM      8  C   UNL     1      74.526 -25.228  85.513  1.00  0.00     0.162 A 
ATOM      9  C   UNL     1      75.453 -24.219  85.177  1.00  0.00     0.008 A 
ATOM     10  C   UNL     1      78.501 -25.462  87.024  1.00  0.00     0.132 A 
ATOM     11  C   UNL     1      79.475 -24.553  86.558  1.00  0.00     0.031 A 
ENDROOT
BRANCH  11  12
ATOM     12  C   UNL     1      80.874 -24.631  87.060  1.00  0.00     0.031 A 
ATOM     13  C   UNL     1      81.191 -24.180  88.359  1.00  0.00     0.132 A 
ATOM     14  C   UNL     1      81.875 -25.175  86.240  1.00  0.00    -0.039 A 
ATOM     15  C   UNL     1      82.520 -24.309  88.862  1.00  0.00     0.039 A 
ATOM     16  C   UNL     1      83.195 -25.203  86.692  1.00  0.00     0.013 A 
ATOM     17  C   UNL     1      81.553 -25.700  84.862  1.00  0.00     0.045 C 
ATOM     18  C   UNL     1      83.555 -24.719  87.970  1.00  0.00    -0.006 A 
ATOM     19  C   UNL     1      82.854 -24.029  90.222  1.00  0.00     0.072 A 
ATOM     20  C   UNL     1      84.921 -24.663  88.381  1.00  0.00     0.008 A 
ATOM     21  C   UNL     1      84.188 -24.164  90.658  1.00  0.00     0.169 A 
ATOM     22  C   UNL     1      85.206 -24.469  89.748  1.00  0.00     0.162 A 
BRANCH  13  23
ATOM     23  O   UNL     1      80.193 -23.581  89.138  1.00  0.00    -0.507 OA
ATOM     24  H   UNL     1      79.830 -22.651  88.972  1.00  0.00     0.293 HD
ENDBRANCH  13  23
BRANCH  19  25
ATOM     25  C   UNL     1      81.821 -23.694  91.225  1.00  0.00     0.264 C 
ATOM     26  O   UNL     1      82.147 -23.362  92.395  1.00  0.00    -0.298 OA
ENDBRANCH  19  25
BRANCH  20  27
ATOM     27  C   UNL     1      86.075 -24.826  87.375  1.00  0.00     0.017 C 
ATOM     28  C   UNL     1      87.013 -23.616  87.417  1.00  0.00     0.012 C 
ATOM     29  C   UNL     1      85.607 -25.123  85.938  1.00  0.00     0.012 C 
ENDBRANCH  20  27
BRANCH  21  30
ATOM     30  O   UNL     1      84.537 -24.021  92.007  1.00  0.00    -0.504 OA
ATOM     31  H   UNL     1      85.104 -24.683  92.519  1.00  0.00     0.293 HD
ENDBRANCH  21  30
BRANCH  22  32
ATOM     32  O   UNL     1      86.517 -24.608  90.213  1.00  0.00    -0.504 OA
ATOM     33  H   UNL     1      86.752 -25.102  91.065  1.00  0.00     0.293 HD
ENDBRANCH  22  32
ENDBRANCH  11  12
BRANCH  10  34
ATOM     34  O   UNL     1      78.891 -26.484  87.897  1.00  0.00    -0.507 OA
ATOM     35  H   UNL     1      78.245 -27.116  88.355  1.00  0.00     0.293 HD
ENDBRANCH  10  34
BRANCH   9  36
ATOM     36  C   UNL     1      74.996 -23.019  84.326  1.00  0.00     0.017 C 
ATOM     37  C   UNL     1      75.832 -21.776  84.642  1.00  0.00     0.012 C 
ATOM     38  C   UNL     1      74.967 -23.305  82.812  1.00  0.00     0.012 C 
ENDBRANCH   9  36
BRANCH   6  39
ATOM     39  C   UNL     1      76.379 -27.244  88.108  1.00  0.00     0.264 C 
ATOM     40  O   UNL     1      75.549 -27.409  89.042  1.00  0.00    -0.298 OA
ENDBRANCH   6  39
BRANCH   8  41
ATOM     41  O   UNL     1      73.273 -25.258  84.895  1.00  0.00    -0.504 OA
ATOM     42  H   UNL     1      73.152 -25.326  83.892  1.00  0.00     0.293 HD
ENDBRANCH   8  41
BRANCH   7  43
ATOM     43  O   UNL     1      73.820 -27.077  86.862  1.00  0.00    -0.504 OA
ATOM     44  H   UNL     1      73.695 -28.007  86.487  1.00  0.00     0.293 HD
ENDBRANCH   7  43
TORSDOF 11
ENDMDL
