MODEL 1
REMARK VINA RESULT:    -2.965      0.000      0.000
REMARK INTER + INTRA:          -4.886
REMARK INTER:                  -4.526
REMARK INTRA:                  -0.361
REMARK UNBOUND:                -0.361
REMARK SMILES CC1=CCC[C@H](C)C(=O)C[C@H](C(C)C)C(=O)C1
REMARK SMILES IDX 8 1 9 2 6 3 7 4 5 5 4 6 3 7 2 8 1 9 10 11 11 12 15 13 16 14
REMARK SMILES IDX 17 15 12 17 13 18 14 19
REMARK H PARENT
REMARK Flexibility Score: 70.00
ROOT
ATOM      1  C   UNL     1    -115.304 -91.931   4.260  1.00  0.00     0.136 C 
ATOM      2  O   UNL     1    -115.816 -90.828   4.393  1.00  0.00    -0.299 OA
ENDROOT
BRANCH   1   3
ATOM      3  C   UNL     1    -113.857 -92.044   3.832  1.00  0.00     0.053 C 
ATOM      4  C   UNL     1    -113.640 -91.225   2.556  1.00  0.00     0.016 C 
BRANCH   3   5
ATOM      5  C   UNL     1    -112.872 -91.589   4.934  1.00  0.00     0.015 C 
BRANCH   5   6
ATOM      6  C   UNL     1    -111.964 -92.717   5.461  1.00  0.00     0.028 C 
BRANCH   6   7
ATOM      7  C   UNL     1    -112.456 -93.257   6.785  1.00  0.00    -0.028 C 
ATOM      8  C   UNL     1    -113.093 -94.435   6.987  1.00  0.00    -0.070 CG0
ATOM      9  C   UNL     1    -113.468 -94.800   8.402  1.00  0.00     0.039 C 
ATOM     10  G   UNL     1    -113.512 -95.369   5.870  1.00  0.00     0.000 G0
ENDBRANCH   6   7
ENDBRANCH   5   6
ENDBRANCH   3   5
ENDBRANCH   1   3
BRANCH   1  11
ATOM     11  C   UNL     1    -116.136 -93.168   4.495  1.00  0.00     0.087 C 
BRANCH  11  12
ATOM     12  C   UNL     1    -115.346 -94.463   4.202  1.00  0.00     0.066 C 
BRANCH  12  13
ATOM     13  C   UNL     1    -114.975 -95.172   5.491  1.00  0.00     0.140 C 
ATOM     14  O   UNL     1    -115.854 -95.544   6.256  1.00  0.00    -0.299 OA
BRANCH  13  15
ATOM     15  C   UNL     1    -113.537 -95.388   5.876  1.00  0.00     0.106 CG0
ATOM     16  G   UNL     1    -113.149 -94.435   6.988  1.00  0.00     0.000 G0
ENDBRANCH  13  15
ENDBRANCH  12  13
BRANCH  12  17
ATOM     17  C   UNL     1    -116.081 -95.391   3.188  1.00  0.00    -0.006 C 
ATOM     18  C   UNL     1    -116.444 -94.630   1.904  1.00  0.00     0.008 C 
ATOM     19  C   UNL     1    -115.315 -96.679   2.837  1.00  0.00     0.008 C 
ENDBRANCH  12  17
ENDBRANCH  11  12
ENDBRANCH   1  11
TORSDOF 1
ENDMDL
MODEL 2
REMARK VINA RESULT:    -2.959      9.078     11.062
REMARK INTER + INTRA:          -4.877
REMARK INTER:                  -4.729
REMARK INTRA:                  -0.148
REMARK UNBOUND:                -0.361
REMARK SMILES CC1=CCC[C@H](C)C(=O)C[C@H](C(C)C)C(=O)C1
REMARK SMILES IDX 8 1 9 2 6 3 7 4 5 5 4 6 3 7 2 8 1 9 10 11 11 12 15 13 16 14
REMARK SMILES IDX 17 15 12 17 13 18 14 19
REMARK H PARENT
REMARK Flexibility Score: 70.00
ROOT
ATOM      1  C   UNL     1    -120.077 -98.980   1.782  1.00  0.00     0.136 C 
ATOM      2  O   UNL     1    -120.418 -97.817   1.943  1.00  0.00    -0.299 OA
ENDROOT
BRANCH   1   3
ATOM      3  C   UNL     1    -119.055 -99.327   0.721  1.00  0.00     0.053 C 
ATOM      4  C   UNL     1    -118.524-100.743   0.972  1.00  0.00     0.016 C 
BRANCH   3   5
ATOM      5  C   UNL     1    -119.623 -99.215  -0.713  1.00  0.00     0.015 C 
BRANCH   5   6
ATOM      6  C   UNL     1    -120.423-100.454  -1.162  1.00  0.00     0.028 C 
BRANCH   6   7
ATOM      7  C   UNL     1    -121.903-100.158  -1.260  1.00  0.00    -0.028 C 
ATOM      8  C   UNL     1    -122.854-100.502  -0.360  1.00  0.00    -0.070 CG0
ATOM      9  C   UNL     1    -124.273-100.073  -0.635  1.00  0.00     0.039 C 
ATOM     10  G   UNL     1    -122.585-101.351   0.866  1.00  0.00     0.000 G0
ENDBRANCH   6   7
ENDBRANCH   5   6
ENDBRANCH   3   5
ENDBRANCH   1   3
BRANCH   1  11
ATOM     11  C   UNL     1    -120.705-100.061   2.627  1.00  0.00     0.087 C 
BRANCH  11  12
ATOM     12  C   UNL     1    -122.191 -99.771   2.931  1.00  0.00     0.066 C 
BRANCH  12  13
ATOM     13  C   UNL     1    -123.094-100.672   2.110  1.00  0.00     0.140 C 
ATOM     14  O   UNL     1    -124.245-100.874   2.471  1.00  0.00    -0.299 OA
BRANCH  13  15
ATOM     15  C   UNL     1    -122.588-101.367   0.874  1.00  0.00     0.106 CG0
ATOM     16  G   UNL     1    -122.840-100.504  -0.345  1.00  0.00     0.000 G0
ENDBRANCH  13  15
ENDBRANCH  12  13
BRANCH  12  17
ATOM     17  C   UNL     1    -122.508 -99.822   4.457  1.00  0.00    -0.006 C 
ATOM     18  C   UNL     1    -121.922-101.087   5.101  1.00  0.00     0.008 C 
ATOM     19  C   UNL     1    -122.057 -98.576   5.240  1.00  0.00     0.008 C 
ENDBRANCH  12  17
ENDBRANCH  11  12
ENDBRANCH   1  11
TORSDOF 1
ENDMDL
MODEL 3
REMARK VINA RESULT:    -2.828      9.387     11.639
REMARK INTER + INTRA:          -4.677
REMARK INTER:                  -4.543
REMARK INTRA:                  -0.134
REMARK UNBOUND:                -0.361
REMARK SMILES CC1=CCC[C@H](C)C(=O)C[C@H](C(C)C)C(=O)C1
REMARK SMILES IDX 8 1 9 2 6 3 7 4 5 5 4 6 3 7 2 8 1 9 10 11 11 12 15 13 16 14
REMARK SMILES IDX 17 15 12 17 13 18 14 19
REMARK H PARENT
REMARK Flexibility Score: 70.00
ROOT
ATOM      1  C   UNL     1    -121.745 -99.201   3.664  1.00  0.00     0.136 C 
ATOM      2  O   UNL     1    -121.754 -98.280   4.468  1.00  0.00    -0.299 OA
ENDROOT
BRANCH   1   3
ATOM      3  C   UNL     1    -122.490-100.482   3.974  1.00  0.00     0.053 C 
ATOM      4  C   UNL     1    -121.745-101.250   5.071  1.00  0.00     0.016 C 
BRANCH   3   5
ATOM      5  C   UNL     1    -123.956-100.230   4.399  1.00  0.00     0.015 C 
BRANCH   5   6
ATOM      6  C   UNL     1    -124.912 -99.983   3.216  1.00  0.00     0.028 C 
BRANCH   6   7
ATOM      7  C   UNL     1    -124.771-101.050   2.153  1.00  0.00    -0.028 C 
ATOM      8  C   UNL     1    -124.191-100.905   0.939  1.00  0.00    -0.070 CG0
ATOM      9  C   UNL     1    -124.123-102.115   0.041  1.00  0.00     0.039 C 
ATOM     10  G   UNL     1    -123.672 -99.586   0.405  1.00  0.00     0.000 G0
ENDBRANCH   6   7
ENDBRANCH   5   6
ENDBRANCH   3   5
ENDBRANCH   1   3
BRANCH   1  11
ATOM     11  C   UNL     1    -120.960 -99.060   2.383  1.00  0.00     0.087 C 
BRANCH  11  12
ATOM     12  C   UNL     1    -121.294-100.178   1.371  1.00  0.00     0.066 C 
BRANCH  12  13
ATOM     13  C   UNL     1    -122.180 -99.650   0.258  1.00  0.00     0.140 C 
ATOM     14  O   UNL     1    -121.676 -99.229  -0.774  1.00  0.00    -0.299 OA
BRANCH  13  15
ATOM     15  C   UNL     1    -123.676 -99.590   0.414  1.00  0.00     0.106 CG0
ATOM     16  G   UNL     1    -124.196-100.916   0.930  1.00  0.00     0.000 G0
ENDBRANCH  13  15
ENDBRANCH  12  13
BRANCH  12  17
ATOM     17  C   UNL     1    -120.018-100.901   0.841  1.00  0.00    -0.006 C 
ATOM     18  C   UNL     1    -118.804 -99.961   0.858  1.00  0.00     0.008 C 
ATOM     19  C   UNL     1    -119.681-102.211   1.575  1.00  0.00     0.008 C 
ENDBRANCH  12  17
ENDBRANCH  11  12
ENDBRANCH   1  11
TORSDOF 1
ENDMDL
MODEL 4
REMARK VINA RESULT:    -2.546      6.737      8.940
REMARK INTER + INTRA:          -4.247
REMARK INTER:                  -4.364
REMARK INTRA:                   0.117
REMARK UNBOUND:                -0.361
REMARK SMILES CC1=CCC[C@H](C)C(=O)C[C@H](C(C)C)C(=O)C1
REMARK SMILES IDX 8 1 9 2 6 3 7 4 5 5 4 6 3 7 2 8 1 9 10 11 11 12 15 13 16 14
REMARK SMILES IDX 17 15 12 17 13 18 14 19
REMARK H PARENT
REMARK Flexibility Score: 70.00
ROOT
ATOM      1  C   UNL     1    -118.160-101.379   0.607  1.00  0.00     0.136 C 
ATOM      2  O   UNL     1    -118.356-102.222   1.470  1.00  0.00    -0.299 OA
ENDROOT
BRANCH   1   3
ATOM      3  C   UNL     1    -116.777-101.211   0.015  1.00  0.00     0.053 C 
ATOM      4  C   UNL     1    -116.690-101.996  -1.299  1.00  0.00     0.016 C 
BRANCH   3   5
ATOM      5  C   UNL     1    -116.406 -99.729  -0.222  1.00  0.00     0.015 C 
BRANCH   5   6
ATOM      6  C   UNL     1    -116.548 -98.845   1.033  1.00  0.00     0.028 C 
BRANCH   6   7
ATOM      7  C   UNL     1    -116.927 -97.425   0.675  1.00  0.00    -0.028 C 
ATOM      8  C   UNL     1    -118.017 -96.749   1.109  1.00  0.00    -0.070 CG0
ATOM      9  C   UNL     1    -118.187 -95.321   0.657  1.00  0.00     0.039 C 
ATOM     10  G   UNL     1    -119.106 -97.367   1.961  1.00  0.00     0.000 G0
ENDBRANCH   6   7
ENDBRANCH   5   6
ENDBRANCH   3   5
ENDBRANCH   1   3
BRANCH   1  11
ATOM     11  C   UNL     1    -119.298-100.491   0.165  1.00  0.00     0.087 C 
BRANCH  11  12
ATOM     12  C   UNL     1    -119.971 -99.774   1.356  1.00  0.00     0.066 C 
BRANCH  12  13
ATOM     13  C   UNL     1    -119.987 -98.272   1.140  1.00  0.00     0.140 C 
ATOM     14  O   UNL     1    -120.683 -97.790   0.258  1.00  0.00    -0.299 OA
BRANCH  13  15
ATOM     15  C   UNL     1    -119.123 -97.357   1.965  1.00  0.00     0.106 CG0
ATOM     16  G   UNL     1    -118.034 -96.755   1.101  1.00  0.00     0.000 G0
ENDBRANCH  13  15
ENDBRANCH  12  13
BRANCH  12  17
ATOM     17  C   UNL     1    -121.380-100.356   1.682  1.00  0.00    -0.006 C 
ATOM     18  C   UNL     1    -121.863-101.294   0.565  1.00  0.00     0.008 C 
ATOM     19  C   UNL     1    -121.474-101.067   3.043  1.00  0.00     0.008 C 
ENDBRANCH  12  17
ENDBRANCH  11  12
ENDBRANCH   1  11
TORSDOF 1
ENDMDL
MODEL 5
REMARK VINA RESULT:    -2.458      2.466      4.337
REMARK INTER + INTRA:          -4.112
REMARK INTER:                  -3.865
REMARK INTRA:                  -0.247
REMARK UNBOUND:                -0.361
REMARK SMILES CC1=CCC[C@H](C)C(=O)C[C@H](C(C)C)C(=O)C1
REMARK SMILES IDX 8 1 9 2 6 3 7 4 5 5 4 6 3 7 2 8 1 9 10 11 11 12 15 13 16 14
REMARK SMILES IDX 17 15 12 17 13 18 14 19
REMARK H PARENT
REMARK Flexibility Score: 70.00
ROOT
ATOM      1  C   UNL     1    -112.154 -93.631   5.540  1.00  0.00     0.136 C 
ATOM      2  O   UNL     1    -111.279 -94.474   5.402  1.00  0.00    -0.299 OA
ENDROOT
BRANCH   1   3
ATOM      3  C   UNL     1    -112.521 -93.144   6.926  1.00  0.00     0.053 C 
ATOM      4  C   UNL     1    -112.739 -94.350   7.846  1.00  0.00     0.016 C 
BRANCH   3   5
ATOM      5  C   UNL     1    -111.455 -92.199   7.527  1.00  0.00     0.015 C 
BRANCH   5   6
ATOM      6  C   UNL     1    -111.124 -90.988   6.632  1.00  0.00     0.028 C 
BRANCH   6   7
ATOM      7  C   UNL     1    -112.160 -89.895   6.766  1.00  0.00    -0.028 C 
ATOM      8  C   UNL     1    -113.132 -89.593   5.873  1.00  0.00    -0.070 CG0
ATOM      9  C   UNL     1    -114.090 -88.482   6.223  1.00  0.00     0.039 C 
ATOM     10  G   UNL     1    -113.266 -90.256   4.518  1.00  0.00     0.000 G0
ENDBRANCH   6   7
ENDBRANCH   5   6
ENDBRANCH   3   5
ENDBRANCH   1   3
BRANCH   1  11
ATOM     11  C   UNL     1    -112.881 -93.110   4.325  1.00  0.00     0.087 C 
BRANCH  11  12
ATOM     12  C   UNL     1    -114.327 -92.675   4.654  1.00  0.00     0.066 C 
BRANCH  12  13
ATOM     13  C   UNL     1    -114.483 -91.173   4.510  1.00  0.00     0.140 C 
ATOM     14  O   UNL     1    -115.595 -90.688   4.356  1.00  0.00    -0.299 OA
BRANCH  13  15
ATOM     15  C   UNL     1    -113.286 -90.261   4.506  1.00  0.00     0.106 CG0
ATOM     16  G   UNL     1    -113.128 -89.608   5.864  1.00  0.00     0.000 G0
ENDBRANCH  13  15
ENDBRANCH  12  13
BRANCH  12  17
ATOM     17  C   UNL     1    -115.388 -93.478   3.842  1.00  0.00    -0.006 C 
ATOM     18  C   UNL     1    -114.741 -94.656   3.099  1.00  0.00     0.008 C 
ATOM     19  C   UNL     1    -116.583 -93.973   4.677  1.00  0.00     0.008 C 
ENDBRANCH  12  17
ENDBRANCH  11  12
ENDBRANCH   1  11
TORSDOF 1
ENDMDL
MODEL 6
REMARK VINA RESULT:    -2.456      7.006      8.894
REMARK INTER + INTRA:          -4.109
REMARK INTER:                  -4.468
REMARK INTRA:                   0.359
REMARK UNBOUND:                -0.361
REMARK SMILES CC1=CCC[C@H](C)C(=O)C[C@H](C(C)C)C(=O)C1
REMARK SMILES IDX 8 1 9 2 6 3 7 4 5 5 4 6 3 7 2 8 1 9 10 11 11 12 15 13 16 14
REMARK SMILES IDX 17 15 12 17 13 18 14 19
REMARK H PARENT
REMARK Flexibility Score: 70.00
ROOT
ATOM      1  C   UNL     1    -119.725 -98.026   0.630  1.00  0.00     0.136 C 
ATOM      2  O   UNL     1    -120.783 -97.648   0.145  1.00  0.00    -0.299 OA
ENDROOT
BRANCH   1   3
ATOM      3  C   UNL     1    -118.426 -97.372   0.210  1.00  0.00     0.053 C 
ATOM      4  C   UNL     1    -118.717 -95.968  -0.332  1.00  0.00     0.016 C 
BRANCH   3   5
ATOM      5  C   UNL     1    -117.397 -97.298   1.362  1.00  0.00     0.015 C 
BRANCH   5   6
ATOM      6  C   UNL     1    -116.171 -98.209   1.159  1.00  0.00     0.028 C 
BRANCH   6   7
ATOM      7  C   UNL     1    -116.310 -99.063  -0.082  1.00  0.00    -0.028 C 
ATOM      8  C   UNL     1    -116.978-100.237  -0.179  1.00  0.00    -0.070 CG0
ATOM      9  C   UNL     1    -117.024-100.911  -1.528  1.00  0.00     0.039 C 
ATOM     10  G   UNL     1    -117.616-100.944   0.999  1.00  0.00     0.000 G0
ENDBRANCH   6   7
ENDBRANCH   5   6
ENDBRANCH   3   5
ENDBRANCH   1   3
BRANCH   1  11
ATOM     11  C   UNL     1    -119.728 -99.164   1.620  1.00  0.00     0.087 C 
BRANCH  11  12
ATOM     12  C   UNL     1    -120.197-100.490   0.981  1.00  0.00     0.066 C 
BRANCH  12  13
ATOM     13  C   UNL     1    -119.013-101.385   0.666  1.00  0.00     0.140 C 
ATOM     14  O   UNL     1    -119.196-102.480   0.154  1.00  0.00    -0.299 OA
BRANCH  13  15
ATOM     15  C   UNL     1    -117.609-100.971   1.016  1.00  0.00     0.106 CG0
ATOM     16  G   UNL     1    -116.979-100.238  -0.150  1.00  0.00     0.000 G0
ENDBRANCH  13  15
ENDBRANCH  12  13
BRANCH  12  17
ATOM     17  C   UNL     1    -121.291-101.206   1.831  1.00  0.00    -0.006 C 
ATOM     18  C   UNL     1    -121.656-100.378   3.072  1.00  0.00     0.008 C 
ATOM     19  C   UNL     1    -122.564-101.571   1.048  1.00  0.00     0.008 C 
ENDBRANCH  12  17
ENDBRANCH  11  12
ENDBRANCH   1  11
TORSDOF 1
ENDMDL
MODEL 7
REMARK VINA RESULT:    -2.332      7.108      9.747
REMARK INTER + INTRA:          -3.920
REMARK INTER:                  -4.084
REMARK INTRA:                   0.163
REMARK UNBOUND:                -0.361
REMARK SMILES CC1=CCC[C@H](C)C(=O)C[C@H](C(C)C)C(=O)C1
REMARK SMILES IDX 8 1 9 2 6 3 7 4 5 5 4 6 3 7 2 8 1 9 10 11 11 12 15 13 16 14
REMARK SMILES IDX 17 15 12 17 13 18 14 19
REMARK H PARENT
REMARK Flexibility Score: 70.00
ROOT
ATOM      1  C   UNL     1    -121.073 -98.980   0.858  1.00  0.00     0.136 C 
ATOM      2  O   UNL     1    -122.204 -98.946   0.395  1.00  0.00    -0.299 OA
ENDROOT
BRANCH   1   3
ATOM      3  C   UNL     1    -120.809 -99.716   2.154  1.00  0.00     0.053 C 
ATOM      4  C   UNL     1    -122.092 -99.745   2.991  1.00  0.00     0.016 C 
BRANCH   3   5
ATOM      5  C   UNL     1    -120.286-101.154   1.926  1.00  0.00     0.015 C 
BRANCH   5   6
ATOM      6  C   UNL     1    -120.390-101.628   0.463  1.00  0.00     0.028 C 
BRANCH   6   7
ATOM      7  C   UNL     1    -119.092-102.236  -0.019  1.00  0.00    -0.028 C 
ATOM      8  C   UNL     1    -118.069-101.580  -0.616  1.00  0.00    -0.070 CG0
ATOM      9  C   UNL     1    -116.842-102.375  -0.987  1.00  0.00     0.039 C 
ATOM     10  G   UNL     1    -118.115-100.114  -0.995  1.00  0.00     0.000 G0
ENDBRANCH   6   7
ENDBRANCH   5   6
ENDBRANCH   3   5
ENDBRANCH   1   3
BRANCH   1  11
ATOM     11  C   UNL     1    -119.957 -98.256   0.145  1.00  0.00     0.087 C 
BRANCH  11  12
ATOM     12  C   UNL     1    -118.620 -98.349   0.913  1.00  0.00     0.066 C 
BRANCH  12  13
ATOM     13  C   UNL     1    -117.655 -99.281   0.204  1.00  0.00     0.140 C 
ATOM     14  O   UNL     1    -116.489 -99.341   0.566  1.00  0.00    -0.299 OA
BRANCH  13  15
ATOM     15  C   UNL     1    -118.094-100.107  -0.976  1.00  0.00     0.106 CG0
ATOM     16  G   UNL     1    -118.056-101.579  -0.620  1.00  0.00     0.000 G0
ENDBRANCH  13  15
ENDBRANCH  12  13
BRANCH  12  17
ATOM     17  C   UNL     1    -118.004 -96.947   1.207  1.00  0.00    -0.006 C 
ATOM     18  C   UNL     1    -117.516 -96.276  -0.085  1.00  0.00     0.008 C 
ATOM     19  C   UNL     1    -118.936 -95.994   1.976  1.00  0.00     0.008 C 
ENDBRANCH  12  17
ENDBRANCH  11  12
ENDBRANCH   1  11
TORSDOF 1
ENDMDL
MODEL 8
REMARK VINA RESULT:    -2.244      2.649      4.315
REMARK INTER + INTRA:          -3.786
REMARK INTER:                  -3.655
REMARK INTRA:                  -0.131
REMARK UNBOUND:                -0.361
REMARK SMILES CC1=CCC[C@H](C)C(=O)C[C@H](C(C)C)C(=O)C1
REMARK SMILES IDX 8 1 9 2 6 3 7 4 5 5 4 6 3 7 2 8 1 9 10 11 11 12 15 13 16 14
REMARK SMILES IDX 17 15 12 17 13 18 14 19
REMARK H PARENT
REMARK Flexibility Score: 70.00
ROOT
ATOM      1  C   UNL     1    -118.040 -94.559   1.163  1.00  0.00     0.136 C 
ATOM      2  O   UNL     1    -119.131 -94.008   1.203  1.00  0.00    -0.299 OA
ENDROOT
BRANCH   1   3
ATOM      3  C   UNL     1    -117.131 -94.347  -0.029  1.00  0.00     0.053 C 
ATOM      4  C   UNL     1    -117.963 -94.388  -1.315  1.00  0.00     0.016 C 
BRANCH   3   5
ATOM      5  C   UNL     1    -116.339 -93.021   0.054  1.00  0.00     0.015 C 
BRANCH   5   6
ATOM      6  C   UNL     1    -114.922 -93.179   0.642  1.00  0.00     0.028 C 
BRANCH   6   7
ATOM      7  C   UNL     1    -114.832 -92.606   2.039  1.00  0.00    -0.028 C 
ATOM      8  C   UNL     1    -114.415 -93.258   3.150  1.00  0.00    -0.070 CG0
ATOM      9  C   UNL     1    -114.366 -92.484   4.444  1.00  0.00     0.039 C 
ATOM     10  G   UNL     1    -114.064 -94.731   3.181  1.00  0.00     0.000 G0
ENDBRANCH   6   7
ENDBRANCH   5   6
ENDBRANCH   3   5
ENDBRANCH   1   3
BRANCH   1  11
ATOM     11  C   UNL     1    -117.627 -95.471   2.292  1.00  0.00     0.087 C 
BRANCH  11  12
ATOM     12  C   UNL     1    -116.168 -95.957   2.142  1.00  0.00     0.066 C 
BRANCH  12  13
ATOM     13  C   UNL     1    -115.337 -95.544   3.342  1.00  0.00     0.140 C 
ATOM     14  O   UNL     1    -115.710 -95.833   4.470  1.00  0.00    -0.299 OA
BRANCH  13  15
ATOM     15  C   UNL     1    -114.075 -94.741   3.177  1.00  0.00     0.106 CG0
ATOM     16  G   UNL     1    -114.404 -93.262   3.144  1.00  0.00     0.000 G0
ENDBRANCH  13  15
ENDBRANCH  12  13
BRANCH  12  17
ATOM     17  C   UNL     1    -116.079 -97.483   1.837  1.00  0.00    -0.006 C 
ATOM     18  C   UNL     1    -117.400 -98.009   1.257  1.00  0.00     0.008 C 
ATOM     19  C   UNL     1    -114.907 -97.879   0.921  1.00  0.00     0.008 C 
ENDBRANCH  12  17
ENDBRANCH  11  12
ENDBRANCH   1  11
TORSDOF 1
ENDMDL
MODEL 9
REMARK VINA RESULT:    -2.240      2.689      4.142
REMARK INTER + INTRA:          -3.780
REMARK INTER:                  -3.333
REMARK INTRA:                  -0.447
REMARK UNBOUND:                -0.361
REMARK SMILES CC1=CCC[C@H](C)C(=O)C[C@H](C(C)C)C(=O)C1
REMARK SMILES IDX 8 1 9 2 6 3 7 4 5 5 4 6 3 7 2 8 1 9 10 11 11 12 15 13 16 14
REMARK SMILES IDX 17 15 12 17 13 18 14 19
REMARK H PARENT
REMARK Flexibility Score: 70.00
ROOT
ATOM      1  C   UNL     1    -115.948 -96.134   1.730  1.00  0.00     0.136 C 
ATOM      2  O   UNL     1    -116.913 -96.711   1.250  1.00  0.00    -0.299 OA
ENDROOT
BRANCH   1   3
ATOM      3  C   UNL     1    -115.997 -94.638   1.956  1.00  0.00     0.053 C 
ATOM      4  C   UNL     1    -116.528 -93.951   0.693  1.00  0.00     0.016 C 
BRANCH   3   5
ATOM      5  C   UNL     1    -116.860 -94.249   3.179  1.00  0.00     0.015 C 
BRANCH   5   6
ATOM      6  C   UNL     1    -116.214 -94.605   4.533  1.00  0.00     0.028 C 
BRANCH   6   7
ATOM      7  C   UNL     1    -114.928 -93.840   4.755  1.00  0.00    -0.028 C 
ATOM      8  C   UNL     1    -113.677 -94.358   4.771  1.00  0.00    -0.070 CG0
ATOM      9  C   UNL     1    -112.524 -93.407   4.973  1.00  0.00     0.039 C 
ATOM     10  G   UNL     1    -113.376 -95.839   4.667  1.00  0.00     0.000 G0
ENDBRANCH   6   7
ENDBRANCH   5   6
ENDBRANCH   3   5
ENDBRANCH   1   3
BRANCH   1  11
ATOM     11  C   UNL     1    -114.704 -96.921   2.062  1.00  0.00     0.087 C 
BRANCH  11  12
ATOM     12  C   UNL     1    -113.436 -96.038   2.048  1.00  0.00     0.066 C 
BRANCH  12  13
ATOM     13  C   UNL     1    -112.689 -96.147   3.364  1.00  0.00     0.140 C 
ATOM     14  O   UNL     1    -111.526 -96.526   3.375  1.00  0.00    -0.299 OA
BRANCH  13  15
ATOM     15  C   UNL     1    -113.366 -95.842   4.673  1.00  0.00     0.106 CG0
ATOM     16  G   UNL     1    -113.674 -94.361   4.763  1.00  0.00     0.000 G0
ENDBRANCH  13  15
ENDBRANCH  12  13
BRANCH  12  17
ATOM     17  C   UNL     1    -112.531 -96.317   0.810  1.00  0.00    -0.006 C 
ATOM     18  C   UNL     1    -113.071 -97.494  -0.016  1.00  0.00     0.008 C 
ATOM     19  C   UNL     1    -112.305 -95.096  -0.099  1.00  0.00     0.008 C 
ENDBRANCH  12  17
ENDBRANCH  11  12
ENDBRANCH   1  11
TORSDOF 1
ENDMDL
