MODEL 1
REMARK VINA RESULT:    -3.519      0.000      0.000
REMARK INTER + INTRA:          -4.181
REMARK INTER:                  -4.136
REMARK INTRA:                  -0.045
REMARK UNBOUND:                -0.045
REMARK SMILES O=C([O-])CCC(=O)[O-]
REMARK SMILES IDX 4 1 2 2 1 3 3 4 5 5 6 6 7 7 8 8
REMARK H PARENT
REMARK Flexibility Score: inf
ROOT
ATOM      1  C   UNL     1      75.174 -37.886  11.595  1.00  0.00     0.059 C 
ENDROOT
BRANCH   1   2
ATOM      2  C   UNL     1      76.493 -37.175  11.596  1.00  0.00     0.042 C 
ATOM      3  O   UNL     1      76.559 -35.960  11.276  1.00  0.00    -0.550 OA
ATOM      4  O   UNL     1      77.655 -37.867  11.914  1.00  0.00    -0.550 OA
ENDBRANCH   1   2
BRANCH   1   5
ATOM      5  C   UNL     1      74.266 -37.385  10.466  1.00  0.00     0.059 C 
BRANCH   5   6
ATOM      6  C   UNL     1      72.821 -37.434  10.857  1.00  0.00     0.042 C 
ATOM      7  O   UNL     1      71.961 -36.804  10.187  1.00  0.00    -0.550 OA
ATOM      8  O   UNL     1      72.418 -38.209  11.938  1.00  0.00    -0.550 OA
ENDBRANCH   5   6
ENDBRANCH   1   5
TORSDOF 3
ENDMDL
MODEL 2
REMARK VINA RESULT:    -3.506      0.178      4.356
REMARK INTER + INTRA:          -4.167
REMARK INTER:                  -4.122
REMARK INTRA:                  -0.044
REMARK UNBOUND:                -0.045
REMARK SMILES O=C([O-])CCC(=O)[O-]
REMARK SMILES IDX 4 1 2 2 1 3 3 4 5 5 6 6 7 7 8 8
REMARK H PARENT
REMARK Flexibility Score: inf
ROOT
ATOM      1  C   UNL     1      74.172 -37.319  10.551  1.00  0.00     0.059 C 
ENDROOT
BRANCH   1   2
ATOM      2  C   UNL     1      72.725 -37.462  10.910  1.00  0.00     0.042 C 
ATOM      3  O   UNL     1      72.389 -38.039  11.977  1.00  0.00    -0.550 OA
ATOM      4  O   UNL     1      71.744 -36.991  10.045  1.00  0.00    -0.550 OA
ENDBRANCH   1   2
BRANCH   1   5
ATOM      5  C   UNL     1      75.080 -37.945  11.616  1.00  0.00     0.059 C 
BRANCH   5   6
ATOM      6  C   UNL     1      76.433 -37.301  11.635  1.00  0.00     0.042 C 
ATOM      7  O   UNL     1      77.452 -37.977  11.933  1.00  0.00    -0.550 OA
ATOM      8  O   UNL     1      76.572 -35.964  11.284  1.00  0.00    -0.550 OA
ENDBRANCH   5   6
ENDBRANCH   1   5
TORSDOF 3
ENDMDL
MODEL 3
REMARK VINA RESULT:    -3.489      0.270      1.632
REMARK INTER + INTRA:          -4.146
REMARK INTER:                  -4.105
REMARK INTRA:                  -0.042
REMARK UNBOUND:                -0.045
REMARK SMILES O=C([O-])CCC(=O)[O-]
REMARK SMILES IDX 4 1 2 2 1 3 3 4 5 5 6 6 7 7 8 8
REMARK H PARENT
REMARK Flexibility Score: inf
ROOT
ATOM      1  C   UNL     1      74.966 -37.954  11.651  1.00  0.00     0.059 C 
ENDROOT
BRANCH   1   2
ATOM      2  C   UNL     1      76.340 -37.359  11.599  1.00  0.00     0.042 C 
ATOM      3  O   UNL     1      77.342 -38.049  11.924  1.00  0.00    -0.550 OA
ATOM      4  O   UNL     1      76.509 -36.031  11.228  1.00  0.00    -0.550 OA
ENDBRANCH   1   2
BRANCH   1   5
ATOM      5  C   UNL     1      74.054 -37.360  10.571  1.00  0.00     0.059 C 
BRANCH   5   6
ATOM      6  C   UNL     1      72.607 -37.523  10.920  1.00  0.00     0.042 C 
ATOM      7  O   UNL     1      72.273 -38.074  12.002  1.00  0.00    -0.550 OA
ATOM      8  O   UNL     1      71.626 -37.027  10.069  1.00  0.00    -0.550 OA
ENDBRANCH   5   6
ENDBRANCH   1   5
TORSDOF 3
ENDMDL
MODEL 4
REMARK VINA RESULT:    -3.346      1.488      1.999
REMARK INTER + INTRA:          -3.978
REMARK INTER:                  -3.942
REMARK INTRA:                  -0.036
REMARK UNBOUND:                -0.045
REMARK SMILES O=C([O-])CCC(=O)[O-]
REMARK SMILES IDX 4 1 2 2 1 3 3 4 5 5 6 6 7 7 8 8
REMARK H PARENT
REMARK Flexibility Score: inf
ROOT
ATOM      1  C   UNL     1      73.729 -37.470  10.735  1.00  0.00     0.059 C 
ENDROOT
BRANCH   1   2
ATOM      2  C   UNL     1      75.115 -37.489  11.304  1.00  0.00     0.042 C 
ATOM      3  O   UNL     1      75.389 -38.231  12.284  1.00  0.00    -0.550 OA
ATOM      4  O   UNL     1      76.094 -36.656  10.778  1.00  0.00    -0.550 OA
ENDBRANCH   1   2
BRANCH   1   5
ATOM      5  C   UNL     1      72.688 -37.898  11.775  1.00  0.00     0.059 C 
BRANCH   5   6
ATOM      6  C   UNL     1      71.428 -38.384  11.127  1.00  0.00     0.042 C 
ATOM      7  O   UNL     1      70.754 -37.614  10.393  1.00  0.00    -0.550 OA
ATOM      8  O   UNL     1      71.020 -39.702  11.300  1.00  0.00    -0.550 OA
ENDBRANCH   5   6
ENDBRANCH   1   5
TORSDOF 3
ENDMDL
MODEL 5
REMARK VINA RESULT:    -3.153     14.561     15.748
REMARK INTER + INTRA:          -3.751
REMARK INTER:                  -3.665
REMARK INTRA:                  -0.085
REMARK UNBOUND:                -0.045
REMARK SMILES O=C([O-])CCC(=O)[O-]
REMARK SMILES IDX 4 1 2 2 1 3 3 4 5 5 6 6 7 7 8 8
REMARK H PARENT
REMARK Flexibility Score: inf
ROOT
ATOM      1  C   UNL     1      62.739 -28.414  13.598  1.00  0.00     0.059 C 
ENDROOT
BRANCH   1   2
ATOM      2  C   UNL     1      62.404 -26.956  13.672  1.00  0.00     0.042 C 
ATOM      3  O   UNL     1      61.881 -26.477  14.713  1.00  0.00    -0.550 OA
ATOM      4  O   UNL     1      62.632 -26.133  12.576  1.00  0.00    -0.550 OA
ENDBRANCH   1   2
BRANCH   1   5
ATOM      5  C   UNL     1      63.210 -28.953  14.953  1.00  0.00     0.059 C 
BRANCH   5   6
ATOM      6  C   UNL     1      62.352 -30.087  15.425  1.00  0.00     0.042 C 
ATOM      7  O   UNL     1      61.515 -29.907  16.348  1.00  0.00    -0.550 OA
ATOM      8  O   UNL     1      62.449 -31.332  14.817  1.00  0.00    -0.550 OA
ENDBRANCH   5   6
ENDBRANCH   1   5
TORSDOF 3
ENDMDL
MODEL 6
REMARK VINA RESULT:    -3.131      2.283      2.984
REMARK INTER + INTRA:          -3.726
REMARK INTER:                  -3.683
REMARK INTRA:                  -0.043
REMARK UNBOUND:                -0.045
REMARK SMILES O=C([O-])CCC(=O)[O-]
REMARK SMILES IDX 4 1 2 2 1 3 3 4 5 5 6 6 7 7 8 8
REMARK H PARENT
REMARK Flexibility Score: inf
ROOT
ATOM      1  C   UNL     1      75.899 -36.630  10.324  1.00  0.00     0.059 C 
ENDROOT
BRANCH   1   2
ATOM      2  C   UNL     1      76.175 -37.522  11.495  1.00  0.00     0.042 C 
ATOM      3  O   UNL     1      75.226 -38.080  12.106  1.00  0.00    -0.550 OA
ATOM      4  O   UNL     1      77.479 -37.707  11.937  1.00  0.00    -0.550 OA
ENDBRANCH   1   2
BRANCH   1   5
ATOM      5  C   UNL     1      74.650 -37.078   9.557  1.00  0.00     0.059 C 
BRANCH   5   6
ATOM      6  C   UNL     1      74.735 -36.715   8.106  1.00  0.00     0.042 C 
ATOM      7  O   UNL     1      75.844 -36.734   7.511  1.00  0.00    -0.550 OA
ATOM      8  O   UNL     1      73.580 -36.396   7.401  1.00  0.00    -0.550 OA
ENDBRANCH   5   6
ENDBRANCH   1   5
TORSDOF 3
ENDMDL
MODEL 7
REMARK VINA RESULT:    -3.123     13.963     15.550
REMARK INTER + INTRA:          -3.717
REMARK INTER:                  -3.666
REMARK INTRA:                  -0.050
REMARK UNBOUND:                -0.045
REMARK SMILES O=C([O-])CCC(=O)[O-]
REMARK SMILES IDX 4 1 2 2 1 3 3 4 5 5 6 6 7 7 8 8
REMARK H PARENT
REMARK Flexibility Score: inf
ROOT
ATOM      1  C   UNL     1      63.172 -29.181  14.601  1.00  0.00     0.059 C 
ENDROOT
BRANCH   1   2
ATOM      2  C   UNL     1      62.671 -30.561  14.302  1.00  0.00     0.042 C 
ATOM      3  O   UNL     1      62.930 -31.104  13.195  1.00  0.00    -0.550 OA
ATOM      4  O   UNL     1      61.885 -31.232  15.230  1.00  0.00    -0.550 OA
ENDBRANCH   1   2
BRANCH   1   5
ATOM      5  C   UNL     1      62.692 -28.169  13.555  1.00  0.00     0.059 C 
BRANCH   5   6
ATOM      6  C   UNL     1      62.157 -26.925  14.196  1.00  0.00     0.042 C 
ATOM      7  O   UNL     1      62.134 -25.841  13.556  1.00  0.00    -0.550 OA
ATOM      8  O   UNL     1      61.646 -26.972  15.488  1.00  0.00    -0.550 OA
ENDBRANCH   5   6
ENDBRANCH   1   5
TORSDOF 3
ENDMDL
MODEL 8
REMARK VINA RESULT:    -3.086     14.096     15.204
REMARK INTER + INTRA:          -3.673
REMARK INTER:                  -3.610
REMARK INTRA:                  -0.063
REMARK UNBOUND:                -0.045
REMARK SMILES O=C([O-])CCC(=O)[O-]
REMARK SMILES IDX 4 1 2 2 1 3 3 4 5 5 6 6 7 7 8 8
REMARK H PARENT
REMARK Flexibility Score: inf
ROOT
ATOM      1  C   UNL     1      63.200 -29.930  13.585  1.00  0.00     0.059 C 
ENDROOT
BRANCH   1   2
ATOM      2  C   UNL     1      62.444 -31.170  13.953  1.00  0.00     0.042 C 
ATOM      3  O   UNL     1      62.339 -31.514  15.159  1.00  0.00    -0.550 OA
ATOM      4  O   UNL     1      61.890 -31.967  12.959  1.00  0.00    -0.550 OA
ENDBRANCH   1   2
BRANCH   1   5
ATOM      5  C   UNL     1      63.128 -28.876  14.696  1.00  0.00     0.059 C 
BRANCH   5   6
ATOM      6  C   UNL     1      62.349 -27.671  14.264  1.00  0.00     0.042 C 
ATOM      7  O   UNL     1      61.799 -26.931  15.121  1.00  0.00    -0.550 OA
ATOM      8  O   UNL     1      62.266 -27.343  12.916  1.00  0.00    -0.550 OA
ENDBRANCH   5   6
ENDBRANCH   1   5
TORSDOF 3
ENDMDL
MODEL 9
REMARK VINA RESULT:    -3.079     13.744     15.461
REMARK INTER + INTRA:          -3.665
REMARK INTER:                  -3.612
REMARK INTRA:                  -0.053
REMARK UNBOUND:                -0.045
REMARK SMILES O=C([O-])CCC(=O)[O-]
REMARK SMILES IDX 4 1 2 2 1 3 3 4 5 5 6 6 7 7 8 8
REMARK H PARENT
REMARK Flexibility Score: inf
ROOT
ATOM      1  C   UNL     1      62.903 -28.598  15.243  1.00  0.00     0.059 C 
ENDROOT
BRANCH   1   2
ATOM      2  C   UNL     1      62.168 -27.302  15.090  1.00  0.00     0.042 C 
ATOM      3  O   UNL     1      62.378 -26.568  14.089  1.00  0.00    -0.550 OA
ATOM      4  O   UNL     1      61.279 -26.886  16.074  1.00  0.00    -0.550 OA
ENDBRANCH   1   2
BRANCH   1   5
ATOM      5  C   UNL     1      63.076 -29.310  13.897  1.00  0.00     0.059 C 
BRANCH   5   6
ATOM      6  C   UNL     1      62.710 -30.760  13.987  1.00  0.00     0.042 C 
ATOM      7  O   UNL     1      62.177 -31.215  15.033  1.00  0.00    -0.550 OA
ATOM      8  O   UNL     1      62.920 -31.599  12.900  1.00  0.00    -0.550 OA
ENDBRANCH   5   6
ENDBRANCH   1   5
TORSDOF 3
ENDMDL
