MODEL 1
REMARK VINA RESULT:    -5.417      0.000      0.000
REMARK INTER + INTRA:          -5.734
REMARK INTER:                  -5.734
REMARK INTRA:                   0.000
REMARK UNBOUND:                 0.000
REMARK SMILES Cc1cc(O)c(C)c(C)c1O
REMARK SMILES IDX 1 1 2 2 3 3 4 4 6 5 8 6 10 7 9 8 7 9 11 10 5 12
REMARK H PARENT 11 11 5 13
REMARK Flexibility Score: inf
ROOT
ATOM      1  C   UNL     1       6.675  -8.593  -0.939  1.00  0.00     0.048 C 
ATOM      2  C   UNL     1       7.001 -10.038  -1.203  1.00  0.00    -0.005 A 
ATOM      3  C   UNL     1       7.852 -10.717  -0.326  1.00  0.00     0.053 A 
ATOM      4  C   UNL     1       8.191 -12.052  -0.538  1.00  0.00     0.119 A 
ATOM      5  C   UNL     1       7.691 -12.741  -1.668  1.00  0.00    -0.003 A 
ATOM      6  C   UNL     1       6.774 -12.081  -2.533  1.00  0.00    -0.002 A 
ATOM      7  C   UNL     1       6.454 -10.722  -2.309  1.00  0.00     0.121 A 
ATOM      8  C   UNL     1       6.154 -12.808  -3.705  1.00  0.00     0.049 C 
ATOM      9  C   UNL     1       8.122 -14.172  -1.912  1.00  0.00     0.049 C 
ENDROOT
BRANCH   7  10
ATOM     10  O   UNL     1       5.593 -10.069  -3.199  1.00  0.00    -0.507 OA
ATOM     11  H   UNL     1       5.814  -9.905  -4.172  1.00  0.00     0.293 HD
ENDBRANCH   7  10
BRANCH   4  12
ATOM     12  O   UNL     1       9.023 -12.667   0.402  1.00  0.00    -0.508 OA
ATOM     13  H   UNL     1       8.867 -13.598   0.765  1.00  0.00     0.293 HD
ENDBRANCH   4  12
TORSDOF 2
ENDMDL
MODEL 2
REMARK VINA RESULT:    -5.322      0.790      3.186
REMARK INTER + INTRA:          -5.634
REMARK INTER:                  -5.634
REMARK INTRA:                   0.000
REMARK UNBOUND:                 0.000
REMARK SMILES Cc1cc(O)c(C)c(C)c1O
REMARK SMILES IDX 1 1 2 2 3 3 4 4 6 5 8 6 10 7 9 8 7 9 11 10 5 12
REMARK H PARENT 11 11 5 13
REMARK Flexibility Score: inf
ROOT
ATOM      1  C   UNL     1       7.631  -9.968   0.537  1.00  0.00     0.048 C 
ATOM      2  C   UNL     1       7.382 -10.838  -0.667  1.00  0.00    -0.005 A 
ATOM      3  C   UNL     1       6.591 -10.349  -1.710  1.00  0.00     0.053 A 
ATOM      4  C   UNL     1       6.325 -11.123  -2.838  1.00  0.00     0.119 A 
ATOM      5  C   UNL     1       6.839 -12.438  -2.935  1.00  0.00    -0.003 A 
ATOM      6  C   UNL     1       7.697 -12.923  -1.910  1.00  0.00    -0.002 A 
ATOM      7  C   UNL     1       7.943 -12.128  -0.766  1.00  0.00     0.121 A 
ATOM      8  C   UNL     1       8.332 -14.292  -2.015  1.00  0.00     0.049 C 
ATOM      9  C   UNL     1       6.486 -13.282  -4.140  1.00  0.00     0.049 C 
ENDROOT
BRANCH   7  10
ATOM     10  O   UNL     1       8.746 -12.640   0.260  1.00  0.00    -0.507 OA
ATOM     11  H   UNL     1       8.387 -12.918   1.164  1.00  0.00     0.293 HD
ENDBRANCH   7  10
BRANCH   4  12
ATOM     12  O   UNL     1       5.550 -10.549  -3.851  1.00  0.00    -0.508 OA
ATOM     13  H   UNL     1       5.396  -9.554  -3.942  1.00  0.00     0.293 HD
ENDBRANCH   4  12
TORSDOF 2
ENDMDL
MODEL 3
REMARK VINA RESULT:    -5.180      0.647      3.010
REMARK INTER + INTRA:          -5.483
REMARK INTER:                  -5.483
REMARK INTRA:                   0.000
REMARK UNBOUND:                 0.000
REMARK SMILES Cc1cc(O)c(C)c(C)c1O
REMARK SMILES IDX 1 1 2 2 3 3 4 4 6 5 8 6 10 7 9 8 7 9 11 10 5 12
REMARK H PARENT 11 11 5 13
REMARK Flexibility Score: inf
ROOT
ATOM      1  C   UNL     1       6.283 -13.362  -4.005  1.00  0.00     0.048 C 
ATOM      2  C   UNL     1       6.762 -12.531  -2.845  1.00  0.00    -0.005 A 
ATOM      3  C   UNL     1       7.611 -13.109  -1.897  1.00  0.00     0.053 A 
ATOM      4  C   UNL     1       8.071 -12.380  -0.801  1.00  0.00     0.119 A 
ATOM      5  C   UNL     1       7.663 -11.038  -0.618  1.00  0.00    -0.003 A 
ATOM      6  C   UNL     1       6.852 -10.419  -1.610  1.00  0.00    -0.002 A 
ATOM      7  C   UNL     1       6.383 -11.179  -2.707  1.00  0.00     0.121 A 
ATOM      8  C   UNL     1       6.461  -8.962  -1.493  1.00  0.00     0.049 C 
ATOM      9  C   UNL     1       8.125 -10.285   0.611  1.00  0.00     0.049 C 
ENDROOT
BRANCH   7  10
ATOM     10  O   UNL     1       5.541 -10.573  -3.647  1.00  0.00    -0.507 OA
ATOM     11  H   UNL     1       5.267 -11.011  -4.516  1.00  0.00     0.293 HD
ENDBRANCH   7  10
BRANCH   4  12
ATOM     12  O   UNL     1       8.940 -13.022   0.086  1.00  0.00    -0.508 OA
ATOM     13  H   UNL     1       9.517 -12.534   0.758  1.00  0.00     0.293 HD
ENDBRANCH   4  12
TORSDOF 2
ENDMDL
MODEL 4
REMARK VINA RESULT:    -5.118      1.277      3.355
REMARK INTER + INTRA:          -5.417
REMARK INTER:                  -5.417
REMARK INTRA:                   0.000
REMARK UNBOUND:                 0.000
REMARK SMILES Cc1cc(O)c(C)c(C)c1O
REMARK SMILES IDX 1 1 2 2 3 3 4 4 6 5 8 6 10 7 9 8 7 9 11 10 5 12
REMARK H PARENT 11 11 5 13
REMARK Flexibility Score: inf
ROOT
ATOM      1  C   UNL     1       9.168 -11.176   0.596  1.00  0.00     0.048 C 
ATOM      2  C   UNL     1       8.122 -11.030  -0.477  1.00  0.00    -0.005 A 
ATOM      3  C   UNL     1       7.658  -9.754  -0.808  1.00  0.00     0.053 A 
ATOM      4  C   UNL     1       6.683  -9.572  -1.788  1.00  0.00     0.119 A 
ATOM      5  C   UNL     1       6.127 -10.690  -2.452  1.00  0.00    -0.003 A 
ATOM      6  C   UNL     1       6.636 -11.988  -2.170  1.00  0.00    -0.002 A 
ATOM      7  C   UNL     1       7.615 -12.154  -1.162  1.00  0.00     0.121 A 
ATOM      8  C   UNL     1       6.125 -13.200  -2.917  1.00  0.00     0.049 C 
ATOM      9  C   UNL     1       5.026 -10.474  -3.468  1.00  0.00     0.049 C 
ENDROOT
BRANCH   7  10
ATOM     10  O   UNL     1       8.068 -13.442  -0.857  1.00  0.00    -0.507 OA
ATOM     11  H   UNL     1       7.630 -14.286  -1.204  1.00  0.00     0.293 HD
ENDBRANCH   7  10
BRANCH   4  12
ATOM     12  O   UNL     1       6.295  -8.261  -2.081  1.00  0.00    -0.508 OA
ATOM     13  H   UNL     1       6.483  -7.805  -2.964  1.00  0.00     0.293 HD
ENDBRANCH   4  12
TORSDOF 2
ENDMDL
MODEL 5
REMARK VINA RESULT:    -5.062      1.518      2.289
REMARK INTER + INTRA:          -5.358
REMARK INTER:                  -5.358
REMARK INTRA:                   0.000
REMARK UNBOUND:                 0.000
REMARK SMILES Cc1cc(O)c(C)c(C)c1O
REMARK SMILES IDX 1 1 2 2 3 3 4 4 6 5 8 6 10 7 9 8 7 9 11 10 5 12
REMARK H PARENT 11 11 5 13
REMARK Flexibility Score: inf
ROOT
ATOM      1  C   UNL     1       9.202 -10.489   0.596  1.00  0.00     0.048 C 
ATOM      2  C   UNL     1       8.370 -11.208  -0.433  1.00  0.00    -0.005 A 
ATOM      3  C   UNL     1       8.527 -12.587  -0.593  1.00  0.00     0.053 A 
ATOM      4  C   UNL     1       7.786 -13.292  -1.541  1.00  0.00     0.119 A 
ATOM      5  C   UNL     1       6.873 -12.611  -2.378  1.00  0.00    -0.003 A 
ATOM      6  C   UNL     1       6.658 -11.218  -2.182  1.00  0.00    -0.002 A 
ATOM      7  C   UNL     1       7.429 -10.518  -1.225  1.00  0.00     0.121 A 
ATOM      8  C   UNL     1       5.631 -10.469  -3.002  1.00  0.00     0.049 C 
ATOM      9  C   UNL     1       6.125 -13.386  -3.442  1.00  0.00     0.049 C 
ENDROOT
BRANCH   7  10
ATOM     10  O   UNL     1       7.247  -9.137  -1.080  1.00  0.00    -0.507 OA
ATOM     11  H   UNL     1       6.362  -8.714  -0.834  1.00  0.00     0.293 HD
ENDBRANCH   7  10
BRANCH   4  12
ATOM     12  O   UNL     1       7.979 -14.674  -1.617  1.00  0.00    -0.508 OA
ATOM     13  H   UNL     1       8.674 -15.174  -1.077  1.00  0.00     0.293 HD
ENDBRANCH   4  12
TORSDOF 2
ENDMDL
MODEL 6
REMARK VINA RESULT:    -4.892      0.691      4.363
REMARK INTER + INTRA:          -5.178
REMARK INTER:                  -5.178
REMARK INTRA:                   0.000
REMARK UNBOUND:                 0.000
REMARK SMILES Cc1cc(O)c(C)c(C)c1O
REMARK SMILES IDX 1 1 2 2 3 3 4 4 6 5 8 6 10 7 9 8 7 9 11 10 5 12
REMARK H PARENT 11 11 5 13
REMARK Flexibility Score: inf
ROOT
ATOM      1  C   UNL     1       8.190 -14.491  -1.949  1.00  0.00     0.048 C 
ATOM      2  C   UNL     1       7.651 -13.093  -1.807  1.00  0.00    -0.005 A 
ATOM      3  C   UNL     1       6.748 -12.610  -2.758  1.00  0.00     0.053 A 
ATOM      4  C   UNL     1       6.231 -11.318  -2.672  1.00  0.00     0.119 A 
ATOM      5  C   UNL     1       6.635 -10.460  -1.623  1.00  0.00    -0.003 A 
ATOM      6  C   UNL     1       7.504 -10.960  -0.614  1.00  0.00    -0.002 A 
ATOM      7  C   UNL     1       8.029 -12.269  -0.726  1.00  0.00     0.121 A 
ATOM      8  C   UNL     1       7.896 -10.101   0.568  1.00  0.00     0.049 C 
ATOM      9  C   UNL     1       6.109  -9.041  -1.585  1.00  0.00     0.049 C 
ENDROOT
BRANCH   7  10
ATOM     10  O   UNL     1       8.926 -12.730   0.245  1.00  0.00    -0.507 OA
ATOM     11  H   UNL     1       9.790 -12.258   0.476  1.00  0.00     0.293 HD
ENDBRANCH   7  10
BRANCH   4  12
ATOM     12  O   UNL     1       5.309 -10.923  -3.646  1.00  0.00    -0.508 OA
ATOM     13  H   UNL     1       4.702 -10.120  -3.550  1.00  0.00     0.293 HD
ENDBRANCH   4  12
TORSDOF 2
ENDMDL
MODEL 7
REMARK VINA RESULT:    -4.888      1.378      4.030
REMARK INTER + INTRA:          -5.174
REMARK INTER:                  -5.174
REMARK INTRA:                   0.000
REMARK UNBOUND:                 0.000
REMARK SMILES Cc1cc(O)c(C)c(C)c1O
REMARK SMILES IDX 1 1 2 2 3 3 4 4 6 5 8 6 10 7 9 8 7 9 11 10 5 12
REMARK H PARENT 11 11 5 13
REMARK Flexibility Score: inf
ROOT
ATOM      1  C   UNL     1       6.134 -13.367  -4.334  1.00  0.00     0.048 C 
ATOM      2  C   UNL     1       6.536 -12.415  -3.239  1.00  0.00    -0.005 A 
ATOM      3  C   UNL     1       6.013 -11.119  -3.236  1.00  0.00     0.053 A 
ATOM      4  C   UNL     1       6.366 -10.201  -2.248  1.00  0.00     0.119 A 
ATOM      5  C   UNL     1       7.286 -10.564  -1.237  1.00  0.00    -0.003 A 
ATOM      6  C   UNL     1       7.776 -11.899  -1.192  1.00  0.00    -0.002 A 
ATOM      7  C   UNL     1       7.417 -12.812  -2.211  1.00  0.00     0.121 A 
ATOM      8  C   UNL     1       8.697 -12.350  -0.080  1.00  0.00     0.049 C 
ATOM      9  C   UNL     1       7.702  -9.532  -0.211  1.00  0.00     0.049 C 
ENDROOT
BRANCH   7  10
ATOM     10  O   UNL     1       7.949 -14.107  -2.185  1.00  0.00    -0.507 OA
ATOM     11  H   UNL     1       8.361 -14.525  -1.362  1.00  0.00     0.293 HD
ENDBRANCH   7  10
BRANCH   4  12
ATOM     12  O   UNL     1       5.776  -8.935  -2.300  1.00  0.00    -0.508 OA
ATOM     13  H   UNL     1       5.323  -8.560  -3.123  1.00  0.00     0.293 HD
ENDBRANCH   4  12
TORSDOF 2
ENDMDL
MODEL 8
REMARK VINA RESULT:    -4.730      3.035      3.753
REMARK INTER + INTRA:          -5.006
REMARK INTER:                  -5.006
REMARK INTRA:                   0.000
REMARK UNBOUND:                 0.000
REMARK SMILES Cc1cc(O)c(C)c(C)c1O
REMARK SMILES IDX 1 1 2 2 3 3 4 4 6 5 8 6 10 7 9 8 7 9 11 10 5 12
REMARK H PARENT 11 11 5 13
REMARK Flexibility Score: inf
ROOT
ATOM      1  C   UNL     1       2.383 -13.161  -0.993  1.00  0.00     0.048 C 
ATOM      2  C   UNL     1       3.620 -13.207  -1.849  1.00  0.00    -0.005 A 
ATOM      3  C   UNL     1       4.871 -13.323  -1.235  1.00  0.00     0.053 A 
ATOM      4  C   UNL     1       6.044 -13.359  -1.988  1.00  0.00     0.119 A 
ATOM      5  C   UNL     1       5.987 -13.255  -3.398  1.00  0.00    -0.003 A 
ATOM      6  C   UNL     1       4.717 -13.201  -4.038  1.00  0.00    -0.002 A 
ATOM      7  C   UNL     1       3.539 -13.151  -3.257  1.00  0.00     0.121 A 
ATOM      8  C   UNL     1       4.611 -13.171  -5.546  1.00  0.00     0.049 C 
ATOM      9  C   UNL     1       7.276 -13.234  -4.190  1.00  0.00     0.049 C 
ENDROOT
BRANCH   7  10
ATOM     10  O   UNL     1       2.300 -13.043  -3.898  1.00  0.00    -0.507 OA
ATOM     11  H   UNL     1       1.931 -13.747  -4.524  1.00  0.00     0.293 HD
ENDBRANCH   7  10
BRANCH   4  12
ATOM     12  O   UNL     1       7.251 -13.508  -1.299  1.00  0.00    -0.508 OA
ATOM     13  H   UNL     1       7.356 -13.337  -0.308  1.00  0.00     0.293 HD
ENDBRANCH   4  12
TORSDOF 2
ENDMDL
MODEL 9
REMARK VINA RESULT:    -4.634      1.829      2.897
REMARK INTER + INTRA:          -4.905
REMARK INTER:                  -4.905
REMARK INTRA:                   0.000
REMARK UNBOUND:                 0.000
REMARK SMILES Cc1cc(O)c(C)c(C)c1O
REMARK SMILES IDX 1 1 2 2 3 3 4 4 6 5 8 6 10 7 9 8 7 9 11 10 5 12
REMARK H PARENT 11 11 5 13
REMARK Flexibility Score: inf
ROOT
ATOM      1  C   UNL     1       4.647 -10.335  -3.591  1.00  0.00     0.048 C 
ATOM      2  C   UNL     1       5.756 -10.540  -2.594  1.00  0.00    -0.005 A 
ATOM      3  C   UNL     1       6.188  -9.458  -1.822  1.00  0.00     0.053 A 
ATOM      4  C   UNL     1       7.219  -9.599  -0.894  1.00  0.00     0.119 A 
ATOM      5  C   UNL     1       7.865 -10.847  -0.735  1.00  0.00    -0.003 A 
ATOM      6  C   UNL     1       7.393 -11.971  -1.469  1.00  0.00    -0.002 A 
ATOM      7  C   UNL     1       6.355 -11.804  -2.415  1.00  0.00     0.121 A 
ATOM      8  C   UNL     1       8.004 -13.340  -1.268  1.00  0.00     0.049 C 
ATOM      9  C   UNL     1       9.023 -10.961   0.233  1.00  0.00     0.049 C 
ENDROOT
BRANCH   7  10
ATOM     10  O   UNL     1       5.937 -12.907  -3.170  1.00  0.00    -0.507 OA
ATOM     11  H   UNL     1       5.807 -12.881  -4.172  1.00  0.00     0.293 HD
ENDBRANCH   7  10
BRANCH   4  12
ATOM     12  O   UNL     1       7.570  -8.476  -0.140  1.00  0.00    -0.508 OA
ATOM     13  H   UNL     1       8.405  -8.421   0.429  1.00  0.00     0.293 HD
ENDBRANCH   4  12
TORSDOF 2
ENDMDL
