MODEL 1
REMARK VINA RESULT:    -3.729      0.000      0.000
REMARK INTER + INTRA:         -11.813
REMARK INTER:                  -8.089
REMARK INTRA:                  -3.725
REMARK UNBOUND:                -3.725
REMARK SMILES CCCCCCCCCCCCCCCCCCCCCC(=O)[O-]
REMARK SMILES IDX 12 1 11 2 10 3 9 4 8 5 7 6 6 7 5 8 4 9 3 10 2 11 1 12 13 13
REMARK SMILES IDX 14 14 15 15 16 16 17 17 18 18 19 19 20 20 21 21 22 22 23 23
REMARK SMILES IDX 24 24
REMARK H PARENT
REMARK Flexibility Score: inf
ROOT
ATOM      1  C   UNL     1      10.934 -22.913 -38.798  1.00  0.00     0.000 C 
ENDROOT
BRANCH   1   2
ATOM      2  C   UNL     1      11.183 -23.195 -37.309  1.00  0.00     0.000 C 
BRANCH   2   3
ATOM      3  C   UNL     1      10.305 -24.334 -36.762  1.00  0.00     0.000 C 
BRANCH   3   4
ATOM      4  C   UNL     1       9.397 -23.947 -35.578  1.00  0.00    -0.000 C 
BRANCH   4   5
ATOM      5  C   UNL     1       9.653 -22.548 -34.989  1.00  0.00    -0.000 C 
BRANCH   5   6
ATOM      6  C   UNL     1       8.404 -21.654 -35.010  1.00  0.00    -0.000 C 
BRANCH   6   7
ATOM      7  C   UNL     1       7.390 -22.148 -36.048  1.00  0.00    -0.000 C 
BRANCH   7   8
ATOM      8  C   UNL     1       6.592 -20.974 -36.638  1.00  0.00    -0.000 C 
BRANCH   8   9
ATOM      9  C   UNL     1       7.205 -19.607 -36.296  1.00  0.00    -0.000 C 
BRANCH   9  10
ATOM     10  C   UNL     1       6.621 -18.467 -37.150  1.00  0.00    -0.000 C 
BRANCH  10  11
ATOM     11  C   UNL     1       5.342 -17.872 -36.538  1.00  0.00    -0.003 C 
ATOM     12  C   UNL     1       5.558 -17.332 -35.125  1.00  0.00     0.004 C 
ENDBRANCH  10  11
ENDBRANCH   9  10
ENDBRANCH   8   9
ENDBRANCH   7   8
ENDBRANCH   6   7
ENDBRANCH   5   6
ENDBRANCH   4   5
ENDBRANCH   3   4
ENDBRANCH   2   3
ENDBRANCH   1   2
BRANCH   1  13
ATOM     13  C   UNL     1       9.429 -22.859 -39.102  1.00  0.00     0.000 C 
BRANCH  13  14
ATOM     14  C   UNL     1       8.940 -21.439 -39.433  1.00  0.00     0.000 C 
BRANCH  14  15
ATOM     15  C   UNL     1      10.101 -20.464 -39.694  1.00  0.00     0.000 C 
BRANCH  15  16
ATOM     16  C   UNL     1      10.092 -19.256 -38.739  1.00  0.00     0.000 C 
BRANCH  16  17
ATOM     17  C   UNL     1      10.551 -19.557 -37.297  1.00  0.00     0.000 C 
BRANCH  17  18
ATOM     18  C   UNL     1      12.051 -19.331 -37.028  1.00  0.00     0.000 C 
BRANCH  18  19
ATOM     19  C   UNL     1      12.892 -18.973 -38.270  1.00  0.00     0.000 C 
BRANCH  19  20
ATOM     20  C   UNL     1      13.795 -20.109 -38.795  1.00  0.00     0.006 C 
BRANCH  20  21
ATOM     21  C   UNL     1      14.125 -21.191 -37.754  1.00  0.00     0.053 C 
BRANCH  21  22
ATOM     22  C   UNL     1      14.909 -22.320 -38.346  1.00  0.00     0.041 C 
ATOM     23  O   UNL     1      15.592 -22.138 -39.388  1.00  0.00    -0.550 OA
ATOM     24  O   UNL     1      14.861 -23.582 -37.765  1.00  0.00    -0.550 OA
ENDBRANCH  21  22
ENDBRANCH  20  21
ENDBRANCH  19  20
ENDBRANCH  18  19
ENDBRANCH  17  18
ENDBRANCH  16  17
ENDBRANCH  15  16
ENDBRANCH  14  15
ENDBRANCH  13  14
ENDBRANCH   1  13
TORSDOF 20
ENDMDL
MODEL 2
REMARK VINA RESULT:    -3.719      3.598      7.228
REMARK INTER + INTRA:         -11.791
REMARK INTER:                  -7.939
REMARK INTRA:                  -3.852
REMARK UNBOUND:                -3.725
REMARK SMILES CCCCCCCCCCCCCCCCCCCCCC(=O)[O-]
REMARK SMILES IDX 12 1 11 2 10 3 9 4 8 5 7 6 6 7 5 8 4 9 3 10 2 11 1 12 13 13
REMARK SMILES IDX 14 14 15 15 16 16 17 17 18 18 19 19 20 20 21 21 22 22 23 23
REMARK SMILES IDX 24 24
REMARK H PARENT
REMARK Flexibility Score: inf
ROOT
ATOM      1  C   UNL     1      10.301 -22.046 -39.048  1.00  0.00     0.000 C 
ENDROOT
BRANCH   1   2
ATOM      2  C   UNL     1      10.893 -23.231 -38.272  1.00  0.00     0.000 C 
BRANCH   2   3
ATOM      3  C   UNL     1      11.443 -24.334 -39.194  1.00  0.00     0.000 C 
BRANCH   3   4
ATOM      4  C   UNL     1      11.884 -23.856 -40.592  1.00  0.00    -0.000 C 
BRANCH   4   5
ATOM      5  C   UNL     1      13.332 -24.209 -40.977  1.00  0.00    -0.000 C 
BRANCH   5   6
ATOM      6  C   UNL     1      14.112 -24.863 -39.827  1.00  0.00    -0.000 C 
BRANCH   6   7
ATOM      7  C   UNL     1      15.171 -23.907 -39.265  1.00  0.00    -0.000 C 
BRANCH   7   8
ATOM      8  C   UNL     1      14.784 -23.426 -37.858  1.00  0.00    -0.000 C 
BRANCH   8   9
ATOM      9  C   UNL     1      14.344 -21.954 -37.831  1.00  0.00    -0.000 C 
BRANCH   9  10
ATOM     10  C   UNL     1      14.798 -21.178 -39.079  1.00  0.00    -0.000 C 
BRANCH  10  11
ATOM     11  C   UNL     1      13.623 -20.525 -39.824  1.00  0.00    -0.003 C 
ATOM     12  C   UNL     1      13.359 -19.089 -39.371  1.00  0.00     0.004 C 
ENDBRANCH  10  11
ENDBRANCH   9  10
ENDBRANCH   8   9
ENDBRANCH   7   8
ENDBRANCH   6   7
ENDBRANCH   5   6
ENDBRANCH   4   5
ENDBRANCH   3   4
ENDBRANCH   2   3
ENDBRANCH   1   2
BRANCH   1  13
ATOM     13  C   UNL     1      10.265 -20.782 -38.174  1.00  0.00     0.000 C 
BRANCH  13  14
ATOM     14  C   UNL     1      10.986 -20.969 -36.829  1.00  0.00     0.000 C 
BRANCH  14  15
ATOM     15  C   UNL     1      10.039 -20.807 -35.627  1.00  0.00     0.000 C 
BRANCH  15  16
ATOM     16  C   UNL     1       9.662 -22.152 -34.979  1.00  0.00     0.000 C 
BRANCH  16  17
ATOM     17  C   UNL     1       8.168 -22.527 -35.070  1.00  0.00     0.000 C 
BRANCH  17  18
ATOM     18  C   UNL     1       7.594 -22.581 -36.499  1.00  0.00     0.000 C 
BRANCH  18  19
ATOM     19  C   UNL     1       6.345 -21.708 -36.735  1.00  0.00     0.000 C 
BRANCH  19  20
ATOM     20  C   UNL     1       6.633 -20.289 -37.269  1.00  0.00     0.006 C 
BRANCH  20  21
ATOM     21  C   UNL     1       6.876 -19.236 -36.176  1.00  0.00     0.053 C 
BRANCH  21  22
ATOM     22  C   UNL     1       5.800 -18.196 -36.150  1.00  0.00     0.041 C 
ATOM     23  O   UNL     1       4.917 -18.175 -37.048  1.00  0.00    -0.550 OA
ATOM     24  O   UNL     1       5.789 -17.230 -35.150  1.00  0.00    -0.550 OA
ENDBRANCH  21  22
ENDBRANCH  20  21
ENDBRANCH  19  20
ENDBRANCH  18  19
ENDBRANCH  17  18
ENDBRANCH  16  17
ENDBRANCH  15  16
ENDBRANCH  14  15
ENDBRANCH  13  14
ENDBRANCH   1  13
TORSDOF 20
ENDMDL
MODEL 3
REMARK VINA RESULT:    -3.718      3.482      7.028
REMARK INTER + INTRA:         -11.789
REMARK INTER:                  -7.659
REMARK INTRA:                  -4.130
REMARK UNBOUND:                -3.725
REMARK SMILES CCCCCCCCCCCCCCCCCCCCCC(=O)[O-]
REMARK SMILES IDX 12 1 11 2 10 3 9 4 8 5 7 6 6 7 5 8 4 9 3 10 2 11 1 12 13 13
REMARK SMILES IDX 14 14 15 15 16 16 17 17 18 18 19 19 20 20 21 21 22 22 23 23
REMARK SMILES IDX 24 24
REMARK H PARENT
REMARK Flexibility Score: inf
ROOT
ATOM      1  C   UNL     1      10.774 -22.998 -38.706  1.00  0.00     0.000 C 
ENDROOT
BRANCH   1   2
ATOM      2  C   UNL     1       9.634 -21.980 -38.853  1.00  0.00     0.000 C 
BRANCH   2   3
ATOM      3  C   UNL     1       9.879 -20.969 -39.988  1.00  0.00     0.000 C 
BRANCH   3   4
ATOM      4  C   UNL     1       9.776 -19.487 -39.576  1.00  0.00    -0.000 C 
BRANCH   4   5
ATOM      5  C   UNL     1      11.047 -18.897 -38.938  1.00  0.00    -0.000 C 
BRANCH   5   6
ATOM      6  C   UNL     1      10.938 -18.756 -37.412  1.00  0.00    -0.000 C 
BRANCH   6   7
ATOM      7  C   UNL     1      11.770 -19.829 -36.699  1.00  0.00    -0.000 C 
BRANCH   7   8
ATOM      8  C   UNL     1      13.246 -19.745 -37.116  1.00  0.00    -0.000 C 
BRANCH   8   9
ATOM      9  C   UNL     1      13.802 -21.089 -37.611  1.00  0.00    -0.000 C 
BRANCH   9  10
ATOM     10  C   UNL     1      14.545 -20.964 -38.954  1.00  0.00    -0.000 C 
BRANCH  10  11
ATOM     11  C   UNL     1      13.752 -21.572 -40.122  1.00  0.00    -0.003 C 
ATOM     12  C   UNL     1      13.457 -20.558 -41.227  1.00  0.00     0.004 C 
ENDBRANCH  10  11
ENDBRANCH   9  10
ENDBRANCH   8   9
ENDBRANCH   7   8
ENDBRANCH   6   7
ENDBRANCH   5   6
ENDBRANCH   4   5
ENDBRANCH   3   4
ENDBRANCH   2   3
ENDBRANCH   1   2
BRANCH   1  13
ATOM     13  C   UNL     1      10.961 -23.403 -37.236  1.00  0.00     0.000 C 
BRANCH  13  14
ATOM     14  C   UNL     1       9.877 -24.378 -36.746  1.00  0.00     0.000 C 
BRANCH  14  15
ATOM     15  C   UNL     1       9.306 -23.981 -35.374  1.00  0.00     0.000 C 
BRANCH  15  16
ATOM     16  C   UNL     1       9.744 -22.573 -34.929  1.00  0.00     0.000 C 
BRANCH  16  17
ATOM     17  C   UNL     1       8.693 -21.464 -35.137  1.00  0.00     0.000 C 
BRANCH  17  18
ATOM     18  C   UNL     1       7.400 -21.913 -35.844  1.00  0.00     0.000 C 
BRANCH  18  19
ATOM     19  C   UNL     1       6.805 -20.889 -36.832  1.00  0.00     0.000 C 
BRANCH  19  20
ATOM     20  C   UNL     1       7.401 -19.469 -36.736  1.00  0.00     0.006 C 
BRANCH  20  21
ATOM     21  C   UNL     1       6.479 -18.356 -37.259  1.00  0.00     0.053 C 
BRANCH  21  22
ATOM     22  C   UNL     1       5.555 -17.848 -36.197  1.00  0.00     0.041 C 
ATOM     23  O   UNL     1       5.933 -17.801 -34.997  1.00  0.00    -0.550 OA
ATOM     24  O   UNL     1       4.263 -17.453 -36.528  1.00  0.00    -0.550 OA
ENDBRANCH  21  22
ENDBRANCH  20  21
ENDBRANCH  19  20
ENDBRANCH  18  19
ENDBRANCH  17  18
ENDBRANCH  16  17
ENDBRANCH  15  16
ENDBRANCH  14  15
ENDBRANCH  13  14
ENDBRANCH   1  13
TORSDOF 20
ENDMDL
MODEL 4
REMARK VINA RESULT:    -3.640      4.177      6.869
REMARK INTER + INTRA:         -11.620
REMARK INTER:                  -8.253
REMARK INTRA:                  -3.368
REMARK UNBOUND:                -3.725
REMARK SMILES CCCCCCCCCCCCCCCCCCCCCC(=O)[O-]
REMARK SMILES IDX 12 1 11 2 10 3 9 4 8 5 7 6 6 7 5 8 4 9 3 10 2 11 1 12 13 13
REMARK SMILES IDX 14 14 15 15 16 16 17 17 18 18 19 19 20 20 21 21 22 22 23 23
REMARK SMILES IDX 24 24
REMARK H PARENT
REMARK Flexibility Score: inf
ROOT
ATOM      1  C   UNL     1       8.224 -22.439 -35.153  1.00  0.00     0.000 C 
ENDROOT
BRANCH   1   2
ATOM      2  C   UNL     1       9.587 -23.098 -34.897  1.00  0.00     0.000 C 
BRANCH   2   3
ATOM      3  C   UNL     1      10.104 -23.890 -36.112  1.00  0.00     0.000 C 
BRANCH   3   4
ATOM      4  C   UNL     1       9.014 -24.375 -37.087  1.00  0.00    -0.000 C 
BRANCH   4   5
ATOM      5  C   UNL     1       8.925 -23.592 -38.410  1.00  0.00    -0.000 C 
BRANCH   5   6
ATOM      6  C   UNL     1      10.297 -23.369 -39.064  1.00  0.00    -0.000 C 
BRANCH   6   7
ATOM      7  C   UNL     1      10.424 -21.940 -39.606  1.00  0.00    -0.000 C 
BRANCH   7   8
ATOM      8  C   UNL     1       9.738 -20.935 -38.668  1.00  0.00    -0.000 C 
BRANCH   8   9
ATOM      9  C   UNL     1      10.732 -20.186 -37.766  1.00  0.00    -0.000 C 
BRANCH   9  10
ATOM     10  C   UNL     1      10.735 -18.668 -38.020  1.00  0.00    -0.000 C 
BRANCH  10  11
ATOM     11  C   UNL     1       9.315 -18.089 -38.125  1.00  0.00    -0.003 C 
ATOM     12  C   UNL     1       9.163 -17.103 -39.283  1.00  0.00     0.004 C 
ENDBRANCH  10  11
ENDBRANCH   9  10
ENDBRANCH   8   9
ENDBRANCH   7   8
ENDBRANCH   6   7
ENDBRANCH   5   6
ENDBRANCH   4   5
ENDBRANCH   3   4
ENDBRANCH   2   3
ENDBRANCH   1   2
BRANCH   1  13
ATOM     13  C   UNL     1       8.341 -20.908 -35.123  1.00  0.00     0.000 C 
BRANCH  13  14
ATOM     14  C   UNL     1       7.327 -20.216 -36.048  1.00  0.00     0.000 C 
BRANCH  14  15
ATOM     15  C   UNL     1       6.433 -21.220 -36.796  1.00  0.00     0.000 C 
BRANCH  15  16
ATOM     16  C   UNL     1       5.745 -20.605 -38.029  1.00  0.00     0.000 C 
BRANCH  16  17
ATOM     17  C   UNL     1       5.775 -19.064 -38.095  1.00  0.00     0.000 C 
BRANCH  17  18
ATOM     18  C   UNL     1       4.412 -18.375 -37.895  1.00  0.00     0.000 C 
BRANCH  18  19
ATOM     19  C   UNL     1       4.347 -17.385 -36.715  1.00  0.00     0.000 C 
BRANCH  19  20
ATOM     20  C   UNL     1       5.652 -17.252 -35.903  1.00  0.00     0.006 C 
BRANCH  20  21
ATOM     21  C   UNL     1       5.466 -17.356 -34.380  1.00  0.00     0.053 C 
BRANCH  21  22
ATOM     22  C   UNL     1       5.249 -16.016 -33.748  1.00  0.00     0.041 C 
ATOM     23  O   UNL     1       5.589 -14.967 -34.356  1.00  0.00    -0.550 OA
ATOM     24  O   UNL     1       4.699 -15.927 -32.475  1.00  0.00    -0.550 OA
ENDBRANCH  21  22
ENDBRANCH  20  21
ENDBRANCH  19  20
ENDBRANCH  18  19
ENDBRANCH  17  18
ENDBRANCH  16  17
ENDBRANCH  15  16
ENDBRANCH  14  15
ENDBRANCH  13  14
ENDBRANCH   1  13
TORSDOF 20
ENDMDL
MODEL 5
REMARK VINA RESULT:    -3.607      4.728      8.182
REMARK INTER + INTRA:         -11.548
REMARK INTER:                  -8.609
REMARK INTRA:                  -2.939
REMARK UNBOUND:                -3.725
REMARK SMILES CCCCCCCCCCCCCCCCCCCCCC(=O)[O-]
REMARK SMILES IDX 12 1 11 2 10 3 9 4 8 5 7 6 6 7 5 8 4 9 3 10 2 11 1 12 13 13
REMARK SMILES IDX 14 14 15 15 16 16 17 17 18 18 19 19 20 20 21 21 22 22 23 23
REMARK SMILES IDX 24 24
REMARK H PARENT
REMARK Flexibility Score: inf
ROOT
ATOM      1  C   UNL     1       9.603 -22.923 -34.902  1.00  0.00     0.000 C 
ENDROOT
BRANCH   1   2
ATOM      2  C   UNL     1       9.492 -24.024 -35.966  1.00  0.00     0.000 C 
BRANCH   2   3
ATOM      3  C   UNL     1      10.792 -24.212 -36.769  1.00  0.00     0.000 C 
BRANCH   3   4
ATOM      4  C   UNL     1      11.312 -22.944 -37.474  1.00  0.00    -0.000 C 
BRANCH   4   5
ATOM      5  C   UNL     1      10.330 -22.302 -38.472  1.00  0.00    -0.000 C 
BRANCH   5   6
ATOM      6  C   UNL     1      10.158 -20.792 -38.252  1.00  0.00    -0.000 C 
BRANCH   6   7
ATOM      7  C   UNL     1      10.898 -20.330 -36.990  1.00  0.00    -0.000 C 
BRANCH   7   8
ATOM      8  C   UNL     1      11.932 -19.244 -37.327  1.00  0.00    -0.000 C 
BRANCH   8   9
ATOM      9  C   UNL     1      13.374 -19.774 -37.325  1.00  0.00    -0.000 C 
BRANCH   9  10
ATOM     10  C   UNL     1      13.877 -20.128 -38.735  1.00  0.00    -0.000 C 
BRANCH  10  11
ATOM     11  C   UNL     1      14.408 -21.567 -38.824  1.00  0.00    -0.003 C 
ATOM     12  C   UNL     1      14.992 -22.066 -37.502  1.00  0.00     0.004 C 
ENDBRANCH  10  11
ENDBRANCH   9  10
ENDBRANCH   8   9
ENDBRANCH   7   8
ENDBRANCH   6   7
ENDBRANCH   5   6
ENDBRANCH   4   5
ENDBRANCH   3   4
ENDBRANCH   2   3
ENDBRANCH   1   2
BRANCH   1  13
ATOM     13  C   UNL     1       8.342 -22.045 -34.888  1.00  0.00     0.000 C 
BRANCH  13  14
ATOM     14  C   UNL     1       7.414 -22.319 -36.084  1.00  0.00     0.000 C 
BRANCH  14  15
ATOM     15  C   UNL     1       6.817 -21.028 -36.672  1.00  0.00     0.000 C 
BRANCH  15  16
ATOM     16  C   UNL     1       7.354 -19.757 -35.989  1.00  0.00     0.000 C 
BRANCH  16  17
ATOM     17  C   UNL     1       6.372 -18.567 -35.954  1.00  0.00     0.000 C 
BRANCH  17  18
ATOM     18  C   UNL     1       5.385 -18.500 -37.136  1.00  0.00     0.000 C 
BRANCH  18  19
ATOM     19  C   UNL     1       4.216 -17.511 -36.956  1.00  0.00     0.000 C 
BRANCH  19  20
ATOM     20  C   UNL     1       4.147 -16.827 -35.575  1.00  0.00     0.006 C 
BRANCH  20  21
ATOM     21  C   UNL     1       4.216 -15.292 -35.623  1.00  0.00     0.053 C 
BRANCH  21  22
ATOM     22  C   UNL     1       2.864 -14.665 -35.483  1.00  0.00     0.041 C 
ATOM     23  O   UNL     1       1.830 -15.314 -35.790  1.00  0.00    -0.550 OA
ATOM     24  O   UNL     1       2.748 -13.351 -35.042  1.00  0.00    -0.550 OA
ENDBRANCH  21  22
ENDBRANCH  20  21
ENDBRANCH  19  20
ENDBRANCH  18  19
ENDBRANCH  17  18
ENDBRANCH  16  17
ENDBRANCH  15  16
ENDBRANCH  14  15
ENDBRANCH  13  14
ENDBRANCH   1  13
TORSDOF 20
ENDMDL
MODEL 6
REMARK VINA RESULT:    -3.590      1.716      4.702
REMARK INTER + INTRA:         -11.512
REMARK INTER:                  -8.407
REMARK INTRA:                  -3.105
REMARK UNBOUND:                -3.725
REMARK SMILES CCCCCCCCCCCCCCCCCCCCCC(=O)[O-]
REMARK SMILES IDX 12 1 11 2 10 3 9 4 8 5 7 6 6 7 5 8 4 9 3 10 2 11 1 12 13 13
REMARK SMILES IDX 14 14 15 15 16 16 17 17 18 18 19 19 20 20 21 21 22 22 23 23
REMARK SMILES IDX 24 24
REMARK H PARENT
REMARK Flexibility Score: inf
ROOT
ATOM      1  C   UNL     1       7.165 -20.147 -36.170  1.00  0.00     0.000 C 
ENDROOT
BRANCH   1   2
ATOM      2  C   UNL     1       6.386 -21.329 -36.764  1.00  0.00     0.000 C 
BRANCH   2   3
ATOM      3  C   UNL     1       5.988 -21.103 -38.233  1.00  0.00     0.000 C 
BRANCH   3   4
ATOM      4  C   UNL     1       5.123 -19.853 -38.491  1.00  0.00    -0.000 C 
BRANCH   4   5
ATOM      5  C   UNL     1       5.673 -18.887 -39.556  1.00  0.00    -0.000 C 
BRANCH   5   6
ATOM      6  C   UNL     1       4.961 -17.526 -39.551  1.00  0.00    -0.000 C 
BRANCH   6   7
ATOM      7  C   UNL     1       4.759 -17.015 -38.119  1.00  0.00    -0.000 C 
BRANCH   7   8
ATOM      8  C   UNL     1       5.997 -16.246 -37.632  1.00  0.00    -0.000 C 
BRANCH   8   9
ATOM      9  C   UNL     1       6.278 -16.456 -36.135  1.00  0.00    -0.000 C 
BRANCH   9  10
ATOM     10  C   UNL     1       5.117 -17.157 -35.408  1.00  0.00    -0.000 C 
BRANCH  10  11
ATOM     11  C   UNL     1       5.220 -17.030 -33.880  1.00  0.00    -0.003 C 
ATOM     12  C   UNL     1       5.204 -15.577 -33.405  1.00  0.00     0.004 C 
ENDBRANCH  10  11
ENDBRANCH   9  10
ENDBRANCH   8   9
ENDBRANCH   7   8
ENDBRANCH   6   7
ENDBRANCH   5   6
ENDBRANCH   4   5
ENDBRANCH   3   4
ENDBRANCH   2   3
ENDBRANCH   1   2
BRANCH   1  13
ATOM     13  C   UNL     1       8.471 -20.624 -35.514  1.00  0.00     0.000 C 
BRANCH  13  14
ATOM     14  C   UNL     1       8.320 -21.984 -34.813  1.00  0.00     0.000 C 
BRANCH  14  15
ATOM     15  C   UNL     1       9.607 -22.825 -34.880  1.00  0.00     0.000 C 
BRANCH  15  16
ATOM     16  C   UNL     1       9.406 -24.168 -35.606  1.00  0.00     0.000 C 
BRANCH  16  17
ATOM     17  C   UNL     1       8.880 -24.058 -37.052  1.00  0.00     0.000 C 
BRANCH  17  18
ATOM     18  C   UNL     1       9.895 -23.515 -38.077  1.00  0.00     0.000 C 
BRANCH  18  19
ATOM     19  C   UNL     1       9.595 -22.098 -38.606  1.00  0.00     0.000 C 
BRANCH  19  20
ATOM     20  C   UNL     1      10.825 -21.176 -38.733  1.00  0.00     0.006 C 
BRANCH  20  21
ATOM     21  C   UNL     1      11.570 -20.925 -37.412  1.00  0.00     0.053 C 
BRANCH  21  22
ATOM     22  C   UNL     1      13.022 -21.276 -37.511  1.00  0.00     0.041 C 
ATOM     23  O   UNL     1      13.899 -20.458 -37.125  1.00  0.00    -0.550 OA
ATOM     24  O   UNL     1      13.409 -22.494 -38.058  1.00  0.00    -0.550 OA
ENDBRANCH  21  22
ENDBRANCH  20  21
ENDBRANCH  19  20
ENDBRANCH  18  19
ENDBRANCH  17  18
ENDBRANCH  16  17
ENDBRANCH  15  16
ENDBRANCH  14  15
ENDBRANCH  13  14
ENDBRANCH   1  13
TORSDOF 20
ENDMDL
MODEL 7
REMARK VINA RESULT:    -3.589      3.941      7.805
REMARK INTER + INTRA:         -11.509
REMARK INTER:                  -8.442
REMARK INTRA:                  -3.067
REMARK UNBOUND:                -3.725
REMARK SMILES CCCCCCCCCCCCCCCCCCCCCC(=O)[O-]
REMARK SMILES IDX 12 1 11 2 10 3 9 4 8 5 7 6 6 7 5 8 4 9 3 10 2 11 1 12 13 13
REMARK SMILES IDX 14 14 15 15 16 16 17 17 18 18 19 19 20 20 21 21 22 22 23 23
REMARK SMILES IDX 24 24
REMARK H PARENT
REMARK Flexibility Score: inf
ROOT
ATOM      1  C   UNL     1      10.962 -23.456 -37.080  1.00  0.00     0.000 C 
ENDROOT
BRANCH   1   2
ATOM      2  C   UNL     1      10.431 -23.038 -38.459  1.00  0.00     0.000 C 
BRANCH   2   3
ATOM      3  C   UNL     1      10.861 -21.614 -38.858  1.00  0.00     0.000 C 
BRANCH   3   4
ATOM      4  C   UNL     1      10.325 -20.492 -37.947  1.00  0.00    -0.000 C 
BRANCH   4   5
ATOM      5  C   UNL     1      11.403 -19.695 -37.190  1.00  0.00    -0.000 C 
BRANCH   5   6
ATOM      6  C   UNL     1      12.765 -19.709 -37.901  1.00  0.00    -0.000 C 
BRANCH   6   7
ATOM      7  C   UNL     1      13.858 -20.276 -36.988  1.00  0.00    -0.000 C 
BRANCH   7   8
ATOM      8  C   UNL     1      14.389 -21.612 -37.533  1.00  0.00    -0.000 C 
BRANCH   8   9
ATOM      9  C   UNL     1      14.991 -21.484 -38.941  1.00  0.00    -0.000 C 
BRANCH   9  10
ATOM     10  C   UNL     1      14.447 -22.544 -39.915  1.00  0.00    -0.000 C 
BRANCH  10  11
ATOM     11  C   UNL     1      14.719 -23.978 -39.435  1.00  0.00    -0.003 C 
ATOM     12  C   UNL     1      13.491 -24.882 -39.543  1.00  0.00     0.004 C 
ENDBRANCH  10  11
ENDBRANCH   9  10
ENDBRANCH   8   9
ENDBRANCH   7   8
ENDBRANCH   6   7
ENDBRANCH   5   6
ENDBRANCH   4   5
ENDBRANCH   3   4
ENDBRANCH   2   3
ENDBRANCH   1   2
BRANCH   1  13
ATOM     13  C   UNL     1       9.808 -23.845 -36.144  1.00  0.00     0.000 C 
BRANCH  13  14
ATOM     14  C   UNL     1       9.742 -22.964 -34.885  1.00  0.00     0.000 C 
BRANCH  14  15
ATOM     15  C   UNL     1       8.530 -22.016 -34.893  1.00  0.00     0.000 C 
BRANCH  15  16
ATOM     16  C   UNL     1       7.508 -22.363 -35.991  1.00  0.00     0.000 C 
BRANCH  16  17
ATOM     17  C   UNL     1       6.932 -21.153 -36.755  1.00  0.00     0.000 C 
BRANCH  17  18
ATOM     18  C   UNL     1       7.315 -19.775 -36.182  1.00  0.00     0.000 C 
BRANCH  18  19
ATOM     19  C   UNL     1       6.703 -18.566 -36.919  1.00  0.00     0.000 C 
BRANCH  19  20
ATOM     20  C   UNL     1       5.293 -18.159 -36.444  1.00  0.00     0.006 C 
BRANCH  20  21
ATOM     21  C   UNL     1       5.280 -17.132 -35.301  1.00  0.00     0.053 C 
BRANCH  21  22
ATOM     22  C   UNL     1       5.078 -15.736 -35.802  1.00  0.00     0.041 C 
ATOM     23  O   UNL     1       3.933 -15.349 -36.155  1.00  0.00    -0.550 OA
ATOM     24  O   UNL     1       6.161 -14.871 -35.908  1.00  0.00    -0.550 OA
ENDBRANCH  21  22
ENDBRANCH  20  21
ENDBRANCH  19  20
ENDBRANCH  18  19
ENDBRANCH  17  18
ENDBRANCH  16  17
ENDBRANCH  15  16
ENDBRANCH  14  15
ENDBRANCH  13  14
ENDBRANCH   1  13
TORSDOF 20
ENDMDL
MODEL 8
REMARK VINA RESULT:    -3.576      3.631      6.790
REMARK INTER + INTRA:         -11.482
REMARK INTER:                  -7.612
REMARK INTRA:                  -3.870
REMARK UNBOUND:                -3.725
REMARK SMILES CCCCCCCCCCCCCCCCCCCCCC(=O)[O-]
REMARK SMILES IDX 12 1 11 2 10 3 9 4 8 5 7 6 6 7 5 8 4 9 3 10 2 11 1 12 13 13
REMARK SMILES IDX 14 14 15 15 16 16 17 17 18 18 19 19 20 20 21 21 22 22 23 23
REMARK SMILES IDX 24 24
REMARK H PARENT
REMARK Flexibility Score: inf
ROOT
ATOM      1  C   UNL     1      11.323 -21.745 -37.124  1.00  0.00     0.000 C 
ENDROOT
BRANCH   1   2
ATOM      2  C   UNL     1      10.843 -22.158 -38.524  1.00  0.00     0.000 C 
BRANCH   2   3
ATOM      3  C   UNL     1      11.866 -23.030 -39.273  1.00  0.00     0.000 C 
BRANCH   3   4
ATOM      4  C   UNL     1      13.190 -23.274 -38.522  1.00  0.00    -0.000 C 
BRANCH   4   5
ATOM      5  C   UNL     1      14.422 -22.574 -39.124  1.00  0.00    -0.000 C 
BRANCH   5   6
ATOM      6  C   UNL     1      14.699 -21.204 -38.488  1.00  0.00    -0.000 C 
BRANCH   6   7
ATOM      7  C   UNL     1      14.225 -20.066 -39.400  1.00  0.00    -0.000 C 
BRANCH   7   8
ATOM      8  C   UNL     1      13.512 -18.973 -38.588  1.00  0.00    -0.000 C 
BRANCH   8   9
ATOM      9  C   UNL     1      12.152 -18.579 -39.186  1.00  0.00    -0.000 C 
BRANCH   9  10
ATOM     10  C   UNL     1      11.897 -19.230 -40.557  1.00  0.00    -0.000 C 
BRANCH  10  11
ATOM     11  C   UNL     1      10.400 -19.365 -40.874  1.00  0.00    -0.003 C 
ATOM     12  C   UNL     1       9.507 -18.859 -39.741  1.00  0.00     0.004 C 
ENDBRANCH  10  11
ENDBRANCH   9  10
ENDBRANCH   8   9
ENDBRANCH   7   8
ENDBRANCH   6   7
ENDBRANCH   5   6
ENDBRANCH   4   5
ENDBRANCH   3   4
ENDBRANCH   2   3
ENDBRANCH   1   2
BRANCH   1  13
ATOM     13  C   UNL     1      10.528 -20.537 -36.606  1.00  0.00     0.000 C 
BRANCH  13  14
ATOM     14  C   UNL     1       9.906 -20.785 -35.222  1.00  0.00     0.000 C 
BRANCH  14  15
ATOM     15  C   UNL     1       9.534 -22.261 -35.000  1.00  0.00     0.000 C 
BRANCH  15  16
ATOM     16  C   UNL     1       8.079 -22.576 -35.392  1.00  0.00     0.000 C 
BRANCH  16  17
ATOM     17  C   UNL     1       7.893 -23.154 -36.810  1.00  0.00     0.000 C 
BRANCH  17  18
ATOM     18  C   UNL     1       6.978 -22.330 -37.737  1.00  0.00     0.000 C 
BRANCH  18  19
ATOM     19  C   UNL     1       6.156 -21.231 -37.036  1.00  0.00     0.000 C 
BRANCH  19  20
ATOM     20  C   UNL     1       6.714 -19.800 -37.190  1.00  0.00     0.006 C 
BRANCH  20  21
ATOM     21  C   UNL     1       6.756 -18.991 -35.884  1.00  0.00     0.053 C 
BRANCH  21  22
ATOM     22  C   UNL     1       5.725 -17.906 -35.862  1.00  0.00     0.041 C 
ATOM     23  O   UNL     1       5.691 -17.083 -34.910  1.00  0.00    -0.550 OA
ATOM     24  O   UNL     1       4.781 -17.821 -36.879  1.00  0.00    -0.550 OA
ENDBRANCH  21  22
ENDBRANCH  20  21
ENDBRANCH  19  20
ENDBRANCH  18  19
ENDBRANCH  17  18
ENDBRANCH  16  17
ENDBRANCH  15  16
ENDBRANCH  14  15
ENDBRANCH  13  14
ENDBRANCH   1  13
TORSDOF 20
ENDMDL
MODEL 9
REMARK VINA RESULT:    -3.489      3.986      7.376
REMARK INTER + INTRA:         -11.293
REMARK INTER:                  -8.739
REMARK INTRA:                  -2.554
REMARK UNBOUND:                -3.725
REMARK SMILES CCCCCCCCCCCCCCCCCCCCCC(=O)[O-]
REMARK SMILES IDX 12 1 11 2 10 3 9 4 8 5 7 6 6 7 5 8 4 9 3 10 2 11 1 12 13 13
REMARK SMILES IDX 14 14 15 15 16 16 17 17 18 18 19 19 20 20 21 21 22 22 23 23
REMARK SMILES IDX 24 24
REMARK H PARENT
REMARK Flexibility Score: inf
ROOT
ATOM      1  C   UNL     1       8.323 -20.598 -35.720  1.00  0.00     0.000 C 
ENDROOT
BRANCH   1   2
ATOM      2  C   UNL     1       8.269 -21.881 -34.879  1.00  0.00     0.000 C 
BRANCH   2   3
ATOM      3  C   UNL     1       9.604 -22.649 -34.874  1.00  0.00     0.000 C 
BRANCH   3   4
ATOM      4  C   UNL     1       9.643 -23.895 -35.781  1.00  0.00    -0.000 C 
BRANCH   4   5
ATOM      5  C   UNL     1      10.226 -23.663 -37.186  1.00  0.00    -0.000 C 
BRANCH   5   6
ATOM      6  C   UNL     1      11.590 -22.956 -37.157  1.00  0.00    -0.000 C 
BRANCH   6   7
ATOM      7  C   UNL     1      12.361 -23.191 -38.461  1.00  0.00    -0.000 C 
BRANCH   7   8
ATOM      8  C   UNL     1      13.734 -22.504 -38.418  1.00  0.00    -0.000 C 
BRANCH   8   9
ATOM      9  C   UNL     1      13.740 -21.239 -37.546  1.00  0.00    -0.000 C 
BRANCH   9  10
ATOM     10  C   UNL     1      13.509 -19.955 -38.364  1.00  0.00    -0.000 C 
BRANCH  10  11
ATOM     11  C   UNL     1      12.081 -19.411 -38.210  1.00  0.00    -0.003 C 
ATOM     12  C   UNL     1      11.623 -19.354 -36.752  1.00  0.00     0.004 C 
ENDBRANCH  10  11
ENDBRANCH   9  10
ENDBRANCH   8   9
ENDBRANCH   7   8
ENDBRANCH   6   7
ENDBRANCH   5   6
ENDBRANCH   4   5
ENDBRANCH   3   4
ENDBRANCH   2   3
ENDBRANCH   1   2
BRANCH   1  13
ATOM     13  C   UNL     1       7.633 -20.802 -37.078  1.00  0.00     0.000 C 
BRANCH  13  14
ATOM     14  C   UNL     1       6.670 -22.001 -37.081  1.00  0.00     0.000 C 
BRANCH  14  15
ATOM     15  C   UNL     1       5.246 -21.610 -37.509  1.00  0.00     0.000 C 
BRANCH  15  16
ATOM     16  C   UNL     1       5.198 -20.278 -38.281  1.00  0.00     0.000 C 
BRANCH  16  17
ATOM     17  C   UNL     1       4.055 -19.326 -37.875  1.00  0.00     0.000 C 
BRANCH  17  18
ATOM     18  C   UNL     1       4.381 -17.825 -37.995  1.00  0.00     0.000 C 
BRANCH  18  19
ATOM     19  C   UNL     1       5.663 -17.373 -37.268  1.00  0.00     0.000 C 
BRANCH  19  20
ATOM     20  C   UNL     1       5.635 -17.535 -35.734  1.00  0.00     0.006 C 
BRANCH  20  21
ATOM     21  C   UNL     1       4.659 -16.591 -35.014  1.00  0.00     0.053 C 
BRANCH  21  22
ATOM     22  C   UNL     1       4.959 -16.483 -33.551  1.00  0.00     0.041 C 
ATOM     23  O   UNL     1       4.874 -17.497 -32.810  1.00  0.00    -0.550 OA
ATOM     24  O   UNL     1       5.304 -15.254 -33.000  1.00  0.00    -0.550 OA
ENDBRANCH  21  22
ENDBRANCH  20  21
ENDBRANCH  19  20
ENDBRANCH  18  19
ENDBRANCH  17  18
ENDBRANCH  16  17
ENDBRANCH  15  16
ENDBRANCH  14  15
ENDBRANCH  13  14
ENDBRANCH   1  13
TORSDOF 20
ENDMDL
