MODEL 1
REMARK VINA RESULT:    -3.896      0.000      0.000
REMARK INTER + INTRA:          -5.453
REMARK INTER:                  -5.262
REMARK INTRA:                  -0.191
REMARK UNBOUND:                -0.191
REMARK SMILES C=C1C(=O)O[C@@H]2[C@@H]1CCC(C)=CCC[C@]1(C)O[C@H]21
REMARK SMILES IDX 6 1 7 2 2 3 1 4 3 5 4 6 5 7 8 8 9 9 10 10 11 11 12 12 18 14
REMARK SMILES IDX 15 15 17 16 16 17 14 18 13 19
REMARK H PARENT
REMARK Flexibility Score: 70.00
ROOT
ATOM      1  C   UNL     1     -40.358  75.624 -12.004  1.00  0.00     0.216 C 
ATOM      2  C   UNL     1     -41.550  75.251 -11.040  1.00  0.00     0.070 C 
ATOM      3  C   UNL     1     -42.765  75.696 -11.803  1.00  0.00     0.037 C 
ATOM      4  C   UNL     1     -44.021  75.658 -11.361  1.00  0.00     0.021 C 
ATOM      5  C   UNL     1     -42.331  76.261 -13.051  1.00  0.00     0.334 C 
ATOM      6  O   UNL     1     -43.082  76.742 -13.940  1.00  0.00    -0.247 OA
ATOM      7  O   UNL     1     -40.960  76.227 -13.149  1.00  0.00    -0.455 OA
ENDROOT
BRANCH   2   8
ATOM      8  C   UNL     1     -41.622  73.721 -10.712  1.00  0.00     0.017 C 
BRANCH   8   9
ATOM      9  C   UNL     1     -40.509  72.897 -11.400  1.00  0.00     0.031 C 
BRANCH   9  10
ATOM     10  C   UNL     1     -39.634  72.071 -10.458  1.00  0.00    -0.077 C 
ATOM     11  C   UNL     1     -40.066  70.657 -10.146  1.00  0.00     0.039 C 
ATOM     12  C   UNL     1     -38.535  72.534  -9.804  1.00  0.00    -0.028 CG0
ATOM     13  G   UNL     1     -37.805  73.834 -10.046  1.00  0.00     0.000 G0
ENDBRANCH   9  10
ENDBRANCH   8   9
ENDBRANCH   2   8
BRANCH   1  14
ATOM     14  C   UNL     1     -39.260  76.591 -11.482  1.00  0.00     0.192 C 
ATOM     15  C   UNL     1     -38.357  76.292 -10.321  1.00  0.00     0.096 C 
ATOM     16  O   UNL     1     -39.504  77.112 -10.195  1.00  0.00    -0.362 OA
ATOM     17  C   UNL     1     -37.074  77.121 -10.216  1.00  0.00     0.045 C 
BRANCH  15  18
ATOM     18  C   UNL     1     -38.461  75.052  -9.410  1.00  0.00     0.042 C 
BRANCH  18  19
ATOM     19  C   UNL     1     -37.792  73.827 -10.038  1.00  0.00     0.030 CG0
ATOM     20  G   UNL     1     -38.536  72.534  -9.800  1.00  0.00     0.000 G0
ENDBRANCH  18  19
ENDBRANCH  15  18
ENDBRANCH   1  14
TORSDOF 0
ENDMDL
MODEL 2
REMARK VINA RESULT:    -3.864      2.550      4.661
REMARK INTER + INTRA:          -5.410
REMARK INTER:                  -5.358
REMARK INTRA:                  -0.052
REMARK UNBOUND:                -0.191
REMARK SMILES C=C1C(=O)O[C@@H]2[C@@H]1CCC(C)=CCC[C@]1(C)O[C@H]21
REMARK SMILES IDX 6 1 7 2 2 3 1 4 3 5 4 6 5 7 8 8 9 9 10 10 11 11 12 12 18 14
REMARK SMILES IDX 15 15 17 16 16 17 14 18 13 19
REMARK H PARENT
REMARK Flexibility Score: 70.00
ROOT
ATOM      1  C   UNL     1     -39.100  74.119  -9.567  1.00  0.00     0.216 C 
ATOM      2  C   UNL     1     -40.144  73.569 -10.615  1.00  0.00     0.070 C 
ATOM      3  C   UNL     1     -40.123  72.086 -10.380  1.00  0.00     0.037 C 
ATOM      4  C   UNL     1     -40.793  71.175 -11.085  1.00  0.00     0.021 C 
ATOM      5  C   UNL     1     -39.182  71.809  -9.331  1.00  0.00     0.334 C 
ATOM      6  O   UNL     1     -38.902  70.668  -8.876  1.00  0.00    -0.247 OA
ATOM      7  O   UNL     1     -38.596  72.970  -8.885  1.00  0.00    -0.455 OA
ENDROOT
BRANCH   2   8
ATOM      8  C   UNL     1     -41.584  74.150 -10.413  1.00  0.00     0.017 C 
BRANCH   8   9
ATOM      9  C   UNL     1     -42.283  74.523 -11.742  1.00  0.00     0.031 C 
BRANCH   9  10
ATOM     10  C   UNL     1     -42.436  76.021 -11.998  1.00  0.00    -0.077 C 
ATOM     11  C   UNL     1     -43.829  76.608 -11.968  1.00  0.00     0.039 C 
ATOM     12  C   UNL     1     -41.425  76.864 -12.338  1.00  0.00    -0.028 CG0
ATOM     13  G   UNL     1     -39.942  76.581 -12.289  1.00  0.00     0.000 G0
ENDBRANCH   9  10
ENDBRANCH   8   9
ENDBRANCH   2   8
BRANCH   1  14
ATOM     14  C   UNL     1     -37.884  74.929 -10.091  1.00  0.00     0.192 C 
ATOM     15  C   UNL     1     -37.980  76.306 -10.681  1.00  0.00     0.096 C 
ATOM     16  O   UNL     1     -37.880  75.144 -11.484  1.00  0.00    -0.362 OA
ATOM     17  C   UNL     1     -36.688  77.125 -10.734  1.00  0.00     0.045 C 
BRANCH  15  18
ATOM     18  C   UNL     1     -39.294  77.061 -10.965  1.00  0.00     0.042 C 
BRANCH  18  19
ATOM     19  C   UNL     1     -39.943  76.605 -12.274  1.00  0.00     0.030 CG0
ATOM     20  G   UNL     1     -41.428  76.870 -12.349  1.00  0.00     0.000 G0
ENDBRANCH  18  19
ENDBRANCH  15  18
ENDBRANCH   1  14
TORSDOF 0
ENDMDL
MODEL 3
REMARK VINA RESULT:    -3.522      2.026      4.467
REMARK INTER + INTRA:          -4.949
REMARK INTER:                  -5.273
REMARK INTRA:                   0.324
REMARK UNBOUND:                -0.191
REMARK SMILES C=C1C(=O)O[C@@H]2[C@@H]1CCC(C)=CCC[C@]1(C)O[C@H]21
REMARK SMILES IDX 6 1 7 2 2 3 1 4 3 5 4 6 5 7 8 8 9 9 10 10 11 11 12 12 18 14
REMARK SMILES IDX 15 15 17 16 16 17 14 18 13 19
REMARK H PARENT
REMARK Flexibility Score: 70.00
ROOT
ATOM      1  C   UNL     1     -39.985  75.776 -10.519  1.00  0.00     0.216 C 
ATOM      2  C   UNL     1     -39.526  74.296 -10.222  1.00  0.00     0.070 C 
ATOM      3  C   UNL     1     -38.031  74.408 -10.128  1.00  0.00     0.037 C 
ATOM      4  C   UNL     1     -37.182  73.396  -9.960  1.00  0.00     0.021 C 
ATOM      5  C   UNL     1     -37.668  75.781 -10.347  1.00  0.00     0.334 C 
ATOM      6  O   UNL     1     -36.495  76.240 -10.346  1.00  0.00    -0.247 OA
ATOM      7  O   UNL     1     -38.785  76.547 -10.583  1.00  0.00    -0.455 OA
ENDROOT
BRANCH   2   8
ATOM      8  C   UNL     1     -40.131  73.718  -8.898  1.00  0.00     0.017 C 
BRANCH   8   9
ATOM      9  C   UNL     1     -41.492  73.013  -9.107  1.00  0.00     0.031 C 
BRANCH   9  10
ATOM     10  C   UNL     1     -41.514  71.956 -10.210  1.00  0.00    -0.077 C 
ATOM     11  C   UNL     1     -40.711  70.693 -10.000  1.00  0.00     0.039 C 
ATOM     12  C   UNL     1     -42.133  72.094 -11.414  1.00  0.00    -0.028 CG0
ATOM     13  G   UNL     1     -43.115  73.167 -11.820  1.00  0.00     0.000 G0
ENDBRANCH   9  10
ENDBRANCH   8   9
ENDBRANCH   2   8
BRANCH   1  14
ATOM     14  C   UNL     1     -40.794  76.053 -11.815  1.00  0.00     0.192 C 
ATOM     15  C   UNL     1     -42.170  75.516 -12.081  1.00  0.00     0.096 C 
ATOM     16  O   UNL     1     -41.007  74.920 -12.625  1.00  0.00    -0.362 OA
ATOM     17  C   UNL     1     -42.987  76.220 -13.167  1.00  0.00     0.045 C 
BRANCH  15  18
ATOM     18  C   UNL     1     -42.926  74.524 -11.174  1.00  0.00     0.042 C 
BRANCH  18  19
ATOM     19  C   UNL     1     -43.121  73.166 -11.854  1.00  0.00     0.030 CG0
ATOM     20  G   UNL     1     -42.147  72.106 -11.397  1.00  0.00     0.000 G0
ENDBRANCH  18  19
ENDBRANCH  15  18
ENDBRANCH   1  14
TORSDOF 0
ENDMDL
MODEL 4
REMARK VINA RESULT:    -2.067     12.455     14.138
REMARK INTER + INTRA:          -2.983
REMARK INTER:                  -3.101
REMARK INTRA:                   0.118
REMARK UNBOUND:                -0.191
REMARK SMILES C=C1C(=O)O[C@@H]2[C@@H]1CCC(C)=CCC[C@]1(C)O[C@H]21
REMARK SMILES IDX 6 1 7 2 2 3 1 4 3 5 4 6 5 7 8 8 9 9 10 10 11 11 12 12 18 14
REMARK SMILES IDX 15 15 17 16 16 17 14 18 13 19
REMARK H PARENT
REMARK Flexibility Score: 70.00
ROOT
ATOM      1  C   UNL     1     -41.119  76.981 -24.547  1.00  0.00     0.216 C 
ATOM      2  C   UNL     1     -40.441  75.952 -25.533  1.00  0.00     0.070 C 
ATOM      3  C   UNL     1     -41.595  75.432 -26.340  1.00  0.00     0.037 C 
ATOM      4  C   UNL     1     -41.533  74.474 -27.263  1.00  0.00     0.021 C 
ATOM      5  C   UNL     1     -42.794  76.075 -25.877  1.00  0.00     0.334 C 
ATOM      6  O   UNL     1     -43.955  75.876 -26.324  1.00  0.00    -0.247 OA
ATOM      7  O   UNL     1     -42.514  76.943 -24.849  1.00  0.00    -0.455 OA
ENDROOT
BRANCH   2   8
ATOM      8  C   UNL     1     -39.358  76.606 -26.457  1.00  0.00     0.017 C 
BRANCH   8   9
ATOM      9  C   UNL     1     -38.124  75.702 -26.684  1.00  0.00     0.031 C 
BRANCH   9  10
ATOM     10  C   UNL     1     -36.854  76.141 -25.956  1.00  0.00    -0.077 C 
ATOM     11  C   UNL     1     -35.679  76.598 -26.791  1.00  0.00     0.039 C 
ATOM     12  C   UNL     1     -36.660  76.074 -24.612  1.00  0.00    -0.028 CG0
ATOM     13  G   UNL     1     -37.700  75.808 -23.549  1.00  0.00     0.000 G0
ENDBRANCH   9  10
ENDBRANCH   8   9
ENDBRANCH   2   8
BRANCH   1  14
ATOM     14  C   UNL     1     -40.959  76.755 -23.019  1.00  0.00     0.192 C 
ATOM     15  C   UNL     1     -39.658  76.879 -22.280  1.00  0.00     0.096 C 
ATOM     16  O   UNL     1     -40.190  75.627 -22.672  1.00  0.00    -0.362 OA
ATOM     17  C   UNL     1     -39.743  77.063 -20.763  1.00  0.00     0.045 C 
BRANCH  15  18
ATOM     18  C   UNL     1     -38.285  77.125 -22.936  1.00  0.00     0.042 C 
BRANCH  18  19
ATOM     19  C   UNL     1     -37.708  75.845 -23.546  1.00  0.00     0.030 CG0
ATOM     20  G   UNL     1     -36.665  76.089 -24.611  1.00  0.00     0.000 G0
ENDBRANCH  18  19
ENDBRANCH  15  18
ENDBRANCH   1  14
TORSDOF 0
ENDMDL
MODEL 5
REMARK VINA RESULT:    -1.900      2.066      2.955
REMARK INTER + INTRA:          -2.758
REMARK INTER:                  -2.557
REMARK INTRA:                  -0.200
REMARK UNBOUND:                -0.191
REMARK SMILES C=C1C(=O)O[C@@H]2[C@@H]1CCC(C)=CCC[C@]1(C)O[C@H]21
REMARK SMILES IDX 6 1 7 2 2 3 1 4 3 5 4 6 5 7 8 8 9 9 10 10 11 11 12 12 18 14
REMARK SMILES IDX 15 15 17 16 16 17 14 18 13 19
REMARK H PARENT
REMARK Flexibility Score: 70.00
ROOT
ATOM      1  C   UNL     1     -40.836  73.327 -11.576  1.00  0.00     0.216 C 
ATOM      2  C   UNL     1     -41.100  72.423 -10.310  1.00  0.00     0.070 C 
ATOM      3  C   UNL     1     -42.373  71.706 -10.656  1.00  0.00     0.037 C 
ATOM      4  C   UNL     1     -43.043  70.876  -9.857  1.00  0.00     0.021 C 
ATOM      5  C   UNL     1     -42.798  72.142 -11.957  1.00  0.00     0.334 C 
ATOM      6  O   UNL     1     -43.831  71.752 -12.562  1.00  0.00    -0.247 OA
ATOM      7  O   UNL     1     -41.924  73.074 -12.466  1.00  0.00    -0.455 OA
ENDROOT
BRANCH   2   8
ATOM      8  C   UNL     1     -39.942  71.408 -10.026  1.00  0.00     0.017 C 
BRANCH   8   9
ATOM      9  C   UNL     1     -38.848  71.409 -11.119  1.00  0.00     0.031 C 
BRANCH   9  10
ATOM     10  C   UNL     1     -37.441  71.751 -10.631  1.00  0.00    -0.077 C 
ATOM     11  C   UNL     1     -36.360  70.707 -10.793  1.00  0.00     0.039 C 
ATOM     12  C   UNL     1     -37.095  72.893  -9.979  1.00  0.00    -0.028 CG0
ATOM     13  G   UNL     1     -37.924  74.146  -9.825  1.00  0.00     0.000 G0
ENDBRANCH   9  10
ENDBRANCH   8   9
ENDBRANCH   2   8
BRANCH   1  14
ATOM     14  C   UNL     1     -40.735  74.864 -11.379  1.00  0.00     0.192 C 
ATOM     15  C   UNL     1     -39.441  75.610 -11.224  1.00  0.00     0.096 C 
ATOM     16  O   UNL     1     -40.251  75.261 -10.116  1.00  0.00    -0.362 OA
ATOM     17  C   UNL     1     -39.481  77.119 -11.481  1.00  0.00     0.045 C 
BRANCH  15  18
ATOM     18  C   UNL     1     -38.048  74.959 -11.116  1.00  0.00     0.042 C 
BRANCH  18  19
ATOM     19  C   UNL     1     -37.887  74.172  -9.812  1.00  0.00     0.030 CG0
ATOM     20  G   UNL     1     -37.098  72.892  -9.962  1.00  0.00     0.000 G0
ENDBRANCH  18  19
ENDBRANCH  15  18
ENDBRANCH   1  14
TORSDOF 0
ENDMDL
