MODEL 1
REMARK VINA RESULT:    -3.520      0.000      0.000
REMARK INTER + INTRA:          -5.090
REMARK INTER:                  -5.064
REMARK INTRA:                  -0.027
REMARK UNBOUND:                -0.027
REMARK SMILES O=C(CO)[C@H](O)[C@@H](O)[C@@H](O)CO
REMARK SMILES IDX 7 1 9 2 11 3 12 4 10 6 5 8 2 9 1 10 3 11 4 12 6 14 8 16
REMARK H PARENT 12 5 10 7 4 13 6 15 8 17
REMARK Flexibility Score: inf
ROOT
ATOM      1  C   UNL     1     -10.007  16.659  21.454  1.00  0.00     0.181 C 
ENDROOT
BRANCH   1   2
ATOM      2  C   UNL     1      -9.523  15.740  20.302  1.00  0.00     0.171 C 
BRANCH   2   3
ATOM      3  C   UNL     1     -10.115  16.165  18.945  1.00  0.00     0.190 C 
BRANCH   3   4
ATOM      4  O   UNL     1      -9.091  16.494  18.044  1.00  0.00    -0.394 OA
ATOM      5  H   UNL     1      -8.334  15.882  18.240  1.00  0.00     0.210 HD
ENDBRANCH   3   4
ENDBRANCH   2   3
BRANCH   2   6
ATOM      6  O   UNL     1      -9.837  14.395  20.566  1.00  0.00    -0.388 OA
ATOM      7  H   UNL     1      -9.801  14.267  21.551  1.00  0.00     0.211 HD
ENDBRANCH   2   6
ENDBRANCH   1   2
BRANCH   1   8
ATOM      8  C   UNL     1      -9.260  16.358  22.779  1.00  0.00     0.214 C 
BRANCH   8   9
ATOM      9  C   UNL     1      -9.765  17.240  23.906  1.00  0.00     0.189 C 
ATOM     10  O   UNL     1     -10.123  16.715  24.951  1.00  0.00    -0.294 OA
BRANCH   9  11
ATOM     11  C   UNL     1      -9.838  18.741  23.764  1.00  0.00     0.234 C 
BRANCH  11  12
ATOM     12  O   UNL     1      -8.575  19.289  23.490  1.00  0.00    -0.388 OA
ATOM     13  H   UNL     1      -8.562  19.499  22.519  1.00  0.00     0.211 HD
ENDBRANCH  11  12
ENDBRANCH   9  11
ENDBRANCH   8   9
BRANCH   8  14
ATOM     14  O   UNL     1      -7.864  16.459  22.624  1.00  0.00    -0.382 OA
ATOM     15  H   UNL     1      -7.551  15.661  22.125  1.00  0.00     0.211 HD
ENDBRANCH   8  14
ENDBRANCH   1   8
BRANCH   1  16
ATOM     16  O   UNL     1      -9.810  18.009  21.104  1.00  0.00    -0.387 OA
ATOM     17  H   UNL     1      -9.253  18.023  20.283  1.00  0.00     0.211 HD
ENDBRANCH   1  16
TORSDOF 10
ENDMDL
MODEL 2
REMARK VINA RESULT:    -3.328     12.186     13.399
REMARK INTER + INTRA:          -4.814
REMARK INTER:                  -4.322
REMARK INTRA:                  -0.492
REMARK UNBOUND:                -0.027
REMARK SMILES O=C(CO)[C@H](O)[C@@H](O)[C@@H](O)CO
REMARK SMILES IDX 7 1 9 2 11 3 12 4 10 6 5 8 2 9 1 10 3 11 4 12 6 14 8 16
REMARK H PARENT 12 5 10 7 4 13 6 15 8 17
REMARK Flexibility Score: inf
ROOT
ATOM      1  C   UNL     1      -0.457  24.895  25.527  1.00  0.00     0.181 C 
ENDROOT
BRANCH   1   2
ATOM      2  C   UNL     1       0.222  25.080  24.145  1.00  0.00     0.171 C 
BRANCH   2   3
ATOM      3  C   UNL     1      -0.760  25.636  23.096  1.00  0.00     0.190 C 
BRANCH   3   4
ATOM      4  O   UNL     1      -2.084  25.379  23.480  1.00  0.00    -0.394 OA
ATOM      5  H   UNL     1      -2.653  26.023  22.983  1.00  0.00     0.210 HD
ENDBRANCH   3   4
ENDBRANCH   2   3
BRANCH   2   6
ATOM      6  O   UNL     1       0.778  23.870  23.692  1.00  0.00    -0.388 OA
ATOM      7  H   UNL     1       1.723  23.841  24.000  1.00  0.00     0.211 HD
ENDBRANCH   2   6
ENDBRANCH   1   2
BRANCH   1   8
ATOM      8  C   UNL     1       0.535  24.344  26.584  1.00  0.00     0.214 C 
BRANCH   8   9
ATOM      9  C   UNL     1       0.562  25.222  27.822  1.00  0.00     0.189 C 
ATOM     10  O   UNL     1       1.385  26.124  27.887  1.00  0.00    -0.294 OA
BRANCH   9  11
ATOM     11  C   UNL     1      -0.395  25.002  28.969  1.00  0.00     0.234 C 
BRANCH  11  12
ATOM     12  O   UNL     1       0.129  24.096  29.903  1.00  0.00    -0.388 OA
ATOM     13  H   UNL     1       0.026  24.518  30.796  1.00  0.00     0.211 HD
ENDBRANCH  11  12
ENDBRANCH   9  11
ENDBRANCH   8   9
BRANCH   8  14
ATOM     14  O   UNL     1       1.824  24.166  26.044  1.00  0.00    -0.382 OA
ATOM     15  H   UNL     1       2.227  25.062  25.908  1.00  0.00     0.211 HD
ENDBRANCH   8  14
ENDBRANCH   1   8
BRANCH   1  16
ATOM     16  O   UNL     1      -0.977  26.125  25.973  1.00  0.00    -0.387 OA
ATOM     17  H   UNL     1      -0.566  26.317  26.856  1.00  0.00     0.211 HD
ENDBRANCH   1  16
TORSDOF 10
ENDMDL
MODEL 3
REMARK VINA RESULT:    -3.147      6.762      8.155
REMARK INTER + INTRA:          -4.554
REMARK INTER:                  -3.818
REMARK INTRA:                  -0.736
REMARK UNBOUND:                -0.027
REMARK SMILES O=C(CO)[C@H](O)[C@@H](O)[C@@H](O)CO
REMARK SMILES IDX 7 1 9 2 11 3 12 4 10 6 5 8 2 9 1 10 3 11 4 12 6 14 8 16
REMARK H PARENT 12 5 10 7 4 13 6 15 8 17
REMARK Flexibility Score: inf
ROOT
ATOM      1  C   UNL     1      -7.429  22.987  25.365  1.00  0.00     0.181 C 
ENDROOT
BRANCH   1   2
ATOM      2  C   UNL     1      -6.193  22.062  25.213  1.00  0.00     0.171 C 
BRANCH   2   3
ATOM      3  C   UNL     1      -6.086  21.483  23.789  1.00  0.00     0.190 C 
BRANCH   3   4
ATOM      4  O   UNL     1      -5.385  22.365  22.953  1.00  0.00    -0.394 OA
ATOM      5  H   UNL     1      -4.976  21.813  22.237  1.00  0.00     0.210 HD
ENDBRANCH   3   4
ENDBRANCH   2   3
BRANCH   2   6
ATOM      6  O   UNL     1      -6.226  21.019  26.156  1.00  0.00    -0.388 OA
ATOM      7  H   UNL     1      -6.551  20.204  25.689  1.00  0.00     0.211 HD
ENDBRANCH   2   6
ENDBRANCH   1   2
BRANCH   1   8
ATOM      8  C   UNL     1      -7.514  23.598  26.788  1.00  0.00     0.214 C 
BRANCH   8   9
ATOM      9  C   UNL     1      -8.957  23.778  27.222  1.00  0.00     0.189 C 
ATOM     10  O   UNL     1      -9.822  23.890  26.365  1.00  0.00    -0.294 OA
BRANCH   9  11
ATOM     11  C   UNL     1      -9.344  23.827  28.681  1.00  0.00     0.234 C 
BRANCH  11  12
ATOM     12  O   UNL     1      -8.273  24.260  29.478  1.00  0.00    -0.388 OA
ATOM     13  H   UNL     1      -8.239  23.652  30.262  1.00  0.00     0.211 HD
ENDBRANCH  11  12
ENDBRANCH   9  11
ENDBRANCH   8   9
BRANCH   8  14
ATOM     14  O   UNL     1      -6.789  24.802  26.882  1.00  0.00    -0.382 OA
ATOM     15  H   UNL     1      -5.825  24.589  26.776  1.00  0.00     0.211 HD
ENDBRANCH   8  14
ENDBRANCH   1   8
BRANCH   1  16
ATOM     16  O   UNL     1      -7.370  24.024  24.415  1.00  0.00    -0.387 OA
ATOM     17  H   UNL     1      -6.596  23.839  23.823  1.00  0.00     0.211 HD
ENDBRANCH   1  16
TORSDOF 10
ENDMDL
MODEL 4
REMARK VINA RESULT:    -2.969      6.948      8.909
REMARK INTER + INTRA:          -4.298
REMARK INTER:                  -3.468
REMARK INTRA:                  -0.830
REMARK UNBOUND:                -0.027
REMARK SMILES O=C(CO)[C@H](O)[C@@H](O)[C@@H](O)CO
REMARK SMILES IDX 7 1 9 2 11 3 12 4 10 6 5 8 2 9 1 10 3 11 4 12 6 14 8 16
REMARK H PARENT 12 5 10 7 4 13 6 15 8 17
REMARK Flexibility Score: inf
ROOT
ATOM      1  C   UNL     1      -7.894  23.583  26.746  1.00  0.00     0.181 C 
ENDROOT
BRANCH   1   2
ATOM      2  C   UNL     1      -9.291  24.238  26.910  1.00  0.00     0.171 C 
BRANCH   2   3
ATOM      3  C   UNL     1      -9.965  23.820  28.231  1.00  0.00     0.190 C 
BRANCH   3   4
ATOM      4  O   UNL     1      -8.999  23.492  29.192  1.00  0.00    -0.394 OA
ATOM      5  H   UNL     1      -9.464  22.971  29.897  1.00  0.00     0.210 HD
ENDBRANCH   3   4
ENDBRANCH   2   3
BRANCH   2   6
ATOM      6  O   UNL     1     -10.125  23.924  25.822  1.00  0.00    -0.388 OA
ATOM      7  H   UNL     1     -10.353  22.959  25.888  1.00  0.00     0.211 HD
ENDBRANCH   2   6
ENDBRANCH   1   2
BRANCH   1   8
ATOM      8  C   UNL     1      -7.651  23.112  25.288  1.00  0.00     0.214 C 
BRANCH   8   9
ATOM      9  C   UNL     1      -6.659  21.964  25.241  1.00  0.00     0.189 C 
ATOM     10  O   UNL     1      -6.341  21.416  26.287  1.00  0.00    -0.294 OA
BRANCH   9  11
ATOM     11  C   UNL     1      -6.058  21.490  23.939  1.00  0.00     0.234 C 
BRANCH  11  12
ATOM     12  O   UNL     1      -5.266  22.489  23.351  1.00  0.00    -0.388 OA
ATOM     13  H   UNL     1      -4.705  22.870  24.077  1.00  0.00     0.211 HD
ENDBRANCH  11  12
ENDBRANCH   9  11
ENDBRANCH   8   9
BRANCH   8  14
ATOM     14  O   UNL     1      -7.253  24.177  24.457  1.00  0.00    -0.382 OA
ATOM     15  H   UNL     1      -6.597  24.729  24.956  1.00  0.00     0.211 HD
ENDBRANCH   8  14
ENDBRANCH   1   8
BRANCH   1  16
ATOM     16  O   UNL     1      -6.890  24.498  27.114  1.00  0.00    -0.387 OA
ATOM     17  H   UNL     1      -6.078  24.272  26.589  1.00  0.00     0.211 HD
ENDBRANCH   1  16
TORSDOF 10
ENDMDL
MODEL 5
REMARK VINA RESULT:    -2.916      6.641      9.729
REMARK INTER + INTRA:          -4.221
REMARK INTER:                  -3.473
REMARK INTRA:                  -0.748
REMARK UNBOUND:                -0.027
REMARK SMILES O=C(CO)[C@H](O)[C@@H](O)[C@@H](O)CO
REMARK SMILES IDX 7 1 9 2 11 3 12 4 10 6 5 8 2 9 1 10 3 11 4 12 6 14 8 16
REMARK H PARENT 12 5 10 7 4 13 6 15 8 17
REMARK Flexibility Score: inf
ROOT
ATOM      1  C   UNL     1      -7.711  24.181  27.229  1.00  0.00     0.181 C 
ENDROOT
BRANCH   1   2
ATOM      2  C   UNL     1      -8.844  24.551  28.221  1.00  0.00     0.171 C 
BRANCH   2   3
ATOM      3  C   UNL     1      -8.319  24.686  29.663  1.00  0.00     0.190 C 
BRANCH   3   4
ATOM      4  O   UNL     1      -7.234  25.574  29.708  1.00  0.00    -0.394 OA
ATOM      5  H   UNL     1      -7.533  26.410  29.264  1.00  0.00     0.210 HD
ENDBRANCH   3   4
ENDBRANCH   2   3
BRANCH   2   6
ATOM      6  O   UNL     1      -9.884  23.604  28.173  1.00  0.00    -0.388 OA
ATOM      7  H   UNL     1     -10.697  24.034  28.549  1.00  0.00     0.211 HD
ENDBRANCH   2   6
ENDBRANCH   1   2
BRANCH   1   8
ATOM      8  C   UNL     1      -8.225  23.266  26.087  1.00  0.00     0.214 C 
BRANCH   8   9
ATOM      9  C   UNL     1      -7.076  22.731  25.252  1.00  0.00     0.189 C 
ATOM     10  O   UNL     1      -6.551  23.469  24.430  1.00  0.00    -0.294 OA
BRANCH   9  11
ATOM     11  C   UNL     1      -6.574  21.316  25.411  1.00  0.00     0.234 C 
BRANCH  11  12
ATOM     12  O   UNL     1      -5.892  20.886  24.262  1.00  0.00    -0.388 OA
ATOM     13  H   UNL     1      -5.718  19.916  24.382  1.00  0.00     0.211 HD
ENDBRANCH  11  12
ENDBRANCH   9  11
ENDBRANCH   8   9
BRANCH   8  14
ATOM     14  O   UNL     1      -9.187  23.919  25.291  1.00  0.00    -0.382 OA
ATOM     15  H   UNL     1      -8.714  24.370  24.545  1.00  0.00     0.211 HD
ENDBRANCH   8  14
ENDBRANCH   1   8
BRANCH   1  16
ATOM     16  O   UNL     1      -7.159  25.352  26.675  1.00  0.00    -0.387 OA
ATOM     17  H   UNL     1      -6.423  25.074  26.070  1.00  0.00     0.211 HD
ENDBRANCH   1  16
TORSDOF 10
ENDMDL
MODEL 6
REMARK VINA RESULT:    -2.763      6.905      8.841
REMARK INTER + INTRA:          -4.001
REMARK INTER:                  -3.074
REMARK INTRA:                  -0.927
REMARK UNBOUND:                -0.027
REMARK SMILES O=C(CO)[C@H](O)[C@@H](O)[C@@H](O)CO
REMARK SMILES IDX 7 1 9 2 11 3 12 4 10 6 5 8 2 9 1 10 3 11 4 12 6 14 8 16
REMARK H PARENT 12 5 10 7 4 13 6 15 8 17
REMARK Flexibility Score: inf
ROOT
ATOM      1  C   UNL     1      -7.325  23.853  26.664  1.00  0.00     0.181 C 
ENDROOT
BRANCH   1   2
ATOM      2  C   UNL     1      -7.270  22.987  25.379  1.00  0.00     0.171 C 
BRANCH   2   3
ATOM      3  C   UNL     1      -6.665  21.597  25.652  1.00  0.00     0.190 C 
BRANCH   3   4
ATOM      4  O   UNL     1      -5.936  21.152  24.540  1.00  0.00    -0.394 OA
ATOM      5  H   UNL     1      -6.409  21.490  23.736  1.00  0.00     0.210 HD
ENDBRANCH   3   4
ENDBRANCH   2   3
BRANCH   2   6
ATOM      6  O   UNL     1      -6.544  23.638  24.364  1.00  0.00    -0.388 OA
ATOM      7  H   UNL     1      -6.727  23.160  23.512  1.00  0.00     0.211 HD
ENDBRANCH   2   6
ENDBRANCH   1   2
BRANCH   1   8
ATOM      8  C   UNL     1      -7.804  25.297  26.362  1.00  0.00     0.214 C 
BRANCH   8   9
ATOM      9  C   UNL     1      -9.163  25.294  25.686  1.00  0.00     0.189 C 
ATOM     10  O   UNL     1     -10.073  24.653  26.193  1.00  0.00    -0.294 OA
BRANCH   9  11
ATOM     11  C   UNL     1      -9.412  26.056  24.406  1.00  0.00     0.234 C 
BRANCH  11  12
ATOM     12  O   UNL     1      -8.438  25.759  23.439  1.00  0.00    -0.388 OA
ATOM     13  H   UNL     1      -8.917  25.348  22.672  1.00  0.00     0.211 HD
ENDBRANCH  11  12
ENDBRANCH   9  11
ENDBRANCH   8   9
BRANCH   8  14
ATOM     14  O   UNL     1      -6.852  26.015  25.613  1.00  0.00    -0.382 OA
ATOM     15  H   UNL     1      -6.819  26.942  25.965  1.00  0.00     0.211 HD
ENDBRANCH   8  14
ENDBRANCH   1   8
BRANCH   1  16
ATOM     16  O   UNL     1      -8.191  23.262  27.603  1.00  0.00    -0.387 OA
ATOM     17  H   UNL     1      -7.666  23.104  28.431  1.00  0.00     0.211 HD
ENDBRANCH   1  16
TORSDOF 10
ENDMDL
MODEL 7
REMARK VINA RESULT:    -2.751      6.770      8.840
REMARK INTER + INTRA:          -3.984
REMARK INTER:                  -3.239
REMARK INTRA:                  -0.745
REMARK UNBOUND:                -0.027
REMARK SMILES O=C(CO)[C@H](O)[C@@H](O)[C@@H](O)CO
REMARK SMILES IDX 7 1 9 2 11 3 12 4 10 6 5 8 2 9 1 10 3 11 4 12 6 14 8 16
REMARK H PARENT 12 5 10 7 4 13 6 15 8 17
REMARK Flexibility Score: inf
ROOT
ATOM      1  C   UNL     1      -8.383  23.207  26.134  1.00  0.00     0.181 C 
ENDROOT
BRANCH   1   2
ATOM      2  C   UNL     1      -7.301  22.815  25.094  1.00  0.00     0.171 C 
BRANCH   2   3
ATOM      3  C   UNL     1      -6.489  21.587  25.550  1.00  0.00     0.190 C 
BRANCH   3   4
ATOM      4  O   UNL     1      -6.067  20.840  24.441  1.00  0.00    -0.394 OA
ATOM      5  H   UNL     1      -6.713  20.094  24.338  1.00  0.00     0.210 HD
ENDBRANCH   3   4
ENDBRANCH   2   3
BRANCH   2   6
ATOM      6  O   UNL     1      -6.439  23.895  24.833  1.00  0.00    -0.388 OA
ATOM      7  H   UNL     1      -6.954  24.571  24.319  1.00  0.00     0.211 HD
ENDBRANCH   2   6
ENDBRANCH   1   2
BRANCH   1   8
ATOM      8  C   UNL     1      -7.849  24.248  27.151  1.00  0.00     0.214 C 
BRANCH   8   9
ATOM      9  C   UNL     1      -8.577  24.143  28.478  1.00  0.00     0.189 C 
ATOM     10  O   UNL     1      -9.577  23.442  28.549  1.00  0.00    -0.294 OA
BRANCH   9  11
ATOM     11  C   UNL     1      -8.099  24.884  29.704  1.00  0.00     0.234 C 
BRANCH  11  12
ATOM     12  O   UNL     1      -6.981  25.682  29.413  1.00  0.00    -0.388 OA
ATOM     13  H   UNL     1      -6.988  25.832  28.432  1.00  0.00     0.211 HD
ENDBRANCH  11  12
ENDBRANCH   9  11
ENDBRANCH   8   9
BRANCH   8  14
ATOM     14  O   UNL     1      -7.900  25.557  26.632  1.00  0.00    -0.382 OA
ATOM     15  H   UNL     1      -8.183  25.500  25.683  1.00  0.00     0.211 HD
ENDBRANCH   8  14
ENDBRANCH   1   8
BRANCH   1  16
ATOM     16  O   UNL     1      -9.511  23.734  25.476  1.00  0.00    -0.387 OA
ATOM     17  H   UNL     1      -9.568  23.294  24.588  1.00  0.00     0.211 HD
ENDBRANCH   1  16
TORSDOF 10
ENDMDL
MODEL 8
REMARK VINA RESULT:    -2.602      7.134      9.803
REMARK INTER + INTRA:          -3.770
REMARK INTER:                  -3.166
REMARK INTRA:                  -0.604
REMARK UNBOUND:                -0.027
REMARK SMILES O=C(CO)[C@H](O)[C@@H](O)[C@@H](O)CO
REMARK SMILES IDX 7 1 9 2 11 3 12 4 10 6 5 8 2 9 1 10 3 11 4 12 6 14 8 16
REMARK H PARENT 12 5 10 7 4 13 6 15 8 17
REMARK Flexibility Score: inf
ROOT
ATOM      1  C   UNL     1      -8.162  24.453  26.927  1.00  0.00     0.181 C 
ENDROOT
BRANCH   1   2
ATOM      2  C   UNL     1      -6.786  25.143  27.115  1.00  0.00     0.171 C 
BRANCH   2   3
ATOM      3  C   UNL     1      -6.797  26.125  28.303  1.00  0.00     0.190 C 
BRANCH   3   4
ATOM      4  O   UNL     1      -7.139  25.456  29.488  1.00  0.00    -0.394 OA
ATOM      5  H   UNL     1      -8.110  25.255  29.430  1.00  0.00     0.210 HD
ENDBRANCH   3   4
ENDBRANCH   2   3
BRANCH   2   6
ATOM      6  O   UNL     1      -6.393  25.811  25.941  1.00  0.00    -0.388 OA
ATOM      7  H   UNL     1      -7.091  25.641  25.254  1.00  0.00     0.211 HD
ENDBRANCH   2   6
ENDBRANCH   1   2
BRANCH   1   8
ATOM      8  C   UNL     1      -8.235  23.675  25.588  1.00  0.00     0.214 C 
BRANCH   8   9
ATOM      9  C   UNL     1      -7.092  22.684  25.466  1.00  0.00     0.189 C 
ATOM     10  O   UNL     1      -6.909  21.881  26.369  1.00  0.00    -0.294 OA
BRANCH   9  11
ATOM     11  C   UNL     1      -6.179  22.672  24.263  1.00  0.00     0.234 C 
BRANCH  11  12
ATOM     12  O   UNL     1      -5.606  21.406  24.072  1.00  0.00    -0.388 OA
ATOM     13  H   UNL     1      -6.176  20.933  23.410  1.00  0.00     0.211 HD
ENDBRANCH  11  12
ENDBRANCH   9  11
ENDBRANCH   8   9
BRANCH   8  14
ATOM     14  O   UNL     1      -8.287  24.547  24.483  1.00  0.00    -0.382 OA
ATOM     15  H   UNL     1      -7.586  25.238  24.602  1.00  0.00     0.211 HD
ENDBRANCH   8  14
ENDBRANCH   1   8
BRANCH   1  16
ATOM     16  O   UNL     1      -8.403  23.566  27.994  1.00  0.00    -0.387 OA
ATOM     17  H   UNL     1      -8.898  24.070  28.691  1.00  0.00     0.211 HD
ENDBRANCH   1  16
TORSDOF 10
ENDMDL
