MODEL 1
REMARK VINA RESULT:    -3.557      0.000      0.000
REMARK INTER + INTRA:          -5.380
REMARK INTER:                  -5.012
REMARK INTRA:                  -0.367
REMARK UNBOUND:                -0.367
REMARK SMILES CCCCCCCCC(=O)[O-]
REMARK SMILES IDX 6 1 7 2 8 3 9 4 10 5 11 6 5 7 4 8 3 9 2 10 1 11
REMARK H PARENT
REMARK Flexibility Score: inf
ROOT
ATOM      1  C   UNL     1     -18.045  35.277 -21.099  1.00  0.00     0.000 C 
ENDROOT
BRANCH   1   2
ATOM      2  C   UNL     1     -19.431  34.616 -21.108  1.00  0.00     0.006 C 
BRANCH   2   3
ATOM      3  C   UNL     1     -20.444  35.375 -20.240  1.00  0.00     0.053 C 
BRANCH   3   4
ATOM      4  C   UNL     1     -20.866  34.572 -19.049  1.00  0.00     0.041 C 
ATOM      5  O   UNL     1     -21.044  35.133 -17.936  1.00  0.00    -0.550 OA
ATOM      6  O   UNL     1     -21.096  33.208 -19.176  1.00  0.00    -0.550 OA
ENDBRANCH   3   4
ENDBRANCH   2   3
ENDBRANCH   1   2
BRANCH   1   7
ATOM      7  C   UNL     1     -17.816  36.052 -19.793  1.00  0.00     0.000 C 
BRANCH   7   8
ATOM      8  C   UNL     1     -17.204  35.180 -18.686  1.00  0.00    -0.000 C 
BRANCH   8   9
ATOM      9  C   UNL     1     -16.530  33.912 -19.234  1.00  0.00    -0.000 C 
BRANCH   9  10
ATOM     10  C   UNL     1     -15.004  34.049 -19.212  1.00  0.00    -0.003 C 
ATOM     11  C   UNL     1     -14.548  34.980 -18.092  1.00  0.00     0.004 C 
ENDBRANCH   9  10
ENDBRANCH   8   9
ENDBRANCH   7   8
ENDBRANCH   1   7
TORSDOF 7
ENDMDL
MODEL 2
REMARK VINA RESULT:    -3.498      1.396      1.706
REMARK INTER + INTRA:          -5.297
REMARK INTER:                  -4.935
REMARK INTRA:                  -0.362
REMARK UNBOUND:                -0.367
REMARK SMILES CCCCCCCCC(=O)[O-]
REMARK SMILES IDX 6 1 7 2 8 3 9 4 10 5 11 6 5 7 4 8 3 9 2 10 1 11
REMARK H PARENT
REMARK Flexibility Score: inf
ROOT
ATOM      1  C   UNL     1     -18.488  34.592 -21.125  1.00  0.00     0.000 C 
ENDROOT
BRANCH   1   2
ATOM      2  C   UNL     1     -19.635  34.789 -20.122  1.00  0.00     0.006 C 
BRANCH   2   3
ATOM      3  C   UNL     1     -19.529  36.124 -19.372  1.00  0.00     0.053 C 
BRANCH   3   4
ATOM      4  C   UNL     1     -19.727  35.948 -17.897  1.00  0.00     0.041 C 
ATOM      5  O   UNL     1     -18.745  36.029 -17.112  1.00  0.00    -0.550 OA
ATOM      6  O   UNL     1     -21.000  35.730 -17.387  1.00  0.00    -0.550 OA
ENDBRANCH   3   4
ENDBRANCH   2   3
ENDBRANCH   1   2
BRANCH   1   7
ATOM      7  C   UNL     1     -17.124  34.741 -20.434  1.00  0.00     0.000 C 
BRANCH   7   8
ATOM      8  C   UNL     1     -16.920  33.723 -19.301  1.00  0.00    -0.000 C 
BRANCH   8   9
ATOM      9  C   UNL     1     -15.460  33.262 -19.174  1.00  0.00    -0.000 C 
BRANCH   9  10
ATOM     10  C   UNL     1     -14.507  34.461 -19.135  1.00  0.00    -0.003 C 
ATOM     11  C   UNL     1     -14.523  35.136 -17.767  1.00  0.00     0.004 C 
ENDBRANCH   9  10
ENDBRANCH   8   9
ENDBRANCH   7   8
ENDBRANCH   1   7
TORSDOF 7
ENDMDL
MODEL 3
REMARK VINA RESULT:    -3.295      3.112      5.200
REMARK INTER + INTRA:          -5.010
REMARK INTER:                  -4.406
REMARK INTRA:                  -0.604
REMARK UNBOUND:                -0.367
REMARK SMILES CCCCCCCCC(=O)[O-]
REMARK SMILES IDX 6 1 7 2 8 3 9 4 10 5 11 6 5 7 4 8 3 9 2 10 1 11
REMARK H PARENT
REMARK Flexibility Score: inf
ROOT
ATOM      1  C   UNL     1     -17.285  33.910 -19.749  1.00  0.00     0.000 C 
ENDROOT
BRANCH   1   2
ATOM      2  C   UNL     1     -17.175  34.765 -18.477  1.00  0.00     0.006 C 
BRANCH   2   3
ATOM      3  C   UNL     1     -16.019  35.771 -18.551  1.00  0.00     0.053 C 
BRANCH   3   4
ATOM      4  C   UNL     1     -14.735  35.177 -18.058  1.00  0.00     0.041 C 
ATOM      5  O   UNL     1     -14.019  34.485 -18.830  1.00  0.00    -0.550 OA
ATOM      6  O   UNL     1     -14.312  35.416 -16.757  1.00  0.00    -0.550 OA
ENDBRANCH   3   4
ENDBRANCH   2   3
ENDBRANCH   1   2
BRANCH   1   7
ATOM      7  C   UNL     1     -17.862  34.730 -20.912  1.00  0.00     0.000 C 
BRANCH   7   8
ATOM      8  C   UNL     1     -19.396  34.674 -20.973  1.00  0.00    -0.000 C 
BRANCH   8   9
ATOM      9  C   UNL     1     -20.056  35.984 -20.515  1.00  0.00    -0.000 C 
BRANCH   9  10
ATOM     10  C   UNL     1     -20.944  35.752 -19.288  1.00  0.00    -0.003 C 
ATOM     11  C   UNL     1     -20.973  34.277 -18.898  1.00  0.00     0.004 C 
ENDBRANCH   9  10
ENDBRANCH   8   9
ENDBRANCH   7   8
ENDBRANCH   1   7
TORSDOF 7
ENDMDL
MODEL 4
REMARK VINA RESULT:    -2.917      0.845      1.624
REMARK INTER + INTRA:          -4.478
REMARK INTER:                  -4.196
REMARK INTRA:                  -0.282
REMARK UNBOUND:                -0.367
REMARK SMILES CCCCCCCCC(=O)[O-]
REMARK SMILES IDX 6 1 7 2 8 3 9 4 10 5 11 6 5 7 4 8 3 9 2 10 1 11
REMARK H PARENT
REMARK Flexibility Score: inf
ROOT
ATOM      1  C   UNL     1     -17.980  35.429 -20.138  1.00  0.00     0.000 C 
ENDROOT
BRANCH   1   2
ATOM      2  C   UNL     1     -19.376  35.983 -20.462  1.00  0.00     0.006 C 
BRANCH   2   3
ATOM      3  C   UNL     1     -20.435  34.876 -20.548  1.00  0.00     0.053 C 
BRANCH   3   4
ATOM      4  C   UNL     1     -20.891  34.438 -19.191  1.00  0.00     0.041 C 
ATOM      5  O   UNL     1     -21.048  33.214 -18.939  1.00  0.00    -0.550 OA
ATOM      6  O   UNL     1     -21.110  35.379 -18.193  1.00  0.00    -0.550 OA
ENDBRANCH   3   4
ENDBRANCH   2   3
ENDBRANCH   1   2
BRANCH   1   7
ATOM      7  C   UNL     1     -17.591  35.738 -18.685  1.00  0.00     0.000 C 
BRANCH   7   8
ATOM      8  C   UNL     1     -16.111  36.125 -18.537  1.00  0.00    -0.000 C 
BRANCH   8   9
ATOM      9  C   UNL     1     -15.215  34.925 -18.193  1.00  0.00    -0.000 C 
BRANCH   9  10
ATOM     10  C   UNL     1     -14.903  34.096 -19.443  1.00  0.00    -0.003 C 
ATOM     11  C   UNL     1     -15.465  32.682 -19.323  1.00  0.00     0.004 C 
ENDBRANCH   9  10
ENDBRANCH   8   9
ENDBRANCH   7   8
ENDBRANCH   1   7
TORSDOF 7
ENDMDL
MODEL 5
REMARK VINA RESULT:    -2.209      2.599      4.994
REMARK INTER + INTRA:          -3.480
REMARK INTER:                  -3.342
REMARK INTRA:                  -0.138
REMARK UNBOUND:                -0.367
REMARK SMILES CCCCCCCCC(=O)[O-]
REMARK SMILES IDX 6 1 7 2 8 3 9 4 10 5 11 6 5 7 4 8 3 9 2 10 1 11
REMARK H PARENT
REMARK Flexibility Score: inf
ROOT
ATOM      1  C   UNL     1     -17.650  35.082 -18.663  1.00  0.00     0.000 C 
ENDROOT
BRANCH   1   2
ATOM      2  C   UNL     1     -16.364  35.549 -17.965  1.00  0.00     0.006 C 
BRANCH   2   3
ATOM      3  C   UNL     1     -15.100  35.061 -18.686  1.00  0.00     0.053 C 
BRANCH   3   4
ATOM      4  C   UNL     1     -15.378  33.864 -19.542  1.00  0.00     0.041 C 
ATOM      5  O   UNL     1     -15.541  32.731 -19.015  1.00  0.00    -0.550 OA
ATOM      6  O   UNL     1     -15.490  34.004 -20.919  1.00  0.00    -0.550 OA
ENDBRANCH   3   4
ENDBRANCH   2   3
ENDBRANCH   1   2
BRANCH   1   7
ATOM      7  C   UNL     1     -18.131  36.125 -19.683  1.00  0.00     0.000 C 
BRANCH   7   8
ATOM      8  C   UNL     1     -18.996  35.512 -20.795  1.00  0.00    -0.000 C 
BRANCH   8   9
ATOM      9  C   UNL     1     -20.483  35.873 -20.657  1.00  0.00    -0.000 C 
BRANCH   9  10
ATOM     10  C   UNL     1     -21.056  35.346 -19.337  1.00  0.00    -0.003 C 
ATOM     11  C   UNL     1     -21.125  33.822 -19.334  1.00  0.00     0.004 C 
ENDBRANCH   9  10
ENDBRANCH   8   9
ENDBRANCH   7   8
ENDBRANCH   1   7
TORSDOF 7
ENDMDL
MODEL 6
REMARK VINA RESULT:    -1.528      1.309      2.157
REMARK INTER + INTRA:          -2.520
REMARK INTER:                  -2.590
REMARK INTRA:                   0.070
REMARK UNBOUND:                -0.367
REMARK SMILES CCCCCCCCC(=O)[O-]
REMARK SMILES IDX 6 1 7 2 8 3 9 4 10 5 11 6 5 7 4 8 3 9 2 10 1 11
REMARK H PARENT
REMARK Flexibility Score: inf
ROOT
ATOM      1  C   UNL     1     -16.846  36.051 -18.885  1.00  0.00     0.000 C 
ENDROOT
BRANCH   1   2
ATOM      2  C   UNL     1     -18.154  36.090 -18.081  1.00  0.00     0.006 C 
BRANCH   2   3
ATOM      3  C   UNL     1     -18.914  34.758 -18.140  1.00  0.00     0.053 C 
BRANCH   3   4
ATOM      4  C   UNL     1     -20.299  34.933 -18.682  1.00  0.00     0.041 C 
ATOM      5  O   UNL     1     -20.760  34.114 -19.521  1.00  0.00    -0.550 OA
ATOM      6  O   UNL     1     -21.094  35.980 -18.236  1.00  0.00    -0.550 OA
ENDBRANCH   3   4
ENDBRANCH   2   3
ENDBRANCH   1   2
BRANCH   1   7
ATOM      7  C   UNL     1     -17.108  35.636 -20.340  1.00  0.00     0.000 C 
BRANCH   7   8
ATOM      8  C   UNL     1     -16.027  34.694 -20.892  1.00  0.00    -0.000 C 
BRANCH   8   9
ATOM      9  C   UNL     1     -16.126  33.274 -20.314  1.00  0.00    -0.000 C 
BRANCH   9  10
ATOM     10  C   UNL     1     -15.074  33.050 -19.223  1.00  0.00    -0.003 C 
ATOM     11  C   UNL     1     -14.310  34.335 -18.919  1.00  0.00     0.004 C 
ENDBRANCH   9  10
ENDBRANCH   8   9
ENDBRANCH   7   8
ENDBRANCH   1   7
TORSDOF 7
ENDMDL
MODEL 7
REMARK VINA RESULT:    -0.840      1.279      2.133
REMARK INTER + INTRA:          -1.551
REMARK INTER:                  -1.094
REMARK INTRA:                  -0.457
REMARK UNBOUND:                -0.367
REMARK SMILES CCCCCCCCC(=O)[O-]
REMARK SMILES IDX 6 1 7 2 8 3 9 4 10 5 11 6 5 7 4 8 3 9 2 10 1 11
REMARK H PARENT
REMARK Flexibility Score: inf
ROOT
ATOM      1  C   UNL     1     -17.158  33.870 -19.914  1.00  0.00     0.000 C 
ENDROOT
BRANCH   1   2
ATOM      2  C   UNL     1     -18.215  34.889 -20.368  1.00  0.00     0.006 C 
BRANCH   2   3
ATOM      3  C   UNL     1     -19.646  34.378 -20.153  1.00  0.00     0.053 C 
BRANCH   3   4
ATOM      4  C   UNL     1     -20.205  34.831 -18.840  1.00  0.00     0.041 C 
ATOM      5  O   UNL     1     -21.093  34.151 -18.261  1.00  0.00    -0.550 OA
ATOM      6  O   UNL     1     -19.722  35.985 -18.238  1.00  0.00    -0.550 OA
ENDBRANCH   3   4
ENDBRANCH   2   3
ENDBRANCH   1   2
BRANCH   1   7
ATOM      7  C   UNL     1     -16.482  34.324 -18.612  1.00  0.00     0.000 C 
BRANCH   7   8
ATOM      8  C   UNL     1     -16.155  35.825 -18.607  1.00  0.00    -0.000 C 
BRANCH   8   9
ATOM      9  C   UNL     1     -14.751  36.125 -18.060  1.00  0.00    -0.000 C 
BRANCH   9  10
ATOM     10  C   UNL     1     -14.338  35.086 -17.011  1.00  0.00    -0.003 C 
ATOM     11  C   UNL     1     -13.648  35.747 -15.821  1.00  0.00     0.004 C 
ENDBRANCH   9  10
ENDBRANCH   8   9
ENDBRANCH   7   8
ENDBRANCH   1   7
TORSDOF 7
ENDMDL
