MODEL 1
REMARK VINA RESULT:    -2.981      0.000      0.000
REMARK INTER + INTRA:          -2.932
REMARK INTER:                  -3.678
REMARK INTRA:                   0.746
REMARK UNBOUND:                 0.746
REMARK SMILES CC1=CC=CC(C)(C)CC1=O
REMARK SMILES IDX 1 1 2 2 3 3 10 4 11 5 9 6 4 8 5 9 6 10 7 11 8 12
REMARK H PARENT
REMARK Flexibility Score: 80.00
ROOT
ATOM      1  C   UNL     1     138.020 135.776 120.675  1.00  0.00     0.048 C 
ATOM      2  C   UNL     1     139.174 135.187 121.451  1.00  0.00    -0.008 C 
ATOM      3  C   UNL     1     138.911 134.145 122.269  1.00  0.00     0.007 C 
ENDROOT
BRANCH   2   4
ATOM      4  C   UNL     1     140.493 135.853 121.311  1.00  0.00     0.159 C 
ATOM      5  O   UNL     1     140.550 136.975 120.736  1.00  0.00    -0.295 OA
BRANCH   4   6
ATOM      6  C   UNL     1     141.775 135.258 121.805  1.00  0.00     0.091 CG0
ATOM      7  G   UNL     1     141.780 134.998 123.327  1.00  0.00     0.000 G0
ENDBRANCH   4   6
ENDBRANCH   2   4
BRANCH   3   8
ATOM      8  C   UNL     1     139.816 133.386 123.163  1.00  0.00    -0.003 C 
ATOM      9  C   UNL     1     141.022 133.729 123.632  1.00  0.00    -0.020 C 
BRANCH   9  10
ATOM     10  C   UNL     1     141.776 135.000 123.324  1.00  0.00    -0.010 CG0
ATOM     11  C   UNL     1     143.246 134.811 123.765  1.00  0.00     0.016 C 
ATOM     12  C   UNL     1     141.184 136.176 124.136  1.00  0.00     0.016 C 
ATOM     13  G   UNL     1     141.760 135.260 121.801  1.00  0.00     0.000 G0
ENDBRANCH   9  10
ENDBRANCH   3   8
TORSDOF 0
ENDMDL
MODEL 2
REMARK VINA RESULT:    -2.973      1.779      3.046
REMARK INTER + INTRA:          -2.922
REMARK INTER:                  -3.690
REMARK INTRA:                   0.768
REMARK UNBOUND:                 0.746
REMARK SMILES CC1=CC=CC(C)(C)CC1=O
REMARK SMILES IDX 1 1 2 2 3 3 10 4 11 5 9 6 4 8 5 9 6 10 7 11 8 12
REMARK H PARENT
REMARK Flexibility Score: 80.00
ROOT
ATOM      1  C   UNL     1     139.223 133.064 122.904  1.00  0.00     0.048 C 
ATOM      2  C   UNL     1     140.030 134.176 122.276  1.00  0.00    -0.008 C 
ATOM      3  C   UNL     1     141.347 134.236 122.571  1.00  0.00     0.007 C 
ENDROOT
BRANCH   2   4
ATOM      4  C   UNL     1     139.293 135.160 121.444  1.00  0.00     0.159 C 
ATOM      5  O   UNL     1     138.032 135.145 121.459  1.00  0.00    -0.295 OA
BRANCH   4   6
ATOM      6  C   UNL     1     139.967 136.170 120.569  1.00  0.00     0.091 CG0
ATOM      7  G   UNL     1     140.901 137.124 121.347  1.00  0.00     0.000 G0
ENDBRANCH   4   6
ENDBRANCH   2   4
BRANCH   3   8
ATOM      8  C   UNL     1     142.375 135.211 122.137  1.00  0.00    -0.003 C 
ATOM      9  C   UNL     1     142.213 136.438 121.628  1.00  0.00    -0.020 C 
BRANCH   9  10
ATOM     10  C   UNL     1     140.899 137.125 121.344  1.00  0.00    -0.010 CG0
ATOM     11  C   UNL     1     141.178 138.357 120.453  1.00  0.00     0.016 C 
ATOM     12  C   UNL     1     140.268 137.627 122.664  1.00  0.00     0.016 C 
ATOM     13  G   UNL     1     139.968 136.169 120.565  1.00  0.00     0.000 G0
ENDBRANCH   9  10
ENDBRANCH   3   8
TORSDOF 0
ENDMDL
MODEL 3
REMARK VINA RESULT:    -2.941      1.601      2.520
REMARK INTER + INTRA:          -2.882
REMARK INTER:                  -3.638
REMARK INTRA:                   0.756
REMARK UNBOUND:                 0.746
REMARK SMILES CC1=CC=CC(C)(C)CC1=O
REMARK SMILES IDX 1 1 2 2 3 3 10 4 11 5 9 6 4 8 5 9 6 10 7 11 8 12
REMARK H PARENT
REMARK Flexibility Score: 80.00
ROOT
ATOM      1  C   UNL     1     139.505 133.495 123.278  1.00  0.00     0.048 C 
ATOM      2  C   UNL     1     140.903 134.039 123.105  1.00  0.00    -0.008 C 
ATOM      3  C   UNL     1     141.831 133.682 124.020  1.00  0.00     0.007 C 
ENDROOT
BRANCH   2   4
ATOM      4  C   UNL     1     141.126 134.986 121.984  1.00  0.00     0.159 C 
ATOM      5  O   UNL     1     140.125 135.453 121.374  1.00  0.00    -0.295 OA
BRANCH   4   6
ATOM      6  C   UNL     1     142.485 135.412 121.521  1.00  0.00     0.091 CG0
ATOM      7  G   UNL     1     143.304 136.131 122.616  1.00  0.00     0.000 G0
ENDBRANCH   4   6
ENDBRANCH   2   4
BRANCH   3   8
ATOM      8  C   UNL     1     143.256 134.070 124.129  1.00  0.00    -0.003 C 
ATOM      9  C   UNL     1     143.897 135.099 123.561  1.00  0.00    -0.020 C 
BRANCH   9  10
ATOM     10  C   UNL     1     143.300 136.120 122.622  1.00  0.00    -0.010 CG0
ATOM     11  C   UNL     1     144.457 136.880 121.933  1.00  0.00     0.016 C 
ATOM     12  C   UNL     1     142.465 137.148 123.422  1.00  0.00     0.016 C 
ATOM     13  G   UNL     1     142.476 135.404 121.529  1.00  0.00     0.000 G0
ENDBRANCH   9  10
ENDBRANCH   3   8
TORSDOF 0
ENDMDL
MODEL 4
REMARK VINA RESULT:    -2.924      2.065      3.202
REMARK INTER + INTRA:          -2.861
REMARK INTER:                  -3.606
REMARK INTRA:                   0.745
REMARK UNBOUND:                 0.746
REMARK SMILES CC1=CC=CC(C)(C)CC1=O
REMARK SMILES IDX 1 1 2 2 3 3 10 4 11 5 9 6 4 8 5 9 6 10 7 11 8 12
REMARK H PARENT
REMARK Flexibility Score: 80.00
ROOT
ATOM      1  C   UNL     1     139.517 133.491 123.181  1.00  0.00     0.048 C 
ATOM      2  C   UNL     1     140.617 134.430 122.743  1.00  0.00    -0.008 C 
ATOM      3  C   UNL     1     140.417 135.142 121.612  1.00  0.00     0.007 C 
ENDROOT
BRANCH   2   4
ATOM      4  C   UNL     1     141.861 134.438 123.551  1.00  0.00     0.159 C 
ATOM      5  O   UNL     1     142.029 133.536 124.419  1.00  0.00    -0.295 OA
BRANCH   4   6
ATOM      6  C   UNL     1     142.935 135.471 123.405  1.00  0.00     0.091 CG0
ATOM      7  G   UNL     1     143.558 135.507 121.992  1.00  0.00     0.000 G0
ENDBRANCH   4   6
ENDBRANCH   2   4
BRANCH   3   8
ATOM      8  C   UNL     1     141.308 136.107 120.928  1.00  0.00    -0.003 C 
ATOM      9  C   UNL     1     142.630 136.274 121.056  1.00  0.00    -0.020 C 
BRANCH   9  10
ATOM     10  C   UNL     1     143.546 135.509 121.982  1.00  0.00    -0.010 CG0
ATOM     11  C   UNL     1     144.890 136.266 122.070  1.00  0.00     0.016 C 
ATOM     12  C   UNL     1     143.828 134.103 121.402  1.00  0.00     0.016 C 
ATOM     13  G   UNL     1     142.929 135.456 123.398  1.00  0.00     0.000 G0
ENDBRANCH   9  10
ENDBRANCH   3   8
TORSDOF 0
ENDMDL
MODEL 5
REMARK VINA RESULT:    -2.910      1.977      3.026
REMARK INTER + INTRA:          -2.845
REMARK INTER:                  -3.603
REMARK INTRA:                   0.759
REMARK UNBOUND:                 0.746
REMARK SMILES CC1=CC=CC(C)(C)CC1=O
REMARK SMILES IDX 1 1 2 2 3 3 10 4 11 5 9 6 4 8 5 9 6 10 7 11 8 12
REMARK H PARENT
REMARK Flexibility Score: 80.00
ROOT
ATOM      1  C   UNL     1     139.957 134.223 123.477  1.00  0.00     0.048 C 
ATOM      2  C   UNL     1     141.451 134.038 123.357  1.00  0.00    -0.008 C 
ATOM      3  C   UNL     1     142.082 133.377 124.352  1.00  0.00     0.007 C 
ENDROOT
BRANCH   2   4
ATOM      4  C   UNL     1     142.118 134.667 122.189  1.00  0.00     0.159 C 
ATOM      5  O   UNL     1     141.460 135.474 121.475  1.00  0.00    -0.295 OA
BRANCH   4   6
ATOM      6  C   UNL     1     143.535 134.387 121.798  1.00  0.00     0.091 CG0
ATOM      7  G   UNL     1     144.555 134.753 122.899  1.00  0.00     0.000 G0
ENDBRANCH   4   6
ENDBRANCH   2   4
BRANCH   3   8
ATOM      8  C   UNL     1     143.520 133.069 124.525  1.00  0.00    -0.003 C 
ATOM      9  C   UNL     1     144.582 133.637 123.940  1.00  0.00    -0.020 C 
BRANCH   9  10
ATOM     10  C   UNL     1     144.556 134.742 122.911  1.00  0.00    -0.010 CG0
ATOM     11  C   UNL     1     145.955 134.835 122.262  1.00  0.00     0.016 C 
ATOM     12  C   UNL     1     144.260 136.096 123.599  1.00  0.00     0.016 C 
ATOM     13  G   UNL     1     143.533 134.400 121.805  1.00  0.00     0.000 G0
ENDBRANCH   9  10
ENDBRANCH   3   8
TORSDOF 0
ENDMDL
MODEL 6
REMARK VINA RESULT:    -2.905      2.154      2.892
REMARK INTER + INTRA:          -2.837
REMARK INTER:                  -3.581
REMARK INTRA:                   0.743
REMARK UNBOUND:                 0.746
REMARK SMILES CC1=CC=CC(C)(C)CC1=O
REMARK SMILES IDX 1 1 2 2 3 3 10 4 11 5 9 6 4 8 5 9 6 10 7 11 8 12
REMARK H PARENT
REMARK Flexibility Score: 80.00
ROOT
ATOM      1  C   UNL     1     139.000 133.065 122.878  1.00  0.00     0.048 C 
ATOM      2  C   UNL     1     139.995 134.097 123.353  1.00  0.00    -0.008 C 
ATOM      3  C   UNL     1     141.251 133.677 123.622  1.00  0.00     0.007 C 
ENDROOT
BRANCH   2   4
ATOM      4  C   UNL     1     139.490 135.477 123.560  1.00  0.00     0.159 C 
ATOM      5  O   UNL     1     138.245 135.677 123.549  1.00  0.00    -0.295 OA
BRANCH   4   6
ATOM      6  C   UNL     1     140.384 136.661 123.768  1.00  0.00     0.091 CG0
ATOM      7  G   UNL     1     141.283 136.532 125.018  1.00  0.00     0.000 G0
ENDBRANCH   4   6
ENDBRANCH   2   4
BRANCH   3   8
ATOM      8  C   UNL     1     142.420 134.438 124.122  1.00  0.00    -0.003 C 
ATOM      9  C   UNL     1     142.455 135.632 124.727  1.00  0.00    -0.020 C 
BRANCH   9  10
ATOM     10  C   UNL     1     141.272 136.522 125.024  1.00  0.00    -0.010 CG0
ATOM     11  C   UNL     1     141.801 137.934 125.364  1.00  0.00     0.016 C 
ATOM     12  C   UNL     1     140.508 135.991 126.259  1.00  0.00     0.016 C 
ATOM     13  G   UNL     1     140.375 136.633 123.771  1.00  0.00     0.000 G0
ENDBRANCH   9  10
ENDBRANCH   3   8
TORSDOF 0
ENDMDL
MODEL 7
REMARK VINA RESULT:    -2.864      1.736      3.608
REMARK INTER + INTRA:          -2.787
REMARK INTER:                  -3.539
REMARK INTRA:                   0.751
REMARK UNBOUND:                 0.746
REMARK SMILES CC1=CC=CC(C)(C)CC1=O
REMARK SMILES IDX 1 1 2 2 3 3 10 4 11 5 9 6 4 8 5 9 6 10 7 11 8 12
REMARK H PARENT
REMARK Flexibility Score: 80.00
ROOT
ATOM      1  C   UNL     1     142.095 134.332 124.690  1.00  0.00     0.048 C 
ATOM      2  C   UNL     1     140.883 134.623 123.836  1.00  0.00    -0.008 C 
ATOM      3  C   UNL     1     140.221 133.570 123.310  1.00  0.00     0.007 C 
ENDROOT
BRANCH   2   4
ATOM      4  C   UNL     1     140.563 136.050 123.582  1.00  0.00     0.159 C 
ATOM      5  O   UNL     1     141.407 136.930 123.906  1.00  0.00    -0.295 OA
BRANCH   4   6
ATOM      6  C   UNL     1     139.278 136.511 122.968  1.00  0.00     0.091 CG0
ATOM      7  G   UNL     1     139.029 135.924 121.561  1.00  0.00     0.000 G0
ENDBRANCH   4   6
ENDBRANCH   2   4
BRANCH   3   8
ATOM      8  C   UNL     1     139.034 133.540 122.425  1.00  0.00    -0.003 C 
ATOM      9  C   UNL     1     138.520 134.517 121.668  1.00  0.00    -0.020 C 
BRANCH   9  10
ATOM     10  C   UNL     1     139.035 135.932 121.558  1.00  0.00    -0.010 CG0
ATOM     11  C   UNL     1     137.945 136.794 120.880  1.00  0.00     0.016 C 
ATOM     12  C   UNL     1     140.295 135.968 120.663  1.00  0.00     0.016 C 
ATOM     13  G   UNL     1     139.291 136.504 122.971  1.00  0.00     0.000 G0
ENDBRANCH   9  10
ENDBRANCH   3   8
TORSDOF 0
ENDMDL
MODEL 8
REMARK VINA RESULT:    -2.829      3.045      4.475
REMARK INTER + INTRA:          -2.745
REMARK INTER:                  -3.498
REMARK INTRA:                   0.753
REMARK UNBOUND:                 0.746
REMARK SMILES CC1=CC=CC(C)(C)CC1=O
REMARK SMILES IDX 1 1 2 2 3 3 10 4 11 5 9 6 4 8 5 9 6 10 7 11 8 12
REMARK H PARENT
REMARK Flexibility Score: 80.00
ROOT
ATOM      1  C   UNL     1     145.996 133.277 121.764  1.00  0.00     0.048 C 
ATOM      2  C   UNL     1     144.684 133.708 122.377  1.00  0.00    -0.008 C 
ATOM      3  C   UNL     1     143.710 134.125 121.538  1.00  0.00     0.007 C 
ENDROOT
BRANCH   2   4
ATOM      4  C   UNL     1     144.598 133.710 123.858  1.00  0.00     0.159 C 
ATOM      5  O   UNL     1     145.653 133.535 124.529  1.00  0.00    -0.295 OA
BRANCH   4   6
ATOM      6  C   UNL     1     143.318 133.897 124.611  1.00  0.00     0.091 CG0
ATOM      7  G   UNL     1     142.608 135.230 124.284  1.00  0.00     0.000 G0
ENDBRANCH   4   6
ENDBRANCH   2   4
BRANCH   3   8
ATOM      8  C   UNL     1     142.349 134.626 121.839  1.00  0.00    -0.003 C 
ATOM      9  C   UNL     1     141.861 135.110 122.988  1.00  0.00    -0.020 C 
BRANCH   9  10
ATOM     10  C   UNL     1     142.605 135.235 124.296  1.00  0.00    -0.010 CG0
ATOM     11  C   UNL     1     141.573 135.493 125.418  1.00  0.00     0.016 C 
ATOM     12  C   UNL     1     143.564 136.448 124.244  1.00  0.00     0.016 C 
ATOM     13  G   UNL     1     143.336 133.911 124.609  1.00  0.00     0.000 G0
ENDBRANCH   9  10
ENDBRANCH   3   8
TORSDOF 0
ENDMDL
MODEL 9
REMARK VINA RESULT:    -2.812     13.423     14.432
REMARK INTER + INTRA:          -2.724
REMARK INTER:                  -3.483
REMARK INTRA:                   0.759
REMARK UNBOUND:                 0.746
REMARK SMILES CC1=CC=CC(C)(C)CC1=O
REMARK SMILES IDX 1 1 2 2 3 3 10 4 11 5 9 6 4 8 5 9 6 10 7 11 8 12
REMARK H PARENT
REMARK Flexibility Score: 80.00
ROOT
ATOM      1  C   UNL     1     127.675 136.122 113.987  1.00  0.00     0.048 C 
ATOM      2  C   UNL     1     128.508 137.323 114.369  1.00  0.00    -0.008 C 
ATOM      3  C   UNL     1     129.852 137.185 114.346  1.00  0.00     0.007 C 
ENDROOT
BRANCH   2   4
ATOM      4  C   UNL     1     127.779 138.538 114.812  1.00  0.00     0.159 C 
ATOM      5  O   UNL     1     126.541 138.456 115.037  1.00  0.00    -0.295 OA
BRANCH   4   6
ATOM      6  C   UNL     1     128.433 139.872 114.997  1.00  0.00     0.091 CG0
ATOM      7  G   UNL     1     129.579 139.851 116.032  1.00  0.00     0.000 G0
ENDBRANCH   4   6
ENDBRANCH   2   4
BRANCH   3   8
ATOM      8  C   UNL     1     130.913 138.160 114.690  1.00  0.00    -0.003 C 
ATOM      9  C   UNL     1     130.825 139.285 115.409  1.00  0.00    -0.020 C 
BRANCH   9  10
ATOM     10  C   UNL     1     129.575 139.855 116.035  1.00  0.00    -0.010 CG0
ATOM     11  C   UNL     1     129.863 141.315 116.453  1.00  0.00     0.016 C 
ATOM     12  C   UNL     1     129.213 139.058 117.310  1.00  0.00     0.016 C 
ATOM     13  G   UNL     1     128.431 139.868 114.996  1.00  0.00     0.000 G0
ENDBRANCH   9  10
ENDBRANCH   3   8
TORSDOF 0
ENDMDL
