MODEL 1
REMARK VINA RESULT:    -2.079      0.000      0.000
REMARK INTER + INTRA:          -2.771
REMARK INTER:                  -2.626
REMARK INTRA:                  -0.146
REMARK UNBOUND:                -0.146
REMARK SMILES CCCCCCO
REMARK SMILES IDX 4 1 3 2 2 3 1 4 5 5 6 6 7 7
REMARK H PARENT 7 8
REMARK Flexibility Score: inf
ROOT
ATOM      1  C   UNL     1     143.979 145.569 138.863  1.00  0.00     0.002 C 
ENDROOT
BRANCH   1   2
ATOM      2  C   UNL     1     145.223 145.171 139.676  1.00  0.00    -0.000 C 
BRANCH   2   3
ATOM      3  C   UNL     1     146.081 146.377 140.085  1.00  0.00    -0.003 C 
ATOM      4  C   UNL     1     146.107 146.544 141.602  1.00  0.00     0.004 C 
ENDBRANCH   2   3
ENDBRANCH   1   2
BRANCH   1   5
ATOM      5  C   UNL     1     143.564 147.049 138.983  1.00  0.00     0.028 C 
BRANCH   5   6
ATOM      6  C   UNL     1     143.596 147.810 137.649  1.00  0.00     0.156 C 
BRANCH   6   7
ATOM      7  O   UNL     1     144.006 146.977 136.599  1.00  0.00    -0.396 OA
ATOM      8  H   UNL     1     143.248 146.929 135.960  1.00  0.00     0.210 HD
ENDBRANCH   6   7
ENDBRANCH   5   6
ENDBRANCH   1   5
TORSDOF 5
ENDMDL
MODEL 2
REMARK VINA RESULT:    -2.061      2.257      3.809
REMARK INTER + INTRA:          -2.749
REMARK INTER:                  -2.603
REMARK INTRA:                  -0.146
REMARK UNBOUND:                -0.146
REMARK SMILES CCCCCCO
REMARK SMILES IDX 4 1 3 2 2 3 1 4 5 5 6 6 7 7
REMARK H PARENT 7 8
REMARK Flexibility Score: inf
ROOT
ATOM      1  C   UNL     1     143.896 146.536 138.306  1.00  0.00     0.002 C 
ENDROOT
BRANCH   1   2
ATOM      2  C   UNL     1     142.668 145.673 137.967  1.00  0.00    -0.000 C 
BRANCH   2   3
ATOM      3  C   UNL     1     142.586 144.392 138.811  1.00  0.00    -0.003 C 
ATOM      4  C   UNL     1     141.904 143.267 138.037  1.00  0.00     0.004 C 
ENDBRANCH   2   3
ENDBRANCH   1   2
BRANCH   1   5
ATOM      5  C   UNL     1     144.309 146.532 139.790  1.00  0.00     0.028 C 
BRANCH   5   6
ATOM      6  C   UNL     1     145.771 146.124 140.025  1.00  0.00     0.156 C 
BRANCH   6   7
ATOM      7  O   UNL     1     146.034 144.852 139.498  1.00  0.00    -0.396 OA
ATOM      8  H   UNL     1     146.991 144.844 139.234  1.00  0.00     0.210 HD
ENDBRANCH   6   7
ENDBRANCH   5   6
ENDBRANCH   1   5
TORSDOF 5
ENDMDL
MODEL 3
REMARK VINA RESULT:    -2.058     11.557     12.541
REMARK INTER + INTRA:          -2.745
REMARK INTER:                  -2.608
REMARK INTRA:                  -0.137
REMARK UNBOUND:                -0.146
REMARK SMILES CCCCCCO
REMARK SMILES IDX 4 1 3 2 2 3 1 4 5 5 6 6 7 7
REMARK H PARENT 7 8
REMARK Flexibility Score: inf
ROOT
ATOM      1  C   UNL     1     131.367 146.315 138.296  1.00  0.00     0.002 C 
ENDROOT
BRANCH   1   2
ATOM      2  C   UNL     1     131.750 144.848 138.033  1.00  0.00    -0.000 C 
BRANCH   2   3
ATOM      3  C   UNL     1     133.005 144.410 138.801  1.00  0.00    -0.003 C 
ATOM      4  C   UNL     1     133.767 143.329 138.039  1.00  0.00     0.004 C 
ENDBRANCH   2   3
ENDBRANCH   1   2
BRANCH   1   5
ATOM      5  C   UNL     1     131.347 146.729 139.780  1.00  0.00     0.028 C 
BRANCH   5   6
ATOM      6  C   UNL     1     132.227 147.948 140.094  1.00  0.00     0.156 C 
BRANCH   6   7
ATOM      7  O   UNL     1     133.494 147.824 139.506  1.00  0.00    -0.396 OA
ATOM      8  H   UNL     1     134.106 147.494 140.215  1.00  0.00     0.210 HD
ENDBRANCH   6   7
ENDBRANCH   5   6
ENDBRANCH   1   5
TORSDOF 5
ENDMDL
MODEL 4
REMARK VINA RESULT:    -2.054      2.164      3.761
REMARK INTER + INTRA:          -2.740
REMARK INTER:                  -2.606
REMARK INTRA:                  -0.134
REMARK UNBOUND:                -0.146
REMARK SMILES CCCCCCO
REMARK SMILES IDX 4 1 3 2 2 3 1 4 5 5 6 6 7 7
REMARK H PARENT 7 8
REMARK Flexibility Score: inf
ROOT
ATOM      1  C   UNL     1     142.619 145.376 138.933  1.00  0.00     0.002 C 
ENDROOT
BRANCH   1   2
ATOM      2  C   UNL     1     142.635 143.841 138.838  1.00  0.00    -0.000 C 
BRANCH   2   3
ATOM      3  C   UNL     1     141.614 143.293 137.831  1.00  0.00    -0.003 C 
ATOM      4  C   UNL     1     141.081 144.403 136.928  1.00  0.00     0.004 C 
ENDBRANCH   2   3
ENDBRANCH   1   2
BRANCH   1   5
ATOM      5  C   UNL     1     143.941 146.069 138.552  1.00  0.00     0.028 C 
BRANCH   5   6
ATOM      6  C   UNL     1     143.761 147.280 137.624  1.00  0.00     0.156 C 
BRANCH   6   7
ATOM      7  O   UNL     1     143.951 146.923 136.281  1.00  0.00    -0.396 OA
ATOM      8  H   UNL     1     144.478 147.653 135.864  1.00  0.00     0.210 HD
ENDBRANCH   6   7
ENDBRANCH   5   6
ENDBRANCH   1   5
TORSDOF 5
ENDMDL
MODEL 5
REMARK VINA RESULT:    -2.052      2.568      3.165
REMARK INTER + INTRA:          -2.738
REMARK INTER:                  -2.622
REMARK INTRA:                  -0.116
REMARK UNBOUND:                -0.146
REMARK SMILES CCCCCCO
REMARK SMILES IDX 4 1 3 2 2 3 1 4 5 5 6 6 7 7
REMARK H PARENT 7 8
REMARK Flexibility Score: inf
ROOT
ATOM      1  C   UNL     1     142.107 145.677 138.466  1.00  0.00     0.002 C 
ENDROOT
BRANCH   1   2
ATOM      2  C   UNL     1     143.463 146.240 138.005  1.00  0.00    -0.000 C 
BRANCH   2   3
ATOM      3  C   UNL     1     144.447 146.454 139.165  1.00  0.00    -0.003 C 
ATOM      4  C   UNL     1     145.123 145.144 139.561  1.00  0.00     0.004 C 
ENDBRANCH   2   3
ENDBRANCH   1   2
BRANCH   1   5
ATOM      5  C   UNL     1     141.719 144.319 137.852  1.00  0.00     0.028 C 
BRANCH   5   6
ATOM      6  C   UNL     1     140.535 144.396 136.876  1.00  0.00     0.156 C 
BRANCH   6   7
ATOM      7  O   UNL     1     140.955 144.799 135.601  1.00  0.00    -0.396 OA
ATOM      8  H   UNL     1     141.928 144.985 135.666  1.00  0.00     0.210 HD
ENDBRANCH   6   7
ENDBRANCH   5   6
ENDBRANCH   1   5
TORSDOF 5
ENDMDL
MODEL 6
REMARK VINA RESULT:    -2.035     11.943     12.835
REMARK INTER + INTRA:          -2.716
REMARK INTER:                  -2.600
REMARK INTRA:                  -0.116
REMARK UNBOUND:                -0.146
REMARK SMILES CCCCCCO
REMARK SMILES IDX 4 1 3 2 2 3 1 4 5 5 6 6 7 7
REMARK H PARENT 7 8
REMARK Flexibility Score: inf
ROOT
ATOM      1  C   UNL     1     132.228 144.469 138.955  1.00  0.00     0.002 C 
ENDROOT
BRANCH   1   2
ATOM      2  C   UNL     1     131.536 145.711 138.366  1.00  0.00    -0.000 C 
BRANCH   2   3
ATOM      3  C   UNL     1     131.666 146.950 139.263  1.00  0.00    -0.003 C 
ATOM      4  C   UNL     1     133.118 147.185 139.670  1.00  0.00     0.004 C 
ENDBRANCH   2   3
ENDBRANCH   1   2
BRANCH   1   5
ATOM      5  C   UNL     1     133.022 143.620 137.944  1.00  0.00     0.028 C 
BRANCH   5   6
ATOM      6  C   UNL     1     132.153 142.638 137.144  1.00  0.00     0.156 C 
BRANCH   6   7
ATOM      7  O   UNL     1     131.953 143.091 135.832  1.00  0.00    -0.396 OA
ATOM      8  H   UNL     1     131.196 143.733 135.864  1.00  0.00     0.210 HD
ENDBRANCH   6   7
ENDBRANCH   5   6
ENDBRANCH   1   5
TORSDOF 5
ENDMDL
MODEL 7
REMARK VINA RESULT:    -2.029     11.984     12.962
REMARK INTER + INTRA:          -2.708
REMARK INTER:                  -2.553
REMARK INTRA:                  -0.156
REMARK UNBOUND:                -0.146
REMARK SMILES CCCCCCO
REMARK SMILES IDX 4 1 3 2 2 3 1 4 5 5 6 6 7 7
REMARK H PARENT 7 8
REMARK Flexibility Score: inf
ROOT
ATOM      1  C   UNL     1     131.873 145.084 139.252  1.00  0.00     0.002 C 
ENDROOT
BRANCH   1   2
ATOM      2  C   UNL     1     133.324 144.625 139.031  1.00  0.00    -0.000 C 
BRANCH   2   3
ATOM      3  C   UNL     1     133.421 143.290 138.277  1.00  0.00    -0.003 C 
ATOM      4  C   UNL     1     132.358 143.196 137.186  1.00  0.00     0.004 C 
ENDBRANCH   2   3
ENDBRANCH   1   2
BRANCH   1   5
ATOM      5  C   UNL     1     131.528 146.468 138.670  1.00  0.00     0.028 C 
BRANCH   5   6
ATOM      6  C   UNL     1     130.389 146.440 137.640  1.00  0.00     0.156 C 
BRANCH   6   7
ATOM      7  O   UNL     1     130.887 146.502 136.331  1.00  0.00    -0.396 OA
ATOM      8  H   UNL     1     131.871 146.382 136.394  1.00  0.00     0.210 HD
ENDBRANCH   6   7
ENDBRANCH   5   6
ENDBRANCH   1   5
TORSDOF 5
ENDMDL
MODEL 8
REMARK VINA RESULT:    -2.029     11.688     12.604
REMARK INTER + INTRA:          -2.708
REMARK INTER:                  -2.618
REMARK INTRA:                  -0.090
REMARK UNBOUND:                -0.146
REMARK SMILES CCCCCCO
REMARK SMILES IDX 4 1 3 2 2 3 1 4 5 5 6 6 7 7
REMARK H PARENT 7 8
REMARK Flexibility Score: inf
ROOT
ATOM      1  C   UNL     1     131.660 146.969 139.498  1.00  0.00     0.002 C 
ENDROOT
BRANCH   1   2
ATOM      2  C   UNL     1     133.129 147.360 139.735  1.00  0.00    -0.000 C 
BRANCH   2   3
ATOM      3  C   UNL     1     133.999 146.175 140.178  1.00  0.00    -0.003 C 
ATOM      4  C   UNL     1     133.537 145.625 141.524  1.00  0.00     0.004 C 
ENDBRANCH   2   3
ENDBRANCH   1   2
BRANCH   1   5
ATOM      5  C   UNL     1     131.419 146.024 138.305  1.00  0.00     0.028 C 
BRANCH   5   6
ATOM      6  C   UNL     1     130.309 146.497 137.355  1.00  0.00     0.156 C 
BRANCH   6   7
ATOM      7  O   UNL     1     130.806 146.713 136.061  1.00  0.00    -0.396 OA
ATOM      8  H   UNL     1     130.092 146.435 135.431  1.00  0.00     0.210 HD
ENDBRANCH   6   7
ENDBRANCH   5   6
ENDBRANCH   1   5
TORSDOF 5
ENDMDL
MODEL 9
REMARK VINA RESULT:    -2.024     10.447     11.472
REMARK INTER + INTRA:          -2.702
REMARK INTER:                  -2.592
REMARK INTRA:                  -0.110
REMARK UNBOUND:                -0.146
REMARK SMILES CCCCCCO
REMARK SMILES IDX 4 1 3 2 2 3 1 4 5 5 6 6 7 7
REMARK H PARENT 7 8
REMARK Flexibility Score: inf
ROOT
ATOM      1  C   UNL     1     145.556 135.051 138.967  1.00  0.00     0.002 C 
ENDROOT
BRANCH   1   2
ATOM      2  C   UNL     1     147.056 135.063 138.624  1.00  0.00    -0.000 C 
BRANCH   2   3
ATOM      3  C   UNL     1     147.839 133.946 139.329  1.00  0.00    -0.003 C 
ATOM      4  C   UNL     1     146.908 132.830 139.794  1.00  0.00     0.004 C 
ENDBRANCH   2   3
ENDBRANCH   1   2
BRANCH   1   5
ATOM      5  C   UNL     1     144.658 135.848 138.001  1.00  0.00     0.028 C 
BRANCH   5   6
ATOM      6  C   UNL     1     145.361 137.048 137.350  1.00  0.00     0.156 C 
BRANCH   6   7
ATOM      7  O   UNL     1     145.482 136.873 135.964  1.00  0.00    -0.396 OA
ATOM      8  H   UNL     1     144.585 137.047 135.575  1.00  0.00     0.210 HD
ENDBRANCH   6   7
ENDBRANCH   5   6
ENDBRANCH   1   5
TORSDOF 5
ENDMDL
