MODEL 1
REMARK VINA RESULT:    -4.059      0.000      0.000
REMARK INTER + INTRA:          -5.344
REMARK INTER:                  -5.008
REMARK INTRA:                  -0.336
REMARK UNBOUND:                -0.336
REMARK SMILES COC(=O)c1ccccc1C(=O)OC
REMARK SMILES IDX 5 1 6 2 7 3 8 4 9 5 10 6 3 7 4 8 2 9 1 10 11 11 12 12 13 13
REMARK SMILES IDX 14 14
REMARK H PARENT
REMARK Flexibility Score: inf
ROOT
ATOM      1  C   UNL     1     118.068 122.018 132.703  1.00  0.00     0.074 A 
ATOM      2  C   UNL     1     118.068 122.744 131.499  1.00  0.00     0.016 A 
ATOM      3  C   UNL     1     116.869 123.125 130.894  1.00  0.00     0.001 A 
ATOM      4  C   UNL     1     115.653 122.788 131.483  1.00  0.00     0.001 A 
ATOM      5  C   UNL     1     115.629 122.048 132.665  1.00  0.00     0.016 A 
ATOM      6  C   UNL     1     116.826 121.634 133.280  1.00  0.00     0.074 A 
ENDROOT
BRANCH   1   7
ATOM      7  C   UNL     1     119.373 121.746 133.347  1.00  0.00     0.338 C 
ATOM      8  O   UNL     1     119.788 122.485 134.282  1.00  0.00    -0.246 OA
BRANCH   7   9
ATOM      9  O   UNL     1     120.170 120.697 132.875  1.00  0.00    -0.465 OA
ATOM     10  C   UNL     1     121.582 120.671 133.044  1.00  0.00     0.282 C 
ENDBRANCH   7   9
ENDBRANCH   1   7
BRANCH   6  11
ATOM     11  C   UNL     1     116.736 120.753 134.466  1.00  0.00     0.338 C 
ATOM     12  O   UNL     1     117.086 119.543 134.377  1.00  0.00    -0.246 OA
BRANCH  11  13
ATOM     13  O   UNL     1     116.318 121.273 135.695  1.00  0.00    -0.465 OA
ATOM     14  C   UNL     1     116.791 122.515 136.204  1.00  0.00     0.282 C 
ENDBRANCH  11  13
ENDBRANCH   6  11
TORSDOF 4
ENDMDL
MODEL 2
REMARK VINA RESULT:    -4.036      0.060      3.719
REMARK INTER + INTRA:          -5.315
REMARK INTER:                  -4.961
REMARK INTRA:                  -0.355
REMARK UNBOUND:                -0.336
REMARK SMILES COC(=O)c1ccccc1C(=O)OC
REMARK SMILES IDX 5 1 6 2 7 3 8 4 9 5 10 6 3 7 4 8 2 9 1 10 11 11 12 12 13 13
REMARK SMILES IDX 14 14
REMARK H PARENT
REMARK Flexibility Score: inf
ROOT
ATOM      1  C   UNL     1     116.850 121.625 133.277  1.00  0.00     0.074 A 
ATOM      2  C   UNL     1     115.645 122.010 132.664  1.00  0.00     0.016 A 
ATOM      3  C   UNL     1     115.650 122.755 131.483  1.00  0.00     0.001 A 
ATOM      4  C   UNL     1     116.857 123.125 130.897  1.00  0.00     0.001 A 
ATOM      5  C   UNL     1     118.065 122.774 131.500  1.00  0.00     0.016 A 
ATOM      6  C   UNL     1     118.083 122.043 132.703  1.00  0.00     0.074 A 
ENDROOT
BRANCH   1   7
ATOM      7  C   UNL     1     116.773 120.742 134.463  1.00  0.00     0.338 C 
ATOM      8  O   UNL     1     117.101 119.527 134.374  1.00  0.00    -0.246 OA
BRANCH   7   9
ATOM      9  O   UNL     1     116.279 121.249 135.670  1.00  0.00    -0.465 OA
ATOM     10  C   UNL     1     116.745 122.465 136.240  1.00  0.00     0.282 C 
ENDBRANCH   7   9
ENDBRANCH   1   7
BRANCH   6  11
ATOM     11  C   UNL     1     119.389 121.801 133.357  1.00  0.00     0.338 C 
ATOM     12  O   UNL     1     119.756 122.536 134.315  1.00  0.00    -0.246 OA
BRANCH  11  13
ATOM     13  O   UNL     1     120.188 120.727 132.950  1.00  0.00    -0.465 OA
ATOM     14  C   UNL     1     121.610 120.781 132.958  1.00  0.00     0.282 C 
ENDBRANCH  11  13
ENDBRANCH   6  11
TORSDOF 4
ENDMDL
MODEL 3
REMARK VINA RESULT:    -3.395      1.697      4.111
REMARK INTER + INTRA:          -4.525
REMARK INTER:                  -4.931
REMARK INTRA:                   0.406
REMARK UNBOUND:                -0.336
REMARK SMILES COC(=O)c1ccccc1C(=O)OC
REMARK SMILES IDX 5 1 6 2 7 3 8 4 9 5 10 6 3 7 4 8 2 9 1 10 11 11 12 12 13 13
REMARK SMILES IDX 14 14
REMARK H PARENT
REMARK Flexibility Score: inf
ROOT
ATOM      1  C   UNL     1     119.684 121.351 133.175  1.00  0.00     0.074 A 
ATOM      2  C   UNL     1     120.807 120.854 132.491  1.00  0.00     0.016 A 
ATOM      3  C   UNL     1     122.096 121.073 132.980  1.00  0.00     0.001 A 
ATOM      4  C   UNL     1     122.282 121.790 134.159  1.00  0.00     0.001 A 
ATOM      5  C   UNL     1     121.184 122.312 134.842  1.00  0.00     0.016 A 
ATOM      6  C   UNL     1     119.877 122.122 134.354  1.00  0.00     0.074 A 
ENDROOT
BRANCH   1   7
ATOM      7  C   UNL     1     118.343 120.986 132.663  1.00  0.00     0.338 C 
ATOM      8  O   UNL     1     117.624 120.161 133.292  1.00  0.00    -0.246 OA
BRANCH   7   9
ATOM      9  O   UNL     1     117.901 121.517 131.446  1.00  0.00    -0.465 OA
ATOM     10  C   UNL     1     116.822 122.439 131.358  1.00  0.00     0.282 C 
ENDBRANCH   7   9
ENDBRANCH   1   7
BRANCH   6  11
ATOM     11  C   UNL     1     118.762 122.799 135.057  1.00  0.00     0.338 C 
ATOM     12  O   UNL     1     118.891 123.125 136.269  1.00  0.00    -0.246 OA
BRANCH  11  13
ATOM     13  O   UNL     1     117.593 123.125 134.362  1.00  0.00    -0.465 OA
ATOM     14  C   UNL     1     116.295 122.938 134.913  1.00  0.00     0.282 C 
ENDBRANCH  11  13
ENDBRANCH   6  11
TORSDOF 4
ENDMDL
MODEL 4
REMARK VINA RESULT:    -3.295      1.820      4.382
REMARK INTER + INTRA:          -4.401
REMARK INTER:                  -4.355
REMARK INTRA:                  -0.046
REMARK UNBOUND:                -0.336
REMARK SMILES COC(=O)c1ccccc1C(=O)OC
REMARK SMILES IDX 5 1 6 2 7 3 8 4 9 5 10 6 3 7 4 8 2 9 1 10 11 11 12 12 13 13
REMARK SMILES IDX 14 14
REMARK H PARENT
REMARK Flexibility Score: inf
ROOT
ATOM      1  C   UNL     1     118.965 122.490 134.815  1.00  0.00     0.074 A 
ATOM      2  C   UNL     1     120.025 123.113 135.499  1.00  0.00     0.016 A 
ATOM      3  C   UNL     1     121.343 122.959 135.066  1.00  0.00     0.001 A 
ATOM      4  C   UNL     1     121.622 122.182 133.945  1.00  0.00     0.001 A 
ATOM      5  C   UNL     1     120.589 121.536 133.265  1.00  0.00     0.016 A 
ATOM      6  C   UNL     1     119.256 121.659 133.698  1.00  0.00     0.074 A 
ENDROOT
BRANCH   1   7
ATOM      7  C   UNL     1     117.585 122.787 135.260  1.00  0.00     0.338 C 
ATOM      8  O   UNL     1     117.273 122.685 136.480  1.00  0.00    -0.246 OA
BRANCH   7   9
ATOM      9  O   UNL     1     116.612 123.125 134.314  1.00  0.00    -0.465 OA
ATOM     10  C   UNL     1     115.311 122.550 134.312  1.00  0.00     0.282 C 
ENDBRANCH   7   9
ENDBRANCH   1   7
BRANCH   6  11
ATOM     11  C   UNL     1     118.219 120.857 133.010  1.00  0.00     0.338 C 
ATOM     12  O   UNL     1     117.639 119.920 133.625  1.00  0.00    -0.246 OA
BRANCH  11  13
ATOM     13  O   UNL     1     117.843 121.174 131.700  1.00  0.00    -0.465 OA
ATOM     14  C   UNL     1     117.539 122.501 131.288  1.00  0.00     0.282 C 
ENDBRANCH  11  13
ENDBRANCH   6  11
TORSDOF 4
ENDMDL
MODEL 5
REMARK VINA RESULT:    -3.233      1.889      3.469
REMARK INTER + INTRA:          -4.325
REMARK INTER:                  -4.621
REMARK INTRA:                   0.296
REMARK UNBOUND:                -0.336
REMARK SMILES COC(=O)c1ccccc1C(=O)OC
REMARK SMILES IDX 5 1 6 2 7 3 8 4 9 5 10 6 3 7 4 8 2 9 1 10 11 11 12 12 13 13
REMARK SMILES IDX 14 14
REMARK H PARENT
REMARK Flexibility Score: inf
ROOT
ATOM      1  C   UNL     1     118.017 122.058 134.421  1.00  0.00     0.074 A 
ATOM      2  C   UNL     1     117.494 122.114 135.725  1.00  0.00     0.016 A 
ATOM      3  C   UNL     1     116.120 122.007 135.948  1.00  0.00     0.001 A 
ATOM      4  C   UNL     1     115.250 121.842 134.874  1.00  0.00     0.001 A 
ATOM      5  C   UNL     1     115.745 121.808 133.570  1.00  0.00     0.016 A 
ATOM      6  C   UNL     1     117.124 121.936 133.321  1.00  0.00     0.074 A 
ENDROOT
BRANCH   1   7
ATOM      7  C   UNL     1     119.490 122.065 134.265  1.00  0.00     0.338 C 
ATOM      8  O   UNL     1     120.068 121.134 133.639  1.00  0.00    -0.246 OA
BRANCH   7   9
ATOM      9  O   UNL     1     120.243 123.079 134.866  1.00  0.00    -0.465 OA
ATOM     10  C   UNL     1     121.468 122.826 135.543  1.00  0.00     0.282 C 
ENDBRANCH   7   9
ENDBRANCH   1   7
BRANCH   6  11
ATOM     11  C   UNL     1     117.578 122.010 131.913  1.00  0.00     0.338 C 
ATOM     12  O   UNL     1     118.236 121.056 131.415  1.00  0.00    -0.246 OA
BRANCH  11  13
ATOM     13  O   UNL     1     117.228 123.110 131.122  1.00  0.00    -0.465 OA
ATOM     14  C   UNL     1     116.069 123.125 130.297  1.00  0.00     0.282 C 
ENDBRANCH  11  13
ENDBRANCH   6  11
TORSDOF 4
ENDMDL
MODEL 6
REMARK VINA RESULT:    -3.121      1.855      4.080
REMARK INTER + INTRA:          -4.187
REMARK INTER:                  -4.338
REMARK INTRA:                   0.151
REMARK UNBOUND:                -0.336
REMARK SMILES COC(=O)c1ccccc1C(=O)OC
REMARK SMILES IDX 5 1 6 2 7 3 8 4 9 5 10 6 3 7 4 8 2 9 1 10 11 11 12 12 13 13
REMARK SMILES IDX 14 14
REMARK H PARENT
REMARK Flexibility Score: inf
ROOT
ATOM      1  C   UNL     1     117.622 121.673 133.658  1.00  0.00     0.074 A 
ATOM      2  C   UNL     1     116.326 121.388 134.124  1.00  0.00     0.016 A 
ATOM      3  C   UNL     1     115.890 121.868 135.360  1.00  0.00     0.001 A 
ATOM      4  C   UNL     1     116.740 122.639 136.148  1.00  0.00     0.001 A 
ATOM      5  C   UNL     1     118.038 122.913 135.717  1.00  0.00     0.016 A 
ATOM      6  C   UNL     1     118.506 122.421 134.484  1.00  0.00     0.074 A 
ENDROOT
BRANCH   1   7
ATOM      7  C   UNL     1     117.980 121.229 132.291  1.00  0.00     0.338 C 
ATOM      8  O   UNL     1     118.582 120.134 132.115  1.00  0.00    -0.246 OA
BRANCH   7   9
ATOM      9  O   UNL     1     117.697 122.057 131.200  1.00  0.00    -0.465 OA
ATOM     10  C   UNL     1     116.460 122.744 131.058  1.00  0.00     0.282 C 
ENDBRANCH   7   9
ENDBRANCH   1   7
BRANCH   6  11
ATOM     11  C   UNL     1     119.927 122.645 134.134  1.00  0.00     0.338 C 
ATOM     12  O   UNL     1     120.227 123.125 133.006  1.00  0.00    -0.246 OA
BRANCH  11  13
ATOM     13  O   UNL     1     120.929 122.378 135.072  1.00  0.00    -0.465 OA
ATOM     14  C   UNL     1     122.240 121.969 134.700  1.00  0.00     0.282 C 
ENDBRANCH  11  13
ENDBRANCH   6  11
TORSDOF 4
ENDMDL
MODEL 7
REMARK VINA RESULT:    -3.070     15.589     17.171
REMARK INTER + INTRA:          -4.124
REMARK INTER:                  -3.824
REMARK INTRA:                  -0.300
REMARK UNBOUND:                -0.336
REMARK SMILES COC(=O)c1ccccc1C(=O)OC
REMARK SMILES IDX 5 1 6 2 7 3 8 4 9 5 10 6 3 7 4 8 2 9 1 10 11 11 12 12 13 13
REMARK SMILES IDX 14 14
REMARK H PARENT
REMARK Flexibility Score: inf
ROOT
ATOM      1  C   UNL     1     122.138 105.187 130.605  1.00  0.00     0.074 A 
ATOM      2  C   UNL     1     123.125 105.818 129.827  1.00  0.00     0.016 A 
ATOM      3  C   UNL     1     123.077 107.193 129.590  1.00  0.00     0.001 A 
ATOM      4  C   UNL     1     122.044 107.957 130.126  1.00  0.00     0.001 A 
ATOM      5  C   UNL     1     121.042 107.349 130.882  1.00  0.00     0.016 A 
ATOM      6  C   UNL     1     121.059 105.961 131.115  1.00  0.00     0.074 A 
ENDROOT
BRANCH   1   7
ATOM      7  C   UNL     1     122.312 103.749 130.911  1.00  0.00     0.338 C 
ATOM      8  O   UNL     1     121.692 102.877 130.241  1.00  0.00    -0.246 OA
BRANCH   7   9
ATOM      9  O   UNL     1     123.122 103.364 131.984  1.00  0.00    -0.465 OA
ATOM     10  C   UNL     1     122.670 103.381 133.332  1.00  0.00     0.282 C 
ENDBRANCH   7   9
ENDBRANCH   1   7
BRANCH   6  11
ATOM     11  C   UNL     1     119.908 105.355 131.823  1.00  0.00     0.338 C 
ATOM     12  O   UNL     1     119.089 104.635 131.187  1.00  0.00    -0.246 OA
BRANCH  11  13
ATOM     13  O   UNL     1     119.761 105.535 133.202  1.00  0.00    -0.465 OA
ATOM     14  C   UNL     1     118.908 104.720 133.997  1.00  0.00     0.282 C 
ENDBRANCH  11  13
ENDBRANCH   6  11
TORSDOF 4
ENDMDL
MODEL 8
REMARK VINA RESULT:    -3.066     16.334     17.581
REMARK INTER + INTRA:          -4.119
REMARK INTER:                  -3.788
REMARK INTRA:                  -0.331
REMARK UNBOUND:                -0.336
REMARK SMILES COC(=O)c1ccccc1C(=O)OC
REMARK SMILES IDX 5 1 6 2 7 3 8 4 9 5 10 6 3 7 4 8 2 9 1 10 11 11 12 12 13 13
REMARK SMILES IDX 14 14
REMARK H PARENT
REMARK Flexibility Score: inf
ROOT
ATOM      1  C   UNL     1     117.684 103.894 133.493  1.00  0.00     0.074 A 
ATOM      2  C   UNL     1     117.374 103.571 132.160  1.00  0.00     0.016 A 
ATOM      3  C   UNL     1     116.055 103.329 131.772  1.00  0.00     0.001 A 
ATOM      4  C   UNL     1     115.027 103.407 132.707  1.00  0.00     0.001 A 
ATOM      5  C   UNL     1     115.314 103.702 134.040  1.00  0.00     0.016 A 
ATOM      6  C   UNL     1     116.640 103.927 134.458  1.00  0.00     0.074 A 
ENDROOT
BRANCH   1   7
ATOM      7  C   UNL     1     119.086 104.248 133.812  1.00  0.00     0.338 C 
ATOM      8  O   UNL     1     119.868 103.381 134.292  1.00  0.00    -0.246 OA
BRANCH   7   9
ATOM      9  O   UNL     1     119.523 105.564 133.631  1.00  0.00    -0.465 OA
ATOM     10  C   UNL     1     120.282 105.973 132.500  1.00  0.00     0.282 C 
ENDBRANCH   7   9
ENDBRANCH   1   7
BRANCH   6  11
ATOM     11  C   UNL     1     116.895 104.120 135.904  1.00  0.00     0.338 C 
ATOM     12  O   UNL     1     117.146 103.122 136.634  1.00  0.00    -0.246 OA
BRANCH  11  13
ATOM     13  O   UNL     1     116.914 105.409 136.446  1.00  0.00    -0.465 OA
ATOM     14  C   UNL     1     115.943 105.863 137.381  1.00  0.00     0.282 C 
ENDBRANCH  11  13
ENDBRANCH   6  11
TORSDOF 4
ENDMDL
MODEL 9
REMARK VINA RESULT:    -3.061     16.319     17.898
REMARK INTER + INTRA:          -4.112
REMARK INTER:                  -3.780
REMARK INTRA:                  -0.332
REMARK UNBOUND:                -0.336
REMARK SMILES COC(=O)c1ccccc1C(=O)OC
REMARK SMILES IDX 5 1 6 2 7 3 8 4 9 5 10 6 3 7 4 8 2 9 1 10 11 11 12 12 13 13
REMARK SMILES IDX 14 14
REMARK H PARENT
REMARK Flexibility Score: inf
ROOT
ATOM      1  C   UNL     1     116.684 103.942 134.481  1.00  0.00     0.074 A 
ATOM      2  C   UNL     1     115.368 103.688 134.055  1.00  0.00     0.016 A 
ATOM      3  C   UNL     1     115.099 103.350 132.728  1.00  0.00     0.001 A 
ATOM      4  C   UNL     1     116.139 103.260 131.807  1.00  0.00     0.001 A 
ATOM      5  C   UNL     1     117.449 103.531 132.201  1.00  0.00     0.016 A 
ATOM      6  C   UNL     1     117.740 103.895 133.529  1.00  0.00     0.074 A 
ENDROOT
BRANCH   1   7
ATOM      7  C   UNL     1     116.910 104.184 135.924  1.00  0.00     0.338 C 
ATOM      8  O   UNL     1     117.096 103.214 136.710  1.00  0.00    -0.246 OA
BRANCH   7   9
ATOM      9  O   UNL     1     116.860 105.490 136.421  1.00  0.00    -0.465 OA
ATOM     10  C   UNL     1     115.928 105.898 137.415  1.00  0.00     0.282 C 
ENDBRANCH   7   9
ENDBRANCH   1   7
BRANCH   6  11
ATOM     11  C   UNL     1     119.130 104.285 133.861  1.00  0.00     0.338 C 
ATOM     12  O   UNL     1     119.941 103.415 134.285  1.00  0.00    -0.246 OA
BRANCH  11  13
ATOM     13  O   UNL     1     119.557 105.600 133.651  1.00  0.00    -0.465 OA
ATOM     14  C   UNL     1     120.292 105.994 132.498  1.00  0.00     0.282 C 
ENDBRANCH  11  13
ENDBRANCH   6  11
TORSDOF 4
ENDMDL
