MODEL 1
REMARK VINA RESULT:    -1.615      0.000      0.000
REMARK INTER + INTRA:          -1.615
REMARK INTER:                  -1.615
REMARK INTRA:                   0.000
REMARK UNBOUND:                 0.000
REMARK SMILES CC(=O)[O-]
REMARK SMILES IDX 1 1 2 2 3 3 4 4
REMARK H PARENT
REMARK Flexibility Score: inf
ROOT
ATOM      1  C   UNL     1      15.611  28.208  29.520  1.00  0.00     0.063 C 
ATOM      2  C   UNL     1      14.243  28.017  28.957  1.00  0.00     0.038 C 
ATOM      3  O   UNL     1      13.230  28.226  29.674  1.00  0.00    -0.550 OA
ATOM      4  O   UNL     1      14.082  27.659  27.625  1.00  0.00    -0.550 OA
ENDROOT
TORSDOF 0
ENDMDL
MODEL 2
REMARK VINA RESULT:    -1.533     22.223     22.481
REMARK INTER + INTRA:          -1.533
REMARK INTER:                  -1.533
REMARK INTRA:                   0.000
REMARK UNBOUND:                 0.000
REMARK SMILES CC(=O)[O-]
REMARK SMILES IDX 1 1 2 2 3 3 4 4
REMARK H PARENT
REMARK Flexibility Score: inf
ROOT
ATOM      1  C   UNL     1      20.756  10.453  16.380  1.00  0.00     0.063 C 
ATOM      2  C   UNL     1      22.109  10.972  16.729  1.00  0.00     0.038 C 
ATOM      3  O   UNL     1      22.863  10.311  17.490  1.00  0.00    -0.550 OA
ATOM      4  O   UNL     1      22.562  12.162  16.174  1.00  0.00    -0.550 OA
ENDROOT
TORSDOF 0
ENDMDL
MODEL 3
REMARK VINA RESULT:    -1.519     22.202     22.449
REMARK INTER + INTRA:          -1.519
REMARK INTER:                  -1.519
REMARK INTRA:                   0.000
REMARK UNBOUND:                 0.000
REMARK SMILES CC(=O)[O-]
REMARK SMILES IDX 1 1 2 2 3 3 4 4
REMARK H PARENT
REMARK Flexibility Score: inf
ROOT
ATOM      1  C   UNL     1      20.637  10.624  16.456  1.00  0.00     0.063 C 
ATOM      2  C   UNL     1      22.054  11.025  16.694  1.00  0.00     0.038 C 
ATOM      3  O   UNL     1      22.498  12.097  16.206  1.00  0.00    -0.550 OA
ATOM      4  O   UNL     1      22.873  10.243  17.498  1.00  0.00    -0.550 OA
ENDROOT
TORSDOF 0
ENDMDL
MODEL 4
REMARK VINA RESULT:    -1.517      2.124      2.333
REMARK INTER + INTRA:          -1.517
REMARK INTER:                  -1.517
REMARK INTRA:                   0.000
REMARK UNBOUND:                 0.000
REMARK SMILES CC(=O)[O-]
REMARK SMILES IDX 1 1 2 2 3 3 4 4
REMARK H PARENT
REMARK Flexibility Score: inf
ROOT
ATOM      1  C   UNL     1      14.152  28.151  29.136  1.00  0.00     0.063 C 
ATOM      2  C   UNL     1      15.254  28.979  28.567  1.00  0.00     0.038 C 
ATOM      3  O   UNL     1      16.449  28.749  28.888  1.00  0.00    -0.550 OA
ATOM      4  O   UNL     1      14.969  29.972  27.638  1.00  0.00    -0.550 OA
ENDROOT
TORSDOF 0
ENDMDL
MODEL 5
REMARK VINA RESULT:    -1.510      1.629      1.932
REMARK INTER + INTRA:          -1.510
REMARK INTER:                  -1.510
REMARK INTRA:                   0.000
REMARK UNBOUND:                 0.000
REMARK SMILES CC(=O)[O-]
REMARK SMILES IDX 1 1 2 2 3 3 4 4
REMARK H PARENT
REMARK Flexibility Score: inf
ROOT
ATOM      1  C   UNL     1      15.156  29.345  28.019  1.00  0.00     0.063 C 
ATOM      2  C   UNL     1      14.828  28.419  29.142  1.00  0.00     0.038 C 
ATOM      3  O   UNL     1      15.752  27.873  29.800  1.00  0.00    -0.550 OA
ATOM      4  O   UNL     1      13.504  28.199  29.499  1.00  0.00    -0.550 OA
ENDROOT
TORSDOF 0
ENDMDL
MODEL 6
REMARK VINA RESULT:    -1.471      9.087      9.417
REMARK INTER + INTRA:          -1.471
REMARK INTER:                  -1.471
REMARK INTRA:                   0.000
REMARK UNBOUND:                 0.000
REMARK SMILES CC(=O)[O-]
REMARK SMILES IDX 1 1 2 2 3 3 4 4
REMARK H PARENT
REMARK Flexibility Score: inf
ROOT
ATOM      1  C   UNL     1      12.750  20.921  32.956  1.00  0.00     0.063 C 
ATOM      2  C   UNL     1      12.818  20.743  34.435  1.00  0.00     0.038 C 
ATOM      3  O   UNL     1      13.582  21.468  35.125  1.00  0.00    -0.550 OA
ATOM      4  O   UNL     1      11.998  19.814  35.063  1.00  0.00    -0.550 OA
ENDROOT
TORSDOF 0
ENDMDL
MODEL 7
REMARK VINA RESULT:    -1.224      8.233      8.393
REMARK INTER + INTRA:          -1.224
REMARK INTER:                  -1.224
REMARK INTRA:                   0.000
REMARK UNBOUND:                 0.000
REMARK SMILES CC(=O)[O-]
REMARK SMILES IDX 1 1 2 2 3 3 4 4
REMARK H PARENT
REMARK Flexibility Score: inf
ROOT
ATOM      1  C   UNL     1      12.815  20.748  34.528  1.00  0.00     0.063 C 
ATOM      2  C   UNL     1      13.250  21.035  33.130  1.00  0.00     0.038 C 
ATOM      3  O   UNL     1      12.396  21.136  32.211  1.00  0.00    -0.550 OA
ATOM      4  O   UNL     1      14.594  21.245  32.849  1.00  0.00    -0.550 OA
ENDROOT
TORSDOF 0
ENDMDL
MODEL 8
REMARK VINA RESULT:    -1.208      6.004      6.360
REMARK INTER + INTRA:          -1.208
REMARK INTER:                  -1.208
REMARK INTRA:                   0.000
REMARK UNBOUND:                 0.000
REMARK SMILES CC(=O)[O-]
REMARK SMILES IDX 1 1 2 2 3 3 4 4
REMARK H PARENT
REMARK Flexibility Score: inf
ROOT
ATOM      1  C   UNL     1      16.949  25.230  34.458  1.00  0.00     0.063 C 
ATOM      2  C   UNL     1      17.786  26.192  33.683  1.00  0.00     0.038 C 
ATOM      3  O   UNL     1      18.378  27.133  34.273  1.00  0.00    -0.550 OA
ATOM      4  O   UNL     1      17.957  26.020  32.315  1.00  0.00    -0.550 OA
ENDROOT
TORSDOF 0
ENDMDL
MODEL 9
REMARK VINA RESULT:    -1.203     20.177     20.526
REMARK INTER + INTRA:          -1.203
REMARK INTER:                  -1.203
REMARK INTRA:                   0.000
REMARK UNBOUND:                 0.000
REMARK SMILES CC(=O)[O-]
REMARK SMILES IDX 1 1 2 2 3 3 4 4
REMARK H PARENT
REMARK Flexibility Score: inf
ROOT
ATOM      1  C   UNL     1      25.052  14.587  20.184  1.00  0.00     0.063 C 
ATOM      2  C   UNL     1      26.479  14.156  20.164  1.00  0.00     0.038 C 
ATOM      3  O   UNL     1      27.314  14.765  19.445  1.00  0.00    -0.550 OA
ATOM      4  O   UNL     1      26.903  13.115  20.979  1.00  0.00    -0.550 OA
ENDROOT
TORSDOF 0
ENDMDL
