MODEL 1
REMARK VINA RESULT:    -3.269      0.000      0.000
REMARK INTER + INTRA:          -3.689
REMARK INTER:                  -3.651
REMARK INTRA:                  -0.038
REMARK UNBOUND:                -0.038
REMARK SMILES CC(C)CC=O
REMARK SMILES IDX 4 1 2 2 1 3 3 4 5 5 6 6
REMARK H PARENT
REMARK Flexibility Score: inf
ROOT
ATOM      1  C   UNL     1      23.380  55.905  -8.814  1.00  0.00     0.075 C 
ENDROOT
BRANCH   1   2
ATOM      2  C   UNL     1      24.875  55.944  -9.195  1.00  0.00    -0.010 C 
ATOM      3  C   UNL     1      25.413  57.382  -9.212  1.00  0.00     0.008 C 
ATOM      4  C   UNL     1      25.691  55.091  -8.217  1.00  0.00     0.008 C 
ENDBRANCH   1   2
BRANCH   1   5
ATOM      5  C   UNL     1      23.116  54.988  -7.655  1.00  0.00     0.224 C 
ATOM      6  O   UNL     1      22.172  54.215  -7.681  1.00  0.00    -0.303 OA
ENDBRANCH   1   5
TORSDOF 2
ENDMDL
MODEL 2
REMARK VINA RESULT:    -3.134      2.415      3.247
REMARK INTER + INTRA:          -3.538
REMARK INTER:                  -3.511
REMARK INTRA:                  -0.027
REMARK UNBOUND:                -0.038
REMARK SMILES CC(C)CC=O
REMARK SMILES IDX 4 1 2 2 1 3 3 4 5 5 6 6
REMARK H PARENT
REMARK Flexibility Score: inf
ROOT
ATOM      1  C   UNL     1      23.922  56.756  -9.011  1.00  0.00     0.075 C 
ENDROOT
BRANCH   1   2
ATOM      2  C   UNL     1      23.975  55.238  -8.742  1.00  0.00    -0.010 C 
ATOM      3  C   UNL     1      25.345  54.814  -8.190  1.00  0.00     0.008 C 
ATOM      4  C   UNL     1      22.868  54.835  -7.761  1.00  0.00     0.008 C 
ENDBRANCH   1   2
BRANCH   1   5
ATOM      5  C   UNL     1      25.292  57.364  -9.094  1.00  0.00     0.224 C 
ATOM      6  O   UNL     1      25.434  58.520  -9.461  1.00  0.00    -0.303 OA
ENDBRANCH   1   5
TORSDOF 2
ENDMDL
MODEL 3
REMARK VINA RESULT:    -2.995     12.979     14.000
REMARK INTER + INTRA:          -3.383
REMARK INTER:                  -3.354
REMARK INTRA:                  -0.029
REMARK UNBOUND:                -0.038
REMARK SMILES CC(C)CC=O
REMARK SMILES IDX 4 1 2 2 1 3 3 4 5 5 6 6
REMARK H PARENT
REMARK Flexibility Score: inf
ROOT
ATOM      1  C   UNL     1      28.281  44.972  -0.643  1.00  0.00     0.075 C 
ENDROOT
BRANCH   1   2
ATOM      2  C   UNL     1      29.777  45.109  -0.292  1.00  0.00    -0.010 C 
ATOM      3  C   UNL     1      29.980  45.368   1.209  1.00  0.00     0.008 C 
ATOM      4  C   UNL     1      30.536  43.844  -0.712  1.00  0.00     0.008 C 
ENDBRANCH   1   2
BRANCH   1   5
ATOM      5  C   UNL     1      27.723  46.233  -1.239  1.00  0.00     0.224 C 
ATOM      6  O   UNL     1      26.915  46.905  -0.618  1.00  0.00    -0.303 OA
ENDBRANCH   1   5
TORSDOF 2
ENDMDL
MODEL 4
REMARK VINA RESULT:    -2.840     16.292     16.596
REMARK INTER + INTRA:          -3.211
REMARK INTER:                  -3.174
REMARK INTRA:                  -0.037
REMARK UNBOUND:                -0.038
REMARK SMILES CC(C)CC=O
REMARK SMILES IDX 4 1 2 2 1 3 3 4 5 5 6 6
REMARK H PARENT
REMARK Flexibility Score: inf
ROOT
ATOM      1  C   UNL     1      16.159  42.451 -14.497  1.00  0.00     0.075 C 
ENDROOT
BRANCH   1   2
ATOM      2  C   UNL     1      15.362  41.934 -13.281  1.00  0.00    -0.010 C 
ATOM      3  C   UNL     1      16.297  41.454 -12.160  1.00  0.00     0.008 C 
ATOM      4  C   UNL     1      14.433  43.034 -12.752  1.00  0.00     0.008 C 
ENDBRANCH   1   2
BRANCH   1   5
ATOM      5  C   UNL     1      15.437  43.552 -15.218  1.00  0.00     0.224 C 
ATOM      6  O   UNL     1      16.062  44.437 -15.781  1.00  0.00    -0.303 OA
ENDBRANCH   1   5
TORSDOF 2
ENDMDL
MODEL 5
REMARK VINA RESULT:    -2.771     14.209     15.269
REMARK INTER + INTRA:          -3.133
REMARK INTER:                  -3.105
REMARK INTRA:                  -0.028
REMARK UNBOUND:                -0.038
REMARK SMILES CC(C)CC=O
REMARK SMILES IDX 4 1 2 2 1 3 3 4 5 5 6 6
REMARK H PARENT
REMARK Flexibility Score: inf
ROOT
ATOM      1  C   UNL     1      29.758  45.264   0.784  1.00  0.00     0.075 C 
ENDROOT
BRANCH   1   2
ATOM      2  C   UNL     1      30.834  44.160   0.842  1.00  0.00    -0.010 C 
ATOM      3  C   UNL     1      31.401  43.855  -0.553  1.00  0.00     0.008 C 
ATOM      4  C   UNL     1      31.966  44.576   1.788  1.00  0.00     0.008 C 
ENDBRANCH   1   2
BRANCH   1   5
ATOM      5  C   UNL     1      28.832  45.089  -0.385  1.00  0.00     0.224 C 
ATOM      6  O   UNL     1      28.185  46.034  -0.809  1.00  0.00    -0.303 OA
ENDBRANCH   1   5
TORSDOF 2
ENDMDL
MODEL 6
REMARK VINA RESULT:    -2.750     15.252     16.517
REMARK INTER + INTRA:          -3.109
REMARK INTER:                  -3.071
REMARK INTRA:                  -0.038
REMARK UNBOUND:                -0.038
REMARK SMILES CC(C)CC=O
REMARK SMILES IDX 4 1 2 2 1 3 3 4 5 5 6 6
REMARK H PARENT
REMARK Flexibility Score: inf
ROOT
ATOM      1  C   UNL     1      19.201  42.582   1.213  1.00  0.00     0.075 C 
ENDROOT
BRANCH   1   2
ATOM      2  C   UNL     1      18.287  43.817   1.074  1.00  0.00    -0.010 C 
ATOM      3  C   UNL     1      18.490  44.517  -0.278  1.00  0.00     0.008 C 
ATOM      4  C   UNL     1      16.818  43.407   1.235  1.00  0.00     0.008 C 
ENDBRANCH   1   2
BRANCH   1   5
ATOM      5  C   UNL     1      19.708  42.102  -0.116  1.00  0.00     0.224 C 
ATOM      6  O   UNL     1      20.864  41.730  -0.240  1.00  0.00    -0.303 OA
ENDBRANCH   1   5
TORSDOF 2
ENDMDL
MODEL 7
REMARK VINA RESULT:    -2.691      8.599      9.511
REMARK INTER + INTRA:          -3.044
REMARK INTER:                  -3.007
REMARK INTRA:                  -0.037
REMARK UNBOUND:                -0.038
REMARK SMILES CC(C)CC=O
REMARK SMILES IDX 4 1 2 2 1 3 3 4 5 5 6 6
REMARK H PARENT
REMARK Flexibility Score: inf
ROOT
ATOM      1  C   UNL     1      31.448  56.667 -14.242  1.00  0.00     0.075 C 
ENDROOT
BRANCH   1   2
ATOM      2  C   UNL     1      32.939  56.791 -13.869  1.00  0.00    -0.010 C 
ATOM      3  C   UNL     1      33.519  58.143 -14.314  1.00  0.00     0.008 C 
ATOM      4  C   UNL     1      33.122  56.616 -12.357  1.00  0.00     0.008 C 
ENDBRANCH   1   2
BRANCH   1   5
ATOM      5  C   UNL     1      30.610  57.720 -13.576  1.00  0.00     0.224 C 
ATOM      6  O   UNL     1      29.476  57.463 -13.203  1.00  0.00    -0.303 OA
ENDBRANCH   1   5
TORSDOF 2
ENDMDL
MODEL 8
REMARK VINA RESULT:    -2.681      7.690      8.690
REMARK INTER + INTRA:          -3.032
REMARK INTER:                  -3.006
REMARK INTRA:                  -0.026
REMARK UNBOUND:                -0.038
REMARK SMILES CC(C)CC=O
REMARK SMILES IDX 4 1 2 2 1 3 3 4 5 5 6 6
REMARK H PARENT
REMARK Flexibility Score: inf
ROOT
ATOM      1  C   UNL     1      30.315  58.557 -13.494  1.00  0.00     0.075 C 
ENDROOT
BRANCH   1   2
ATOM      2  C   UNL     1      31.493  57.562 -13.455  1.00  0.00    -0.010 C 
ATOM      3  C   UNL     1      31.007  56.111 -13.589  1.00  0.00     0.008 C 
ATOM      4  C   UNL     1      32.493  57.884 -14.573  1.00  0.00     0.008 C 
ENDBRANCH   1   2
BRANCH   1   5
ATOM      5  C   UNL     1      29.962  59.069 -12.127  1.00  0.00     0.224 C 
ATOM      6  O   UNL     1      28.896  58.771 -11.611  1.00  0.00    -0.303 OA
ENDBRANCH   1   5
TORSDOF 2
ENDMDL
MODEL 9
REMARK VINA RESULT:    -2.579     15.510     16.329
REMARK INTER + INTRA:          -2.918
REMARK INTER:                  -2.880
REMARK INTRA:                  -0.038
REMARK UNBOUND:                -0.038
REMARK SMILES CC(C)CC=O
REMARK SMILES IDX 4 1 2 2 1 3 3 4 5 5 6 6
REMARK H PARENT
REMARK Flexibility Score: inf
ROOT
ATOM      1  C   UNL     1      18.277  44.112  -0.064  1.00  0.00     0.075 C 
ENDROOT
BRANCH   1   2
ATOM      2  C   UNL     1      16.734  44.108  -0.032  1.00  0.00    -0.010 C 
ATOM      3  C   UNL     1      16.202  44.173   1.408  1.00  0.00     0.008 C 
ATOM      4  C   UNL     1      16.187  45.287  -0.846  1.00  0.00     0.008 C 
ENDBRANCH   1   2
BRANCH   1   5
ATOM      5  C   UNL     1      18.849  42.738   0.136  1.00  0.00     0.224 C 
ATOM      6  O   UNL     1      19.347  42.425   1.206  1.00  0.00    -0.303 OA
ENDBRANCH   1   5
TORSDOF 2
ENDMDL
