MODEL 1
REMARK VINA RESULT:    15.346      0.000      0.000
REMARK INTER + INTRA:          25.835
REMARK INTER:                  22.523
REMARK INTRA:                   3.313
REMARK UNBOUND:                 3.313
REMARK SMILES O=c1c(O[C@H]2O[C@H](CO)[C@H](O)[C@@H](O)[C@@H]2O)c(-c2ccc(O)c(O)c2)oc2cc(O)cc(O)c12
REMARK SMILES IDX 4 1 3 2 16 3 25 4 2 5 26 6 1 7 33 8 27 9 31 10 28 11 30 12
REMARK SMILES IDX 17 13 18 14 19 15 20 16 24 17 22 18 21 19 23 21 32 23 29 25
REMARK SMILES IDX 5 27 14 28 6 29 12 30 7 31 10 32 15 33 13 35 8 37 9 38 11 40
REMARK H PARENT 21 20 23 22 32 24 29 26 15 34 13 36 9 39 11 41
REMARK Flexibility Score: inf
ROOT
ATOM      1  O   UNL     1     -31.637 -20.703 -33.155  1.00  0.00    -0.454 OA
ENDROOT
BRANCH   1   2
ATOM      2  C   UNL     1     -31.957 -21.722 -34.078  1.00  0.00     0.214 A 
ATOM      3  C   UNL     1     -31.862 -23.061 -33.646  1.00  0.00     0.180 A 
ATOM      4  O   UNL     1     -32.051 -24.060 -34.502  1.00  0.00    -0.452 OA
ATOM      5  C   UNL     1     -32.337 -21.484 -35.419  1.00  0.00     0.239 A 
ATOM      6  C   UNL     1     -32.374 -23.877 -35.775  1.00  0.00     0.146 A 
ATOM      7  O   UNL     1     -32.492 -20.305 -35.837  1.00  0.00    -0.285 OA
ATOM      8  C   UNL     1     -32.547 -22.573 -36.292  1.00  0.00     0.111 A 
ATOM      9  C   UNL     1     -32.548 -24.994 -36.599  1.00  0.00     0.094 A 
ATOM     10  C   UNL     1     -32.912 -22.419 -37.653  1.00  0.00     0.134 A 
ATOM     11  C   UNL     1     -32.900 -24.832 -37.942  1.00  0.00     0.123 A 
ATOM     12  C   UNL     1     -33.078 -23.551 -38.466  1.00  0.00     0.093 A 
BRANCH   3  13
ATOM     13  C   UNL     1     -31.540 -23.403 -32.244  1.00  0.00     0.025 A 
ATOM     14  C   UNL     1     -31.688 -24.713 -31.770  1.00  0.00     0.016 A 
ATOM     15  C   UNL     1     -31.361 -25.029 -30.450  1.00  0.00     0.051 A 
ATOM     16  C   UNL     1     -30.854 -24.051 -29.588  1.00  0.00     0.157 A 
ATOM     17  C   UNL     1     -31.011 -22.426 -31.391  1.00  0.00     0.062 A 
ATOM     18  C   UNL     1     -30.670 -22.733 -30.065  1.00  0.00     0.158 A 
BRANCH  16  19
ATOM     19  O   UNL     1     -30.547 -24.432 -28.281  1.00  0.00    -0.504 OA
ATOM     20  H   UNL     1     -29.680 -24.212 -27.820  1.00  0.00     0.293 HD
ENDBRANCH  16  19
BRANCH  18  21
ATOM     21  O   UNL     1     -30.158 -21.707 -29.267  1.00  0.00    -0.504 OA
ATOM     22  H   UNL     1     -30.725 -21.104 -28.685  1.00  0.00     0.293 HD
ENDBRANCH  18  21
ENDBRANCH   3  13
BRANCH  10  23
ATOM     23  O   UNL     1     -33.112 -21.153 -38.205  1.00  0.00    -0.507 OA
ATOM     24  H   UNL     1     -32.407 -20.428 -38.151  1.00  0.00     0.293 HD
ENDBRANCH  10  23
BRANCH  11  25
ATOM     25  O   UNL     1     -33.076 -25.940 -38.768  1.00  0.00    -0.508 OA
ATOM     26  H   UNL     1     -33.977 -26.161 -39.171  1.00  0.00     0.293 HD
ENDBRANCH  11  25
ENDBRANCH   1   2
BRANCH   1  27
ATOM     27  C   UNL     1     -30.784 -19.574 -33.375  1.00  0.00     0.339 C 
ATOM     28  C   UNL     1     -29.478 -20.014 -34.071  1.00  0.00     0.214 C 
ATOM     29  O   UNL     1     -30.521 -18.876 -32.167  1.00  0.00    -0.332 OA
ATOM     30  C   UNL     1     -28.570 -20.808 -33.113  1.00  0.00     0.180 C 
ATOM     31  C   UNL     1     -29.839 -19.701 -31.234  1.00  0.00     0.179 C 
ATOM     32  C   UNL     1     -28.437 -20.084 -31.758  1.00  0.00     0.177 C 
BRANCH  28  33
ATOM     33  O   UNL     1     -28.788 -18.875 -34.524  1.00  0.00    -0.384 OA
ATOM     34  H   UNL     1     -28.116 -19.180 -35.187  1.00  0.00     0.211 HD
ENDBRANCH  28  33
BRANCH  30  35
ATOM     35  O   UNL     1     -29.104 -22.093 -32.923  1.00  0.00    -0.387 OA
ATOM     36  H   UNL     1     -30.075 -21.979 -32.750  1.00  0.00     0.211 HD
ENDBRANCH  30  35
BRANCH  31  37
ATOM     37  C   UNL     1     -29.766 -18.978 -29.883  1.00  0.00     0.191 C 
BRANCH  37  38
ATOM     38  O   UNL     1     -28.500 -19.134 -29.303  1.00  0.00    -0.394 OA
ATOM     39  H   UNL     1     -28.658 -19.446 -28.375  1.00  0.00     0.210 HD
ENDBRANCH  37  38
ENDBRANCH  31  37
BRANCH  32  40
ATOM     40  O   UNL     1     -27.643 -18.933 -31.906  1.00  0.00    -0.387 OA
ATOM     41  H   UNL     1     -26.890 -19.016 -31.262  1.00  0.00     0.211 HD
ENDBRANCH  32  40
ENDBRANCH   1  27
TORSDOF 12
ENDMDL
MODEL 2
REMARK VINA RESULT:    15.728      0.518      1.200
REMARK INTER + INTRA:          26.396
REMARK INTER:                  20.695
REMARK INTRA:                   5.701
REMARK UNBOUND:                 3.313
REMARK SMILES O=c1c(O[C@H]2O[C@H](CO)[C@H](O)[C@@H](O)[C@@H]2O)c(-c2ccc(O)c(O)c2)oc2cc(O)cc(O)c12
REMARK SMILES IDX 4 1 3 2 16 3 25 4 2 5 26 6 1 7 33 8 27 9 31 10 28 11 30 12
REMARK SMILES IDX 17 13 18 14 19 15 20 16 24 17 22 18 21 19 23 21 32 23 29 25
REMARK SMILES IDX 5 27 14 28 6 29 12 30 7 31 10 32 15 33 13 35 8 37 9 38 11 40
REMARK H PARENT 21 20 23 22 32 24 29 26 15 34 13 36 9 39 11 41
REMARK Flexibility Score: inf
ROOT
ATOM      1  O   UNL     1     -31.752 -20.521 -33.204  1.00  0.00    -0.454 OA
ENDROOT
BRANCH   1   2
ATOM      2  C   UNL     1     -32.017 -21.548 -34.134  1.00  0.00     0.214 A 
ATOM      3  C   UNL     1     -31.842 -22.883 -33.714  1.00  0.00     0.180 A 
ATOM      4  O   UNL     1     -31.977 -23.884 -34.578  1.00  0.00    -0.452 OA
ATOM      5  C   UNL     1     -32.418 -21.321 -35.470  1.00  0.00     0.239 A 
ATOM      6  C   UNL     1     -32.317 -23.709 -35.848  1.00  0.00     0.146 A 
ATOM      7  O   UNL     1     -32.643 -20.150 -35.877  1.00  0.00    -0.285 OA
ATOM      8  C   UNL     1     -32.569 -22.414 -36.353  1.00  0.00     0.111 A 
ATOM      9  C   UNL     1     -32.431 -24.827 -36.681  1.00  0.00     0.094 A 
ATOM     10  C   UNL     1     -32.950 -22.269 -37.711  1.00  0.00     0.134 A 
ATOM     11  C   UNL     1     -32.798 -24.675 -38.021  1.00  0.00     0.123 A 
ATOM     12  C   UNL     1     -33.054 -23.402 -38.532  1.00  0.00     0.093 A 
BRANCH   3  13
ATOM     13  C   UNL     1     -31.493 -23.219 -32.317  1.00  0.00     0.025 A 
ATOM     14  C   UNL     1     -30.980 -22.246 -31.449  1.00  0.00     0.016 A 
ATOM     15  C   UNL     1     -30.674 -22.569 -30.126  1.00  0.00     0.051 A 
ATOM     16  C   UNL     1     -30.899 -23.860 -29.637  1.00  0.00     0.157 A 
ATOM     17  C   UNL     1     -31.741 -24.506 -31.826  1.00  0.00     0.062 A 
ATOM     18  C   UNL     1     -31.446 -24.841 -30.496  1.00  0.00     0.158 A 
BRANCH  16  19
ATOM     19  O   UNL     1     -30.571 -24.117 -28.305  1.00  0.00    -0.504 OA
ATOM     20  H   UNL     1     -30.666 -25.018 -27.867  1.00  0.00     0.293 HD
ENDBRANCH  16  19
BRANCH  18  21
ATOM     21  O   UNL     1     -31.710 -26.147 -30.075  1.00  0.00    -0.504 OA
ATOM     22  H   UNL     1     -32.451 -26.726 -30.451  1.00  0.00     0.293 HD
ENDBRANCH  18  21
ENDBRANCH   3  13
BRANCH  10  23
ATOM     23  O   UNL     1     -33.226 -21.011 -38.250  1.00  0.00    -0.507 OA
ATOM     24  H   UNL     1     -34.155 -20.608 -38.218  1.00  0.00     0.293 HD
ENDBRANCH  10  23
BRANCH  11  25
ATOM     25  O   UNL     1     -32.915 -25.784 -38.855  1.00  0.00    -0.508 OA
ATOM     26  H   UNL     1     -32.243 -25.967 -39.588  1.00  0.00     0.293 HD
ENDBRANCH  11  25
ENDBRANCH   1   2
BRANCH   1  27
ATOM     27  C   UNL     1     -30.795 -19.463 -33.333  1.00  0.00     0.339 C 
ATOM     28  C   UNL     1     -29.521 -19.974 -34.039  1.00  0.00     0.214 C 
ATOM     29  O   UNL     1     -30.494 -18.875 -32.075  1.00  0.00    -0.332 OA
ATOM     30  C   UNL     1     -28.708 -20.911 -33.125  1.00  0.00     0.180 C 
ATOM     31  C   UNL     1     -29.910 -19.821 -31.192  1.00  0.00     0.179 C 
ATOM     32  C   UNL     1     -28.538 -20.296 -31.722  1.00  0.00     0.177 C 
BRANCH  28  33
ATOM     33  O   UNL     1     -28.721 -18.875 -34.402  1.00  0.00    -0.384 OA
ATOM     34  H   UNL     1     -29.327 -18.103 -34.548  1.00  0.00     0.211 HD
ENDBRANCH  28  33
BRANCH  30  35
ATOM     35  O   UNL     1     -29.361 -22.151 -33.032  1.00  0.00    -0.387 OA
ATOM     36  H   UNL     1     -28.745 -22.831 -33.410  1.00  0.00     0.211 HD
ENDBRANCH  30  35
BRANCH  31  37
ATOM     37  C   UNL     1     -29.798 -19.201 -29.794  1.00  0.00     0.191 C 
BRANCH  37  38
ATOM     38  O   UNL     1     -28.498 -19.338 -29.291  1.00  0.00    -0.394 OA
ATOM     39  H   UNL     1     -28.371 -20.306 -29.116  1.00  0.00     0.210 HD
ENDBRANCH  37  38
ENDBRANCH  31  37
BRANCH  32  40
ATOM     40  O   UNL     1     -27.640 -19.215 -31.779  1.00  0.00    -0.387 OA
ATOM     41  H   UNL     1     -27.559 -18.857 -30.855  1.00  0.00     0.211 HD
ENDBRANCH  32  40
ENDBRANCH   1  27
TORSDOF 12
ENDMDL
