MODEL 1
REMARK VINA RESULT:    -4.010      0.000      0.000
REMARK INTER + INTRA:          -4.839
REMARK INTER:                  -4.830
REMARK INTRA:                  -0.008
REMARK UNBOUND:                -0.008
REMARK SMILES OCC(O)CO
REMARK SMILES IDX 3 1 5 2 6 3 2 5 1 6 4 8
REMARK H PARENT 6 4 1 7 4 9
REMARK Flexibility Score: inf
ROOT
ATOM      1  C   UNL     1      19.342  21.526  11.035  1.00  0.00     0.165 C 
ENDROOT
BRANCH   1   2
ATOM      2  C   UNL     1      19.064  20.459  12.105  1.00  0.00     0.190 C 
BRANCH   2   3
ATOM      3  O   UNL     1      18.753  19.230  11.507  1.00  0.00    -0.394 OA
ATOM      4  H   UNL     1      19.033  18.531  12.154  1.00  0.00     0.210 HD
ENDBRANCH   2   3
ENDBRANCH   1   2
BRANCH   1   5
ATOM      5  C   UNL     1      18.579  21.254   9.731  1.00  0.00     0.190 C 
BRANCH   5   6
ATOM      6  O   UNL     1      18.988  22.128   8.713  1.00  0.00    -0.394 OA
ATOM      7  H   UNL     1      19.980  22.145   8.725  1.00  0.00     0.210 HD
ENDBRANCH   5   6
ENDBRANCH   1   5
BRANCH   1   8
ATOM      8  O   UNL     1      19.011  22.803  11.517  1.00  0.00    -0.388 OA
ATOM      9  H   UNL     1      19.841  23.347  11.481  1.00  0.00     0.211 HD
ENDBRANCH   1   8
TORSDOF 5
ENDMDL
MODEL 2
REMARK VINA RESULT:    -3.806      0.600      2.927
REMARK INTER + INTRA:          -4.593
REMARK INTER:                  -4.591
REMARK INTRA:                  -0.002
REMARK UNBOUND:                -0.008
REMARK SMILES OCC(O)CO
REMARK SMILES IDX 3 1 5 2 6 3 2 5 1 6 4 8
REMARK H PARENT 6 4 1 7 4 9
REMARK Flexibility Score: inf
ROOT
ATOM      1  C   UNL     1      18.681  21.430  10.664  1.00  0.00     0.165 C 
ENDROOT
BRANCH   1   2
ATOM      2  C   UNL     1      18.947  21.340   9.152  1.00  0.00     0.190 C 
BRANCH   2   3
ATOM      3  O   UNL     1      18.587  22.536   8.517  1.00  0.00    -0.394 OA
ATOM      4  H   UNL     1      17.703  22.370   8.097  1.00  0.00     0.210 HD
ENDBRANCH   2   3
ENDBRANCH   1   2
BRANCH   1   5
ATOM      5  C   UNL     1      19.411  20.329  11.447  1.00  0.00     0.190 C 
BRANCH   5   6
ATOM      6  O   UNL     1      18.642  19.158  11.511  1.00  0.00    -0.394 OA
ATOM      7  H   UNL     1      18.529  18.834  10.580  1.00  0.00     0.210 HD
ENDBRANCH   5   6
ENDBRANCH   1   5
BRANCH   1   8
ATOM      8  O   UNL     1      19.060  22.689  11.156  1.00  0.00    -0.388 OA
ATOM      9  H   UNL     1      19.428  22.542  12.066  1.00  0.00     0.211 HD
ENDBRANCH   1   8
TORSDOF 5
ENDMDL
MODEL 3
REMARK VINA RESULT:    -3.584      8.700      9.320
REMARK INTER + INTRA:          -4.326
REMARK INTER:                  -4.125
REMARK INTRA:                  -0.201
REMARK UNBOUND:                -0.008
REMARK SMILES OCC(O)CO
REMARK SMILES IDX 3 1 5 2 6 3 2 5 1 6 4 8
REMARK H PARENT 6 4 1 7 4 9
REMARK Flexibility Score: inf
ROOT
ATOM      1  C   UNL     1      11.846  21.424  16.492  1.00  0.00     0.165 C 
ENDROOT
BRANCH   1   2
ATOM      2  C   UNL     1      13.108  20.582  16.743  1.00  0.00     0.190 C 
BRANCH   2   3
ATOM      3  O   UNL     1      13.036  19.367  16.048  1.00  0.00    -0.394 OA
ATOM      4  H   UNL     1      12.250  18.886  16.417  1.00  0.00     0.210 HD
ENDBRANCH   2   3
ENDBRANCH   1   2
BRANCH   1   5
ATOM      5  C   UNL     1      11.030  20.905  15.300  1.00  0.00     0.190 C 
BRANCH   5   6
ATOM      6  O   UNL     1      10.023  20.023  15.721  1.00  0.00    -0.394 OA
ATOM      7  H   UNL     1       9.455  20.518  16.366  1.00  0.00     0.210 HD
ENDBRANCH   5   6
ENDBRANCH   1   5
BRANCH   1   8
ATOM      8  O   UNL     1      11.038  21.453  17.640  1.00  0.00    -0.388 OA
ATOM      9  H   UNL     1      11.650  21.426  18.422  1.00  0.00     0.211 HD
ENDBRANCH   1   8
TORSDOF 5
ENDMDL
MODEL 4
REMARK VINA RESULT:    -3.475      9.798     10.299
REMARK INTER + INTRA:          -4.195
REMARK INTER:                  -3.971
REMARK INTRA:                  -0.223
REMARK UNBOUND:                -0.008
REMARK SMILES OCC(O)CO
REMARK SMILES IDX 3 1 5 2 6 3 2 5 1 6 4 8
REMARK H PARENT 6 4 1 7 4 9
REMARK Flexibility Score: inf
ROOT
ATOM      1  C   UNL     1      10.399  22.202  15.833  1.00  0.00     0.165 C 
ENDROOT
BRANCH   1   2
ATOM      2  C   UNL     1       9.551  21.722  17.022  1.00  0.00     0.190 C 
BRANCH   2   3
ATOM      3  O   UNL     1       8.997  20.463  16.756  1.00  0.00    -0.394 OA
ATOM      4  H   UNL     1       9.540  19.810  17.271  1.00  0.00     0.210 HD
ENDBRANCH   2   3
ENDBRANCH   1   2
BRANCH   1   5
ATOM      5  C   UNL     1      10.888  21.037  14.962  1.00  0.00     0.190 C 
BRANCH   5   6
ATOM      6  O   UNL     1      11.686  20.151  15.702  1.00  0.00    -0.394 OA
ATOM      7  H   UNL     1      11.651  20.450  16.647  1.00  0.00     0.210 HD
ENDBRANCH   5   6
ENDBRANCH   1   5
BRANCH   1   8
ATOM      8  O   UNL     1       9.671  23.107  15.044  1.00  0.00    -0.388 OA
ATOM      9  H   UNL     1       8.733  23.079  15.367  1.00  0.00     0.211 HD
ENDBRANCH   1   8
TORSDOF 5
ENDMDL
MODEL 5
REMARK VINA RESULT:    -3.454      0.669      2.831
REMARK INTER + INTRA:          -4.169
REMARK INTER:                  -3.962
REMARK INTRA:                  -0.207
REMARK UNBOUND:                -0.008
REMARK SMILES OCC(O)CO
REMARK SMILES IDX 3 1 5 2 6 3 2 5 1 6 4 8
REMARK H PARENT 6 4 1 7 4 9
REMARK Flexibility Score: inf
ROOT
ATOM      1  C   UNL     1      19.286  20.434  10.922  1.00  0.00     0.165 C 
ENDROOT
BRANCH   1   2
ATOM      2  C   UNL     1      18.459  20.996   9.754  1.00  0.00     0.190 C 
BRANCH   2   3
ATOM      3  O   UNL     1      19.226  21.884   8.989  1.00  0.00    -0.394 OA
ATOM      4  H   UNL     1      18.612  22.258   8.304  1.00  0.00     0.210 HD
ENDBRANCH   2   3
ENDBRANCH   1   2
BRANCH   1   5
ATOM      5  C   UNL     1      19.603  21.504  11.976  1.00  0.00     0.190 C 
BRANCH   5   6
ATOM      6  O   UNL     1      19.029  22.738  11.634  1.00  0.00    -0.394 OA
ATOM      7  H   UNL     1      19.192  22.875  10.665  1.00  0.00     0.210 HD
ENDBRANCH   5   6
ENDBRANCH   1   5
BRANCH   1   8
ATOM      8  O   UNL     1      18.614  19.360  11.528  1.00  0.00    -0.388 OA
ATOM      9  H   UNL     1      18.426  18.699  10.812  1.00  0.00     0.211 HD
ENDBRANCH   1   8
TORSDOF 5
ENDMDL
MODEL 6
REMARK VINA RESULT:    -3.433      9.573     10.239
REMARK INTER + INTRA:          -4.144
REMARK INTER:                  -4.127
REMARK INTRA:                  -0.018
REMARK UNBOUND:                -0.008
REMARK SMILES OCC(O)CO
REMARK SMILES IDX 3 1 5 2 6 3 2 5 1 6 4 8
REMARK H PARENT 6 4 1 7 4 9
REMARK Flexibility Score: inf
ROOT
ATOM      1  C   UNL     1      10.936  21.564  16.395  1.00  0.00     0.165 C 
ENDROOT
BRANCH   1   2
ATOM      2  C   UNL     1      11.388  20.746  15.174  1.00  0.00     0.190 C 
BRANCH   2   3
ATOM      3  O   UNL     1      12.307  19.759  15.554  1.00  0.00    -0.394 OA
ATOM      4  H   UNL     1      11.779  18.929  15.687  1.00  0.00     0.210 HD
ENDBRANCH   2   3
ENDBRANCH   1   2
BRANCH   1   5
ATOM      5  C   UNL     1       9.408  21.602  16.535  1.00  0.00     0.190 C 
BRANCH   5   6
ATOM      6  O   UNL     1       8.935  20.482  17.235  1.00  0.00    -0.394 OA
ATOM      7  H   UNL     1       8.492  19.891  16.572  1.00  0.00     0.210 HD
ENDBRANCH   5   6
ENDBRANCH   1   5
BRANCH   1   8
ATOM      8  O   UNL     1      11.504  21.047  17.570  1.00  0.00    -0.388 OA
ATOM      9  H   UNL     1      11.104  20.149  17.711  1.00  0.00     0.211 HD
ENDBRANCH   1   8
TORSDOF 5
ENDMDL
MODEL 7
REMARK VINA RESULT:    -3.403      8.861      9.703
REMARK INTER + INTRA:          -4.108
REMARK INTER:                  -4.105
REMARK INTRA:                  -0.003
REMARK UNBOUND:                -0.008
REMARK SMILES OCC(O)CO
REMARK SMILES IDX 3 1 5 2 6 3 2 5 1 6 4 8
REMARK H PARENT 6 4 1 7 4 9
REMARK Flexibility Score: inf
ROOT
ATOM      1  C   UNL     1      11.299  21.411  15.618  1.00  0.00     0.165 C 
ENDROOT
BRANCH   1   2
ATOM      2  C   UNL     1      10.575  22.727  15.947  1.00  0.00     0.190 C 
BRANCH   2   3
ATOM      3  O   UNL     1       9.726  23.099  14.896  1.00  0.00    -0.394 OA
ATOM      4  H   UNL     1      10.026  22.581  14.104  1.00  0.00     0.210 HD
ENDBRANCH   2   3
ENDBRANCH   1   2
BRANCH   1   5
ATOM      5  C   UNL     1      12.506  21.168  16.534  1.00  0.00     0.190 C 
BRANCH   5   6
ATOM      6  O   UNL     1      13.043  19.887  16.335  1.00  0.00    -0.394 OA
ATOM      7  H   UNL     1      13.906  19.855  16.822  1.00  0.00     0.210 HD
ENDBRANCH   5   6
ENDBRANCH   1   5
BRANCH   1   8
ATOM      8  O   UNL     1      10.411  20.327  15.709  1.00  0.00    -0.388 OA
ATOM      9  H   UNL     1       9.742  20.562  16.403  1.00  0.00     0.211 HD
ENDBRANCH   1   8
TORSDOF 5
ENDMDL
MODEL 8
REMARK VINA RESULT:    -3.371      8.417      9.033
REMARK INTER + INTRA:          -4.069
REMARK INTER:                  -3.847
REMARK INTRA:                  -0.222
REMARK UNBOUND:                -0.008
REMARK SMILES OCC(O)CO
REMARK SMILES IDX 3 1 5 2 6 3 2 5 1 6 4 8
REMARK H PARENT 6 4 1 7 4 9
REMARK Flexibility Score: inf
ROOT
ATOM      1  C   UNL     1      11.994  21.529  16.448  1.00  0.00     0.165 C 
ENDROOT
BRANCH   1   2
ATOM      2  C   UNL     1      11.147  21.040  15.262  1.00  0.00     0.190 C 
BRANCH   2   3
ATOM      3  O   UNL     1      10.161  20.144  15.697  1.00  0.00    -0.394 OA
ATOM      4  H   UNL     1      10.530  19.701  16.505  1.00  0.00     0.210 HD
ENDBRANCH   2   3
ENDBRANCH   1   2
BRANCH   1   5
ATOM      5  C   UNL     1      13.118  20.546  16.804  1.00  0.00     0.190 C 
BRANCH   5   6
ATOM      6  O   UNL     1      13.013  19.365  16.053  1.00  0.00    -0.394 OA
ATOM      7  H   UNL     1      13.057  19.624  15.097  1.00  0.00     0.210 HD
ENDBRANCH   5   6
ENDBRANCH   1   5
BRANCH   1   8
ATOM      8  O   UNL     1      12.543  22.792  16.171  1.00  0.00    -0.388 OA
ATOM      9  H   UNL     1      11.785  23.390  15.942  1.00  0.00     0.211 HD
ENDBRANCH   1   8
TORSDOF 5
ENDMDL
MODEL 9
REMARK VINA RESULT:    -3.261      9.846     10.606
REMARK INTER + INTRA:          -3.937
REMARK INTER:                  -3.772
REMARK INTRA:                  -0.165
REMARK UNBOUND:                -0.008
REMARK SMILES OCC(O)CO
REMARK SMILES IDX 3 1 5 2 6 3 2 5 1 6 4 8
REMARK H PARENT 6 4 1 7 4 9
REMARK Flexibility Score: inf
ROOT
ATOM      1  C   UNL     1      11.037  21.769  16.454  1.00  0.00     0.165 C 
ENDROOT
BRANCH   1   2
ATOM      2  C   UNL     1      10.970  22.869  15.383  1.00  0.00     0.190 C 
BRANCH   2   3
ATOM      3  O   UNL     1       9.647  23.081  14.975  1.00  0.00    -0.394 OA
ATOM      4  H   UNL     1       9.653  23.032  13.984  1.00  0.00     0.210 HD
ENDBRANCH   2   3
ENDBRANCH   1   2
BRANCH   1   5
ATOM      5  C   UNL     1       9.715  21.625  17.222  1.00  0.00     0.190 C 
BRANCH   5   6
ATOM      6  O   UNL     1       8.985  20.516  16.769  1.00  0.00    -0.394 OA
ATOM      7  H   UNL     1       9.045  20.512  15.779  1.00  0.00     0.210 HD
ENDBRANCH   5   6
ENDBRANCH   1   5
BRANCH   1   8
ATOM      8  O   UNL     1      11.381  20.537  15.873  1.00  0.00    -0.388 OA
ATOM      9  H   UNL     1      11.693  20.733  14.950  1.00  0.00     0.211 HD
ENDBRANCH   1   8
TORSDOF 5
ENDMDL
