MODEL 1
REMARK VINA RESULT:    -2.047      0.000      0.000
REMARK INTER + INTRA:          -2.047
REMARK INTER:                  -2.047
REMARK INTRA:                   0.000
REMARK UNBOUND:                 0.000
REMARK SMILES CC(=O)[O-]
REMARK SMILES IDX 1 1 2 2 3 3 4 4
REMARK H PARENT
REMARK Flexibility Score: inf
ROOT
ATOM      1  C   UNL     1      52.567 147.380   0.875  1.00  0.00     0.063 C 
ATOM      2  C   UNL     1      53.973 147.766   0.562  1.00  0.00     0.038 C 
ATOM      3  O   UNL     1      54.750 148.125   1.485  1.00  0.00    -0.550 OA
ATOM      4  O   UNL     1      54.412 147.785  -0.756  1.00  0.00    -0.550 OA
ENDROOT
TORSDOF 0
ENDMDL
MODEL 2
REMARK VINA RESULT:    -2.002      1.488      2.125
REMARK INTER + INTRA:          -2.002
REMARK INTER:                  -2.002
REMARK INTRA:                   0.000
REMARK UNBOUND:                 0.000
REMARK SMILES CC(=O)[O-]
REMARK SMILES IDX 1 1 2 2 3 3 4 4
REMARK H PARENT
REMARK Flexibility Score: inf
ROOT
ATOM      1  C   UNL     1      52.706 148.125  -1.232  1.00  0.00     0.063 C 
ATOM      2  C   UNL     1      54.110 148.082  -0.732  1.00  0.00     0.038 C 
ATOM      3  O   UNL     1      55.071 148.083  -1.545  1.00  0.00    -0.550 OA
ATOM      4  O   UNL     1      54.360 147.984   0.631  1.00  0.00    -0.550 OA
ENDROOT
TORSDOF 0
ENDMDL
MODEL 3
REMARK VINA RESULT:    -1.963     22.515     22.782
REMARK INTER + INTRA:          -1.963
REMARK INTER:                  -1.963
REMARK INTRA:                   0.000
REMARK UNBOUND:                 0.000
REMARK SMILES CC(=O)[O-]
REMARK SMILES IDX 1 1 2 2 3 3 4 4
REMARK H PARENT
REMARK Flexibility Score: inf
ROOT
ATOM      1  C   UNL     1      64.508 129.809  -5.922  1.00  0.00     0.063 C 
ATOM      2  C   UNL     1      65.618 129.087  -5.238  1.00  0.00     0.038 C 
ATOM      3  O   UNL     1      65.387 128.408  -4.203  1.00  0.00    -0.550 OA
ATOM      4  O   UNL     1      66.920 129.206  -5.708  1.00  0.00    -0.550 OA
ENDROOT
TORSDOF 0
ENDMDL
MODEL 4
REMARK VINA RESULT:    -1.930      9.148      9.414
REMARK INTER + INTRA:          -1.930
REMARK INTER:                  -1.930
REMARK INTRA:                   0.000
REMARK UNBOUND:                 0.000
REMARK SMILES CC(=O)[O-]
REMARK SMILES IDX 1 1 2 2 3 3 4 4
REMARK H PARENT
REMARK Flexibility Score: inf
ROOT
ATOM      1  C   UNL     1      50.778 138.015   0.466  1.00  0.00     0.063 C 
ATOM      2  C   UNL     1      51.978 138.759   0.945  1.00  0.00     0.038 C 
ATOM      3  O   UNL     1      52.817 139.204   0.119  1.00  0.00    -0.550 OA
ATOM      4  O   UNL     1      52.202 138.913   2.308  1.00  0.00    -0.550 OA
ENDROOT
TORSDOF 0
ENDMDL
MODEL 5
REMARK VINA RESULT:    -1.912      5.508      6.187
REMARK INTER + INTRA:          -1.912
REMARK INTER:                  -1.912
REMARK INTRA:                   0.000
REMARK UNBOUND:                 0.000
REMARK SMILES CC(=O)[O-]
REMARK SMILES IDX 1 1 2 2 3 3 4 4
REMARK H PARENT
REMARK Flexibility Score: inf
ROOT
ATOM      1  C   UNL     1      54.334 148.121  -5.104  1.00  0.00     0.063 C 
ATOM      2  C   UNL     1      52.888 147.758  -5.107  1.00  0.00     0.038 C 
ATOM      3  O   UNL     1      52.366 147.252  -6.134  1.00  0.00    -0.550 OA
ATOM      4  O   UNL     1      52.101 148.029  -3.994  1.00  0.00    -0.550 OA
ENDROOT
TORSDOF 0
ENDMDL
MODEL 6
REMARK VINA RESULT:    -1.793     24.326     24.663
REMARK INTER + INTRA:          -1.793
REMARK INTER:                  -1.793
REMARK INTRA:                   0.000
REMARK UNBOUND:                 0.000
REMARK SMILES CC(=O)[O-]
REMARK SMILES IDX 1 1 2 2 3 3 4 4
REMARK H PARENT
REMARK Flexibility Score: inf
ROOT
ATOM      1  C   UNL     1      66.750 128.859  10.571  1.00  0.00     0.063 C 
ATOM      2  C   UNL     1      65.853 129.349  11.657  1.00  0.00     0.038 C 
ATOM      3  O   UNL     1      64.959 128.597  12.125  1.00  0.00    -0.550 OA
ATOM      4  O   UNL     1      65.967 130.655  12.116  1.00  0.00    -0.550 OA
ENDROOT
TORSDOF 0
ENDMDL
MODEL 7
REMARK VINA RESULT:    -1.770     24.433     24.664
REMARK INTER + INTRA:          -1.770
REMARK INTER:                  -1.770
REMARK INTRA:                   0.000
REMARK UNBOUND:                 0.000
REMARK SMILES CC(=O)[O-]
REMARK SMILES IDX 1 1 2 2 3 3 4 4
REMARK H PARENT
REMARK Flexibility Score: inf
ROOT
ATOM      1  C   UNL     1      65.961 130.774  12.023  1.00  0.00     0.063 C 
ATOM      2  C   UNL     1      65.915 129.337  11.631  1.00  0.00     0.038 C 
ATOM      3  O   UNL     1      66.754 128.878  10.812  1.00  0.00    -0.550 OA
ATOM      4  O   UNL     1      64.912 128.512  12.125  1.00  0.00    -0.550 OA
ENDROOT
TORSDOF 0
ENDMDL
MODEL 8
REMARK VINA RESULT:    -1.760      5.692      6.251
REMARK INTER + INTRA:          -1.760
REMARK INTER:                  -1.760
REMARK INTRA:                   0.000
REMARK UNBOUND:                 0.000
REMARK SMILES CC(=O)[O-]
REMARK SMILES IDX 1 1 2 2 3 3 4 4
REMARK H PARENT
REMARK Flexibility Score: inf
ROOT
ATOM      1  C   UNL     1      52.232 147.795  -6.654  1.00  0.00     0.063 C 
ATOM      2  C   UNL     1      52.969 147.825  -5.358  1.00  0.00     0.038 C 
ATOM      3  O   UNL     1      54.223 147.722  -5.342  1.00  0.00    -0.550 OA
ATOM      4  O   UNL     1      52.268 147.911  -4.162  1.00  0.00    -0.550 OA
ENDROOT
TORSDOF 0
ENDMDL
