MODEL 1
REMARK VINA RESULT:    -4.290      0.000      0.000
REMARK INTER + INTRA:          -5.663
REMARK INTER:                  -6.547
REMARK INTRA:                   0.884
REMARK UNBOUND:                 0.884
REMARK SMILES CC1=CCC[C@H](C)C(=O)C[C@@H](C(C)C)C(=O)C1
REMARK SMILES IDX 8 1 9 2 6 3 7 4 5 5 4 6 3 7 2 8 1 9 10 11 11 12 15 13 16 14
REMARK SMILES IDX 17 15 12 17 13 18 14 19
REMARK H PARENT
REMARK Flexibility Score: 70.00
ROOT
ATOM      1  C   UNL     1      31.362  20.545   6.411  1.00  0.00     0.136 C 
ATOM      2  O   UNL     1      31.740  20.452   5.251  1.00  0.00    -0.299 OA
ENDROOT
BRANCH   1   3
ATOM      3  C   UNL     1      32.317  21.037   7.479  1.00  0.00     0.053 C 
ATOM      4  C   UNL     1      33.679  21.336   6.843  1.00  0.00     0.016 C 
BRANCH   3   5
ATOM      5  C   UNL     1      31.775  22.294   8.198  1.00  0.00     0.015 C 
BRANCH   5   6
ATOM      6  C   UNL     1      31.338  23.405   7.231  1.00  0.00     0.028 C 
BRANCH   6   7
ATOM      7  C   UNL     1      30.212  24.228   7.812  1.00  0.00    -0.028 C 
ATOM      8  C   UNL     1      28.986  23.764   8.146  1.00  0.00    -0.070 CG0
ATOM      9  C   UNL     1      27.990  24.744   8.713  1.00  0.00     0.039 C 
ATOM     10  G   UNL     1      28.584  22.308   8.010  1.00  0.00     0.000 G0
ENDBRANCH   6   7
ENDBRANCH   5   6
ENDBRANCH   3   5
ENDBRANCH   1   3
BRANCH   1  11
ATOM     11  C   UNL     1      29.950  20.143   6.753  1.00  0.00     0.087 C 
BRANCH  11  12
ATOM     12  C   UNL     1      28.912  20.852   5.844  1.00  0.00     0.066 C 
BRANCH  12  13
ATOM     13  C   UNL     1      28.201  21.964   6.597  1.00  0.00     0.140 C 
ATOM     14  O   UNL     1      27.354  22.638   6.027  1.00  0.00    -0.299 OA
BRANCH  13  15
ATOM     15  C   UNL     1      28.556  22.297   8.022  1.00  0.00     0.106 CG0
ATOM     16  G   UNL     1      28.957  23.754   8.154  1.00  0.00     0.000 G0
ENDBRANCH  13  15
ENDBRANCH  12  13
BRANCH  12  17
ATOM     17  C   UNL     1      27.874  19.876   5.207  1.00  0.00    -0.006 C 
ATOM     18  C   UNL     1      27.738  20.020   3.680  1.00  0.00     0.008 C 
ATOM     19  C   UNL     1      26.494  20.002   5.872  1.00  0.00     0.008 C 
ENDBRANCH  12  17
ENDBRANCH  11  12
ENDBRANCH   1  11
TORSDOF 1
ENDMDL
MODEL 2
REMARK VINA RESULT:    -4.145      1.862      4.891
REMARK INTER + INTRA:          -5.441
REMARK INTER:                  -5.922
REMARK INTRA:                   0.480
REMARK UNBOUND:                 0.884
REMARK SMILES CC1=CCC[C@H](C)C(=O)C[C@@H](C(C)C)C(=O)C1
REMARK SMILES IDX 8 1 9 2 6 3 7 4 5 5 4 6 3 7 2 8 1 9 10 11 11 12 15 13 16 14
REMARK SMILES IDX 17 15 12 17 13 18 14 19
REMARK H PARENT
REMARK Flexibility Score: 70.00
ROOT
ATOM      1  C   UNL     1      28.039  21.545   6.921  1.00  0.00     0.136 C 
ATOM      2  O   UNL     1      27.103  22.221   6.516  1.00  0.00    -0.299 OA
ENDROOT
BRANCH   1   3
ATOM      3  C   UNL     1      28.448  20.295   6.170  1.00  0.00     0.053 C 
ATOM      4  C   UNL     1      28.289  20.533   4.664  1.00  0.00     0.016 C 
BRANCH   3   5
ATOM      5  C   UNL     1      29.903  19.882   6.495  1.00  0.00     0.015 C 
BRANCH   5   6
ATOM      6  C   UNL     1      30.949  20.636   5.661  1.00  0.00     0.028 C 
BRANCH   6   7
ATOM      7  C   UNL     1      32.335  20.474   6.240  1.00  0.00    -0.028 C 
ATOM      8  C   UNL     1      32.989  21.390   6.989  1.00  0.00    -0.070 CG0
ATOM      9  C   UNL     1      34.374  21.045   7.478  1.00  0.00     0.039 C 
ATOM     10  G   UNL     1      32.385  22.723   7.386  1.00  0.00     0.000 G0
ENDBRANCH   6   7
ENDBRANCH   5   6
ENDBRANCH   3   5
ENDBRANCH   1   3
BRANCH   1  11
ATOM     11  C   UNL     1      28.752  21.966   8.180  1.00  0.00     0.087 C 
BRANCH  11  12
ATOM     12  C   UNL     1      29.838  23.036   7.898  1.00  0.00     0.066 C 
BRANCH  12  13
ATOM     13  C   UNL     1      31.213  22.537   8.311  1.00  0.00     0.140 C 
ATOM     14  O   UNL     1      31.365  22.009   9.404  1.00  0.00    -0.299 OA
BRANCH  13  15
ATOM     15  C   UNL     1      32.415  22.727   7.424  1.00  0.00     0.106 CG0
ATOM     16  G   UNL     1      32.987  21.390   6.992  1.00  0.00     0.000 G0
ENDBRANCH  13  15
ENDBRANCH  12  13
BRANCH  12  17
ATOM     17  C   UNL     1      29.540  24.417   8.562  1.00  0.00    -0.006 C 
ATOM     18  C   UNL     1      28.042  24.768   8.623  1.00  0.00     0.008 C 
ATOM     19  C   UNL     1      30.319  25.554   7.882  1.00  0.00     0.008 C 
ENDBRANCH  12  17
ENDBRANCH  11  12
ENDBRANCH   1  11
TORSDOF 1
ENDMDL
MODEL 3
REMARK VINA RESULT:    -3.290      3.215      5.760
REMARK INTER + INTRA:          -4.136
REMARK INTER:                  -4.962
REMARK INTRA:                   0.826
REMARK UNBOUND:                 0.884
REMARK SMILES CC1=CCC[C@H](C)C(=O)C[C@@H](C(C)C)C(=O)C1
REMARK SMILES IDX 8 1 9 2 6 3 7 4 5 5 4 6 3 7 2 8 1 9 10 11 11 12 15 13 16 14
REMARK SMILES IDX 17 15 12 17 13 18 14 19
REMARK H PARENT
REMARK Flexibility Score: 70.00
ROOT
ATOM      1  C   UNL     1      23.213  21.259   5.960  1.00  0.00     0.136 C 
ATOM      2  O   UNL     1      22.005  21.071   6.009  1.00  0.00    -0.299 OA
ENDROOT
BRANCH   1   3
ATOM      3  C   UNL     1      24.159  20.078   5.896  1.00  0.00     0.053 C 
ATOM      4  C   UNL     1      24.759  19.983   4.489  1.00  0.00     0.016 C 
BRANCH   3   5
ATOM      5  C   UNL     1      25.285  20.188   6.951  1.00  0.00     0.015 C 
BRANCH   5   6
ATOM      6  C   UNL     1      26.679  19.875   6.386  1.00  0.00     0.028 C 
BRANCH   6   7
ATOM      7  C   UNL     1      27.727  20.793   6.970  1.00  0.00    -0.028 C 
ATOM      8  C   UNL     1      28.082  22.001   6.476  1.00  0.00    -0.070 CG0
ATOM      9  C   UNL     1      29.156  22.773   7.200  1.00  0.00     0.039 C 
ATOM     10  G   UNL     1      27.429  22.624   5.257  1.00  0.00     0.000 G0
ENDBRANCH   6   7
ENDBRANCH   5   6
ENDBRANCH   3   5
ENDBRANCH   1   3
BRANCH   1  11
ATOM     11  C   UNL     1      23.733  22.673   5.986  1.00  0.00     0.087 C 
BRANCH  11  12
ATOM     12  C   UNL     1      24.834  22.903   4.918  1.00  0.00     0.066 C 
BRANCH  12  13
ATOM     13  C   UNL     1      26.144  23.315   5.569  1.00  0.00     0.140 C 
ATOM     14  O   UNL     1      26.165  24.255   6.350  1.00  0.00    -0.299 OA
BRANCH  13  15
ATOM     15  C   UNL     1      27.439  22.623   5.230  1.00  0.00     0.106 CG0
ATOM     16  G   UNL     1      28.056  21.994   6.465  1.00  0.00     0.000 G0
ENDBRANCH  13  15
ENDBRANCH  12  13
BRANCH  12  17
ATOM     17  C   UNL     1      24.428  23.931   3.815  1.00  0.00    -0.006 C 
ATOM     18  C   UNL     1      25.611  24.433   2.966  1.00  0.00     0.008 C 
ATOM     19  C   UNL     1      23.661  25.124   4.406  1.00  0.00     0.008 C 
ENDBRANCH  12  17
ENDBRANCH  11  12
ENDBRANCH   1  11
TORSDOF 1
ENDMDL
MODEL 4
REMARK VINA RESULT:    -3.237      1.789      3.864
REMARK INTER + INTRA:          -4.056
REMARK INTER:                  -5.044
REMARK INTRA:                   0.988
REMARK UNBOUND:                 0.884
REMARK SMILES CC1=CCC[C@H](C)C(=O)C[C@@H](C(C)C)C(=O)C1
REMARK SMILES IDX 8 1 9 2 6 3 7 4 5 5 4 6 3 7 2 8 1 9 10 11 11 12 15 13 16 14
REMARK SMILES IDX 17 15 12 17 13 18 14 19
REMARK H PARENT
REMARK Flexibility Score: 70.00
ROOT
ATOM      1  C   UNL     1      32.656  21.687   7.815  1.00  0.00     0.136 C 
ATOM      2  O   UNL     1      33.807  21.591   8.217  1.00  0.00    -0.299 OA
ENDROOT
BRANCH   1   3
ATOM      3  C   UNL     1      32.372  21.671   6.327  1.00  0.00     0.053 C 
ATOM      4  C   UNL     1      33.634  22.092   5.566  1.00  0.00     0.016 C 
BRANCH   3   5
ATOM      5  C   UNL     1      31.898  20.279   5.849  1.00  0.00     0.015 C 
BRANCH   5   6
ATOM      6  C   UNL     1      30.524  19.880   6.409  1.00  0.00     0.028 C 
BRANCH   6   7
ATOM      7  C   UNL     1      29.428  20.760   5.856  1.00  0.00    -0.028 C 
ATOM      8  C   UNL     1      28.640  21.587   6.579  1.00  0.00    -0.070 CG0
ATOM      9  C   UNL     1      27.594  22.389   5.845  1.00  0.00     0.039 C 
ATOM     10  G   UNL     1      28.781  21.770   8.078  1.00  0.00     0.000 G0
ENDBRANCH   6   7
ENDBRANCH   5   6
ENDBRANCH   3   5
ENDBRANCH   1   3
BRANCH   1  11
ATOM     11  C   UNL     1      31.542  21.840   8.819  1.00  0.00     0.087 C 
BRANCH  11  12
ATOM     12  C   UNL     1      30.882  23.242   8.738  1.00  0.00     0.066 C 
BRANCH  12  13
ATOM     13  C   UNL     1      29.408  23.128   8.388  1.00  0.00     0.140 C 
ATOM     14  O   UNL     1      28.701  24.125   8.403  1.00  0.00    -0.299 OA
BRANCH  13  15
ATOM     15  C   UNL     1      28.778  21.796   8.074  1.00  0.00     0.106 CG0
ATOM     16  G   UNL     1      28.636  21.604   6.576  1.00  0.00     0.000 G0
ENDBRANCH  13  15
ENDBRANCH  12  13
BRANCH  12  17
ATOM     17  C   UNL     1      31.602  24.213   7.751  1.00  0.00    -0.006 C 
ATOM     18  C   UNL     1      31.957  25.579   8.368  1.00  0.00     0.008 C 
ATOM     19  C   UNL     1      30.792  24.414   6.460  1.00  0.00     0.008 C 
ENDBRANCH  12  17
ENDBRANCH  11  12
ENDBRANCH   1  11
TORSDOF 1
ENDMDL
MODEL 5
REMARK VINA RESULT:    -3.122      3.183      5.766
REMARK INTER + INTRA:          -3.880
REMARK INTER:                  -4.404
REMARK INTRA:                   0.524
REMARK UNBOUND:                 0.884
REMARK SMILES CC1=CCC[C@H](C)C(=O)C[C@@H](C(C)C)C(=O)C1
REMARK SMILES IDX 8 1 9 2 6 3 7 4 5 5 4 6 3 7 2 8 1 9 10 11 11 12 15 13 16 14
REMARK SMILES IDX 17 15 12 17 13 18 14 19
REMARK H PARENT
REMARK Flexibility Score: 70.00
ROOT
ATOM      1  C   UNL     1      25.187  19.983   5.302  1.00  0.00     0.136 C 
ATOM      2  O   UNL     1      25.019  20.049   4.092  1.00  0.00    -0.299 OA
ENDROOT
BRANCH   1   3
ATOM      3  C   UNL     1      23.989  19.906   6.227  1.00  0.00     0.053 C 
ATOM      4  C   UNL     1      24.472  19.890   7.682  1.00  0.00     0.016 C 
BRANCH   3   5
ATOM      5  C   UNL     1      23.013  21.083   6.000  1.00  0.00     0.015 C 
BRANCH   5   6
ATOM      6  C   UNL     1      23.657  22.459   6.228  1.00  0.00     0.028 C 
BRANCH   6   7
ATOM      7  C   UNL     1      23.760  23.239   4.938  1.00  0.00    -0.028 C 
ATOM      8  C   UNL     1      24.882  23.817   4.453  1.00  0.00    -0.070 CG0
ATOM      9  C   UNL     1      24.786  24.558   3.143  1.00  0.00     0.039 C 
ATOM     10  G   UNL     1      26.229  23.724   5.143  1.00  0.00     0.000 G0
ENDBRANCH   6   7
ENDBRANCH   5   6
ENDBRANCH   3   5
ENDBRANCH   1   3
BRANCH   1  11
ATOM     11  C   UNL     1      26.592  20.003   5.847  1.00  0.00     0.087 C 
BRANCH  11  12
ATOM     12  C   UNL     1      27.068  21.446   6.160  1.00  0.00     0.066 C 
BRANCH  12  13
ATOM     13  C   UNL     1      26.852  22.360   4.966  1.00  0.00     0.140 C 
ATOM     14  O   UNL     1      27.216  22.004   3.854  1.00  0.00    -0.299 OA
BRANCH  13  15
ATOM     15  C   UNL     1      26.247  23.730   5.128  1.00  0.00     0.106 CG0
ATOM     16  G   UNL     1      24.891  23.806   4.454  1.00  0.00     0.000 G0
ENDBRANCH  13  15
ENDBRANCH  12  13
BRANCH  12  17
ATOM     17  C   UNL     1      28.552  21.521   6.641  1.00  0.00    -0.006 C 
ATOM     18  C   UNL     1      29.237  20.148   6.764  1.00  0.00     0.008 C 
ATOM     19  C   UNL     1      28.681  22.294   7.963  1.00  0.00     0.008 C 
ENDBRANCH  12  17
ENDBRANCH  11  12
ENDBRANCH   1  11
TORSDOF 1
ENDMDL
MODEL 6
REMARK VINA RESULT:    -3.069      3.548      5.943
REMARK INTER + INTRA:          -3.799
REMARK INTER:                  -5.971
REMARK INTRA:                   2.172
REMARK UNBOUND:                 0.884
REMARK SMILES CC1=CCC[C@H](C)C(=O)C[C@@H](C(C)C)C(=O)C1
REMARK SMILES IDX 8 1 9 2 6 3 7 4 5 5 4 6 3 7 2 8 1 9 10 11 11 12 15 13 16 14
REMARK SMILES IDX 17 15 12 17 13 18 14 19
REMARK H PARENT
REMARK Flexibility Score: 70.00
ROOT
ATOM      1  C   UNL     1      26.187  23.199   4.265  1.00  0.00     0.136 C 
ATOM      2  O   UNL     1      26.156  22.914   3.076  1.00  0.00    -0.299 OA
ENDROOT
BRANCH   1   3
ATOM      3  C   UNL     1      25.356  24.354   4.786  1.00  0.00     0.053 C 
ATOM      4  C   UNL     1      25.068  25.330   3.640  1.00  0.00     0.016 C 
BRANCH   3   5
ATOM      5  C   UNL     1      24.032  23.867   5.419  1.00  0.00     0.015 C 
BRANCH   5   6
ATOM      6  C   UNL     1      23.632  22.452   4.977  1.00  0.00     0.028 C 
BRANCH   6   7
ATOM      7  C   UNL     1      23.004  21.678   6.112  1.00  0.00    -0.028 C 
ATOM      8  C   UNL     1      23.647  20.815   6.930  1.00  0.00    -0.070 CG0
ATOM      9  C   UNL     1      22.846  20.133   8.011  1.00  0.00     0.039 C 
ATOM     10  G   UNL     1      25.134  20.531   6.834  1.00  0.00     0.000 G0
ENDBRANCH   6   7
ENDBRANCH   5   6
ENDBRANCH   3   5
ENDBRANCH   1   3
BRANCH   1  11
ATOM     11  C   UNL     1      27.075  22.402   5.185  1.00  0.00     0.087 C 
BRANCH  11  12
ATOM     12  C   UNL     1      26.935  20.876   4.942  1.00  0.00     0.066 C 
BRANCH  12  13
ATOM     13  C   UNL     1      25.577  20.375   5.407  1.00  0.00     0.140 C 
ATOM     14  O   UNL     1      24.798  19.892   4.597  1.00  0.00    -0.299 OA
BRANCH  13  15
ATOM     15  C   UNL     1      25.141  20.512   6.842  1.00  0.00     0.106 CG0
ATOM     16  G   UNL     1      23.656  20.810   6.930  1.00  0.00     0.000 G0
ENDBRANCH  13  15
ENDBRANCH  12  13
BRANCH  12  17
ATOM     17  C   UNL     1      28.077  20.034   5.594  1.00  0.00    -0.006 C 
ATOM     18  C   UNL     1      28.467  20.503   7.008  1.00  0.00     0.008 C 
ATOM     19  C   UNL     1      29.323  19.977   4.697  1.00  0.00     0.008 C 
ENDBRANCH  12  17
ENDBRANCH  11  12
ENDBRANCH   1  11
TORSDOF 1
ENDMDL
MODEL 7
REMARK VINA RESULT:    -2.966      4.217      6.565
REMARK INTER + INTRA:          -3.642
REMARK INTER:                  -4.523
REMARK INTRA:                   0.881
REMARK UNBOUND:                 0.884
REMARK SMILES CC1=CCC[C@H](C)C(=O)C[C@@H](C(C)C)C(=O)C1
REMARK SMILES IDX 8 1 9 2 6 3 7 4 5 5 4 6 3 7 2 8 1 9 10 11 11 12 15 13 16 14
REMARK SMILES IDX 17 15 12 17 13 18 14 19
REMARK H PARENT
REMARK Flexibility Score: 70.00
ROOT
ATOM      1  C   UNL     1      23.295  21.904   6.198  1.00  0.00     0.136 C 
ATOM      2  O   UNL     1      22.303  21.690   5.514  1.00  0.00    -0.299 OA
ENDROOT
BRANCH   1   3
ATOM      3  C   UNL     1      23.612  21.000   7.372  1.00  0.00     0.053 C 
ATOM      4  C   UNL     1      22.313  20.390   7.909  1.00  0.00     0.016 C 
BRANCH   3   5
ATOM      5  C   UNL     1      24.606  19.882   6.980  1.00  0.00     0.015 C 
BRANCH   5   6
ATOM      6  C   UNL     1      26.077  20.307   7.102  1.00  0.00     0.028 C 
BRANCH   6   7
ATOM      7  C   UNL     1      26.840  20.018   5.831  1.00  0.00    -0.028 C 
ATOM      8  C   UNL     1      27.143  20.919   4.869  1.00  0.00    -0.070 CG0
ATOM      9  C   UNL     1      27.914  20.439   3.666  1.00  0.00     0.039 C 
ATOM     10  G   UNL     1      26.774  22.388   4.962  1.00  0.00     0.000 G0
ENDBRANCH   6   7
ENDBRANCH   5   6
ENDBRANCH   3   5
ENDBRANCH   1   3
BRANCH   1  11
ATOM     11  C   UNL     1      24.170  23.085   5.866  1.00  0.00     0.087 C 
BRANCH  11  12
ATOM     12  C   UNL     1      24.370  23.242   4.336  1.00  0.00     0.066 C 
BRANCH  12  13
ATOM     13  C   UNL     1      25.759  22.787   3.920  1.00  0.00     0.140 C 
ATOM     14  O   UNL     1      26.035  22.683   2.733  1.00  0.00    -0.299 OA
BRANCH  13  15
ATOM     15  C   UNL     1      26.796  22.402   4.943  1.00  0.00     0.106 CG0
ATOM     16  G   UNL     1      27.124  20.923   4.852  1.00  0.00     0.000 G0
ENDBRANCH  13  15
ENDBRANCH  12  13
BRANCH  12  17
ATOM     17  C   UNL     1      24.094  24.688   3.816  1.00  0.00    -0.006 C 
ATOM     18  C   UNL     1      25.213  25.252   2.921  1.00  0.00     0.008 C 
ATOM     19  C   UNL     1      23.804  25.660   4.971  1.00  0.00     0.008 C 
ENDBRANCH  12  17
ENDBRANCH  11  12
ENDBRANCH   1  11
TORSDOF 1
ENDMDL
MODEL 8
REMARK VINA RESULT:    -2.897      2.808      5.924
REMARK INTER + INTRA:          -3.537
REMARK INTER:                  -4.133
REMARK INTRA:                   0.596
REMARK UNBOUND:                 0.884
REMARK SMILES CC1=CCC[C@H](C)C(=O)C[C@@H](C(C)C)C(=O)C1
REMARK SMILES IDX 8 1 9 2 6 3 7 4 5 5 4 6 3 7 2 8 1 9 10 11 11 12 15 13 16 14
REMARK SMILES IDX 17 15 12 17 13 18 14 19
REMARK H PARENT
REMARK Flexibility Score: 70.00
ROOT
ATOM      1  C   UNL     1      24.979  22.995   5.743  1.00  0.00     0.136 C 
ATOM      2  O   UNL     1      24.148  22.131   5.987  1.00  0.00    -0.299 OA
ENDROOT
BRANCH   1   3
ATOM      3  C   UNL     1      24.845  23.839   4.492  1.00  0.00     0.053 C 
ATOM      4  C   UNL     1      25.029  25.316   4.853  1.00  0.00     0.016 C 
BRANCH   3   5
ATOM      5  C   UNL     1      25.867  23.422   3.408  1.00  0.00     0.015 C 
BRANCH   5   6
ATOM      6  C   UNL     1      25.808  21.927   3.061  1.00  0.00     0.028 C 
BRANCH   6   7
ATOM      7  C   UNL     1      27.171  21.285   3.158  1.00  0.00    -0.028 C 
ATOM      8  C   UNL     1      27.566  20.411   4.111  1.00  0.00    -0.070 CG0
ATOM      9  C   UNL     1      28.975  19.876   4.042  1.00  0.00     0.039 C 
ATOM     10  G   UNL     1      26.652  19.921   5.218  1.00  0.00     0.000 G0
ENDBRANCH   6   7
ENDBRANCH   5   6
ENDBRANCH   3   5
ENDBRANCH   1   3
BRANCH   1  11
ATOM     11  C   UNL     1      26.135  23.186   6.691  1.00  0.00     0.087 C 
BRANCH  11  12
ATOM     12  C   UNL     1      27.310  22.226   6.367  1.00  0.00     0.066 C 
BRANCH  12  13
ATOM     13  C   UNL     1      26.869  20.775   6.467  1.00  0.00     0.140 C 
ATOM     14  O   UNL     1      26.716  20.261   7.566  1.00  0.00    -0.299 OA
BRANCH  13  15
ATOM     15  C   UNL     1      26.667  19.931   5.236  1.00  0.00     0.106 CG0
ATOM     16  G   UNL     1      27.551  20.409   4.100  1.00  0.00     0.000 G0
ENDBRANCH  13  15
ENDBRANCH  12  13
BRANCH  12  17
ATOM     17  C   UNL     1      28.576  22.471   7.247  1.00  0.00    -0.006 C 
ATOM     18  C   UNL     1      28.540  23.794   8.034  1.00  0.00     0.008 C 
ATOM     19  C   UNL     1      29.868  22.386   6.420  1.00  0.00     0.008 C 
ENDBRANCH  12  17
ENDBRANCH  11  12
ENDBRANCH   1  11
TORSDOF 1
ENDMDL
MODEL 9
REMARK VINA RESULT:    -2.895      3.634      5.434
REMARK INTER + INTRA:          -3.533
REMARK INTER:                  -4.435
REMARK INTRA:                   0.902
REMARK UNBOUND:                 0.884
REMARK SMILES CC1=CCC[C@H](C)C(=O)C[C@@H](C(C)C)C(=O)C1
REMARK SMILES IDX 8 1 9 2 6 3 7 4 5 5 4 6 3 7 2 8 1 9 10 11 11 12 15 13 16 14
REMARK SMILES IDX 17 15 12 17 13 18 14 19
REMARK H PARENT
REMARK Flexibility Score: 70.00
ROOT
ATOM      1  C   UNL     1      26.688  21.427   3.808  1.00  0.00     0.136 C 
ATOM      2  O   UNL     1      25.952  20.491   3.529  1.00  0.00    -0.299 OA
ENDROOT
BRANCH   1   3
ATOM      3  C   UNL     1      27.969  21.176   4.577  1.00  0.00     0.053 C 
ATOM      4  C   UNL     1      28.357  22.445   5.344  1.00  0.00     0.016 C 
BRANCH   3   5
ATOM      5  C   UNL     1      27.829  19.984   5.551  1.00  0.00     0.015 C 
BRANCH   5   6
ATOM      6  C   UNL     1      27.125  20.353   6.866  1.00  0.00     0.028 C 
BRANCH   6   7
ATOM      7  C   UNL     1      25.693  19.875   6.876  1.00  0.00    -0.028 C 
ATOM      8  C   UNL     1      24.597  20.662   6.783  1.00  0.00    -0.070 CG0
ATOM      9  C   UNL     1      23.244  19.998   6.814  1.00  0.00     0.039 C 
ATOM     10  G   UNL     1      24.668  22.168   6.616  1.00  0.00     0.000 G0
ENDBRANCH   6   7
ENDBRANCH   5   6
ENDBRANCH   3   5
ENDBRANCH   1   3
BRANCH   1  11
ATOM     11  C   UNL     1      26.287  22.819   3.395  1.00  0.00     0.087 C 
BRANCH  11  12
ATOM     12  C   UNL     1      25.453  23.529   4.493  1.00  0.00     0.066 C 
BRANCH  12  13
ATOM     13  C   UNL     1      24.504  22.554   5.170  1.00  0.00     0.140 C 
ATOM     14  O   UNL     1      23.548  22.107   4.551  1.00  0.00    -0.299 OA
BRANCH  13  15
ATOM     15  C   UNL     1      24.682  22.162   6.613  1.00  0.00     0.106 CG0
ATOM     16  G   UNL     1      24.579  20.658   6.783  1.00  0.00     0.000 G0
ENDBRANCH  13  15
ENDBRANCH  12  13
BRANCH  12  17
ATOM     17  C   UNL     1      24.670  24.776   3.973  1.00  0.00    -0.006 C 
ATOM     18  C   UNL     1      25.141  25.276   2.595  1.00  0.00     0.008 C 
ATOM     19  C   UNL     1      24.698  25.929   4.989  1.00  0.00     0.008 C 
ENDBRANCH  12  17
ENDBRANCH  11  12
ENDBRANCH   1  11
TORSDOF 1
ENDMDL
