MODEL 1
REMARK VINA RESULT:    -2.762      0.000      0.000
REMARK INTER + INTRA:          -4.741
REMARK INTER:                  -4.215
REMARK INTRA:                  -0.526
REMARK UNBOUND:                -0.526
REMARK SMILES CC1=CCC[C@H](C)C(=O)C[C@H](C(C)C)C(=O)C1
REMARK SMILES IDX 8 1 9 2 6 3 7 4 5 5 4 6 3 7 2 8 1 9 10 11 11 12 15 13 16 14
REMARK SMILES IDX 17 15 12 17 13 18 14 19
REMARK H PARENT
REMARK Flexibility Score: 70.00
ROOT
ATOM      1  C   UNL     1     -34.316   2.881  58.495  1.00  0.00     0.136 C 
ATOM      2  O   UNL     1     -34.743   1.866  59.025  1.00  0.00    -0.299 OA
ENDROOT
BRANCH   1   3
ATOM      3  C   UNL     1     -33.075   2.801  57.620  1.00  0.00     0.053 C 
ATOM      4  C   UNL     1     -31.894   2.225  58.413  1.00  0.00     0.016 C 
BRANCH   3   5
ATOM      5  C   UNL     1     -33.350   1.960  56.355  1.00  0.00     0.015 C 
BRANCH   5   6
ATOM      6  C   UNL     1     -33.900   2.825  55.203  1.00  0.00     0.028 C 
BRANCH   6   7
ATOM      7  C   UNL     1     -35.397   2.727  55.053  1.00  0.00    -0.028 C 
ATOM      8  C   UNL     1     -36.249   3.780  55.060  1.00  0.00    -0.070 CG0
ATOM      9  C   UNL     1     -37.710   3.503  54.803  1.00  0.00     0.039 C 
ATOM     10  G   UNL     1     -35.811   5.209  55.352  1.00  0.00     0.000 G0
ENDBRANCH   6   7
ENDBRANCH   5   6
ENDBRANCH   3   5
ENDBRANCH   1   3
BRANCH   1  11
ATOM     11  C   UNL     1     -34.998   4.205  58.760  1.00  0.00     0.087 C 
BRANCH  11  12
ATOM     12  C   UNL     1     -34.668   5.339  57.747  1.00  0.00     0.066 C 
BRANCH  12  13
ATOM     13  C   UNL     1     -35.845   5.621  56.820  1.00  0.00     0.140 C 
ATOM     14  O   UNL     1     -36.859   6.117  57.290  1.00  0.00    -0.299 OA
BRANCH  13  15
ATOM     15  C   UNL     1     -35.821   5.238  55.355  1.00  0.00     0.106 CG0
ATOM     16  G   UNL     1     -36.250   3.802  55.088  1.00  0.00     0.000 G0
ENDBRANCH  13  15
ENDBRANCH  12  13
BRANCH  12  17
ATOM     17  C   UNL     1     -34.075   6.647  58.369  1.00  0.00    -0.006 C 
ATOM     18  C   UNL     1     -33.245   7.421  57.328  1.00  0.00     0.008 C 
ATOM     19  C   UNL     1     -33.187   6.366  59.594  1.00  0.00     0.008 C 
ENDBRANCH  12  17
ENDBRANCH  11  12
ENDBRANCH   1  11
TORSDOF 1
ENDMDL
MODEL 2
REMARK VINA RESULT:    -2.690     12.923     14.908
REMARK INTER + INTRA:          -4.632
REMARK INTER:                  -4.231
REMARK INTRA:                  -0.401
REMARK UNBOUND:                -0.526
REMARK SMILES CC1=CCC[C@H](C)C(=O)C[C@H](C(C)C)C(=O)C1
REMARK SMILES IDX 8 1 9 2 6 3 7 4 5 5 4 6 3 7 2 8 1 9 10 11 11 12 15 13 16 14
REMARK SMILES IDX 17 15 12 17 13 18 14 19
REMARK H PARENT
REMARK Flexibility Score: 70.00
ROOT
ATOM      1  C   UNL     1     -35.989  -4.596  48.419  1.00  0.00     0.136 C 
ATOM      2  O   UNL     1     -36.014  -3.506  48.973  1.00  0.00    -0.299 OA
ENDROOT
BRANCH   1   3
ATOM      3  C   UNL     1     -35.968  -4.662  46.901  1.00  0.00     0.053 C 
ATOM      4  C   UNL     1     -36.525  -3.364  46.299  1.00  0.00     0.016 C 
BRANCH   3   5
ATOM      5  C   UNL     1     -34.540  -4.941  46.383  1.00  0.00     0.015 C 
BRANCH   5   6
ATOM      6  C   UNL     1     -34.385  -6.394  45.892  1.00  0.00     0.028 C 
BRANCH   6   7
ATOM      7  C   UNL     1     -33.458  -7.213  46.755  1.00  0.00    -0.028 C 
ATOM      8  C   UNL     1     -33.811  -8.336  47.425  1.00  0.00    -0.070 CG0
ATOM      9  C   UNL     1     -32.728  -9.081  48.165  1.00  0.00     0.039 C 
ATOM     10  G   UNL     1     -35.242  -8.853  47.497  1.00  0.00     0.000 G0
ENDBRANCH   6   7
ENDBRANCH   5   6
ENDBRANCH   3   5
ENDBRANCH   1   3
BRANCH   1  11
ATOM     11  C   UNL     1     -36.031  -5.858  49.254  1.00  0.00     0.087 C 
BRANCH  11  12
ATOM     12  C   UNL     1     -36.829  -7.040  48.633  1.00  0.00     0.066 C 
BRANCH  12  13
ATOM     13  C   UNL     1     -36.042  -8.344  48.704  1.00  0.00     0.140 C 
ATOM     14  O   UNL     1     -35.996  -8.948  49.766  1.00  0.00    -0.299 OA
BRANCH  13  15
ATOM     15  C   UNL     1     -35.257  -8.872  47.520  1.00  0.00     0.106 CG0
ATOM     16  G   UNL     1     -33.832  -8.340  47.442  1.00  0.00     0.000 G0
ENDBRANCH  13  15
ENDBRANCH  12  13
BRANCH  12  17
ATOM     17  C   UNL     1     -38.298  -7.205  49.145  1.00  0.00    -0.006 C 
ATOM     18  C   UNL     1     -39.284  -7.287  47.964  1.00  0.00     0.008 C 
ATOM     19  C   UNL     1     -38.732  -6.054  50.069  1.00  0.00     0.008 C 
ENDBRANCH  12  17
ENDBRANCH  11  12
ENDBRANCH   1  11
TORSDOF 1
ENDMDL
MODEL 3
REMARK VINA RESULT:    -2.642     12.696     14.814
REMARK INTER + INTRA:          -4.557
REMARK INTER:                  -4.242
REMARK INTRA:                  -0.315
REMARK UNBOUND:                -0.526
REMARK SMILES CC1=CCC[C@H](C)C(=O)C[C@H](C(C)C)C(=O)C1
REMARK SMILES IDX 8 1 9 2 6 3 7 4 5 5 4 6 3 7 2 8 1 9 10 11 11 12 15 13 16 14
REMARK SMILES IDX 17 15 12 17 13 18 14 19
REMARK H PARENT
REMARK Flexibility Score: 70.00
ROOT
ATOM      1  C   UNL     1     -35.782  -6.705  46.615  1.00  0.00     0.136 C 
ATOM      2  O   UNL     1     -36.026  -6.671  45.417  1.00  0.00    -0.299 OA
ENDROOT
BRANCH   1   3
ATOM      3  C   UNL     1     -35.449  -5.415  47.346  1.00  0.00     0.053 C 
ATOM      4  C   UNL     1     -35.088  -4.308  46.346  1.00  0.00     0.016 C 
BRANCH   3   5
ATOM      5  C   UNL     1     -36.621  -4.979  48.251  1.00  0.00     0.015 C 
BRANCH   5   6
ATOM      6  C   UNL     1     -36.238  -5.026  49.744  1.00  0.00     0.028 C 
BRANCH   6   7
ATOM      7  C   UNL     1     -37.128  -5.935  50.553  1.00  0.00    -0.028 C 
ATOM      8  C   UNL     1     -36.733  -7.096  51.129  1.00  0.00    -0.070 CG0
ATOM      9  C   UNL     1     -37.735  -7.831  51.984  1.00  0.00     0.039 C 
ATOM     10  G   UNL     1     -35.353  -7.705  50.922  1.00  0.00     0.000 G0
ENDBRANCH   6   7
ENDBRANCH   5   6
ENDBRANCH   3   5
ENDBRANCH   1   3
BRANCH   1  11
ATOM     11  C   UNL     1     -35.768  -8.036  47.335  1.00  0.00     0.087 C 
BRANCH  11  12
ATOM     12  C   UNL     1     -34.657  -8.197  48.413  1.00  0.00     0.066 C 
BRANCH  12  13
ATOM     13  C   UNL     1     -35.236  -8.653  49.748  1.00  0.00     0.140 C 
ATOM     14  O   UNL     1     -35.679  -9.789  49.841  1.00  0.00    -0.299 OA
BRANCH  13  15
ATOM     15  C   UNL     1     -35.345  -7.719  50.935  1.00  0.00     0.106 CG0
ATOM     16  G   UNL     1     -36.725  -7.098  51.104  1.00  0.00     0.000 G0
ENDBRANCH  13  15
ENDBRANCH  12  13
BRANCH  12  17
ATOM     17  C   UNL     1     -33.417  -9.048  47.981  1.00  0.00    -0.006 C 
ATOM     18  C   UNL     1     -32.382  -9.123  49.119  1.00  0.00     0.008 C 
ATOM     19  C   UNL     1     -32.728  -8.489  46.724  1.00  0.00     0.008 C 
ENDBRANCH  12  17
ENDBRANCH  11  12
ENDBRANCH   1  11
TORSDOF 1
ENDMDL
MODEL 4
REMARK VINA RESULT:    -2.620     12.386     14.377
REMARK INTER + INTRA:          -4.524
REMARK INTER:                  -4.108
REMARK INTRA:                  -0.417
REMARK UNBOUND:                -0.526
REMARK SMILES CC1=CCC[C@H](C)C(=O)C[C@H](C(C)C)C(=O)C1
REMARK SMILES IDX 8 1 9 2 6 3 7 4 5 5 4 6 3 7 2 8 1 9 10 11 11 12 15 13 16 14
REMARK SMILES IDX 17 15 12 17 13 18 14 19
REMARK H PARENT
REMARK Flexibility Score: 70.00
ROOT
ATOM      1  C   UNL     1     -36.103  -7.951  47.074  1.00  0.00     0.136 C 
ATOM      2  O   UNL     1     -36.754  -8.242  46.082  1.00  0.00    -0.299 OA
ENDROOT
BRANCH   1   3
ATOM      3  C   UNL     1     -34.881  -7.058  46.931  1.00  0.00     0.053 C 
ATOM      4  C   UNL     1     -33.947  -7.596  45.838  1.00  0.00     0.016 C 
BRANCH   3   5
ATOM      5  C   UNL     1     -35.298  -5.602  46.630  1.00  0.00     0.015 C 
BRANCH   5   6
ATOM      6  C   UNL     1     -35.547  -4.800  47.923  1.00  0.00     0.028 C 
BRANCH   6   7
ATOM      7  C   UNL     1     -36.994  -4.794  48.346  1.00  0.00    -0.028 C 
ATOM      8  C   UNL     1     -37.447  -5.163  49.568  1.00  0.00    -0.070 CG0
ATOM      9  C   UNL     1     -38.922  -5.003  49.846  1.00  0.00     0.039 C 
ATOM     10  G   UNL     1     -36.554  -5.761  50.647  1.00  0.00     0.000 G0
ENDBRANCH   6   7
ENDBRANCH   5   6
ENDBRANCH   3   5
ENDBRANCH   1   3
BRANCH   1  11
ATOM     11  C   UNL     1     -36.494  -8.526  48.419  1.00  0.00     0.087 C 
BRANCH  11  12
ATOM     12  C   UNL     1     -35.643  -8.036  49.625  1.00  0.00     0.066 C 
BRANCH  12  13
ATOM     13  C   UNL     1     -36.493  -7.275  50.637  1.00  0.00     0.140 C 
ATOM     14  O   UNL     1     -37.190  -7.910  51.416  1.00  0.00    -0.299 OA
BRANCH  13  15
ATOM     15  C   UNL     1     -36.555  -5.762  50.655  1.00  0.00     0.106 CG0
ATOM     16  G   UNL     1     -37.441  -5.170  49.567  1.00  0.00     0.000 G0
ENDBRANCH  13  15
ENDBRANCH  12  13
BRANCH  12  17
ATOM     17  C   UNL     1     -34.745  -9.123  50.303  1.00  0.00    -0.006 C 
ATOM     18  C   UNL     1     -33.446  -8.500  50.847  1.00  0.00     0.008 C 
ATOM     19  C   UNL     1     -34.376 -10.266  49.340  1.00  0.00     0.008 C 
ENDBRANCH  12  17
ENDBRANCH  11  12
ENDBRANCH   1  11
TORSDOF 1
ENDMDL
MODEL 5
REMARK VINA RESULT:    -2.618     16.225     19.419
REMARK INTER + INTRA:          -4.521
REMARK INTER:                  -4.880
REMARK INTRA:                   0.359
REMARK UNBOUND:                -0.526
REMARK SMILES CC1=CCC[C@H](C)C(=O)C[C@H](C(C)C)C(=O)C1
REMARK SMILES IDX 8 1 9 2 6 3 7 4 5 5 4 6 3 7 2 8 1 9 10 11 11 12 15 13 16 14
REMARK SMILES IDX 17 15 12 17 13 18 14 19
REMARK H PARENT
REMARK Flexibility Score: 70.00
ROOT
ATOM      1  C   UNL     1     -49.826  -1.376  44.286  1.00  0.00     0.136 C 
ATOM      2  O   UNL     1     -49.673  -2.544  43.961  1.00  0.00    -0.299 OA
ENDROOT
BRANCH   1   3
ATOM      3  C   UNL     1     -50.634  -0.451  43.391  1.00  0.00     0.053 C 
ATOM      4  C   UNL     1     -50.863  -1.097  42.018  1.00  0.00     0.016 C 
BRANCH   3   5
ATOM      5  C   UNL     1     -51.978  -0.080  44.056  1.00  0.00     0.015 C 
BRANCH   5   6
ATOM      6  C   UNL     1     -51.768   0.650  45.398  1.00  0.00     0.028 C 
BRANCH   6   7
ATOM      7  C   UNL     1     -51.430   2.110  45.229  1.00  0.00    -0.028 C 
ATOM      8  C   UNL     1     -50.266   2.686  45.614  1.00  0.00    -0.070 CG0
ATOM      9  C   UNL     1     -50.061   4.143  45.280  1.00  0.00     0.039 C 
ATOM     10  G   UNL     1     -49.184   1.950  46.393  1.00  0.00     0.000 G0
ENDBRANCH   6   7
ENDBRANCH   5   6
ENDBRANCH   3   5
ENDBRANCH   1   3
BRANCH   1  11
ATOM     11  C   UNL     1     -49.166  -0.860  45.547  1.00  0.00     0.087 C 
BRANCH  11  12
ATOM     12  C   UNL     1     -47.844  -0.068  45.329  1.00  0.00     0.066 C 
BRANCH  12  13
ATOM     13  C   UNL     1     -48.040   1.424  45.571  1.00  0.00     0.140 C 
ATOM     14  O   UNL     1     -47.218   2.208  45.118  1.00  0.00    -0.299 OA
BRANCH  13  15
ATOM     15  C   UNL     1     -49.180   1.956  46.416  1.00  0.00     0.106 CG0
ATOM     16  G   UNL     1     -50.255   2.676  45.614  1.00  0.00     0.000 G0
ENDBRANCH  13  15
ENDBRANCH  12  13
BRANCH  12  17
ATOM     17  C   UNL     1     -46.590  -0.631  46.077  1.00  0.00    -0.006 C 
ATOM     18  C   UNL     1     -46.678  -2.162  46.218  1.00  0.00     0.008 C 
ATOM     19  C   UNL     1     -46.415  -0.018  47.478  1.00  0.00     0.008 C 
ENDBRANCH  12  17
ENDBRANCH  11  12
ENDBRANCH   1  11
TORSDOF 1
ENDMDL
MODEL 6
REMARK VINA RESULT:    -2.587     12.446     14.497
REMARK INTER + INTRA:          -4.474
REMARK INTER:                  -4.263
REMARK INTRA:                  -0.211
REMARK UNBOUND:                -0.526
REMARK SMILES CC1=CCC[C@H](C)C(=O)C[C@H](C(C)C)C(=O)C1
REMARK SMILES IDX 8 1 9 2 6 3 7 4 5 5 4 6 3 7 2 8 1 9 10 11 11 12 15 13 16 14
REMARK SMILES IDX 17 15 12 17 13 18 14 19
REMARK H PARENT
REMARK Flexibility Score: 70.00
ROOT
ATOM      1  C   UNL     1     -39.458  -8.413  48.583  1.00  0.00     0.136 C 
ATOM      2  O   UNL     1     -40.582  -8.891  48.550  1.00  0.00    -0.299 OA
ENDROOT
BRANCH   1   3
ATOM      3  C   UNL     1     -38.257  -9.312  48.338  1.00  0.00     0.053 C 
ATOM      4  C   UNL     1     -38.685 -10.786  48.317  1.00  0.00     0.016 C 
BRANCH   3   5
ATOM      5  C   UNL     1     -37.543  -8.929  47.024  1.00  0.00     0.015 C 
BRANCH   5   6
ATOM      6  C   UNL     1     -36.139  -8.347  47.286  1.00  0.00     0.028 C 
BRANCH   6   7
ATOM      7  C   UNL     1     -36.010  -6.904  46.871  1.00  0.00    -0.028 C 
ATOM      8  C   UNL     1     -35.878  -5.860  47.724  1.00  0.00    -0.070 CG0
ATOM      9  C   UNL     1     -35.666  -4.490  47.128  1.00  0.00     0.039 C 
ATOM     10  G   UNL     1     -35.972  -5.998  49.237  1.00  0.00     0.000 G0
ENDBRANCH   6   7
ENDBRANCH   5   6
ENDBRANCH   3   5
ENDBRANCH   1   3
BRANCH   1  11
ATOM     11  C   UNL     1     -39.279  -6.947  48.915  1.00  0.00     0.087 C 
BRANCH  11  12
ATOM     12  C   UNL     1     -38.387  -6.651  50.155  1.00  0.00     0.066 C 
BRANCH  12  13
ATOM     13  C   UNL     1     -37.313  -5.616  49.837  1.00  0.00     0.140 C 
ATOM     14  O   UNL     1     -37.568  -4.432  50.004  1.00  0.00    -0.299 OA
BRANCH  13  15
ATOM     15  C   UNL     1     -35.972  -6.007  49.252  1.00  0.00     0.106 CG0
ATOM     16  G   UNL     1     -35.892  -5.850  47.739  1.00  0.00     0.000 G0
ENDBRANCH  13  15
ENDBRANCH  12  13
BRANCH  12  17
ATOM     17  C   UNL     1     -39.157  -6.320  51.476  1.00  0.00    -0.006 C 
ATOM     18  C   UNL     1     -38.281  -6.610  52.709  1.00  0.00     0.008 C 
ATOM     19  C   UNL     1     -40.469  -7.113  51.607  1.00  0.00     0.008 C 
ENDBRANCH  12  17
ENDBRANCH  11  12
ENDBRANCH   1  11
TORSDOF 1
ENDMDL
MODEL 7
REMARK VINA RESULT:    -2.537     11.596     13.724
REMARK INTER + INTRA:          -4.397
REMARK INTER:                  -4.203
REMARK INTRA:                  -0.194
REMARK UNBOUND:                -0.526
REMARK SMILES CC1=CCC[C@H](C)C(=O)C[C@H](C(C)C)C(=O)C1
REMARK SMILES IDX 8 1 9 2 6 3 7 4 5 5 4 6 3 7 2 8 1 9 10 11 11 12 15 13 16 14
REMARK SMILES IDX 17 15 12 17 13 18 14 19
REMARK H PARENT
REMARK Flexibility Score: 70.00
ROOT
ATOM      1  C   UNL     1     -37.127  -2.717  47.812  1.00  0.00     0.136 C 
ATOM      2  O   UNL     1     -37.623  -1.635  48.089  1.00  0.00    -0.299 OA
ENDROOT
BRANCH   1   3
ATOM      3  C   UNL     1     -36.987  -3.124  46.354  1.00  0.00     0.053 C 
ATOM      4  C   UNL     1     -37.080  -1.893  45.441  1.00  0.00     0.016 C 
BRANCH   3   5
ATOM      5  C   UNL     1     -35.664  -3.884  46.121  1.00  0.00     0.015 C 
BRANCH   5   6
ATOM      6  C   UNL     1     -35.911  -5.360  45.751  1.00  0.00     0.028 C 
BRANCH   6   7
ATOM      7  C   UNL     1     -34.871  -6.293  46.319  1.00  0.00    -0.028 C 
ATOM      8  C   UNL     1     -35.085  -7.171  47.329  1.00  0.00    -0.070 CG0
ATOM      9  C   UNL     1     -33.953  -8.095  47.706  1.00  0.00     0.039 C 
ATOM     10  G   UNL     1     -36.386  -7.241  48.117  1.00  0.00     0.000 G0
ENDBRANCH   6   7
ENDBRANCH   5   6
ENDBRANCH   3   5
ENDBRANCH   1   3
BRANCH   1  11
ATOM     11  C   UNL     1     -36.708  -3.652  48.926  1.00  0.00     0.087 C 
BRANCH  11  12
ATOM     12  C   UNL     1     -37.486  -4.998  48.993  1.00  0.00     0.066 C 
BRANCH  12  13
ATOM     13  C   UNL     1     -36.542  -6.180  49.183  1.00  0.00     0.140 C 
ATOM     14  O   UNL     1     -35.847  -6.223  50.188  1.00  0.00    -0.299 OA
BRANCH  13  15
ATOM     15  C   UNL     1     -36.388  -7.260  48.132  1.00  0.00     0.106 CG0
ATOM     16  G   UNL     1     -35.098  -7.156  47.329  1.00  0.00     0.000 G0
ENDBRANCH  13  15
ENDBRANCH  12  13
BRANCH  12  17
ATOM     17  C   UNL     1     -38.690  -5.032  49.992  1.00  0.00    -0.006 C 
ATOM     18  C   UNL     1     -40.030  -4.947  49.238  1.00  0.00     0.008 C 
ATOM     19  C   UNL     1     -38.631  -3.891  51.023  1.00  0.00     0.008 C 
ENDBRANCH  12  17
ENDBRANCH  11  12
ENDBRANCH   1  11
TORSDOF 1
ENDMDL
MODEL 8
REMARK VINA RESULT:    -2.514     12.445     14.606
REMARK INTER + INTRA:          -4.363
REMARK INTER:                  -4.107
REMARK INTRA:                  -0.256
REMARK UNBOUND:                -0.526
REMARK SMILES CC1=CCC[C@H](C)C(=O)C[C@H](C(C)C)C(=O)C1
REMARK SMILES IDX 8 1 9 2 6 3 7 4 5 5 4 6 3 7 2 8 1 9 10 11 11 12 15 13 16 14
REMARK SMILES IDX 17 15 12 17 13 18 14 19
REMARK H PARENT
REMARK Flexibility Score: 70.00
ROOT
ATOM      1  C   UNL     1     -35.946  -8.353  48.140  1.00  0.00     0.136 C 
ATOM      2  O   UNL     1     -35.103  -9.098  47.662  1.00  0.00    -0.299 OA
ENDROOT
BRANCH   1   3
ATOM      3  C   UNL     1     -37.413  -8.578  47.812  1.00  0.00     0.053 C 
ATOM      4  C   UNL     1     -37.733  -8.068  46.400  1.00  0.00     0.016 C 
BRANCH   3   5
ATOM      5  C   UNL     1     -37.785 -10.069  47.956  1.00  0.00     0.015 C 
BRANCH   5   6
ATOM      6  C   UNL     1     -38.099 -10.441  49.419  1.00  0.00     0.028 C 
BRANCH   6   7
ATOM      7  C   UNL     1     -39.066  -9.488  50.076  1.00  0.00    -0.028 C 
ATOM      8  C   UNL     1     -38.732  -8.568  51.013  1.00  0.00    -0.070 CG0
ATOM      9  C   UNL     1     -39.814  -7.633  51.493  1.00  0.00     0.039 C 
ATOM     10  G   UNL     1     -37.342  -8.463  51.625  1.00  0.00     0.000 G0
ENDBRANCH   6   7
ENDBRANCH   5   6
ENDBRANCH   3   5
ENDBRANCH   1   3
BRANCH   1  11
ATOM     11  C   UNL     1     -35.510  -7.191  49.006  1.00  0.00     0.087 C 
BRANCH  11  12
ATOM     12  C   UNL     1     -36.625  -6.570  49.896  1.00  0.00     0.066 C 
BRANCH  12  13
ATOM     13  C   UNL     1     -36.613  -7.162  51.301  1.00  0.00     0.140 C 
ATOM     14  O   UNL     1     -35.949  -6.611  52.167  1.00  0.00    -0.299 OA
BRANCH  13  15
ATOM     15  C   UNL     1     -37.339  -8.449  51.634  1.00  0.00     0.106 CG0
ATOM     16  G   UNL     1     -38.726  -8.550  51.014  1.00  0.00     0.000 G0
ENDBRANCH  13  15
ENDBRANCH  12  13
BRANCH  12  17
ATOM     17  C   UNL     1     -36.683  -5.006  49.911  1.00  0.00    -0.006 C 
ATOM     18  C   UNL     1     -38.116  -4.514  50.183  1.00  0.00     0.008 C 
ATOM     19  C   UNL     1     -36.191  -4.386  48.591  1.00  0.00     0.008 C 
ENDBRANCH  12  17
ENDBRANCH  11  12
ENDBRANCH   1  11
TORSDOF 1
ENDMDL
MODEL 9
REMARK VINA RESULT:    -2.386     11.590     13.764
REMARK INTER + INTRA:          -4.168
REMARK INTER:                  -3.655
REMARK INTRA:                  -0.513
REMARK UNBOUND:                -0.526
REMARK SMILES CC1=CCC[C@H](C)C(=O)C[C@H](C(C)C)C(=O)C1
REMARK SMILES IDX 8 1 9 2 6 3 7 4 5 5 4 6 3 7 2 8 1 9 10 11 11 12 15 13 16 14
REMARK SMILES IDX 17 15 12 17 13 18 14 19
REMARK H PARENT
REMARK Flexibility Score: 70.00
ROOT
ATOM      1  C   UNL     1     -36.907  -6.889  50.999  1.00  0.00     0.136 C 
ATOM      2  O   UNL     1     -36.388  -6.859  52.106  1.00  0.00    -0.299 OA
ENDROOT
BRANCH   1   3
ATOM      3  C   UNL     1     -38.422  -6.908  50.885  1.00  0.00     0.053 C 
ATOM      4  C   UNL     1     -38.993  -8.186  51.516  1.00  0.00     0.016 C 
BRANCH   3   5
ATOM      5  C   UNL     1     -39.038  -5.651  51.536  1.00  0.00     0.015 C 
BRANCH   5   6
ATOM      6  C   UNL     1     -38.395  -4.357  50.998  1.00  0.00     0.028 C 
BRANCH   6   7
ATOM      7  C   UNL     1     -38.984  -3.907  49.685  1.00  0.00    -0.028 C 
ATOM      8  C   UNL     1     -38.352  -3.972  48.488  1.00  0.00    -0.070 CG0
ATOM      9  C   UNL     1     -39.130  -3.564  47.262  1.00  0.00     0.039 C 
ATOM     10  G   UNL     1     -36.898  -4.396  48.331  1.00  0.00     0.000 G0
ENDBRANCH   6   7
ENDBRANCH   5   6
ENDBRANCH   3   5
ENDBRANCH   1   3
BRANCH   1  11
ATOM     11  C   UNL     1     -36.031  -6.957  49.767  1.00  0.00     0.087 C 
BRANCH  11  12
ATOM     12  C   UNL     1     -36.793  -7.061  48.414  1.00  0.00     0.066 C 
BRANCH  12  13
ATOM     13  C   UNL     1     -36.732  -5.751  47.637  1.00  0.00     0.140 C 
ATOM     14  O   UNL     1     -36.485  -5.787  46.440  1.00  0.00    -0.299 OA
BRANCH  13  15
ATOM     15  C   UNL     1     -36.894  -4.407  48.317  1.00  0.00     0.106 CG0
ATOM     16  G   UNL     1     -38.345  -3.980  48.495  1.00  0.00     0.000 G0
ENDBRANCH  13  15
ENDBRANCH  12  13
BRANCH  12  17
ATOM     17  C   UNL     1     -36.426  -8.296  47.527  1.00  0.00    -0.006 C 
ATOM     18  C   UNL     1     -37.461  -9.422  47.700  1.00  0.00     0.008 C 
ATOM     19  C   UNL     1     -35.030  -8.858  47.848  1.00  0.00     0.008 C 
ENDBRANCH  12  17
ENDBRANCH  11  12
ENDBRANCH   1  11
TORSDOF 1
ENDMDL
