MODEL 1
REMARK VINA RESULT:    -5.996      0.000      0.000
REMARK INTER + INTRA:          -7.451
REMARK INTER:                  -7.222
REMARK INTRA:                  -0.229
REMARK UNBOUND:                -0.229
REMARK SMILES O=c1c(O)c(-c2ccc(O)c(O)c2)oc2cc(O)cc(O)c12
REMARK SMILES IDX 5 1 3 2 2 3 1 4 22 5 20 6 19 7 17 8 16 9 15 10 14 11 6 12
REMARK SMILES IDX 7 13 8 14 9 15 13 16 11 17 10 18 12 20 4 22 21 24 18 26
REMARK H PARENT 10 19 12 21 4 23 21 25 18 27
REMARK Flexibility Score: inf
ROOT
ATOM      1  C   UNL     1      34.226  19.985 -24.121  1.00  0.00     0.180 A 
ATOM      2  C   UNL     1      33.184  20.641 -24.799  1.00  0.00     0.208 A 
ATOM      3  C   UNL     1      32.121  21.179 -24.055  1.00  0.00     0.238 A 
ATOM      4  O   UNL     1      31.218  21.813 -24.663  1.00  0.00    -0.285 OA
ATOM      5  C   UNL     1      32.105  21.040 -22.646  1.00  0.00     0.111 A 
ATOM      6  C   UNL     1      31.058  21.511 -21.798  1.00  0.00     0.134 A 
ATOM      7  C   UNL     1      31.209  21.434 -20.409  1.00  0.00     0.093 A 
ATOM      8  C   UNL     1      32.340  20.844 -19.838  1.00  0.00     0.123 A 
ATOM      9  C   UNL     1      33.340  20.329 -20.659  1.00  0.00     0.094 A 
ATOM     10  C   UNL     1      33.233  20.423 -22.049  1.00  0.00     0.146 A 
ATOM     11  O   UNL     1      34.214  19.928 -22.794  1.00  0.00    -0.452 OA
ENDROOT
BRANCH   1  12
ATOM     12  C   UNL     1      35.367  19.371 -24.838  1.00  0.00     0.025 A 
ATOM     13  C   UNL     1      36.353  20.195 -25.399  1.00  0.00     0.016 A 
ATOM     14  C   UNL     1      37.447  19.637 -26.062  1.00  0.00     0.051 A 
ATOM     15  C   UNL     1      37.589  18.248 -26.162  1.00  0.00     0.157 A 
ATOM     16  C   UNL     1      35.518  17.976 -24.916  1.00  0.00     0.062 A 
ATOM     17  C   UNL     1      36.615  17.406 -25.576  1.00  0.00     0.158 A 
BRANCH  15  18
ATOM     18  O   UNL     1      38.703  17.754 -26.844  1.00  0.00    -0.504 OA
ATOM     19  H   UNL     1      38.676  17.405 -27.792  1.00  0.00     0.293 HD
ENDBRANCH  15  18
BRANCH  17  20
ATOM     20  O   UNL     1      36.699  16.013 -25.618  1.00  0.00    -0.504 OA
ATOM     21  H   UNL     1      37.474  15.483 -25.249  1.00  0.00     0.293 HD
ENDBRANCH  17  20
ENDBRANCH   1  12
BRANCH   2  22
ATOM     22  O   UNL     1      33.231  20.786 -26.188  1.00  0.00    -0.502 OA
ATOM     23  H   UNL     1      33.531  21.645 -26.635  1.00  0.00     0.293 HD
ENDBRANCH   2  22
BRANCH   6  24
ATOM     24  O   UNL     1      29.848  22.032 -22.267  1.00  0.00    -0.507 OA
ATOM     25  H   UNL     1      29.529  22.976 -22.108  1.00  0.00     0.293 HD
ENDBRANCH   6  24
BRANCH   8  26
ATOM     26  O   UNL     1      32.475  20.758 -18.453  1.00  0.00    -0.508 OA
ATOM     27  H   UNL     1      33.057  20.051 -18.021  1.00  0.00     0.293 HD
ENDBRANCH   8  26
TORSDOF 6
ENDMDL
MODEL 2
REMARK VINA RESULT:    -5.979     11.404     13.354
REMARK INTER + INTRA:          -7.431
REMARK INTER:                  -7.121
REMARK INTRA:                  -0.310
REMARK UNBOUND:                -0.229
REMARK SMILES O=c1c(O)c(-c2ccc(O)c(O)c2)oc2cc(O)cc(O)c12
REMARK SMILES IDX 5 1 3 2 2 3 1 4 22 5 20 6 19 7 17 8 16 9 15 10 14 11 6 12
REMARK SMILES IDX 7 13 8 14 9 15 13 16 11 17 10 18 12 20 4 22 21 24 18 26
REMARK H PARENT 10 19 12 21 4 23 21 25 18 27
REMARK Flexibility Score: inf
ROOT
ATOM      1  C   UNL     1      28.142  21.985 -13.237  1.00  0.00     0.180 A 
ATOM      2  C   UNL     1      28.951  22.975 -12.654  1.00  0.00     0.208 A 
ATOM      3  C   UNL     1      30.027  22.584 -11.841  1.00  0.00     0.238 A 
ATOM      4  O   UNL     1      30.781  23.474 -11.366  1.00  0.00    -0.285 OA
ATOM      5  C   UNL     1      30.270  21.209 -11.608  1.00  0.00     0.111 A 
ATOM      6  C   UNL     1      31.307  20.700 -10.769  1.00  0.00     0.134 A 
ATOM      7  C   UNL     1      31.537  19.320 -10.716  1.00  0.00     0.093 A 
ATOM      8  C   UNL     1      30.724  18.427 -11.419  1.00  0.00     0.123 A 
ATOM      9  C   UNL     1      29.673  18.911 -12.193  1.00  0.00     0.094 A 
ATOM     10  C   UNL     1      29.442  20.285 -12.295  1.00  0.00     0.146 A 
ATOM     11  O   UNL     1      28.435  20.703 -13.052  1.00  0.00    -0.452 OA
ENDROOT
BRANCH   1  12
ATOM     12  C   UNL     1      26.975  22.321 -14.085  1.00  0.00     0.025 A 
ATOM     13  C   UNL     1      25.703  22.412 -13.503  1.00  0.00     0.016 A 
ATOM     14  C   UNL     1      24.593  22.746 -14.281  1.00  0.00     0.051 A 
ATOM     15  C   UNL     1      24.732  23.013 -15.648  1.00  0.00     0.157 A 
ATOM     16  C   UNL     1      27.123  22.610 -15.452  1.00  0.00     0.062 A 
ATOM     17  C   UNL     1      26.015  22.951 -16.240  1.00  0.00     0.158 A 
BRANCH  15  18
ATOM     18  O   UNL     1      23.581  23.335 -16.370  1.00  0.00    -0.504 OA
ATOM     19  H   UNL     1      22.657  23.002 -16.137  1.00  0.00     0.293 HD
ENDBRANCH  15  18
BRANCH  17  20
ATOM     20  O   UNL     1      26.236  23.222 -17.592  1.00  0.00    -0.504 OA
ATOM     21  H   UNL     1      25.605  22.951 -18.332  1.00  0.00     0.293 HD
ENDBRANCH  17  20
ENDBRANCH   1  12
BRANCH   2  22
ATOM     22  O   UNL     1      28.706  24.327 -12.915  1.00  0.00    -0.502 OA
ATOM     23  H   UNL     1      28.918  25.057 -12.245  1.00  0.00     0.293 HD
ENDBRANCH   2  22
BRANCH   6  24
ATOM     24  O   UNL     1      32.115  21.500  -9.955  1.00  0.00    -0.507 OA
ATOM     25  H   UNL     1      32.989  21.914 -10.241  1.00  0.00     0.293 HD
ENDBRANCH   6  24
BRANCH   8  26
ATOM     26  O   UNL     1      30.951  17.053 -11.347  1.00  0.00    -0.508 OA
ATOM     27  H   UNL     1      30.384  16.453 -10.759  1.00  0.00     0.293 HD
ENDBRANCH   8  26
TORSDOF 6
ENDMDL
MODEL 3
REMARK VINA RESULT:    -5.843      2.858      6.792
REMARK INTER + INTRA:          -7.267
REMARK INTER:                  -6.994
REMARK INTRA:                  -0.273
REMARK UNBOUND:                -0.229
REMARK SMILES O=c1c(O)c(-c2ccc(O)c(O)c2)oc2cc(O)cc(O)c12
REMARK SMILES IDX 5 1 3 2 2 3 1 4 22 5 20 6 19 7 17 8 16 9 15 10 14 11 6 12
REMARK SMILES IDX 7 13 8 14 9 15 13 16 11 17 10 18 12 20 4 22 21 24 18 26
REMARK H PARENT 10 19 12 21 4 23 21 25 18 27
REMARK Flexibility Score: inf
ROOT
ATOM      1  C   UNL     1      34.470  21.723 -24.798  1.00  0.00     0.180 A 
ATOM      2  C   UNL     1      33.647  20.760 -24.189  1.00  0.00     0.208 A 
ATOM      3  C   UNL     1      34.014  19.406 -24.262  1.00  0.00     0.238 A 
ATOM      4  O   UNL     1      33.301  18.554 -23.668  1.00  0.00    -0.285 OA
ATOM      5  C   UNL     1      35.189  19.031 -24.956  1.00  0.00     0.111 A 
ATOM      6  C   UNL     1      35.634  17.686 -25.127  1.00  0.00     0.134 A 
ATOM      7  C   UNL     1      36.879  17.441 -25.718  1.00  0.00     0.093 A 
ATOM      8  C   UNL     1      37.665  18.490 -26.204  1.00  0.00     0.123 A 
ATOM      9  C   UNL     1      37.211  19.802 -26.095  1.00  0.00     0.094 A 
ATOM     10  C   UNL     1      35.990  20.080 -25.477  1.00  0.00     0.146 A 
ATOM     11  O   UNL     1      35.600  21.345 -25.384  1.00  0.00    -0.452 OA
ENDROOT
BRANCH   1  12
ATOM     12  C   UNL     1      34.137  23.166 -24.784  1.00  0.00     0.025 A 
ATOM     13  C   UNL     1      34.381  23.919 -23.627  1.00  0.00     0.016 A 
ATOM     14  C   UNL     1      34.093  25.284 -23.599  1.00  0.00     0.051 A 
ATOM     15  C   UNL     1      33.572  25.928 -24.728  1.00  0.00     0.157 A 
ATOM     16  C   UNL     1      33.636  23.813 -25.926  1.00  0.00     0.062 A 
ATOM     17  C   UNL     1      33.347  25.183 -25.909  1.00  0.00     0.158 A 
BRANCH  15  18
ATOM     18  O   UNL     1      33.299  27.294 -24.632  1.00  0.00    -0.504 OA
ATOM     19  H   UNL     1      33.100  27.887 -25.426  1.00  0.00     0.293 HD
ENDBRANCH  15  18
BRANCH  17  20
ATOM     20  O   UNL     1      32.849  25.759 -27.080  1.00  0.00    -0.504 OA
ATOM     21  H   UNL     1      32.005  26.311 -27.122  1.00  0.00     0.293 HD
ENDBRANCH  17  20
ENDBRANCH   1  12
BRANCH   2  22
ATOM     22  O   UNL     1      32.502  21.154 -23.490  1.00  0.00    -0.502 OA
ATOM     23  H   UNL     1      31.837  20.488 -23.116  1.00  0.00     0.293 HD
ENDBRANCH   2  22
BRANCH   6  24
ATOM     24  O   UNL     1      34.885  16.563 -24.761  1.00  0.00    -0.507 OA
ATOM     25  H   UNL     1      34.312  16.500 -23.933  1.00  0.00     0.293 HD
ENDBRANCH   6  24
BRANCH   8  26
ATOM     26  O   UNL     1      38.896  18.235 -26.806  1.00  0.00    -0.508 OA
ATOM     27  H   UNL     1      38.959  17.846 -27.739  1.00  0.00     0.293 HD
ENDBRANCH   8  26
TORSDOF 6
ENDMDL
MODEL 4
REMARK VINA RESULT:    -5.763     11.394     13.384
REMARK INTER + INTRA:          -7.171
REMARK INTER:                  -6.837
REMARK INTRA:                  -0.334
REMARK UNBOUND:                -0.229
REMARK SMILES O=c1c(O)c(-c2ccc(O)c(O)c2)oc2cc(O)cc(O)c12
REMARK SMILES IDX 5 1 3 2 2 3 1 4 22 5 20 6 19 7 17 8 16 9 15 10 14 11 6 12
REMARK SMILES IDX 7 13 8 14 9 15 13 16 11 17 10 18 12 20 4 22 21 24 18 26
REMARK H PARENT 10 19 12 21 4 23 21 25 18 27
REMARK Flexibility Score: inf
ROOT
ATOM      1  C   UNL     1      27.987  21.102 -13.337  1.00  0.00     0.180 A 
ATOM      2  C   UNL     1      28.690  19.940 -13.699  1.00  0.00     0.208 A 
ATOM      3  C   UNL     1      29.779  19.531 -12.911  1.00  0.00     0.238 A 
ATOM      4  O   UNL     1      30.371  18.460 -13.209  1.00  0.00    -0.285 OA
ATOM      5  C   UNL     1      30.159  20.296 -11.782  1.00  0.00     0.111 A 
ATOM      6  C   UNL     1      31.271  19.997 -10.938  1.00  0.00     0.134 A 
ATOM      7  C   UNL     1      31.476  20.748  -9.775  1.00  0.00     0.093 A 
ATOM      8  C   UNL     1      30.648  21.830  -9.461  1.00  0.00     0.123 A 
ATOM      9  C   UNL     1      29.597  22.166 -10.310  1.00  0.00     0.094 A 
ATOM     10  C   UNL     1      29.346  21.412 -11.459  1.00  0.00     0.146 A 
ATOM     11  O   UNL     1      28.328  21.761 -12.236  1.00  0.00    -0.452 OA
ENDROOT
BRANCH   1  12
ATOM     12  C   UNL     1      26.844  21.610 -14.131  1.00  0.00     0.025 A 
ATOM     13  C   UNL     1      25.538  21.259 -13.763  1.00  0.00     0.016 A 
ATOM     14  C   UNL     1      24.446  21.742 -14.486  1.00  0.00     0.051 A 
ATOM     15  C   UNL     1      24.634  22.597 -15.578  1.00  0.00     0.157 A 
ATOM     16  C   UNL     1      27.036  22.486 -15.213  1.00  0.00     0.062 A 
ATOM     17  C   UNL     1      25.947  22.980 -15.942  1.00  0.00     0.158 A 
BRANCH  15  18
ATOM     18  O   UNL     1      23.501  23.040 -16.263  1.00  0.00    -0.504 OA
ATOM     19  H   UNL     1      23.422  23.949 -16.695  1.00  0.00     0.293 HD
ENDBRANCH  15  18
BRANCH  17  20
ATOM     20  O   UNL     1      26.212  23.844 -17.006  1.00  0.00    -0.504 OA
ATOM     21  H   UNL     1      26.999  24.475 -17.037  1.00  0.00     0.293 HD
ENDBRANCH  17  20
ENDBRANCH   1  12
BRANCH   2  22
ATOM     22  O   UNL     1      28.284  19.187 -14.804  1.00  0.00    -0.502 OA
ATOM     23  H   UNL     1      28.694  19.305 -15.723  1.00  0.00     0.293 HD
ENDBRANCH   2  22
BRANCH   6  24
ATOM     24  O   UNL     1      32.210  18.997 -11.209  1.00  0.00    -0.507 OA
ATOM     25  H   UNL     1      32.067  18.234 -11.853  1.00  0.00     0.293 HD
ENDBRANCH   6  24
BRANCH   8  26
ATOM     26  O   UNL     1      30.869  22.583  -8.309  1.00  0.00    -0.508 OA
ATOM     27  H   UNL     1      30.921  23.594  -8.339  1.00  0.00     0.293 HD
ENDBRANCH   8  26
TORSDOF 6
ENDMDL
MODEL 5
REMARK VINA RESULT:    -5.733     12.908     14.853
REMARK INTER + INTRA:          -7.135
REMARK INTER:                  -6.812
REMARK INTRA:                  -0.323
REMARK UNBOUND:                -0.229
REMARK SMILES O=c1c(O)c(-c2ccc(O)c(O)c2)oc2cc(O)cc(O)c12
REMARK SMILES IDX 5 1 3 2 2 3 1 4 22 5 20 6 19 7 17 8 16 9 15 10 14 11 6 12
REMARK SMILES IDX 7 13 8 14 9 15 13 16 11 17 10 18 12 20 4 22 21 24 18 26
REMARK H PARENT 10 19 12 21 4 23 21 25 18 27
REMARK Flexibility Score: inf
ROOT
ATOM      1  C   UNL     1      28.194  22.228 -11.533  1.00  0.00     0.180 A 
ATOM      2  C   UNL     1      29.214  22.999 -10.949  1.00  0.00     0.208 A 
ATOM      3  C   UNL     1      30.400  22.364 -10.544  1.00  0.00     0.238 A 
ATOM      4  O   UNL     1      31.331  23.068 -10.072  1.00  0.00    -0.285 OA
ATOM      5  C   UNL     1      30.543  20.966 -10.713  1.00  0.00     0.111 A 
ATOM      6  C   UNL     1      31.684  20.213 -10.302  1.00  0.00     0.134 A 
ATOM      7  C   UNL     1      31.773  18.857 -10.637  1.00  0.00     0.093 A 
ATOM      8  C   UNL     1      30.733  18.211 -11.310  1.00  0.00     0.123 A 
ATOM      9  C   UNL     1      29.590  18.924 -11.662  1.00  0.00     0.094 A 
ATOM     10  C   UNL     1      29.488  20.287 -11.374  1.00  0.00     0.146 A 
ATOM     11  O   UNL     1      28.385  20.930 -11.737  1.00  0.00    -0.452 OA
ENDROOT
BRANCH   1  12
ATOM     12  C   UNL     1      26.906  22.822 -11.962  1.00  0.00     0.025 A 
ATOM     13  C   UNL     1      25.861  22.944 -11.037  1.00  0.00     0.016 A 
ATOM     14  C   UNL     1      24.646  23.519 -11.415  1.00  0.00     0.051 A 
ATOM     15  C   UNL     1      24.457  23.998 -12.717  1.00  0.00     0.157 A 
ATOM     16  C   UNL     1      26.729  23.323 -13.263  1.00  0.00     0.062 A 
ATOM     17  C   UNL     1      25.515  23.905 -13.651  1.00  0.00     0.158 A 
BRANCH  15  18
ATOM     18  O   UNL     1      23.217  24.556 -13.033  1.00  0.00    -0.504 OA
ATOM     19  H   UNL     1      22.627  24.232 -13.786  1.00  0.00     0.293 HD
ENDBRANCH  15  18
BRANCH  17  20
ATOM     20  O   UNL     1      25.408  24.378 -14.961  1.00  0.00    -0.504 OA
ATOM     21  H   UNL     1      26.120  24.254 -15.665  1.00  0.00     0.293 HD
ENDBRANCH  17  20
ENDBRANCH   1  12
BRANCH   2  22
ATOM     22  O   UNL     1      29.060  24.381 -10.812  1.00  0.00    -0.502 OA
ATOM     23  H   UNL     1      28.392  24.794 -10.172  1.00  0.00     0.293 HD
ENDBRANCH   2  22
BRANCH   6  24
ATOM     24  O   UNL     1      32.736  20.740  -9.546  1.00  0.00    -0.507 OA
ATOM     25  H   UNL     1      32.621  21.308  -8.719  1.00  0.00     0.293 HD
ENDBRANCH   6  24
BRANCH   8  26
ATOM     26  O   UNL     1      30.824  16.856 -11.625  1.00  0.00    -0.508 OA
ATOM     27  H   UNL     1      30.512  16.499 -12.520  1.00  0.00     0.293 HD
ENDBRANCH   8  26
TORSDOF 6
ENDMDL
MODEL 6
REMARK VINA RESULT:    -5.635     10.343     12.517
REMARK INTER + INTRA:          -7.017
REMARK INTER:                  -6.683
REMARK INTRA:                  -0.334
REMARK UNBOUND:                -0.229
REMARK SMILES O=c1c(O)c(-c2ccc(O)c(O)c2)oc2cc(O)cc(O)c12
REMARK SMILES IDX 5 1 3 2 2 3 1 4 22 5 20 6 19 7 17 8 16 9 15 10 14 11 6 12
REMARK SMILES IDX 7 13 8 14 9 15 13 16 11 17 10 18 12 20 4 22 21 24 18 26
REMARK H PARENT 10 19 12 21 4 23 21 25 18 27
REMARK Flexibility Score: inf
ROOT
ATOM      1  C   UNL     1      28.118  20.085 -14.434  1.00  0.00     0.180 A 
ATOM      2  C   UNL     1      28.665  19.020 -15.171  1.00  0.00     0.208 A 
ATOM      3  C   UNL     1      29.779  18.337 -14.656  1.00  0.00     0.238 A 
ATOM      4  O   UNL     1      30.231  17.350 -15.293  1.00  0.00    -0.285 OA
ATOM      5  C   UNL     1      30.342  18.739 -13.420  1.00  0.00     0.111 A 
ATOM      6  C   UNL     1      31.496  18.145 -12.825  1.00  0.00     0.134 A 
ATOM      7  C   UNL     1      31.887  18.536 -11.539  1.00  0.00     0.093 A 
ATOM      8  C   UNL     1      31.205  19.546 -10.854  1.00  0.00     0.123 A 
ATOM      9  C   UNL     1      30.115  20.172 -11.452  1.00  0.00     0.094 A 
ATOM     10  C   UNL     1      29.679  19.779 -12.720  1.00  0.00     0.146 A 
ATOM     11  O   UNL     1      28.629  20.395 -13.248  1.00  0.00    -0.452 OA
ENDROOT
BRANCH   1  12
ATOM     12  C   UNL     1      26.960  20.867 -14.924  1.00  0.00     0.025 A 
ATOM     13  C   UNL     1      25.666  20.514 -14.513  1.00  0.00     0.016 A 
ATOM     14  C   UNL     1      24.563  21.250 -14.946  1.00  0.00     0.051 A 
ATOM     15  C   UNL     1      24.727  22.361 -15.782  1.00  0.00     0.157 A 
ATOM     16  C   UNL     1      27.131  21.995 -15.744  1.00  0.00     0.062 A 
ATOM     17  C   UNL     1      26.030  22.742 -16.181  1.00  0.00     0.158 A 
BRANCH  15  18
ATOM     18  O   UNL     1      23.581  23.050 -16.185  1.00  0.00    -0.504 OA
ATOM     19  H   UNL     1      23.399  24.019 -15.965  1.00  0.00     0.293 HD
ENDBRANCH  15  18
BRANCH  17  20
ATOM     20  O   UNL     1      26.275  23.849 -16.997  1.00  0.00    -0.504 OA
ATOM     21  H   UNL     1      25.593  24.249 -17.624  1.00  0.00     0.293 HD
ENDBRANCH  17  20
ENDBRANCH   1  12
BRANCH   2  22
ATOM     22  O   UNL     1      28.080  18.626 -16.377  1.00  0.00    -0.502 OA
ATOM     23  H   UNL     1      27.202  19.010 -16.708  1.00  0.00     0.293 HD
ENDBRANCH   2  22
BRANCH   6  24
ATOM     24  O   UNL     1      32.301  17.195 -13.461  1.00  0.00    -0.507 OA
ATOM     25  H   UNL     1      32.563  16.305 -13.063  1.00  0.00     0.293 HD
ENDBRANCH   6  24
BRANCH   8  26
ATOM     26  O   UNL     1      31.611  19.940  -9.580  1.00  0.00    -0.508 OA
ATOM     27  H   UNL     1      31.221  19.518  -8.746  1.00  0.00     0.293 HD
ENDBRANCH   8  26
TORSDOF 6
ENDMDL
MODEL 7
REMARK VINA RESULT:    -5.608     15.704     16.957
REMARK INTER + INTRA:          -6.984
REMARK INTER:                  -6.701
REMARK INTRA:                  -0.282
REMARK UNBOUND:                -0.229
REMARK SMILES O=c1c(O)c(-c2ccc(O)c(O)c2)oc2cc(O)cc(O)c12
REMARK SMILES IDX 5 1 3 2 2 3 1 4 22 5 20 6 19 7 17 8 16 9 15 10 14 11 6 12
REMARK SMILES IDX 7 13 8 14 9 15 13 16 11 17 10 18 12 20 4 22 21 24 18 26
REMARK H PARENT 10 19 12 21 4 23 21 25 18 27
REMARK Flexibility Score: inf
ROOT
ATOM      1  C   UNL     1      33.994  31.682 -12.178  1.00  0.00     0.180 A 
ATOM      2  C   UNL     1      32.607  31.459 -12.153  1.00  0.00     0.208 A 
ATOM      3  C   UNL     1      31.828  31.886 -13.241  1.00  0.00     0.238 A 
ATOM      4  O   UNL     1      30.595  31.635 -13.238  1.00  0.00    -0.285 OA
ATOM      5  C   UNL     1      32.444  32.547 -14.331  1.00  0.00     0.111 A 
ATOM      6  C   UNL     1      31.747  33.060 -15.467  1.00  0.00     0.134 A 
ATOM      7  C   UNL     1      32.473  33.578 -16.545  1.00  0.00     0.093 A 
ATOM      8  C   UNL     1      33.867  33.664 -16.502  1.00  0.00     0.123 A 
ATOM      9  C   UNL     1      34.552  33.221 -15.373  1.00  0.00     0.094 A 
ATOM     10  C   UNL     1      33.857  32.665 -14.296  1.00  0.00     0.146 A 
ATOM     11  O   UNL     1      34.550  32.246 -13.244  1.00  0.00    -0.452 OA
ENDROOT
BRANCH   1  12
ATOM     12  C   UNL     1      34.876  31.281 -11.057  1.00  0.00     0.025 A 
ATOM     13  C   UNL     1      34.896  32.052  -9.886  1.00  0.00     0.016 A 
ATOM     14  C   UNL     1      35.705  31.681  -8.811  1.00  0.00     0.051 A 
ATOM     15  C   UNL     1      36.495  30.527  -8.875  1.00  0.00     0.157 A 
ATOM     16  C   UNL     1      35.650  30.110 -11.117  1.00  0.00     0.062 A 
ATOM     17  C   UNL     1      36.462  29.728 -10.042  1.00  0.00     0.158 A 
BRANCH  15  18
ATOM     18  O   UNL     1      37.286  30.216  -7.768  1.00  0.00    -0.504 OA
ATOM     19  H   UNL     1      38.284  30.368  -7.727  1.00  0.00     0.293 HD
ENDBRANCH  15  18
BRANCH  17  20
ATOM     20  O   UNL     1      37.207  28.554 -10.173  1.00  0.00    -0.504 OA
ATOM     21  H   UNL     1      37.280  27.849  -9.454  1.00  0.00     0.293 HD
ENDBRANCH  17  20
ENDBRANCH   1  12
BRANCH   2  22
ATOM     22  O   UNL     1      32.022  30.785 -11.077  1.00  0.00    -0.502 OA
ATOM     23  H   UNL     1      31.338  30.047 -11.204  1.00  0.00     0.293 HD
ENDBRANCH   2  22
BRANCH   6  24
ATOM     24  O   UNL     1      30.354  33.106 -15.571  1.00  0.00    -0.507 OA
ATOM     25  H   UNL     1      29.847  33.296 -16.423  1.00  0.00     0.293 HD
ENDBRANCH   6  24
BRANCH   8  26
ATOM     26  O   UNL     1      34.581  34.196 -17.574  1.00  0.00    -0.508 OA
ATOM     27  H   UNL     1      35.345  33.689 -18.006  1.00  0.00     0.293 HD
ENDBRANCH   8  26
TORSDOF 6
ENDMDL
MODEL 8
REMARK VINA RESULT:    -5.540     11.359     13.590
REMARK INTER + INTRA:          -6.902
REMARK INTER:                  -6.642
REMARK INTRA:                  -0.261
REMARK UNBOUND:                -0.229
REMARK SMILES O=c1c(O)c(-c2ccc(O)c(O)c2)oc2cc(O)cc(O)c12
REMARK SMILES IDX 5 1 3 2 2 3 1 4 22 5 20 6 19 7 17 8 16 9 15 10 14 11 6 12
REMARK SMILES IDX 7 13 8 14 9 15 13 16 11 17 10 18 12 20 4 22 21 24 18 26
REMARK H PARENT 10 19 12 21 4 23 21 25 18 27
REMARK Flexibility Score: inf
ROOT
ATOM      1  C   UNL     1      27.915  22.176 -12.399  1.00  0.00     0.180 A 
ATOM      2  C   UNL     1      26.851  22.706 -11.649  1.00  0.00     0.208 A 
ATOM      3  C   UNL     1      25.742  23.241 -12.325  1.00  0.00     0.238 A 
ATOM      4  O   UNL     1      24.769  23.665 -11.648  1.00  0.00    -0.285 OA
ATOM      5  C   UNL     1      25.719  23.255 -13.740  1.00  0.00     0.111 A 
ATOM      6  C   UNL     1      24.665  23.809 -14.528  1.00  0.00     0.134 A 
ATOM      7  C   UNL     1      24.687  23.650 -15.918  1.00  0.00     0.093 A 
ATOM      8  C   UNL     1      25.757  23.015 -16.555  1.00  0.00     0.123 A 
ATOM      9  C   UNL     1      26.818  22.524 -15.799  1.00  0.00     0.094 A 
ATOM     10  C   UNL     1      26.807  22.635 -14.406  1.00  0.00     0.146 A 
ATOM     11  O   UNL     1      27.834  22.144 -13.723  1.00  0.00    -0.452 OA
ENDROOT
BRANCH   1  12
ATOM     12  C   UNL     1      29.128  21.616 -11.757  1.00  0.00     0.025 A 
ATOM     13  C   UNL     1      29.365  20.236 -11.819  1.00  0.00     0.016 A 
ATOM     14  C   UNL     1      30.512  19.691 -11.238  1.00  0.00     0.051 A 
ATOM     15  C   UNL     1      31.450  20.511 -10.602  1.00  0.00     0.157 A 
ATOM     16  C   UNL     1      30.079  22.446 -11.140  1.00  0.00     0.062 A 
ATOM     17  C   UNL     1      31.234  21.909 -10.558  1.00  0.00     0.158 A 
BRANCH  15  18
ATOM     18  O   UNL     1      32.572  19.902 -10.036  1.00  0.00    -0.504 OA
ATOM     19  H   UNL     1      32.809  19.955  -9.055  1.00  0.00     0.293 HD
ENDBRANCH  15  18
BRANCH  17  20
ATOM     20  O   UNL     1      32.134  22.793  -9.959  1.00  0.00    -0.504 OA
ATOM     21  H   UNL     1      32.131  23.019  -8.976  1.00  0.00     0.293 HD
ENDBRANCH  17  20
ENDBRANCH   1  12
BRANCH   2  22
ATOM     22  O   UNL     1      26.884  22.663 -10.252  1.00  0.00    -0.502 OA
ATOM     23  H   UNL     1      26.044  22.690  -9.687  1.00  0.00     0.293 HD
ENDBRANCH   2  22
BRANCH   6  24
ATOM     24  O   UNL     1      23.599  24.542 -13.999  1.00  0.00    -0.507 OA
ATOM     25  H   UNL     1      22.720  24.699 -14.470  1.00  0.00     0.293 HD
ENDBRANCH   6  24
BRANCH   8  26
ATOM     26  O   UNL     1      25.777  22.875 -17.941  1.00  0.00    -0.508 OA
ATOM     27  H   UNL     1      26.017  23.650 -18.548  1.00  0.00     0.293 HD
ENDBRANCH   8  26
TORSDOF 6
ENDMDL
MODEL 9
REMARK VINA RESULT:    -5.469     10.150     12.225
REMARK INTER + INTRA:          -6.816
REMARK INTER:                  -6.489
REMARK INTRA:                  -0.328
REMARK UNBOUND:                -0.229
REMARK SMILES O=c1c(O)c(-c2ccc(O)c(O)c2)oc2cc(O)cc(O)c12
REMARK SMILES IDX 5 1 3 2 2 3 1 4 22 5 20 6 19 7 17 8 16 9 15 10 14 11 6 12
REMARK SMILES IDX 7 13 8 14 9 15 13 16 11 17 10 18 12 20 4 22 21 24 18 26
REMARK H PARENT 10 19 12 21 4 23 21 25 18 27
REMARK Flexibility Score: inf
ROOT
ATOM      1  C   UNL     1      27.696  20.170 -14.317  1.00  0.00     0.180 A 
ATOM      2  C   UNL     1      28.153  20.526 -15.598  1.00  0.00     0.208 A 
ATOM      3  C   UNL     1      27.235  21.031 -16.532  1.00  0.00     0.238 A 
ATOM      4  O   UNL     1      27.659  21.399 -17.659  1.00  0.00    -0.285 OA
ATOM      5  C   UNL     1      25.869  21.158 -16.180  1.00  0.00     0.111 A 
ATOM      6  C   UNL     1      24.845  21.620 -17.061  1.00  0.00     0.134 A 
ATOM      7  C   UNL     1      23.553  21.829 -16.567  1.00  0.00     0.093 A 
ATOM      8  C   UNL     1      23.231  21.531 -15.240  1.00  0.00     0.123 A 
ATOM      9  C   UNL     1      24.210  21.024 -14.389  1.00  0.00     0.094 A 
ATOM     10  C   UNL     1      25.518  20.838 -14.844  1.00  0.00     0.146 A 
ATOM     11  O   UNL     1      26.422  20.363 -13.997  1.00  0.00    -0.452 OA
ENDROOT
BRANCH   1  12
ATOM     12  C   UNL     1      28.600  19.608 -13.287  1.00  0.00     0.025 A 
ATOM     13  C   UNL     1      29.252  20.472 -12.396  1.00  0.00     0.016 A 
ATOM     14  C   UNL     1      30.092  19.962 -11.405  1.00  0.00     0.051 A 
ATOM     15  C   UNL     1      30.285  18.582 -11.273  1.00  0.00     0.157 A 
ATOM     16  C   UNL     1      28.773  18.221 -13.142  1.00  0.00     0.062 A 
ATOM     17  C   UNL     1      29.611  17.700 -12.148  1.00  0.00     0.158 A 
BRANCH  15  18
ATOM     18  O   UNL     1      31.144  18.138 -10.265  1.00  0.00    -0.504 OA
ATOM     19  H   UNL     1      30.984  18.291  -9.279  1.00  0.00     0.293 HD
ENDBRANCH  15  18
BRANCH  17  20
ATOM     20  O   UNL     1      29.738  16.311 -12.065  1.00  0.00    -0.504 OA
ATOM     21  H   UNL     1      29.925  15.714 -12.857  1.00  0.00     0.293 HD
ENDBRANCH  17  20
ENDBRANCH   1  12
BRANCH   2  22
ATOM     22  O   UNL     1      29.509  20.413 -15.917  1.00  0.00    -0.502 OA
ATOM     23  H   UNL     1      29.880  20.687 -16.820  1.00  0.00     0.293 HD
ENDBRANCH   2  22
BRANCH   6  24
ATOM     24  O   UNL     1      25.038  21.859 -18.425  1.00  0.00    -0.507 OA
ATOM     25  H   UNL     1      25.426  22.707 -18.811  1.00  0.00     0.293 HD
ENDBRANCH   6  24
BRANCH   8  26
ATOM     26  O   UNL     1      21.938  21.728 -14.760  1.00  0.00    -0.508 OA
ATOM     27  H   UNL     1      21.767  22.057 -13.817  1.00  0.00     0.293 HD
ENDBRANCH   8  26
TORSDOF 6
ENDMDL
