MODEL 1
REMARK VINA RESULT:    -6.194      0.000      0.000
REMARK INTER + INTRA:         -16.416
REMARK INTER:                 -13.436
REMARK INTRA:                  -2.980
REMARK UNBOUND:                -2.980
REMARK SMILES CCCCCCCCCCCCCCCCCCCCCC(=O)[O-]
REMARK SMILES IDX 12 1 11 2 10 3 9 4 8 5 7 6 6 7 5 8 4 9 3 10 2 11 1 12 13 13
REMARK SMILES IDX 14 14 15 15 16 16 17 17 18 18 19 19 20 20 21 21 22 22 23 23
REMARK SMILES IDX 24 24
REMARK H PARENT
REMARK Flexibility Score: inf
ROOT
ATOM      1  C   UNL     1      14.584   1.547  15.630  1.00  0.00     0.000 C 
ENDROOT
BRANCH   1   2
ATOM      2  C   UNL     1      13.121   1.755  16.059  1.00  0.00     0.000 C 
BRANCH   2   3
ATOM      3  C   UNL     1      12.984   2.754  17.220  1.00  0.00     0.000 C 
BRANCH   3   4
ATOM      4  C   UNL     1      13.623   2.242  18.520  1.00  0.00    -0.000 C 
BRANCH   4   5
ATOM      5  C   UNL     1      13.189   0.801  18.815  1.00  0.00    -0.000 C 
BRANCH   5   6
ATOM      6  C   UNL     1      14.202   0.095  19.729  1.00  0.00    -0.000 C 
BRANCH   6   7
ATOM      7  C   UNL     1      13.898  -1.401  19.908  1.00  0.00    -0.000 C 
BRANCH   7   8
ATOM      8  C   UNL     1      13.413  -2.068  18.612  1.00  0.00    -0.000 C 
BRANCH   8   9
ATOM      9  C   UNL     1      14.440  -3.092  18.105  1.00  0.00    -0.000 C 
BRANCH   9  10
ATOM     10  C   UNL     1      15.619  -2.441  17.357  1.00  0.00    -0.000 C 
BRANCH  10  11
ATOM     11  C   UNL     1      16.948  -2.420  18.134  1.00  0.00    -0.003 C 
ATOM     12  C   UNL     1      17.387  -1.012  18.531  1.00  0.00     0.004 C 
ENDBRANCH  10  11
ENDBRANCH   9  10
ENDBRANCH   8   9
ENDBRANCH   7   8
ENDBRANCH   6   7
ENDBRANCH   5   6
ENDBRANCH   4   5
ENDBRANCH   3   4
ENDBRANCH   2   3
ENDBRANCH   1   2
BRANCH   1  13
ATOM     13  C   UNL     1      14.821   0.170  14.989  1.00  0.00     0.000 C 
BRANCH  13  14
ATOM     14  C   UNL     1      14.625   0.186  13.462  1.00  0.00     0.000 C 
BRANCH  14  15
ATOM     15  C   UNL     1      15.103   1.506  12.819  1.00  0.00     0.000 C 
BRANCH  15  16
ATOM     16  C   UNL     1      16.183   1.313  11.737  1.00  0.00     0.000 C 
BRANCH  16  17
ATOM     17  C   UNL     1      16.097  -0.018  10.967  1.00  0.00     0.000 C 
BRANCH  17  18
ATOM     18  C   UNL     1      17.335  -0.931  11.097  1.00  0.00     0.000 C 
BRANCH  18  19
ATOM     19  C   UNL     1      18.107  -0.796  12.421  1.00  0.00     0.000 C 
BRANCH  19  20
ATOM     20  C   UNL     1      17.721  -1.869  13.453  1.00  0.00     0.006 C 
BRANCH  20  21
ATOM     21  C   UNL     1      18.145  -1.482  14.876  1.00  0.00     0.053 C 
BRANCH  21  22
ATOM     22  C   UNL     1      19.420  -2.155  15.279  1.00  0.00     0.041 C 
ATOM     23  O   UNL     1      20.355  -1.485  15.791  1.00  0.00    -0.550 OA
ATOM     24  O   UNL     1      19.591  -3.515  15.056  1.00  0.00    -0.550 OA
ENDBRANCH  21  22
ENDBRANCH  20  21
ENDBRANCH  19  20
ENDBRANCH  18  19
ENDBRANCH  17  18
ENDBRANCH  16  17
ENDBRANCH  15  16
ENDBRANCH  14  15
ENDBRANCH  13  14
ENDBRANCH   1  13
TORSDOF 20
ENDMDL
MODEL 2
REMARK VINA RESULT:    -6.113      1.060      3.059
REMARK INTER + INTRA:         -16.241
REMARK INTER:                 -13.111
REMARK INTRA:                  -3.130
REMARK UNBOUND:                -2.980
REMARK SMILES CCCCCCCCCCCCCCCCCCCCCC(=O)[O-]
REMARK SMILES IDX 12 1 11 2 10 3 9 4 8 5 7 6 6 7 5 8 4 9 3 10 2 11 1 12 13 13
REMARK SMILES IDX 14 14 15 15 16 16 17 17 18 18 19 19 20 20 21 21 22 22 23 23
REMARK SMILES IDX 24 24
REMARK H PARENT
REMARK Flexibility Score: inf
ROOT
ATOM      1  C   UNL     1      15.922   0.345  15.816  1.00  0.00     0.000 C 
ENDROOT
BRANCH   1   2
ATOM      2  C   UNL     1      15.218  -1.002  15.579  1.00  0.00     0.000 C 
BRANCH   2   3
ATOM      3  C   UNL     1      16.071  -2.200  16.030  1.00  0.00     0.000 C 
BRANCH   3   4
ATOM      4  C   UNL     1      15.412  -3.003  17.163  1.00  0.00    -0.000 C 
BRANCH   4   5
ATOM      5  C   UNL     1      16.240  -2.916  18.451  1.00  0.00    -0.000 C 
BRANCH   5   6
ATOM      6  C   UNL     1      16.860  -1.519  18.615  1.00  0.00    -0.000 C 
BRANCH   6   7
ATOM      7  C   UNL     1      16.195  -0.703  19.735  1.00  0.00    -0.000 C 
BRANCH   7   8
ATOM      8  C   UNL     1      14.887  -1.335  20.234  1.00  0.00    -0.000 C 
BRANCH   8   9
ATOM      9  C   UNL     1      13.694  -0.403  19.975  1.00  0.00    -0.000 C 
BRANCH   9  10
ATOM     10  C   UNL     1      13.332  -0.292  18.482  1.00  0.00    -0.000 C 
BRANCH  10  11
ATOM     11  C   UNL     1      12.973   1.127  18.004  1.00  0.00    -0.003 C 
ATOM     12  C   UNL     1      13.737   2.220  18.748  1.00  0.00     0.004 C 
ENDBRANCH  10  11
ENDBRANCH   9  10
ENDBRANCH   8   9
ENDBRANCH   7   8
ENDBRANCH   6   7
ENDBRANCH   5   6
ENDBRANCH   4   5
ENDBRANCH   3   4
ENDBRANCH   2   3
ENDBRANCH   1   2
BRANCH   1  13
ATOM     13  C   UNL     1      15.151   1.528  15.211  1.00  0.00     0.000 C 
BRANCH  13  14
ATOM     14  C   UNL     1      14.434   1.160  13.899  1.00  0.00     0.000 C 
BRANCH  14  15
ATOM     15  C   UNL     1      15.211   1.629  12.650  1.00  0.00     0.000 C 
BRANCH  15  16
ATOM     16  C   UNL     1      15.441   0.517  11.608  1.00  0.00     0.000 C 
BRANCH  16  17
ATOM     17  C   UNL     1      16.889   0.401  11.095  1.00  0.00     0.000 C 
BRANCH  17  18
ATOM     18  C   UNL     1      17.869  -0.306  12.055  1.00  0.00     0.000 C 
BRANCH  18  19
ATOM     19  C   UNL     1      17.396  -1.673  12.579  1.00  0.00     0.000 C 
BRANCH  19  20
ATOM     20  C   UNL     1      18.435  -2.363  13.479  1.00  0.00     0.006 C 
BRANCH  20  21
ATOM     21  C   UNL     1      18.945  -1.436  14.591  1.00  0.00     0.053 C 
BRANCH  21  22
ATOM     22  C   UNL     1      19.904  -2.137  15.503  1.00  0.00     0.041 C 
ATOM     23  O   UNL     1      19.822  -3.382  15.670  1.00  0.00    -0.550 OA
ATOM     24  O   UNL     1      20.864  -1.412  16.196  1.00  0.00    -0.550 OA
ENDBRANCH  21  22
ENDBRANCH  20  21
ENDBRANCH  19  20
ENDBRANCH  18  19
ENDBRANCH  17  18
ENDBRANCH  16  17
ENDBRANCH  15  16
ENDBRANCH  14  15
ENDBRANCH  13  14
ENDBRANCH   1  13
TORSDOF 20
ENDMDL
MODEL 3
REMARK VINA RESULT:    -6.065      1.443      6.314
REMARK INTER + INTRA:         -16.137
REMARK INTER:                 -13.592
REMARK INTRA:                  -2.545
REMARK UNBOUND:                -2.980
REMARK SMILES CCCCCCCCCCCCCCCCCCCCCC(=O)[O-]
REMARK SMILES IDX 12 1 11 2 10 3 9 4 8 5 7 6 6 7 5 8 4 9 3 10 2 11 1 12 13 13
REMARK SMILES IDX 14 14 15 15 16 16 17 17 18 18 19 19 20 20 21 21 22 22 23 23
REMARK SMILES IDX 24 24
REMARK H PARENT
REMARK Flexibility Score: inf
ROOT
ATOM      1  C   UNL     1      13.776   2.627  17.210  1.00  0.00     0.000 C 
ENDROOT
BRANCH   1   2
ATOM      2  C   UNL     1      15.077   1.923  16.788  1.00  0.00     0.000 C 
BRANCH   2   3
ATOM      3  C   UNL     1      15.159   1.698  15.269  1.00  0.00     0.000 C 
BRANCH   3   4
ATOM      4  C   UNL     1      14.069   0.746  14.751  1.00  0.00    -0.000 C 
BRANCH   4   5
ATOM      5  C   UNL     1      14.454   0.162  13.386  1.00  0.00    -0.000 C 
BRANCH   5   6
ATOM      6  C   UNL     1      15.220   1.191  12.541  1.00  0.00    -0.000 C 
BRANCH   6   7
ATOM      7  C   UNL     1      15.695   0.619  11.196  1.00  0.00    -0.000 C 
BRANCH   7   8
ATOM      8  C   UNL     1      17.182   0.234  11.206  1.00  0.00    -0.000 C 
BRANCH   8   9
ATOM      9  C   UNL     1      17.371  -1.234  10.798  1.00  0.00    -0.000 C 
BRANCH   9  10
ATOM     10  C   UNL     1      17.432  -1.430   9.271  1.00  0.00    -0.000 C 
BRANCH  10  11
ATOM     11  C   UNL     1      18.150  -0.308   8.501  1.00  0.00    -0.003 C 
ATOM     12  C   UNL     1      19.201  -0.829   7.523  1.00  0.00     0.004 C 
ENDBRANCH  10  11
ENDBRANCH   9  10
ENDBRANCH   8   9
ENDBRANCH   7   8
ENDBRANCH   6   7
ENDBRANCH   5   6
ENDBRANCH   4   5
ENDBRANCH   3   4
ENDBRANCH   2   3
ENDBRANCH   1   2
BRANCH   1  13
ATOM     13  C   UNL     1      13.175   2.035  18.495  1.00  0.00     0.000 C 
BRANCH  13  14
ATOM     14  C   UNL     1      14.019   0.882  19.068  1.00  0.00     0.000 C 
BRANCH  14  15
ATOM     15  C   UNL     1      13.407  -0.503  18.767  1.00  0.00     0.000 C 
BRANCH  15  16
ATOM     16  C   UNL     1      14.370  -1.677  19.027  1.00  0.00     0.000 C 
BRANCH  16  17
ATOM     17  C   UNL     1      15.860  -1.289  19.092  1.00  0.00     0.000 C 
BRANCH  17  18
ATOM     18  C   UNL     1      16.796  -2.135  18.203  1.00  0.00     0.000 C 
BRANCH  18  19
ATOM     19  C   UNL     1      16.113  -2.824  17.009  1.00  0.00     0.000 C 
BRANCH  19  20
ATOM     20  C   UNL     1      16.293  -2.055  15.689  1.00  0.00     0.006 C 
BRANCH  20  21
ATOM     21  C   UNL     1      17.496  -1.102  15.734  1.00  0.00     0.053 C 
BRANCH  21  22
ATOM     22  C   UNL     1      18.699  -1.694  15.066  1.00  0.00     0.041 C 
ATOM     23  O   UNL     1      19.847  -1.503  15.545  1.00  0.00    -0.550 OA
ATOM     24  O   UNL     1      18.556  -2.428  13.895  1.00  0.00    -0.550 OA
ENDBRANCH  21  22
ENDBRANCH  20  21
ENDBRANCH  19  20
ENDBRANCH  18  19
ENDBRANCH  17  18
ENDBRANCH  16  17
ENDBRANCH  15  16
ENDBRANCH  14  15
ENDBRANCH  13  14
ENDBRANCH   1  13
TORSDOF 20
ENDMDL
MODEL 4
REMARK VINA RESULT:    -6.036      3.162      5.285
REMARK INTER + INTRA:         -16.074
REMARK INTER:                 -13.649
REMARK INTRA:                  -2.425
REMARK UNBOUND:                -2.980
REMARK SMILES CCCCCCCCCCCCCCCCCCCCCC(=O)[O-]
REMARK SMILES IDX 12 1 11 2 10 3 9 4 8 5 7 6 6 7 5 8 4 9 3 10 2 11 1 12 13 13
REMARK SMILES IDX 14 14 15 15 16 16 17 17 18 18 19 19 20 20 21 21 22 22 23 23
REMARK SMILES IDX 24 24
REMARK H PARENT
REMARK Flexibility Score: inf
ROOT
ATOM      1  C   UNL     1      15.694  -2.860  17.353  1.00  0.00     0.000 C 
ENDROOT
BRANCH   1   2
ATOM      2  C   UNL     1      16.063  -2.880  18.846  1.00  0.00     0.000 C 
BRANCH   2   3
ATOM      3  C   UNL     1      15.113  -2.023  19.699  1.00  0.00     0.000 C 
BRANCH   3   4
ATOM      4  C   UNL     1      15.613  -0.581  19.877  1.00  0.00    -0.000 C 
BRANCH   4   5
ATOM      5  C   UNL     1      14.458   0.421  19.749  1.00  0.00    -0.000 C 
BRANCH   5   6
ATOM      6  C   UNL     1      13.412  -0.069  18.736  1.00  0.00    -0.000 C 
BRANCH   6   7
ATOM      7  C   UNL     1      13.329   0.827  17.489  1.00  0.00    -0.000 C 
BRANCH   7   8
ATOM      8  C   UNL     1      14.652   1.544  17.184  1.00  0.00    -0.000 C 
BRANCH   8   9
ATOM      9  C   UNL     1      14.836   1.733  15.671  1.00  0.00    -0.000 C 
BRANCH   9  10
ATOM     10  C   UNL     1      13.896   0.845  14.835  1.00  0.00    -0.000 C 
BRANCH  10  11
ATOM     11  C   UNL     1      14.377   0.560  13.400  1.00  0.00    -0.003 C 
ATOM     12  C   UNL     1      15.385   1.588  12.892  1.00  0.00     0.004 C 
ENDBRANCH  10  11
ENDBRANCH   9  10
ENDBRANCH   8   9
ENDBRANCH   7   8
ENDBRANCH   6   7
ENDBRANCH   5   6
ENDBRANCH   4   5
ENDBRANCH   3   4
ENDBRANCH   2   3
ENDBRANCH   1   2
BRANCH   1  13
ATOM     13  C   UNL     1      16.251  -1.627  16.624  1.00  0.00     0.000 C 
BRANCH  13  14
ATOM     14  C   UNL     1      16.417  -1.857  15.111  1.00  0.00     0.000 C 
BRANCH  14  15
ATOM     15  C   UNL     1      17.805  -1.417  14.596  1.00  0.00     0.000 C 
BRANCH  15  16
ATOM     16  C   UNL     1      18.108  -1.877  13.157  1.00  0.00     0.000 C 
BRANCH  16  17
ATOM     17  C   UNL     1      17.965  -0.781  12.084  1.00  0.00     0.000 C 
BRANCH  17  18
ATOM     18  C   UNL     1      17.229  -1.216  10.798  1.00  0.00     0.000 C 
BRANCH  18  19
ATOM     19  C   UNL     1      17.411  -0.275   9.594  1.00  0.00     0.000 C 
BRANCH  19  20
ATOM     20  C   UNL     1      18.158  -0.936   8.424  1.00  0.00     0.006 C 
BRANCH  20  21
ATOM     21  C   UNL     1      18.347   0.024   7.241  1.00  0.00     0.053 C 
BRANCH  21  22
ATOM     22  C   UNL     1      19.788   0.148   6.851  1.00  0.00     0.041 C 
ATOM     23  O   UNL     1      20.248   1.256   6.472  1.00  0.00    -0.550 OA
ATOM     24  O   UNL     1      20.614  -0.968   6.871  1.00  0.00    -0.550 OA
ENDBRANCH  21  22
ENDBRANCH  20  21
ENDBRANCH  19  20
ENDBRANCH  18  19
ENDBRANCH  17  18
ENDBRANCH  16  17
ENDBRANCH  15  16
ENDBRANCH  14  15
ENDBRANCH  13  14
ENDBRANCH   1  13
TORSDOF 20
ENDMDL
MODEL 5
REMARK VINA RESULT:    -5.971      3.015      4.291
REMARK INTER + INTRA:         -15.932
REMARK INTER:                 -13.231
REMARK INTRA:                  -2.701
REMARK UNBOUND:                -2.980
REMARK SMILES CCCCCCCCCCCCCCCCCCCCCC(=O)[O-]
REMARK SMILES IDX 12 1 11 2 10 3 9 4 8 5 7 6 6 7 5 8 4 9 3 10 2 11 1 12 13 13
REMARK SMILES IDX 14 14 15 15 16 16 17 17 18 18 19 19 20 20 21 21 22 22 23 23
REMARK SMILES IDX 24 24
REMARK H PARENT
REMARK Flexibility Score: inf
ROOT
ATOM      1  C   UNL     1      14.634   1.637  17.433  1.00  0.00     0.000 C 
ENDROOT
BRANCH   1   2
ATOM      2  C   UNL     1      13.308   0.911  17.715  1.00  0.00     0.000 C 
BRANCH   2   3
ATOM      3  C   UNL     1      13.388  -0.003  18.949  1.00  0.00     0.000 C 
BRANCH   3   4
ATOM      4  C   UNL     1      14.570   0.343  19.867  1.00  0.00    -0.000 C 
BRANCH   4   5
ATOM      5  C   UNL     1      15.515  -0.856  20.022  1.00  0.00    -0.000 C 
BRANCH   5   6
ATOM      6  C   UNL     1      16.549  -0.895  18.887  1.00  0.00    -0.000 C 
BRANCH   6   7
ATOM      7  C   UNL     1      16.420  -2.151  18.010  1.00  0.00    -0.000 C 
BRANCH   7   8
ATOM      8  C   UNL     1      15.520  -1.930  16.785  1.00  0.00    -0.000 C 
BRANCH   8   9
ATOM      9  C   UNL     1      16.317  -2.091  15.482  1.00  0.00    -0.000 C 
BRANCH   9  10
ATOM     10  C   UNL     1      17.470  -1.079  15.354  1.00  0.00    -0.000 C 
BRANCH  10  11
ATOM     11  C   UNL     1      18.730  -1.615  14.651  1.00  0.00    -0.003 C 
ATOM     12  C   UNL     1      19.510  -2.617  15.500  1.00  0.00     0.004 C 
ENDBRANCH  10  11
ENDBRANCH   9  10
ENDBRANCH   8   9
ENDBRANCH   7   8
ENDBRANCH   6   7
ENDBRANCH   5   6
ENDBRANCH   4   5
ENDBRANCH   3   4
ENDBRANCH   2   3
ENDBRANCH   1   2
BRANCH   1  13
ATOM     13  C   UNL     1      15.005   1.632  15.941  1.00  0.00     0.000 C 
BRANCH  13  14
ATOM     14  C   UNL     1      13.853   1.140  15.046  1.00  0.00     0.000 C 
BRANCH  14  15
ATOM     15  C   UNL     1      14.358   0.457  13.756  1.00  0.00     0.000 C 
BRANCH  15  16
ATOM     16  C   UNL     1      15.272   1.352  12.897  1.00  0.00     0.000 C 
BRANCH  16  17
ATOM     17  C   UNL     1      16.473   0.627  12.259  1.00  0.00     0.000 C 
BRANCH  17  18
ATOM     18  C   UNL     1      16.195  -0.015  10.884  1.00  0.00     0.000 C 
BRANCH  18  19
ATOM     19  C   UNL     1      17.371  -0.808  10.286  1.00  0.00     0.000 C 
BRANCH  19  20
ATOM     20  C   UNL     1      17.988  -0.127   9.052  1.00  0.00     0.006 C 
BRANCH  20  21
ATOM     21  C   UNL     1      18.530  -1.144   8.039  1.00  0.00     0.053 C 
BRANCH  21  22
ATOM     22  C   UNL     1      19.546  -0.532   7.126  1.00  0.00     0.041 C 
ATOM     23  O   UNL     1      20.509  -1.221   6.697  1.00  0.00    -0.550 OA
ATOM     24  O   UNL     1      19.451   0.809   6.776  1.00  0.00    -0.550 OA
ENDBRANCH  21  22
ENDBRANCH  20  21
ENDBRANCH  19  20
ENDBRANCH  18  19
ENDBRANCH  17  18
ENDBRANCH  16  17
ENDBRANCH  15  16
ENDBRANCH  14  15
ENDBRANCH  13  14
ENDBRANCH   1  13
TORSDOF 20
ENDMDL
MODEL 6
REMARK VINA RESULT:    -5.911      3.045      5.065
REMARK INTER + INTRA:         -15.803
REMARK INTER:                 -13.579
REMARK INTRA:                  -2.224
REMARK UNBOUND:                -2.980
REMARK SMILES CCCCCCCCCCCCCCCCCCCCCC(=O)[O-]
REMARK SMILES IDX 12 1 11 2 10 3 9 4 8 5 7 6 6 7 5 8 4 9 3 10 2 11 1 12 13 13
REMARK SMILES IDX 14 14 15 15 16 16 17 17 18 18 19 19 20 20 21 21 22 22 23 23
REMARK SMILES IDX 24 24
REMARK H PARENT
REMARK Flexibility Score: inf
ROOT
ATOM      1  C   UNL     1      17.030  -0.592  15.660  1.00  0.00     0.000 C 
ENDROOT
BRANCH   1   2
ATOM      2  C   UNL     1      17.657  -1.850  15.037  1.00  0.00     0.000 C 
BRANCH   2   3
ATOM      3  C   UNL     1      18.134  -2.857  16.097  1.00  0.00     0.000 C 
BRANCH   3   4
ATOM      4  C   UNL     1      16.969  -3.564  16.808  1.00  0.00    -0.000 C 
BRANCH   4   5
ATOM      5  C   UNL     1      16.926  -3.191  18.295  1.00  0.00    -0.000 C 
BRANCH   5   6
ATOM      6  C   UNL     1      15.570  -2.575  18.671  1.00  0.00    -0.000 C 
BRANCH   6   7
ATOM      7  C   UNL     1      15.682  -1.532  19.794  1.00  0.00    -0.000 C 
BRANCH   7   8
ATOM      8  C   UNL     1      14.319  -0.962  20.215  1.00  0.00    -0.000 C 
BRANCH   8   9
ATOM      9  C   UNL     1      14.269   0.557  19.996  1.00  0.00    -0.000 C 
BRANCH   9  10
ATOM     10  C   UNL     1      14.477   0.959  18.524  1.00  0.00    -0.000 C 
BRANCH  10  11
ATOM     11  C   UNL     1      13.183   1.125  17.706  1.00  0.00    -0.003 C 
ATOM     12  C   UNL     1      13.000   2.536  17.154  1.00  0.00     0.004 C 
ENDBRANCH  10  11
ENDBRANCH   9  10
ENDBRANCH   8   9
ENDBRANCH   7   8
ENDBRANCH   6   7
ENDBRANCH   5   6
ENDBRANCH   4   5
ENDBRANCH   3   4
ENDBRANCH   2   3
ENDBRANCH   1   2
BRANCH   1  13
ATOM     13  C   UNL     1      15.588  -0.353  15.183  1.00  0.00     0.000 C 
BRANCH  13  14
ATOM     14  C   UNL     1      15.461   0.882  14.274  1.00  0.00     0.000 C 
BRANCH  14  15
ATOM     15  C   UNL     1      14.767   0.560  12.932  1.00  0.00     0.000 C 
BRANCH  15  16
ATOM     16  C   UNL     1      15.547   1.049  11.697  1.00  0.00     0.000 C 
BRANCH  16  17
ATOM     17  C   UNL     1      17.027   0.622  11.655  1.00  0.00     0.000 C 
BRANCH  17  18
ATOM     18  C   UNL     1      17.267  -0.896  11.509  1.00  0.00     0.000 C 
BRANCH  18  19
ATOM     19  C   UNL     1      17.417  -1.394  10.061  1.00  0.00     0.000 C 
BRANCH  19  20
ATOM     20  C   UNL     1      17.947  -0.311   9.105  1.00  0.00     0.006 C 
BRANCH  20  21
ATOM     21  C   UNL     1      18.191  -0.857   7.691  1.00  0.00     0.053 C 
BRANCH  21  22
ATOM     22  C   UNL     1      19.467  -0.334   7.107  1.00  0.00     0.041 C 
ATOM     23  O   UNL     1      20.437  -1.111   6.908  1.00  0.00    -0.550 OA
ATOM     24  O   UNL     1      19.598   1.018   6.816  1.00  0.00    -0.550 OA
ENDBRANCH  21  22
ENDBRANCH  20  21
ENDBRANCH  19  20
ENDBRANCH  18  19
ENDBRANCH  17  18
ENDBRANCH  16  17
ENDBRANCH  15  16
ENDBRANCH  14  15
ENDBRANCH  13  14
ENDBRANCH   1  13
TORSDOF 20
ENDMDL
MODEL 7
REMARK VINA RESULT:    -5.771      1.480      6.051
REMARK INTER + INTRA:         -15.499
REMARK INTER:                 -13.054
REMARK INTRA:                  -2.445
REMARK UNBOUND:                -2.980
REMARK SMILES CCCCCCCCCCCCCCCCCCCCCC(=O)[O-]
REMARK SMILES IDX 12 1 11 2 10 3 9 4 8 5 7 6 6 7 5 8 4 9 3 10 2 11 1 12 13 13
REMARK SMILES IDX 14 14 15 15 16 16 17 17 18 18 19 19 20 20 21 21 22 22 23 23
REMARK SMILES IDX 24 24
REMARK H PARENT
REMARK Flexibility Score: inf
ROOT
ATOM      1  C   UNL     1      12.891   2.070  16.227  1.00  0.00     0.000 C 
ENDROOT
BRANCH   1   2
ATOM      2  C   UNL     1      13.706   0.875  15.703  1.00  0.00     0.000 C 
BRANCH   2   3
ATOM      3  C   UNL     1      15.034   1.306  15.059  1.00  0.00     0.000 C 
BRANCH   3   4
ATOM      4  C   UNL     1      14.866   1.758  13.600  1.00  0.00    -0.000 C 
BRANCH   4   5
ATOM      5  C   UNL     1      14.950   0.563  12.642  1.00  0.00    -0.000 C 
BRANCH   5   6
ATOM      6  C   UNL     1      15.701   0.938  11.355  1.00  0.00    -0.000 C 
BRANCH   6   7
ATOM      7  C   UNL     1      16.772  -0.094  10.971  1.00  0.00    -0.000 C 
BRANCH   7   8
ATOM      8  C   UNL     1      16.921  -1.213  12.013  1.00  0.00    -0.000 C 
BRANCH   8   9
ATOM      9  C   UNL     1      18.148  -0.972  12.904  1.00  0.00    -0.000 C 
BRANCH   9  10
ATOM     10  C   UNL     1      18.059  -1.699  14.259  1.00  0.00    -0.000 C 
BRANCH  10  11
ATOM     11  C   UNL     1      19.122  -2.789  14.482  1.00  0.00    -0.003 C 
ATOM     12  C   UNL     1      19.440  -3.024  15.958  1.00  0.00     0.004 C 
ENDBRANCH  10  11
ENDBRANCH   9  10
ENDBRANCH   8   9
ENDBRANCH   7   8
ENDBRANCH   6   7
ENDBRANCH   5   6
ENDBRANCH   4   5
ENDBRANCH   3   4
ENDBRANCH   2   3
ENDBRANCH   1   2
BRANCH   1  13
ATOM     13  C   UNL     1      12.941   2.193  17.758  1.00  0.00     0.000 C 
BRANCH  13  14
ATOM     14  C   UNL     1      14.189   1.529  18.366  1.00  0.00     0.000 C 
BRANCH  14  15
ATOM     15  C   UNL     1      14.003   1.176  19.858  1.00  0.00     0.000 C 
BRANCH  15  16
ATOM     16  C   UNL     1      14.676  -0.147  20.271  1.00  0.00     0.000 C 
BRANCH  16  17
ATOM     17  C   UNL     1      13.777  -1.393  20.160  1.00  0.00     0.000 C 
BRANCH  17  18
ATOM     18  C   UNL     1      13.325  -1.748  18.727  1.00  0.00     0.000 C 
BRANCH  18  19
ATOM     19  C   UNL     1      13.973  -3.011  18.134  1.00  0.00     0.000 C 
BRANCH  19  20
ATOM     20  C   UNL     1      15.504  -2.906  18.025  1.00  0.00     0.006 C 
BRANCH  20  21
ATOM     21  C   UNL     1      15.942  -1.734  17.136  1.00  0.00     0.053 C 
BRANCH  21  22
ATOM     22  C   UNL     1      17.045  -0.941  17.765  1.00  0.00     0.041 C 
ATOM     23  O   UNL     1      17.706  -1.424  18.722  1.00  0.00    -0.550 OA
ATOM     24  O   UNL     1      17.321   0.345  17.320  1.00  0.00    -0.550 OA
ENDBRANCH  21  22
ENDBRANCH  20  21
ENDBRANCH  19  20
ENDBRANCH  18  19
ENDBRANCH  17  18
ENDBRANCH  16  17
ENDBRANCH  15  16
ENDBRANCH  14  15
ENDBRANCH  13  14
ENDBRANCH   1  13
TORSDOF 20
ENDMDL
MODEL 8
REMARK VINA RESULT:    -5.714      2.256      5.004
REMARK INTER + INTRA:         -15.375
REMARK INTER:                 -12.844
REMARK INTRA:                  -2.531
REMARK UNBOUND:                -2.980
REMARK SMILES CCCCCCCCCCCCCCCCCCCCCC(=O)[O-]
REMARK SMILES IDX 12 1 11 2 10 3 9 4 8 5 7 6 6 7 5 8 4 9 3 10 2 11 1 12 13 13
REMARK SMILES IDX 14 14 15 15 16 16 17 17 18 18 19 19 20 20 21 21 22 22 23 23
REMARK SMILES IDX 24 24
REMARK H PARENT
REMARK Flexibility Score: inf
ROOT
ATOM      1  C   UNL     1      16.993  -0.368  18.335  1.00  0.00     0.000 C 
ENDROOT
BRANCH   1   2
ATOM      2  C   UNL     1      15.678  -1.075  18.702  1.00  0.00     0.000 C 
BRANCH   2   3
ATOM      3  C   UNL     1      14.774  -0.210  19.596  1.00  0.00     0.000 C 
BRANCH   3   4
ATOM      4  C   UNL     1      13.575   0.377  18.836  1.00  0.00    -0.000 C 
BRANCH   4   5
ATOM      5  C   UNL     1      13.771   1.876  18.574  1.00  0.00    -0.000 C 
BRANCH   5   6
ATOM      6  C   UNL     1      13.017   2.320  17.312  1.00  0.00    -0.000 C 
BRANCH   6   7
ATOM      7  C   UNL     1      13.184   1.335  16.144  1.00  0.00    -0.000 C 
BRANCH   7   8
ATOM      8  C   UNL     1      14.477   1.571  15.348  1.00  0.00    -0.000 C 
BRANCH   8   9
ATOM      9  C   UNL     1      14.383   0.939  13.951  1.00  0.00    -0.000 C 
BRANCH   9  10
ATOM     10  C   UNL     1      15.352   1.576  12.937  1.00  0.00    -0.000 C 
BRANCH  10  11
ATOM     11  C   UNL     1      15.516   0.798  11.619  1.00  0.00    -0.003 C 
ATOM     12  C   UNL     1      16.972   0.473  11.293  1.00  0.00     0.004 C 
ENDBRANCH  10  11
ENDBRANCH   9  10
ENDBRANCH   8   9
ENDBRANCH   7   8
ENDBRANCH   6   7
ENDBRANCH   5   6
ENDBRANCH   4   5
ENDBRANCH   3   4
ENDBRANCH   2   3
ENDBRANCH   1   2
BRANCH   1  13
ATOM     13  C   UNL     1      17.185  -0.231  16.816  1.00  0.00     0.000 C 
BRANCH  13  14
ATOM     14  C   UNL     1      16.764  -1.497  16.048  1.00  0.00     0.000 C 
BRANCH  14  15
ATOM     15  C   UNL     1      17.148  -1.438  14.554  1.00  0.00     0.000 C 
BRANCH  15  16
ATOM     16  C   UNL     1      18.533  -2.039  14.245  1.00  0.00     0.000 C 
BRANCH  16  17
ATOM     17  C   UNL     1      19.161  -2.844  15.399  1.00  0.00     0.000 C 
BRANCH  17  18
ATOM     18  C   UNL     1      20.490  -2.280  15.943  1.00  0.00     0.000 C 
BRANCH  18  19
ATOM     19  C   UNL     1      20.599  -0.745  15.932  1.00  0.00     0.000 C 
BRANCH  19  20
ATOM     20  C   UNL     1      22.007  -0.241  16.295  1.00  0.00     0.006 C 
BRANCH  20  21
ATOM     21  C   UNL     1      23.081  -1.314  16.073  1.00  0.00     0.053 C 
BRANCH  21  22
ATOM     22  C   UNL     1      24.357  -0.724  15.556  1.00  0.00     0.041 C 
ATOM     23  O   UNL     1      25.132  -1.417  14.846  1.00  0.00    -0.550 OA
ATOM     24  O   UNL     1      24.707   0.578  15.887  1.00  0.00    -0.550 OA
ENDBRANCH  21  22
ENDBRANCH  20  21
ENDBRANCH  19  20
ENDBRANCH  18  19
ENDBRANCH  17  18
ENDBRANCH  16  17
ENDBRANCH  15  16
ENDBRANCH  14  15
ENDBRANCH  13  14
ENDBRANCH   1  13
TORSDOF 20
ENDMDL
MODEL 9
REMARK VINA RESULT:    -5.669      2.579      7.699
REMARK INTER + INTRA:         -15.278
REMARK INTER:                 -13.263
REMARK INTRA:                  -2.015
REMARK UNBOUND:                -2.980
REMARK SMILES CCCCCCCCCCCCCCCCCCCCCC(=O)[O-]
REMARK SMILES IDX 12 1 11 2 10 3 9 4 8 5 7 6 6 7 5 8 4 9 3 10 2 11 1 12 13 13
REMARK SMILES IDX 14 14 15 15 16 16 17 17 18 18 19 19 20 20 21 21 22 22 23 23
REMARK SMILES IDX 24 24
REMARK H PARENT
REMARK Flexibility Score: inf
ROOT
ATOM      1  C   UNL     1      18.746  -2.885  15.450  1.00  0.00     0.000 C 
ENDROOT
BRANCH   1   2
ATOM      2  C   UNL     1      18.240  -1.439  15.309  1.00  0.00     0.000 C 
BRANCH   2   3
ATOM      3  C   UNL     1      17.079  -1.317  14.308  1.00  0.00     0.000 C 
BRANCH   3   4
ATOM      4  C   UNL     1      15.963  -0.386  14.806  1.00  0.00    -0.000 C 
BRANCH   4   5
ATOM      5  C   UNL     1      14.922  -0.142  13.706  1.00  0.00    -0.000 C 
BRANCH   5   6
ATOM      6  C   UNL     1      15.341   1.024  12.797  1.00  0.00    -0.000 C 
BRANCH   6   7
ATOM      7  C   UNL     1      15.561   0.589  11.339  1.00  0.00    -0.000 C 
BRANCH   7   8
ATOM      8  C   UNL     1      17.048   0.454  10.977  1.00  0.00    -0.000 C 
BRANCH   8   9
ATOM      9  C   UNL     1      17.416  -1.013  10.711  1.00  0.00    -0.000 C 
BRANCH   9  10
ATOM     10  C   UNL     1      17.416  -1.371   9.213  1.00  0.00    -0.000 C 
BRANCH  10  11
ATOM     11  C   UNL     1      18.175  -0.383   8.309  1.00  0.00    -0.003 C 
ATOM     12  C   UNL     1      19.318  -1.036   7.535  1.00  0.00     0.004 C 
ENDBRANCH  10  11
ENDBRANCH   9  10
ENDBRANCH   8   9
ENDBRANCH   7   8
ENDBRANCH   6   7
ENDBRANCH   5   6
ENDBRANCH   4   5
ENDBRANCH   3   4
ENDBRANCH   2   3
ENDBRANCH   1   2
BRANCH   1  13
ATOM     13  C   UNL     1      18.083  -3.631  16.619  1.00  0.00     0.000 C 
BRANCH  13  14
ATOM     14  C   UNL     1      17.309  -2.691  17.560  1.00  0.00     0.000 C 
BRANCH  14  15
ATOM     15  C   UNL     1      15.896  -3.218  17.890  1.00  0.00     0.000 C 
BRANCH  15  16
ATOM     16  C   UNL     1      14.786  -2.162  17.725  1.00  0.00     0.000 C 
BRANCH  16  17
ATOM     17  C   UNL     1      13.547  -2.382  18.615  1.00  0.00     0.000 C 
BRANCH  17  18
ATOM     18  C   UNL     1      13.445  -1.446  19.838  1.00  0.00     0.000 C 
BRANCH  18  19
ATOM     19  C   UNL     1      14.673  -0.550  20.077  1.00  0.00     0.000 C 
BRANCH  19  20
ATOM     20  C   UNL     1      14.370   0.947  19.889  1.00  0.00     0.006 C 
BRANCH  20  21
ATOM     21  C   UNL     1      13.406   1.200  18.723  1.00  0.00     0.053 C 
BRANCH  21  22
ATOM     22  C   UNL     1      13.982   2.154  17.722  1.00  0.00     0.041 C 
ATOM     23  O   UNL     1      13.320   3.159  17.353  1.00  0.00    -0.550 OA
ATOM     24  O   UNL     1      15.234   1.916  17.172  1.00  0.00    -0.550 OA
ENDBRANCH  21  22
ENDBRANCH  20  21
ENDBRANCH  19  20
ENDBRANCH  18  19
ENDBRANCH  17  18
ENDBRANCH  16  17
ENDBRANCH  15  16
ENDBRANCH  14  15
ENDBRANCH  13  14
ENDBRANCH   1  13
TORSDOF 20
ENDMDL
