MODEL 1
REMARK VINA RESULT:    -4.247      0.000      0.000
REMARK INTER + INTRA:          -4.616
REMARK INTER:                  -4.496
REMARK INTRA:                  -0.120
REMARK UNBOUND:                -0.120
REMARK SMILES C=C(C)[C@@H]1CC=C(C)CC1
REMARK SMILES IDX 8 1 7 2 6 3 5 4 4 5 10 6 9 7 2 8 1 9 3 10
REMARK H PARENT
REMARK Flexibility Score: inf
ROOT
ATOM      1  C   UNL     1     138.037 138.736 131.860  1.00  0.00     0.039 C 
ATOM      2  C   UNL     1     138.001 139.648 133.055  1.00  0.00    -0.077 C 
ATOM      3  C   UNL     1     138.393 139.171 134.256  1.00  0.00    -0.027 C 
ATOM      4  C   UNL     1     138.443 140.020 135.503  1.00  0.00     0.035 C 
ATOM      5  C   UNL     1     137.521 141.247 135.407  1.00  0.00     0.018 C 
ATOM      6  C   UNL     1     137.746 141.967 134.069  1.00  0.00     0.013 C 
ATOM      7  C   UNL     1     137.401 141.033 132.903  1.00  0.00     0.031 C 
ENDROOT
BRANCH   5   8
ATOM      8  C   UNL     1     137.723 142.187 136.589  1.00  0.00    -0.077 C 
ATOM      9  C   UNL     1     136.966 142.056 137.690  1.00  0.00     0.008 C 
ATOM     10  C   UNL     1     138.774 143.269 136.562  1.00  0.00     0.039 C 
ENDBRANCH   5   8
TORSDOF 1
ENDMDL
MODEL 2
REMARK VINA RESULT:    -4.242      3.807      5.020
REMARK INTER + INTRA:          -4.611
REMARK INTER:                  -4.483
REMARK INTRA:                  -0.128
REMARK UNBOUND:                -0.120
REMARK SMILES C=C(C)[C@@H]1CC=C(C)CC1
REMARK SMILES IDX 8 1 7 2 6 3 5 4 4 5 10 6 9 7 2 8 1 9 3 10
REMARK H PARENT
REMARK Flexibility Score: inf
ROOT
ATOM      1  C   UNL     1     143.477 137.936 131.865  1.00  0.00     0.039 C 
ATOM      2  C   UNL     1     142.545 137.942 133.044  1.00  0.00    -0.077 C 
ATOM      3  C   UNL     1     143.014 138.335 134.249  1.00  0.00    -0.027 C 
ATOM      4  C   UNL     1     142.146 138.426 135.480  1.00  0.00     0.035 C 
ATOM      5  C   UNL     1     140.894 137.539 135.375  1.00  0.00     0.018 C 
ATOM      6  C   UNL     1     140.203 137.768 134.022  1.00  0.00     0.013 C 
ATOM      7  C   UNL     1     141.146 137.381 132.876  1.00  0.00     0.031 C 
ENDROOT
BRANCH   5   8
ATOM      8  C   UNL     1     139.942 137.785 136.538  1.00  0.00    -0.077 C 
ATOM      9  C   UNL     1     138.978 138.714 136.435  1.00  0.00     0.008 C 
ATOM     10  C   UNL     1     140.045 136.993 137.819  1.00  0.00     0.039 C 
ENDBRANCH   5   8
TORSDOF 1
ENDMDL
MODEL 3
REMARK VINA RESULT:    -4.197      6.254      7.077
REMARK INTER + INTRA:          -4.563
REMARK INTER:                  -4.443
REMARK INTRA:                  -0.120
REMARK UNBOUND:                -0.120
REMARK SMILES C=C(C)[C@@H]1CC=C(C)CC1
REMARK SMILES IDX 8 1 7 2 6 3 5 4 4 5 10 6 9 7 2 8 1 9 3 10
REMARK H PARENT
REMARK Flexibility Score: inf
ROOT
ATOM      1  C   UNL     1     144.377 143.226 131.794  1.00  0.00     0.039 C 
ATOM      2  C   UNL     1     144.334 142.347 133.013  1.00  0.00    -0.077 C 
ATOM      3  C   UNL     1     143.947 142.881 134.192  1.00  0.00    -0.027 C 
ATOM      4  C   UNL     1     143.821 142.072 135.460  1.00  0.00     0.035 C 
ATOM      5  C   UNL     1     144.670 140.790 135.417  1.00  0.00     0.018 C 
ATOM      6  C   UNL     1     144.431 140.047 134.094  1.00  0.00     0.013 C 
ATOM      7  C   UNL     1     144.854 140.927 132.911  1.00  0.00     0.031 C 
ENDROOT
BRANCH   5   8
ATOM      8  C   UNL     1     144.388 139.898 136.619  1.00  0.00    -0.077 C 
ATOM      9  C   UNL     1     145.112 140.033 137.742  1.00  0.00     0.008 C 
ATOM     10  C   UNL     1     143.295 138.858 136.587  1.00  0.00     0.039 C 
ENDBRANCH   5   8
TORSDOF 1
ENDMDL
MODEL 4
REMARK VINA RESULT:    -4.189      3.988      5.115
REMARK INTER + INTRA:          -4.554
REMARK INTER:                  -4.434
REMARK INTRA:                  -0.120
REMARK UNBOUND:                -0.120
REMARK SMILES C=C(C)[C@@H]1CC=C(C)CC1
REMARK SMILES IDX 8 1 7 2 6 3 5 4 4 5 10 6 9 7 2 8 1 9 3 10
REMARK H PARENT
REMARK Flexibility Score: inf
ROOT
ATOM      1  C   UNL     1     138.945 144.391 131.715  1.00  0.00     0.039 C 
ATOM      2  C   UNL     1     139.806 144.360 132.947  1.00  0.00    -0.077 C 
ATOM      3  C   UNL     1     139.254 143.990 134.123  1.00  0.00    -0.027 C 
ATOM      4  C   UNL     1     140.045 143.877 135.404  1.00  0.00     0.035 C 
ATOM      5  C   UNL     1     141.331 144.719 135.369  1.00  0.00     0.018 C 
ATOM      6  C   UNL     1     142.091 144.459 134.060  1.00  0.00     0.013 C 
ATOM      7  C   UNL     1     141.231 144.871 132.859  1.00  0.00     0.031 C 
ENDROOT
BRANCH   5   8
ATOM      8  C   UNL     1     142.204 144.448 136.587  1.00  0.00    -0.077 C 
ATOM      9  C   UNL     1     142.057 145.186 137.699  1.00  0.00     0.008 C 
ATOM     10  C   UNL     1     143.239 143.350 136.584  1.00  0.00     0.039 C 
ENDBRANCH   5   8
TORSDOF 1
ENDMDL
MODEL 5
REMARK VINA RESULT:    -4.169      3.513      4.852
REMARK INTER + INTRA:          -4.533
REMARK INTER:                  -4.405
REMARK INTRA:                  -0.127
REMARK UNBOUND:                -0.120
REMARK SMILES C=C(C)[C@@H]1CC=C(C)CC1
REMARK SMILES IDX 8 1 7 2 6 3 5 4 4 5 10 6 9 7 2 8 1 9 3 10
REMARK H PARENT
REMARK Flexibility Score: inf
ROOT
ATOM      1  C   UNL     1     138.380 144.009 131.341  1.00  0.00     0.039 C 
ATOM      2  C   UNL     1     139.264 144.105 132.554  1.00  0.00    -0.077 C 
ATOM      3  C   UNL     1     140.453 144.738 132.450  1.00  0.00    -0.027 C 
ATOM      4  C   UNL     1     141.386 144.933 133.620  1.00  0.00     0.035 C 
ATOM      5  C   UNL     1     141.135 143.910 134.740  1.00  0.00     0.018 C 
ATOM      6  C   UNL     1     139.633 143.838 135.056  1.00  0.00     0.013 C 
ATOM      7  C   UNL     1     138.855 143.375 133.818  1.00  0.00     0.031 C 
ENDROOT
BRANCH   5   8
ATOM      8  C   UNL     1     141.953 144.235 135.983  1.00  0.00    -0.077 C 
ATOM      9  C   UNL     1     141.503 145.139 136.868  1.00  0.00     0.008 C 
ATOM     10  C   UNL     1     143.271 143.553 136.257  1.00  0.00     0.039 C 
ENDBRANCH   5   8
TORSDOF 1
ENDMDL
MODEL 6
REMARK VINA RESULT:    -4.167      4.000      5.269
REMARK INTER + INTRA:          -4.531
REMARK INTER:                  -4.411
REMARK INTRA:                  -0.120
REMARK UNBOUND:                -0.120
REMARK SMILES C=C(C)[C@@H]1CC=C(C)CC1
REMARK SMILES IDX 8 1 7 2 6 3 5 4 4 5 10 6 9 7 2 8 1 9 3 10
REMARK H PARENT
REMARK Flexibility Score: inf
ROOT
ATOM      1  C   UNL     1     143.735 138.106 131.395  1.00  0.00     0.039 C 
ATOM      2  C   UNL     1     142.860 138.031 132.615  1.00  0.00    -0.077 C 
ATOM      3  C   UNL     1     141.673 137.392 132.533  1.00  0.00    -0.027 C 
ATOM      4  C   UNL     1     140.748 137.218 133.713  1.00  0.00     0.035 C 
ATOM      5  C   UNL     1     141.003 138.265 134.810  1.00  0.00     0.018 C 
ATOM      6  C   UNL     1     142.506 138.349 135.114  1.00  0.00     0.013 C 
ATOM      7  C   UNL     1     143.274 138.789 133.862  1.00  0.00     0.031 C 
ENDROOT
BRANCH   5   8
ATOM      8  C   UNL     1     140.194 137.962 136.065  1.00  0.00    -0.077 C 
ATOM      9  C   UNL     1     139.029 138.592 136.283  1.00  0.00     0.008 C 
ATOM     10  C   UNL     1     140.667 136.951 137.080  1.00  0.00     0.039 C 
ENDBRANCH   5   8
TORSDOF 1
ENDMDL
MODEL 7
REMARK VINA RESULT:    -4.156      0.727      1.735
REMARK INTER + INTRA:          -4.519
REMARK INTER:                  -4.392
REMARK INTRA:                  -0.128
REMARK UNBOUND:                -0.120
REMARK SMILES C=C(C)[C@@H]1CC=C(C)CC1
REMARK SMILES IDX 8 1 7 2 6 3 5 4 4 5 10 6 9 7 2 8 1 9 3 10
REMARK H PARENT
REMARK Flexibility Score: inf
ROOT
ATOM      1  C   UNL     1     138.072 138.400 131.354  1.00  0.00     0.039 C 
ATOM      2  C   UNL     1     138.021 139.290 132.565  1.00  0.00    -0.077 C 
ATOM      3  C   UNL     1     137.398 140.486 132.473  1.00  0.00    -0.027 C 
ATOM      4  C   UNL     1     137.248 141.427 133.643  1.00  0.00     0.035 C 
ATOM      5  C   UNL     1     138.300 141.170 134.735  1.00  0.00     0.018 C 
ATOM      6  C   UNL     1     138.364 139.669 135.056  1.00  0.00     0.013 C 
ATOM      7  C   UNL     1     138.783 138.880 133.810  1.00  0.00     0.031 C 
ENDROOT
BRANCH   5   8
ATOM      8  C   UNL     1     138.020 141.998 135.982  1.00  0.00    -0.077 C 
ATOM      9  C   UNL     1     137.132 141.565 136.892  1.00  0.00     0.008 C 
ATOM     10  C   UNL     1     138.730 143.305 136.234  1.00  0.00     0.039 C 
ENDBRANCH   5   8
TORSDOF 1
ENDMDL
MODEL 8
REMARK VINA RESULT:    -4.155      2.836      4.235
REMARK INTER + INTRA:          -4.518
REMARK INTER:                  -4.396
REMARK INTRA:                  -0.122
REMARK UNBOUND:                -0.120
REMARK SMILES C=C(C)[C@@H]1CC=C(C)CC1
REMARK SMILES IDX 8 1 7 2 6 3 5 4 4 5 10 6 9 7 2 8 1 9 3 10
REMARK H PARENT
REMARK Flexibility Score: inf
ROOT
ATOM      1  C   UNL     1     137.331 139.073 131.379  1.00  0.00     0.039 C 
ATOM      2  C   UNL     1     138.315 138.771 132.476  1.00  0.00    -0.077 C 
ATOM      3  C   UNL     1     138.070 139.235 133.721  1.00  0.00    -0.027 C 
ATOM      4  C   UNL     1     138.968 138.943 134.899  1.00  0.00     0.035 C 
ATOM      5  C   UNL     1     140.395 138.571 134.463  1.00  0.00     0.018 C 
ATOM      6  C   UNL     1     140.344 137.513 133.351  1.00  0.00     0.013 C 
ATOM      7  C   UNL     1     139.613 138.071 132.125  1.00  0.00     0.031 C 
ENDROOT
BRANCH   5   8
ATOM      8  C   UNL     1     141.231 138.100 135.646  1.00  0.00    -0.077 C 
ATOM      9  C   UNL     1     142.505 138.504 135.773  1.00  0.00     0.008 C 
ATOM     10  C   UNL     1     140.656 137.188 136.702  1.00  0.00     0.039 C 
ENDBRANCH   5   8
TORSDOF 1
ENDMDL
MODEL 9
REMARK VINA RESULT:    -4.100      2.479      4.434
REMARK INTER + INTRA:          -4.460
REMARK INTER:                  -4.333
REMARK INTRA:                  -0.127
REMARK UNBOUND:                -0.120
REMARK SMILES C=C(C)[C@@H]1CC=C(C)CC1
REMARK SMILES IDX 8 1 7 2 6 3 5 4 4 5 10 6 9 7 2 8 1 9 3 10
REMARK H PARENT
REMARK Flexibility Score: inf
ROOT
ATOM      1  C   UNL     1     137.199 141.389 136.996  1.00  0.00     0.039 C 
ATOM      2  C   UNL     1     137.959 142.133 135.933  1.00  0.00    -0.077 C 
ATOM      3  C   UNL     1     138.796 143.128 136.300  1.00  0.00    -0.027 C 
ATOM      4  C   UNL     1     139.642 143.897 135.314  1.00  0.00     0.035 C 
ATOM      5  C   UNL     1     139.073 143.833 133.887  1.00  0.00     0.018 C 
ATOM      6  C   UNL     1     138.734 142.380 133.523  1.00  0.00     0.013 C 
ATOM      7  C   UNL     1     137.665 141.833 134.476  1.00  0.00     0.031 C 
ENDROOT
BRANCH   5   8
ATOM      8  C   UNL     1     140.032 144.454 132.879  1.00  0.00    -0.077 C 
ATOM      9  C   UNL     1     139.621 144.707 131.626  1.00  0.00     0.008 C 
ATOM     10  C   UNL     1     141.450 144.807 133.258  1.00  0.00     0.039 C 
ENDBRANCH   5   8
TORSDOF 1
ENDMDL
