MODEL 1
REMARK VINA RESULT:    -4.628      0.000      0.000
REMARK INTER + INTRA:          -5.212
REMARK INTER:                  -5.169
REMARK INTRA:                  -0.044
REMARK UNBOUND:                -0.044
REMARK SMILES O=C([O-])c1ccc(O)c(O)c1
REMARK SMILES IDX 4 1 11 2 5 3 9 4 6 5 7 6 2 7 1 8 3 9 10 10 8 12
REMARK H PARENT 10 11 8 13
REMARK Flexibility Score: inf
ROOT
ATOM      1  C   UNL     1     173.334 173.581 178.921  1.00  0.00     0.001 A 
ATOM      2  C   UNL     1     173.090 174.475 177.863  1.00  0.00     0.060 A 
ATOM      3  C   UNL     1     174.609 173.004 179.045  1.00  0.00     0.014 A 
ATOM      4  C   UNL     1     174.099 174.788 176.945  1.00  0.00     0.158 A 
ATOM      5  C   UNL     1     175.619 173.315 178.130  1.00  0.00     0.051 A 
ATOM      6  C   UNL     1     175.371 174.206 177.078  1.00  0.00     0.157 A 
ENDROOT
BRANCH   1   7
ATOM      7  C   UNL     1     172.268 173.250 179.892  1.00  0.00     0.072 C 
ATOM      8  O   UNL     1     171.059 173.469 179.614  1.00  0.00    -0.545 OA
ATOM      9  O   UNL     1     172.586 172.691 181.124  1.00  0.00    -0.545 OA
ENDBRANCH   1   7
BRANCH   4  10
ATOM     10  O   UNL     1     173.820 175.679 175.909  1.00  0.00    -0.504 OA
ATOM     11  H   UNL     1     172.932 176.160 175.837  1.00  0.00     0.293 HD
ENDBRANCH   4  10
BRANCH   6  12
ATOM     12  O   UNL     1     176.380 174.514 176.167  1.00  0.00    -0.504 OA
ATOM     13  H   UNL     1     176.435 174.059 175.263  1.00  0.00     0.293 HD
ENDBRANCH   6  12
TORSDOF 3
ENDMDL
MODEL 2
REMARK VINA RESULT:    -4.620      2.787      3.993
REMARK INTER + INTRA:          -5.204
REMARK INTER:                  -5.160
REMARK INTRA:                  -0.044
REMARK UNBOUND:                -0.044
REMARK SMILES O=C([O-])c1ccc(O)c(O)c1
REMARK SMILES IDX 4 1 11 2 5 3 9 4 6 5 7 6 2 7 1 8 3 9 10 10 8 12
REMARK H PARENT 10 11 8 13
REMARK Flexibility Score: inf
ROOT
ATOM      1  C   UNL     1     173.029 172.792 178.854  1.00  0.00     0.001 A 
ATOM      2  C   UNL     1     173.286 171.880 177.813  1.00  0.00     0.060 A 
ATOM      3  C   UNL     1     171.753 173.370 178.954  1.00  0.00     0.014 A 
ATOM      4  C   UNL     1     172.286 171.552 176.889  1.00  0.00     0.158 A 
ATOM      5  C   UNL     1     170.753 173.044 178.033  1.00  0.00     0.051 A 
ATOM      6  C   UNL     1     171.013 172.137 176.998  1.00  0.00     0.157 A 
ENDROOT
BRANCH   1   7
ATOM      7  C   UNL     1     174.085 173.139 179.830  1.00  0.00     0.072 C 
ATOM      8  O   UNL     1     175.295 172.898 179.578  1.00  0.00    -0.545 OA
ATOM      9  O   UNL     1     173.755 173.736 181.041  1.00  0.00    -0.545 OA
ENDBRANCH   1   7
BRANCH   4  10
ATOM     10  O   UNL     1     172.577 170.644 175.870  1.00  0.00    -0.504 OA
ATOM     11  H   UNL     1     172.045 170.613 175.009  1.00  0.00     0.293 HD
ENDBRANCH   4  10
BRANCH   6  12
ATOM     12  O   UNL     1     170.015 171.814 176.081  1.00  0.00    -0.504 OA
ATOM     13  H   UNL     1     169.421 172.526 175.671  1.00  0.00     0.293 HD
ENDBRANCH   6  12
TORSDOF 3
ENDMDL
MODEL 3
REMARK VINA RESULT:    -4.593      1.382      4.278
REMARK INTER + INTRA:          -5.174
REMARK INTER:                  -5.137
REMARK INTRA:                  -0.037
REMARK UNBOUND:                -0.044
REMARK SMILES O=C([O-])c1ccc(O)c(O)c1
REMARK SMILES IDX 4 1 11 2 5 3 9 4 6 5 7 6 2 7 1 8 3 9 10 10 8 12
REMARK H PARENT 10 11 8 13
REMARK Flexibility Score: inf
ROOT
ATOM      1  C   UNL     1     174.420 173.168 178.297  1.00  0.00     0.001 A 
ATOM      2  C   UNL     1     173.034 173.277 178.082  1.00  0.00     0.060 A 
ATOM      3  C   UNL     1     174.896 173.030 179.612  1.00  0.00     0.014 A 
ATOM      4  C   UNL     1     172.139 173.248 179.158  1.00  0.00     0.158 A 
ATOM      5  C   UNL     1     174.005 173.000 180.689  1.00  0.00     0.051 A 
ATOM      6  C   UNL     1     172.626 173.110 180.469  1.00  0.00     0.157 A 
ENDROOT
BRANCH   1   7
ATOM      7  C   UNL     1     175.366 173.197 177.160  1.00  0.00     0.072 C 
ATOM      8  O   UNL     1     175.385 172.260 176.319  1.00  0.00    -0.545 OA
ATOM      9  O   UNL     1     176.247 174.261 177.004  1.00  0.00    -0.545 OA
ENDBRANCH   1   7
BRANCH   4  10
ATOM     10  O   UNL     1     170.772 173.359 178.906  1.00  0.00    -0.504 OA
ATOM     11  H   UNL     1     170.101 172.695 179.275  1.00  0.00     0.293 HD
ENDBRANCH   4  10
BRANCH   6  12
ATOM     12  O   UNL     1     171.740 173.081 181.544  1.00  0.00    -0.504 OA
ATOM     13  H   UNL     1     171.945 172.556 182.387  1.00  0.00     0.293 HD
ENDBRANCH   6  12
TORSDOF 3
ENDMDL
MODEL 4
REMARK VINA RESULT:    -4.558      2.167      3.718
REMARK INTER + INTRA:          -5.134
REMARK INTER:                  -5.097
REMARK INTRA:                  -0.037
REMARK UNBOUND:                -0.044
REMARK SMILES O=C([O-])c1ccc(O)c(O)c1
REMARK SMILES IDX 4 1 11 2 5 3 9 4 6 5 7 6 2 7 1 8 3 9 10 10 8 12
REMARK H PARENT 10 11 8 13
REMARK Flexibility Score: inf
ROOT
ATOM      1  C   UNL     1     172.015 173.227 178.189  1.00  0.00     0.001 A 
ATOM      2  C   UNL     1     173.408 173.131 178.020  1.00  0.00     0.060 A 
ATOM      3  C   UNL     1     171.493 173.348 179.488  1.00  0.00     0.014 A 
ATOM      4  C   UNL     1     174.265 173.156 179.127  1.00  0.00     0.158 A 
ATOM      5  C   UNL     1     172.346 173.373 180.595  1.00  0.00     0.051 A 
ATOM      6  C   UNL     1     173.733 173.277 180.421  1.00  0.00     0.157 A 
ENDROOT
BRANCH   1   7
ATOM      7  C   UNL     1     171.109 173.202 177.020  1.00  0.00     0.072 C 
ATOM      8  O   UNL     1     171.095 174.158 176.200  1.00  0.00    -0.545 OA
ATOM      9  O   UNL     1     170.260 172.122 176.810  1.00  0.00    -0.545 OA
ENDBRANCH   1   7
BRANCH   4  10
ATOM     10  O   UNL     1     175.642 173.058 178.920  1.00  0.00    -0.504 OA
ATOM     11  H   UNL     1     176.070 172.227 178.532  1.00  0.00     0.293 HD
ENDBRANCH   4  10
BRANCH   6  12
ATOM     12  O   UNL     1     174.582 173.301 181.527  1.00  0.00    -0.504 OA
ATOM     13  H   UNL     1     175.056 172.466 181.849  1.00  0.00     0.293 HD
ENDBRANCH   6  12
TORSDOF 3
ENDMDL
MODEL 5
REMARK VINA RESULT:    -4.551      1.385      4.685
REMARK INTER + INTRA:          -5.127
REMARK INTER:                  -5.091
REMARK INTRA:                  -0.036
REMARK UNBOUND:                -0.044
REMARK SMILES O=C([O-])c1ccc(O)c(O)c1
REMARK SMILES IDX 4 1 11 2 5 3 9 4 6 5 7 6 2 7 1 8 3 9 10 10 8 12
REMARK H PARENT 10 11 8 13
REMARK Flexibility Score: inf
ROOT
ATOM      1  C   UNL     1     174.276 173.361 178.226  1.00  0.00     0.001 A 
ATOM      2  C   UNL     1     174.664 173.018 179.534  1.00  0.00     0.060 A 
ATOM      3  C   UNL     1     172.939 173.716 177.982  1.00  0.00     0.014 A 
ATOM      4  C   UNL     1     173.734 173.028 180.580  1.00  0.00     0.158 A 
ATOM      5  C   UNL     1     172.008 173.727 179.025  1.00  0.00     0.051 A 
ATOM      6  C   UNL     1     172.398 173.383 180.326  1.00  0.00     0.157 A 
ENDROOT
BRANCH   1   7
ATOM      7  C   UNL     1     175.259 173.352 177.120  1.00  0.00     0.072 C 
ATOM      8  O   UNL     1     176.039 174.326 176.948  1.00  0.00    -0.545 OA
ATOM      9  O   UNL     1     175.334 172.267 176.254  1.00  0.00    -0.545 OA
ENDBRANCH   1   7
BRANCH   4  10
ATOM     10  O   UNL     1     174.155 172.682 181.864  1.00  0.00    -0.504 OA
ATOM     11  H   UNL     1     174.776 171.900 182.034  1.00  0.00     0.293 HD
ENDBRANCH   4  10
BRANCH   6  12
ATOM     12  O   UNL     1     171.468 173.395 181.364  1.00  0.00    -0.504 OA
ATOM     13  H   UNL     1     171.430 172.650 182.049  1.00  0.00     0.293 HD
ENDBRANCH   6  12
TORSDOF 3
ENDMDL
MODEL 6
REMARK VINA RESULT:    -4.511      2.489      3.810
REMARK INTER + INTRA:          -5.082
REMARK INTER:                  -5.046
REMARK INTRA:                  -0.036
REMARK UNBOUND:                -0.044
REMARK SMILES O=C([O-])c1ccc(O)c(O)c1
REMARK SMILES IDX 4 1 11 2 5 3 9 4 6 5 7 6 2 7 1 8 3 9 10 10 8 12
REMARK H PARENT 10 11 8 13
REMARK Flexibility Score: inf
ROOT
ATOM      1  C   UNL     1     172.204 172.999 178.204  1.00  0.00     0.001 A 
ATOM      2  C   UNL     1     171.807 173.367 179.502  1.00  0.00     0.060 A 
ATOM      3  C   UNL     1     173.539 172.624 177.980  1.00  0.00     0.014 A 
ATOM      4  C   UNL     1     172.726 173.361 180.558  1.00  0.00     0.158 A 
ATOM      5  C   UNL     1     174.459 172.616 179.032  1.00  0.00     0.051 A 
ATOM      6  C   UNL     1     174.059 172.984 180.324  1.00  0.00     0.157 A 
ENDROOT
BRANCH   1   7
ATOM      7  C   UNL     1     171.233 173.005 177.088  1.00  0.00     0.072 C 
ATOM      8  O   UNL     1     171.061 174.043 176.395  1.00  0.00    -0.545 OA
ATOM      9  O   UNL     1     170.498 171.865 176.787  1.00  0.00    -0.545 OA
ENDBRANCH   1   7
BRANCH   4  10
ATOM     10  O   UNL     1     172.297 173.732 181.833  1.00  0.00    -0.504 OA
ATOM     11  H   UNL     1     171.422 174.219 181.985  1.00  0.00     0.293 HD
ENDBRANCH   4  10
BRANCH   6  12
ATOM     12  O   UNL     1     174.979 172.976 181.371  1.00  0.00    -0.504 OA
ATOM     13  H   UNL     1     175.912 173.354 181.260  1.00  0.00     0.293 HD
ENDBRANCH   6  12
TORSDOF 3
ENDMDL
MODEL 7
REMARK VINA RESULT:    -4.432      2.869      3.257
REMARK INTER + INTRA:          -4.994
REMARK INTER:                  -4.951
REMARK INTRA:                  -0.043
REMARK UNBOUND:                -0.044
REMARK SMILES O=C([O-])c1ccc(O)c(O)c1
REMARK SMILES IDX 4 1 11 2 5 3 9 4 6 5 7 6 2 7 1 8 3 9 10 10 8 12
REMARK H PARENT 10 11 8 13
REMARK Flexibility Score: inf
ROOT
ATOM      1  C   UNL     1     173.210 172.973 179.583  1.00  0.00     0.001 A 
ATOM      2  C   UNL     1     171.891 173.150 179.127  1.00  0.00     0.060 A 
ATOM      3  C   UNL     1     174.113 172.245 178.791  1.00  0.00     0.014 A 
ATOM      4  C   UNL     1     171.481 172.610 177.902  1.00  0.00     0.158 A 
ATOM      5  C   UNL     1     173.707 171.705 177.567  1.00  0.00     0.051 A 
ATOM      6  C   UNL     1     172.392 171.883 177.117  1.00  0.00     0.157 A 
ENDROOT
BRANCH   1   7
ATOM      7  C   UNL     1     173.644 173.544 180.877  1.00  0.00     0.072 C 
ATOM      8  O   UNL     1     174.656 173.086 181.471  1.00  0.00    -0.545 OA
ATOM      9  O   UNL     1     172.941 174.594 181.455  1.00  0.00    -0.545 OA
ENDBRANCH   1   7
BRANCH   4  10
ATOM     10  O   UNL     1     170.165 172.806 177.481  1.00  0.00    -0.504 OA
ATOM     11  H   UNL     1     169.880 173.635 176.975  1.00  0.00     0.293 HD
ENDBRANCH   4  10
BRANCH   6  12
ATOM     12  O   UNL     1     171.989 171.343 175.897  1.00  0.00    -0.504 OA
ATOM     13  H   UNL     1     171.328 171.823 175.298  1.00  0.00     0.293 HD
ENDBRANCH   6  12
TORSDOF 3
ENDMDL
MODEL 8
REMARK VINA RESULT:    -4.408      1.035      2.300
REMARK INTER + INTRA:          -4.967
REMARK INTER:                  -4.923
REMARK INTRA:                  -0.044
REMARK UNBOUND:                -0.044
REMARK SMILES O=C([O-])c1ccc(O)c(O)c1
REMARK SMILES IDX 4 1 11 2 5 3 9 4 6 5 7 6 2 7 1 8 3 9 10 10 8 12
REMARK H PARENT 10 11 8 13
REMARK Flexibility Score: inf
ROOT
ATOM      1  C   UNL     1     173.261 173.431 179.543  1.00  0.00     0.001 A 
ATOM      2  C   UNL     1     174.546 173.211 179.015  1.00  0.00     0.060 A 
ATOM      3  C   UNL     1     172.361 174.241 178.830  1.00  0.00     0.014 A 
ATOM      4  C   UNL     1     174.927 173.790 177.798  1.00  0.00     0.158 A 
ATOM      5  C   UNL     1     172.738 174.820 177.614  1.00  0.00     0.051 A 
ATOM      6  C   UNL     1     174.019 174.599 177.093  1.00  0.00     0.157 A 
ENDROOT
BRANCH   1   7
ATOM      7  C   UNL     1     172.858 172.820 180.828  1.00  0.00     0.072 C 
ATOM      8  O   UNL     1     173.528 171.878 181.327  1.00  0.00    -0.545 OA
ATOM      9  O   UNL     1     171.733 173.279 181.504  1.00  0.00    -0.545 OA
ENDBRANCH   1   7
BRANCH   4  10
ATOM     10  O   UNL     1     176.209 173.549 177.305  1.00  0.00    -0.504 OA
ATOM     11  H   UNL     1     176.602 174.085 176.540  1.00  0.00     0.293 HD
ENDBRANCH   4  10
BRANCH   6  12
ATOM     12  O   UNL     1     174.393 175.177 175.881  1.00  0.00    -0.504 OA
ATOM     13  H   UNL     1     175.297 175.617 175.761  1.00  0.00     0.293 HD
ENDBRANCH   6  12
TORSDOF 3
ENDMDL
MODEL 9
REMARK VINA RESULT:    -4.390      1.561      4.041
REMARK INTER + INTRA:          -4.947
REMARK INTER:                  -4.910
REMARK INTRA:                  -0.037
REMARK UNBOUND:                -0.044
REMARK SMILES O=C([O-])c1ccc(O)c(O)c1
REMARK SMILES IDX 4 1 11 2 5 3 9 4 6 5 7 6 2 7 1 8 3 9 10 10 8 12
REMARK H PARENT 10 11 8 13
REMARK Flexibility Score: inf
ROOT
ATOM      1  C   UNL     1     173.210 174.194 177.965  1.00  0.00     0.001 A 
ATOM      2  C   UNL     1     172.261 174.149 179.002  1.00  0.00     0.060 A 
ATOM      3  C   UNL     1     174.470 173.606 178.169  1.00  0.00     0.014 A 
ATOM      4  C   UNL     1     172.563 173.529 180.221  1.00  0.00     0.158 A 
ATOM      5  C   UNL     1     174.774 172.985 179.384  1.00  0.00     0.051 A 
ATOM      6  C   UNL     1     173.826 172.944 180.414  1.00  0.00     0.157 A 
ENDROOT
BRANCH   1   7
ATOM      7  C   UNL     1     172.892 174.849 176.678  1.00  0.00     0.072 C 
ATOM      8  O   UNL     1     172.664 176.087 176.629  1.00  0.00    -0.545 OA
ATOM      9  O   UNL     1     172.841 174.107 175.504  1.00  0.00    -0.545 OA
ENDBRANCH   1   7
BRANCH   4  10
ATOM     10  O   UNL     1     171.596 173.503 181.226  1.00  0.00    -0.504 OA
ATOM     11  H   UNL     1     171.321 172.644 181.687  1.00  0.00     0.293 HD
ENDBRANCH   4  10
BRANCH   6  12
ATOM     12  O   UNL     1     174.131 172.325 181.625  1.00  0.00    -0.504 OA
ATOM     13  H   UNL     1     173.479 171.695 182.077  1.00  0.00     0.293 HD
ENDBRANCH   6  12
TORSDOF 3
ENDMDL
