MODEL 1
REMARK VINA RESULT:    -3.274      0.000      0.000
REMARK INTER + INTRA:          -7.997
REMARK INTER:                  -6.145
REMARK INTRA:                  -1.853
REMARK UNBOUND:                -1.853
REMARK SMILES O=C([O-])CCCCCCCCCCCCCCC(=O)[O-]
REMARK SMILES IDX 10 1 9 2 8 3 7 4 6 5 5 6 4 7 2 8 1 9 3 10 11 11 12 12 13 13
REMARK SMILES IDX 14 14 15 15 16 16 17 17 18 18 19 19 20 20
REMARK H PARENT
REMARK Flexibility Score: inf
ROOT
ATOM      1  C   UNL     1      26.557  20.039  57.738  1.00  0.00     0.000 C 
ENDROOT
BRANCH   1   2
ATOM      2  C   UNL     1      26.803  20.007  56.225  1.00  0.00     0.000 C 
BRANCH   2   3
ATOM      3  C   UNL     1      26.513  21.378  55.592  1.00  0.00     0.000 C 
BRANCH   3   4
ATOM      4  C   UNL     1      25.191  21.403  54.809  1.00  0.00     0.000 C 
BRANCH   4   5
ATOM      5  C   UNL     1      24.028  21.987  55.630  1.00  0.00     0.000 C 
BRANCH   5   6
ATOM      6  C   UNL     1      23.066  20.904  56.144  1.00  0.00     0.006 C 
BRANCH   6   7
ATOM      7  C   UNL     1      23.119  19.619  55.307  1.00  0.00     0.053 C 
BRANCH   7   8
ATOM      8  C   UNL     1      23.428  18.442  56.178  1.00  0.00     0.041 C 
ATOM      9  O   UNL     1      23.964  17.413  55.687  1.00  0.00    -0.550 OA
ATOM     10  O   UNL     1      23.170  18.499  57.542  1.00  0.00    -0.550 OA
ENDBRANCH   7   8
ENDBRANCH   6   7
ENDBRANCH   5   6
ENDBRANCH   4   5
ENDBRANCH   3   4
ENDBRANCH   2   3
ENDBRANCH   1   2
BRANCH   1  11
ATOM     11  C   UNL     1      26.973  21.393  58.333  1.00  0.00     0.000 C 
BRANCH  11  12
ATOM     12  C   UNL     1      26.042  21.859  59.467  1.00  0.00     0.000 C 
BRANCH  12  13
ATOM     13  C   UNL     1      24.595  21.334  59.378  1.00  0.00     0.000 C 
BRANCH  13  14
ATOM     14  C   UNL     1      23.583  22.040  60.303  1.00  0.00     0.000 C 
BRANCH  14  15
ATOM     15  C   UNL     1      23.453  21.428  61.710  1.00  0.00     0.000 C 
BRANCH  15  16
ATOM     16  C   UNL     1      24.538  21.923  62.677  1.00  0.00     0.006 C 
BRANCH  16  17
ATOM     17  C   UNL     1      24.799  20.892  63.779  1.00  0.00     0.053 C 
BRANCH  17  18
ATOM     18  C   UNL     1      26.047  20.118  63.488  1.00  0.00     0.041 C 
ATOM     19  O   UNL     1      26.685  20.322  62.422  1.00  0.00    -0.550 OA
ATOM     20  O   UNL     1      26.477  19.136  64.371  1.00  0.00    -0.550 OA
ENDBRANCH  17  18
ENDBRANCH  16  17
ENDBRANCH  15  16
ENDBRANCH  14  15
ENDBRANCH  13  14
ENDBRANCH  12  13
ENDBRANCH  11  12
ENDBRANCH   1  11
TORSDOF 15
ENDMDL
MODEL 2
REMARK VINA RESULT:    -3.104      0.786      6.499
REMARK INTER + INTRA:          -7.679
REMARK INTER:                  -5.818
REMARK INTRA:                  -1.861
REMARK UNBOUND:                -1.853
REMARK SMILES O=C([O-])CCCCCCCCCCCCCCC(=O)[O-]
REMARK SMILES IDX 10 1 9 2 8 3 7 4 6 5 5 6 4 7 2 8 1 9 3 10 11 11 12 12 13 13
REMARK SMILES IDX 14 14 15 15 16 16 17 17 18 18 19 19 20 20
REMARK H PARENT
REMARK Flexibility Score: inf
ROOT
ATOM      1  C   UNL     1      27.005  20.483  58.958  1.00  0.00     0.000 C 
ENDROOT
BRANCH   1   2
ATOM      2  C   UNL     1      26.278  21.665  59.609  1.00  0.00     0.000 C 
BRANCH   2   3
ATOM      3  C   UNL     1      24.873  21.842  59.011  1.00  0.00     0.000 C 
BRANCH   3   4
ATOM      4  C   UNL     1      23.759  21.377  59.963  1.00  0.00     0.000 C 
BRANCH   4   5
ATOM      5  C   UNL     1      23.822  22.077  61.332  1.00  0.00     0.000 C 
BRANCH   5   6
ATOM      6  C   UNL     1      23.828  21.081  62.503  1.00  0.00     0.006 C 
BRANCH   6   7
ATOM      7  C   UNL     1      24.721  21.538  63.665  1.00  0.00     0.053 C 
BRANCH   7   8
ATOM      8  C   UNL     1      26.157  21.248  63.363  1.00  0.00     0.041 C 
ATOM      9  O   UNL     1      27.048  22.090  63.654  1.00  0.00    -0.550 OA
ATOM     10  O   UNL     1      26.519  20.028  62.806  1.00  0.00    -0.550 OA
ENDBRANCH   7   8
ENDBRANCH   6   7
ENDBRANCH   5   6
ENDBRANCH   4   5
ENDBRANCH   3   4
ENDBRANCH   2   3
ENDBRANCH   1   2
BRANCH   1  11
ATOM     11  C   UNL     1      26.231  19.966  57.736  1.00  0.00     0.000 C 
BRANCH  11  12
ATOM     12  C   UNL     1      26.967  20.223  56.409  1.00  0.00     0.000 C 
BRANCH  12  13
ATOM     13  C   UNL     1      26.524  21.492  55.654  1.00  0.00     0.000 C 
BRANCH  13  14
ATOM     14  C   UNL     1      25.251  21.333  54.797  1.00  0.00     0.000 C 
BRANCH  14  15
ATOM     15  C   UNL     1      23.973  21.926  55.417  1.00  0.00     0.000 C 
BRANCH  15  16
ATOM     16  C   UNL     1      23.076  20.861  56.066  1.00  0.00     0.006 C 
BRANCH  16  17
ATOM     17  C   UNL     1      22.992  19.608  55.190  1.00  0.00     0.053 C 
BRANCH  17  18
ATOM     18  C   UNL     1      23.018  18.374  56.036  1.00  0.00     0.041 C 
ATOM     19  O   UNL     1      22.975  17.236  55.499  1.00  0.00    -0.550 OA
ATOM     20  O   UNL     1      23.041  18.482  57.421  1.00  0.00    -0.550 OA
ENDBRANCH  17  18
ENDBRANCH  16  17
ENDBRANCH  15  16
ENDBRANCH  14  15
ENDBRANCH  13  14
ENDBRANCH  12  13
ENDBRANCH  11  12
ENDBRANCH   1  11
TORSDOF 15
ENDMDL
MODEL 3
REMARK VINA RESULT:    -2.992      0.852      6.462
REMARK INTER + INTRA:          -7.469
REMARK INTER:                  -6.040
REMARK INTRA:                  -1.429
REMARK UNBOUND:                -1.853
REMARK SMILES O=C([O-])CCCCCCCCCCCCCCC(=O)[O-]
REMARK SMILES IDX 10 1 9 2 8 3 7 4 6 5 5 6 4 7 2 8 1 9 3 10 11 11 12 12 13 13
REMARK SMILES IDX 14 14 15 15 16 16 17 17 18 18 19 19 20 20
REMARK H PARENT
REMARK Flexibility Score: inf
ROOT
ATOM      1  C   UNL     1      26.925  20.754  59.278  1.00  0.00     0.000 C 
ENDROOT
BRANCH   1   2
ATOM      2  C   UNL     1      26.208  22.041  59.703  1.00  0.00     0.000 C 
BRANCH   2   3
ATOM      3  C   UNL     1      24.728  22.008  59.289  1.00  0.00     0.000 C 
BRANCH   3   4
ATOM      4  C   UNL     1      23.822  21.403  60.373  1.00  0.00     0.000 C 
BRANCH   4   5
ATOM      5  C   UNL     1      23.972  22.110  61.732  1.00  0.00     0.000 C 
BRANCH   5   6
ATOM      6  C   UNL     1      24.191  21.123  62.890  1.00  0.00     0.006 C 
BRANCH   6   7
ATOM      7  C   UNL     1      25.579  21.258  63.529  1.00  0.00     0.053 C 
BRANCH   7   8
ATOM      8  C   UNL     1      26.338  19.975  63.402  1.00  0.00     0.041 C 
ATOM      9  O   UNL     1      26.915  19.685  62.320  1.00  0.00    -0.550 OA
ATOM     10  O   UNL     1      26.451  19.121  64.492  1.00  0.00    -0.550 OA
ENDBRANCH   7   8
ENDBRANCH   6   7
ENDBRANCH   5   6
ENDBRANCH   4   5
ENDBRANCH   3   4
ENDBRANCH   2   3
ENDBRANCH   1   2
BRANCH   1  11
ATOM     11  C   UNL     1      26.543  20.361  57.843  1.00  0.00     0.000 C 
BRANCH  11  12
ATOM     12  C   UNL     1      27.140  21.306  56.785  1.00  0.00     0.000 C 
BRANCH  12  13
ATOM     13  C   UNL     1      26.782  20.958  55.326  1.00  0.00     0.000 C 
BRANCH  13  14
ATOM     14  C   UNL     1      25.802  21.933  54.641  1.00  0.00     0.000 C 
BRANCH  14  15
ATOM     15  C   UNL     1      24.363  21.407  54.491  1.00  0.00     0.000 C 
BRANCH  15  16
ATOM     16  C   UNL     1      24.269  19.880  54.622  1.00  0.00     0.006 C 
BRANCH  16  17
ATOM     17  C   UNL     1      23.019  19.475  55.408  1.00  0.00     0.053 C 
BRANCH  17  18
ATOM     18  C   UNL     1      23.401  18.768  56.671  1.00  0.00     0.041 C 
ATOM     19  O   UNL     1      22.936  19.150  57.777  1.00  0.00    -0.550 OA
ATOM     20  O   UNL     1      24.311  17.718  56.632  1.00  0.00    -0.550 OA
ENDBRANCH  17  18
ENDBRANCH  16  17
ENDBRANCH  15  16
ENDBRANCH  14  15
ENDBRANCH  13  14
ENDBRANCH  12  13
ENDBRANCH  11  12
ENDBRANCH   1  11
TORSDOF 15
ENDMDL
MODEL 4
REMARK VINA RESULT:    -2.907      2.111      6.703
REMARK INTER + INTRA:          -7.308
REMARK INTER:                  -5.867
REMARK INTRA:                  -1.441
REMARK UNBOUND:                -1.853
REMARK SMILES O=C([O-])CCCCCCCCCCCCCCC(=O)[O-]
REMARK SMILES IDX 10 1 9 2 8 3 7 4 6 5 5 6 4 7 2 8 1 9 3 10 11 11 12 12 13 13
REMARK SMILES IDX 14 14 15 15 16 16 17 17 18 18 19 19 20 20
REMARK H PARENT
REMARK Flexibility Score: inf
ROOT
ATOM      1  C   UNL     1      22.922  19.569  57.582  1.00  0.00     0.000 C 
ENDROOT
BRANCH   1   2
ATOM      2  C   UNL     1      24.298  20.101  58.001  1.00  0.00     0.000 C 
BRANCH   2   3
ATOM      3  C   UNL     1      24.164  21.426  58.768  1.00  0.00     0.000 C 
BRANCH   3   4
ATOM      4  C   UNL     1      23.361  21.279  60.071  1.00  0.00     0.000 C 
BRANCH   4   5
ATOM      5  C   UNL     1      24.119  21.821  61.296  1.00  0.00     0.000 C 
BRANCH   5   6
ATOM      6  C   UNL     1      25.643  21.674  61.160  1.00  0.00     0.006 C 
BRANCH   6   7
ATOM      7  C   UNL     1      26.354  21.589  62.517  1.00  0.00     0.053 C 
BRANCH   7   8
ATOM      8  C   UNL     1      25.831  20.432  63.308  1.00  0.00     0.041 C 
ATOM      9  O   UNL     1      26.391  19.307  63.231  1.00  0.00    -0.550 OA
ATOM     10  O   UNL     1      24.754  20.608  64.168  1.00  0.00    -0.550 OA
ENDBRANCH   7   8
ENDBRANCH   6   7
ENDBRANCH   5   6
ENDBRANCH   4   5
ENDBRANCH   3   4
ENDBRANCH   2   3
ENDBRANCH   1   2
BRANCH   1  11
ATOM     11  C   UNL     1      23.062  18.416  56.577  1.00  0.00     0.000 C 
BRANCH  11  12
ATOM     12  C   UNL     1      24.300  18.557  55.673  1.00  0.00     0.000 C 
BRANCH  12  13
ATOM     13  C   UNL     1      24.030  19.190  54.293  1.00  0.00     0.000 C 
BRANCH  13  14
ATOM     14  C   UNL     1      23.065  20.394  54.302  1.00  0.00     0.000 C 
BRANCH  14  15
ATOM     15  C   UNL     1      23.728  21.754  54.585  1.00  0.00     0.000 C 
BRANCH  15  16
ATOM     16  C   UNL     1      25.237  21.753  54.302  1.00  0.00     0.006 C 
BRANCH  16  17
ATOM     17  C   UNL     1      26.033  22.043  55.577  1.00  0.00     0.053 C 
BRANCH  17  18
ATOM     18  C   UNL     1      27.313  21.267  55.584  1.00  0.00     0.041 C 
ATOM     19  O   UNL     1      27.336  20.086  56.019  1.00  0.00    -0.550 OA
ATOM     20  O   UNL     1      28.491  21.866  55.155  1.00  0.00    -0.550 OA
ENDBRANCH  17  18
ENDBRANCH  16  17
ENDBRANCH  15  16
ENDBRANCH  14  15
ENDBRANCH  13  14
ENDBRANCH  12  13
ENDBRANCH  11  12
ENDBRANCH   1  11
TORSDOF 15
ENDMDL
MODEL 5
REMARK VINA RESULT:    -2.603      2.333      3.272
REMARK INTER + INTRA:          -6.739
REMARK INTER:                  -5.597
REMARK INTRA:                  -1.142
REMARK UNBOUND:                -1.853
REMARK SMILES O=C([O-])CCCCCCCCCCCCCCC(=O)[O-]
REMARK SMILES IDX 10 1 9 2 8 3 7 4 6 5 5 6 4 7 2 8 1 9 3 10 11 11 12 12 13 13
REMARK SMILES IDX 14 14 15 15 16 16 17 17 18 18 19 19 20 20
REMARK H PARENT
REMARK Flexibility Score: inf
ROOT
ATOM      1  C   UNL     1      24.240  20.256  58.165  1.00  0.00     0.000 C 
ENDROOT
BRANCH   1   2
ATOM      2  C   UNL     1      23.246  19.844  57.071  1.00  0.00     0.000 C 
BRANCH   2   3
ATOM      3  C   UNL     1      23.909  18.901  56.054  1.00  0.00     0.000 C 
BRANCH   3   4
ATOM      4  C   UNL     1      24.281  19.610  54.742  1.00  0.00     0.000 C 
BRANCH   4   5
ATOM      5  C   UNL     1      23.733  21.046  54.670  1.00  0.00     0.000 C 
BRANCH   5   6
ATOM      6  C   UNL     1      24.742  22.090  55.177  1.00  0.00     0.006 C 
BRANCH   6   7
ATOM      7  C   UNL     1      26.142  21.898  54.580  1.00  0.00     0.053 C 
BRANCH   7   8
ATOM      8  C   UNL     1      27.091  21.404  55.626  1.00  0.00     0.041 C 
ATOM      9  O   UNL     1      27.782  20.371  55.418  1.00  0.00    -0.550 OA
ATOM     10  O   UNL     1      27.250  22.111  56.811  1.00  0.00    -0.550 OA
ENDBRANCH   7   8
ENDBRANCH   6   7
ENDBRANCH   5   6
ENDBRANCH   4   5
ENDBRANCH   3   4
ENDBRANCH   2   3
ENDBRANCH   1   2
BRANCH   1  11
ATOM     11  C   UNL     1      23.833  21.593  58.801  1.00  0.00     0.000 C 
BRANCH  11  12
ATOM     12  C   UNL     1      23.061  21.417  60.121  1.00  0.00     0.000 C 
BRANCH  12  13
ATOM     13  C   UNL     1      23.687  22.125  61.340  1.00  0.00     0.000 C 
BRANCH  13  14
ATOM     14  C   UNL     1      23.697  21.299  62.643  1.00  0.00     0.000 C 
BRANCH  14  15
ATOM     15  C   UNL     1      24.772  21.712  63.665  1.00  0.00     0.000 C 
BRANCH  15  16
ATOM     16  C   UNL     1      26.143  21.961  63.020  1.00  0.00     0.006 C 
BRANCH  16  17
ATOM     17  C   UNL     1      26.675  20.687  62.357  1.00  0.00     0.053 C 
BRANCH  17  18
ATOM     18  C   UNL     1      27.102  20.968  60.950  1.00  0.00     0.041 C 
ATOM     19  O   UNL     1      26.979  22.125  60.469  1.00  0.00    -0.550 OA
ATOM     20  O   UNL     1      27.590  19.939  60.154  1.00  0.00    -0.550 OA
ENDBRANCH  17  18
ENDBRANCH  16  17
ENDBRANCH  15  16
ENDBRANCH  14  15
ENDBRANCH  13  14
ENDBRANCH  12  13
ENDBRANCH  11  12
ENDBRANCH   1  11
TORSDOF 15
ENDMDL
MODEL 6
REMARK VINA RESULT:    -2.420      1.888      2.530
REMARK INTER + INTRA:          -6.395
REMARK INTER:                  -5.752
REMARK INTRA:                  -0.643
REMARK UNBOUND:                -1.853
REMARK SMILES O=C([O-])CCCCCCCCCCCCCCC(=O)[O-]
REMARK SMILES IDX 10 1 9 2 8 3 7 4 6 5 5 6 4 7 2 8 1 9 3 10 11 11 12 12 13 13
REMARK SMILES IDX 14 14 15 15 16 16 17 17 18 18 19 19 20 20
REMARK H PARENT
REMARK Flexibility Score: inf
ROOT
ATOM      1  C   UNL     1      26.660  19.460  57.901  1.00  0.00     0.000 C 
ENDROOT
BRANCH   1   2
ATOM      2  C   UNL     1      25.788  19.626  56.651  1.00  0.00     0.000 C 
BRANCH   2   3
ATOM      3  C   UNL     1      24.435  18.918  56.829  1.00  0.00     0.000 C 
BRANCH   3   4
ATOM      4  C   UNL     1      23.935  18.258  55.534  1.00  0.00     0.000 C 
BRANCH   4   5
ATOM      5  C   UNL     1      24.395  19.009  54.272  1.00  0.00     0.000 C 
BRANCH   5   6
ATOM      6  C   UNL     1      23.234  19.313  53.311  1.00  0.00     0.006 C 
BRANCH   6   7
ATOM      7  C   UNL     1      22.900  20.809  53.240  1.00  0.00     0.053 C 
BRANCH   7   8
ATOM      8  C   UNL     1      23.751  21.579  54.200  1.00  0.00     0.041 C 
ATOM      9  O   UNL     1      23.335  21.819  55.364  1.00  0.00    -0.550 OA
ATOM     10  O   UNL     1      25.025  21.989  53.826  1.00  0.00    -0.550 OA
ENDBRANCH   7   8
ENDBRANCH   6   7
ENDBRANCH   5   6
ENDBRANCH   4   5
ENDBRANCH   3   4
ENDBRANCH   2   3
ENDBRANCH   1   2
BRANCH   1  11
ATOM     11  C   UNL     1      26.573  20.703  58.800  1.00  0.00     0.000 C 
BRANCH  11  12
ATOM     12  C   UNL     1      25.781  21.854  58.154  1.00  0.00     0.000 C 
BRANCH  12  13
ATOM     13  C   UNL     1      24.396  22.120  58.777  1.00  0.00     0.000 C 
BRANCH  13  14
ATOM     14  C   UNL     1      24.007  21.179  59.936  1.00  0.00     0.000 C 
BRANCH  14  15
ATOM     15  C   UNL     1      24.537  21.598  61.319  1.00  0.00     0.000 C 
BRANCH  15  16
ATOM     16  C   UNL     1      23.580  21.230  62.461  1.00  0.00     0.006 C 
BRANCH  16  17
ATOM     17  C   UNL     1      24.314  21.209  63.805  1.00  0.00     0.053 C 
BRANCH  17  18
ATOM     18  C   UNL     1      25.600  20.451  63.688  1.00  0.00     0.041 C 
ATOM     19  O   UNL     1      26.701  21.061  63.722  1.00  0.00    -0.550 OA
ATOM     20  O   UNL     1      25.580  19.076  63.492  1.00  0.00    -0.550 OA
ENDBRANCH  17  18
ENDBRANCH  16  17
ENDBRANCH  15  16
ENDBRANCH  14  15
ENDBRANCH  13  14
ENDBRANCH  12  13
ENDBRANCH  11  12
ENDBRANCH   1  11
TORSDOF 15
ENDMDL
MODEL 7
REMARK VINA RESULT:    -2.248      3.066      4.060
REMARK INTER + INTRA:          -6.072
REMARK INTER:                  -5.145
REMARK INTRA:                  -0.927
REMARK UNBOUND:                -1.853
REMARK SMILES O=C([O-])CCCCCCCCCCCCCCC(=O)[O-]
REMARK SMILES IDX 10 1 9 2 8 3 7 4 6 5 5 6 4 7 2 8 1 9 3 10 11 11 12 12 13 13
REMARK SMILES IDX 14 14 15 15 16 16 17 17 18 18 19 19 20 20
REMARK H PARENT
REMARK Flexibility Score: inf
ROOT
ATOM      1  C   UNL     1      26.657  19.564  58.475  1.00  0.00     0.000 C 
ENDROOT
BRANCH   1   2
ATOM      2  C   UNL     1      26.591  19.348  56.958  1.00  0.00     0.000 C 
BRANCH   2   3
ATOM      3  C   UNL     1      25.484  20.209  56.329  1.00  0.00     0.000 C 
BRANCH   3   4
ATOM      4  C   UNL     1      26.026  21.214  55.300  1.00  0.00     0.000 C 
BRANCH   4   5
ATOM      5  C   UNL     1      27.335  21.880  55.757  1.00  0.00     0.000 C 
BRANCH   5   6
ATOM      6  C   UNL     1      28.567  21.326  55.023  1.00  0.00     0.006 C 
BRANCH   6   7
ATOM      7  C   UNL     1      29.843  22.125  55.321  1.00  0.00     0.053 C 
BRANCH   7   8
ATOM      8  C   UNL     1      31.055  21.305  55.012  1.00  0.00     0.041 C 
ATOM      9  O   UNL     1      30.957  20.272  54.297  1.00  0.00    -0.550 OA
ATOM     10  O   UNL     1      32.303  21.707  55.471  1.00  0.00    -0.550 OA
ENDBRANCH   7   8
ENDBRANCH   6   7
ENDBRANCH   5   6
ENDBRANCH   4   5
ENDBRANCH   3   4
ENDBRANCH   2   3
ENDBRANCH   1   2
BRANCH   1  11
ATOM     11  C   UNL     1      27.080  21.004  58.806  1.00  0.00     0.000 C 
BRANCH  11  12
ATOM     12  C   UNL     1      26.121  21.696  59.791  1.00  0.00     0.000 C 
BRANCH  12  13
ATOM     13  C   UNL     1      24.761  22.109  59.193  1.00  0.00     0.000 C 
BRANCH  13  14
ATOM     14  C   UNL     1      23.582  22.117  60.188  1.00  0.00     0.000 C 
BRANCH  14  15
ATOM     15  C   UNL     1      23.780  21.237  61.435  1.00  0.00     0.000 C 
BRANCH  15  16
ATOM     16  C   UNL     1      24.060  22.055  62.704  1.00  0.00     0.006 C 
BRANCH  16  17
ATOM     17  C   UNL     1      24.630  21.166  63.813  1.00  0.00     0.053 C 
BRANCH  17  18
ATOM     18  C   UNL     1      26.005  20.697  63.454  1.00  0.00     0.041 C 
ATOM     19  O   UNL     1      26.899  21.529  63.146  1.00  0.00    -0.550 OA
ATOM     20  O   UNL     1      26.287  19.337  63.412  1.00  0.00    -0.550 OA
ENDBRANCH  17  18
ENDBRANCH  16  17
ENDBRANCH  15  16
ENDBRANCH  14  15
ENDBRANCH  13  14
ENDBRANCH  12  13
ENDBRANCH  11  12
ENDBRANCH   1  11
TORSDOF 15
ENDMDL
MODEL 8
REMARK VINA RESULT:    -1.669      1.954      7.149
REMARK INTER + INTRA:          -4.985
REMARK INTER:                  -4.341
REMARK INTRA:                  -0.643
REMARK UNBOUND:                -1.853
REMARK SMILES O=C([O-])CCCCCCCCCCCCCCC(=O)[O-]
REMARK SMILES IDX 10 1 9 2 8 3 7 4 6 5 5 6 4 7 2 8 1 9 3 10 11 11 12 12 13 13
REMARK SMILES IDX 14 14 15 15 16 16 17 17 18 18 19 19 20 20
REMARK H PARENT
REMARK Flexibility Score: inf
ROOT
ATOM      1  C   UNL     1      26.999  20.378  59.117  1.00  0.00     0.000 C 
ENDROOT
BRANCH   1   2
ATOM      2  C   UNL     1      27.724  21.474  59.907  1.00  0.00     0.000 C 
BRANCH   2   3
ATOM      3  C   UNL     1      26.788  22.113  60.945  1.00  0.00     0.000 C 
BRANCH   3   4
ATOM      4  C   UNL     1      25.319  22.125  60.493  1.00  0.00     0.000 C 
BRANCH   4   5
ATOM      5  C   UNL     1      24.426  21.219  61.359  1.00  0.00     0.000 C 
BRANCH   5   6
ATOM      6  C   UNL     1      24.237  21.765  62.783  1.00  0.00     0.006 C 
BRANCH   6   7
ATOM      7  C   UNL     1      24.443  20.692  63.861  1.00  0.00     0.053 C 
BRANCH   7   8
ATOM      8  C   UNL     1      25.832  20.141  63.789  1.00  0.00     0.041 C 
ATOM      9  O   UNL     1      26.035  18.911  63.967  1.00  0.00    -0.550 OA
ATOM     10  O   UNL     1      26.897  20.977  63.477  1.00  0.00    -0.550 OA
ENDBRANCH   7   8
ENDBRANCH   6   7
ENDBRANCH   5   6
ENDBRANCH   4   5
ENDBRANCH   3   4
ENDBRANCH   2   3
ENDBRANCH   1   2
BRANCH   1  11
ATOM     11  C   UNL     1      27.294  20.498  57.614  1.00  0.00     0.000 C 
BRANCH  11  12
ATOM     12  C   UNL     1      26.077  20.157  56.736  1.00  0.00     0.000 C 
BRANCH  12  13
ATOM     13  C   UNL     1      24.779  19.856  57.512  1.00  0.00     0.000 C 
BRANCH  13  14
ATOM     14  C   UNL     1      23.659  19.193  56.684  1.00  0.00     0.000 C 
BRANCH  14  15
ATOM     15  C   UNL     1      24.146  18.257  55.565  1.00  0.00     0.000 C 
BRANCH  15  16
ATOM     16  C   UNL     1      23.803  18.776  54.161  1.00  0.00     0.006 C 
BRANCH  16  17
ATOM     17  C   UNL     1      22.878  19.994  54.240  1.00  0.00     0.053 C 
BRANCH  17  18
ATOM     18  C   UNL     1      23.575  21.216  53.729  1.00  0.00     0.041 C 
ATOM     19  O   UNL     1      22.948  22.064  53.041  1.00  0.00    -0.550 OA
ATOM     20  O   UNL     1      24.932  21.394  53.971  1.00  0.00    -0.550 OA
ENDBRANCH  17  18
ENDBRANCH  16  17
ENDBRANCH  15  16
ENDBRANCH  14  15
ENDBRANCH  13  14
ENDBRANCH  12  13
ENDBRANCH  11  12
ENDBRANCH   1  11
TORSDOF 15
ENDMDL
MODEL 9
REMARK VINA RESULT:    -1.284      0.951      1.316
REMARK INTER + INTRA:          -4.263
REMARK INTER:                  -3.492
REMARK INTRA:                  -0.771
REMARK UNBOUND:                -1.853
REMARK SMILES O=C([O-])CCCCCCCCCCCCCCC(=O)[O-]
REMARK SMILES IDX 10 1 9 2 8 3 7 4 6 5 5 6 4 7 2 8 1 9 3 10 11 11 12 12 13 13
REMARK SMILES IDX 14 14 15 15 16 16 17 17 18 18 19 19 20 20
REMARK H PARENT
REMARK Flexibility Score: inf
ROOT
ATOM      1  C   UNL     1      26.918  20.079  56.973  1.00  0.00     0.000 C 
ENDROOT
BRANCH   1   2
ATOM      2  C   UNL     1      26.712  20.601  55.546  1.00  0.00     0.000 C 
BRANCH   2   3
ATOM      3  C   UNL     1      25.688  21.747  55.523  1.00  0.00     0.000 C 
BRANCH   3   4
ATOM      4  C   UNL     1      24.887  21.801  54.213  1.00  0.00     0.000 C 
BRANCH   4   5
ATOM      5  C   UNL     1      23.373  21.942  54.451  1.00  0.00     0.000 C 
BRANCH   5   6
ATOM      6  C   UNL     1      22.891  21.141  55.671  1.00  0.00     0.006 C 
BRANCH   6   7
ATOM      7  C   UNL     1      22.886  19.627  55.422  1.00  0.00     0.053 C 
BRANCH   7   8
ATOM      8  C   UNL     1      23.350  18.897  56.643  1.00  0.00     0.041 C 
ATOM      9  O   UNL     1      22.923  19.230  57.781  1.00  0.00    -0.550 OA
ATOM     10  O   UNL     1      24.214  17.816  56.521  1.00  0.00    -0.550 OA
ENDBRANCH   7   8
ENDBRANCH   6   7
ENDBRANCH   5   6
ENDBRANCH   4   5
ENDBRANCH   3   4
ENDBRANCH   2   3
ENDBRANCH   1   2
BRANCH   1  11
ATOM     11  C   UNL     1      26.758  21.210  58.000  1.00  0.00     0.000 C 
BRANCH  11  12
ATOM     12  C   UNL     1      27.363  20.862  59.372  1.00  0.00     0.000 C 
BRANCH  12  13
ATOM     13  C   UNL     1      26.937  21.794  60.525  1.00  0.00     0.000 C 
BRANCH  13  14
ATOM     14  C   UNL     1      25.432  22.125  60.579  1.00  0.00     0.000 C 
BRANCH  14  15
ATOM     15  C   UNL     1      24.548  21.030  61.202  1.00  0.00     0.000 C 
BRANCH  15  16
ATOM     16  C   UNL     1      24.130  21.351  62.645  1.00  0.00     0.006 C 
BRANCH  16  17
ATOM     17  C   UNL     1      25.329  21.266  63.593  1.00  0.00     0.053 C 
BRANCH  17  18
ATOM     18  C   UNL     1      25.909  19.886  63.583  1.00  0.00     0.041 C 
ATOM     19  O   UNL     1      26.658  19.520  62.639  1.00  0.00    -0.550 OA
ATOM     20  O   UNL     1      25.583  18.988  64.591  1.00  0.00    -0.550 OA
ENDBRANCH  17  18
ENDBRANCH  16  17
ENDBRANCH  15  16
ENDBRANCH  14  15
ENDBRANCH  13  14
ENDBRANCH  12  13
ENDBRANCH  11  12
ENDBRANCH   1  11
TORSDOF 15
ENDMDL
