MODEL 1
REMARK VINA RESULT:    -5.201      0.000      0.000
REMARK INTER + INTRA:          -5.201
REMARK INTER:                  -5.201
REMARK INTRA:                   0.000
REMARK UNBOUND:                 0.000
REMARK SMILES CC1=CC(=O)[C@@H]2C[C@H]1C2(C)C
REMARK SMILES IDX 1 1 2 2 3 3 4 4 5 5 6 6 7 7 8 8 9 9 10 10 11 11
REMARK H PARENT
REMARK Flexibility Score: inf
ROOT
ATOM      1  C   UNL     1     -17.035  14.362 -29.016  1.00  0.00     0.040 C 
ATOM      2  C   UNL     1     -16.001  14.298 -30.095  1.00  0.00    -0.066 C 
ATOM      3  C   UNL     1     -16.331  14.281 -31.418  1.00  0.00     0.047 C 
ATOM      4  C   UNL     1     -15.187  14.217 -32.384  1.00  0.00     0.159 C 
ATOM      5  O   UNL     1     -15.359  14.240 -33.630  1.00  0.00    -0.295 OA
ATOM      6  C   UNL     1     -13.799  14.121 -31.750  1.00  0.00     0.067 C 
ATOM      7  C   UNL     1     -13.961  13.052 -30.647  1.00  0.00     0.021 C 
ATOM      8  C   UNL     1     -14.503  14.188 -29.748  1.00  0.00     0.022 C 
ATOM      9  C   UNL     1     -13.694  15.189 -30.624  1.00  0.00    -0.019 C 
ATOM     10  C   UNL     1     -12.241  15.374 -30.119  1.00  0.00     0.012 C 
ATOM     11  C   UNL     1     -14.302  16.597 -30.882  1.00  0.00     0.012 C 
ENDROOT
TORSDOF 0
ENDMDL
MODEL 2
REMARK VINA RESULT:    -5.084     10.711     12.758
REMARK INTER + INTRA:          -5.084
REMARK INTER:                  -5.084
REMARK INTRA:                   0.000
REMARK UNBOUND:                 0.000
REMARK SMILES CC1=CC(=O)[C@@H]2C[C@H]1C2(C)C
REMARK SMILES IDX 1 1 2 2 3 3 4 4 5 5 6 6 7 7 8 8 9 9 10 10 11 11
REMARK H PARENT
REMARK Flexibility Score: inf
ROOT
ATOM      1  C   UNL     1     -24.369  11.214 -28.558  1.00  0.00     0.040 C 
ATOM      2  C   UNL     1     -25.534  12.000 -29.073  1.00  0.00    -0.066 C 
ATOM      3  C   UNL     1     -25.379  13.194 -29.713  1.00  0.00     0.047 C 
ATOM      4  C   UNL     1     -26.637  13.864 -30.175  1.00  0.00     0.159 C 
ATOM      5  O   UNL     1     -26.624  14.948 -30.814  1.00  0.00    -0.295 OA
ATOM      6  C   UNL     1     -27.935  13.141 -29.814  1.00  0.00     0.067 C 
ATOM      7  C   UNL     1     -27.749  12.748 -28.332  1.00  0.00     0.021 C 
ATOM      8  C   UNL     1     -26.979  11.511 -28.848  1.00  0.00     0.022 C 
ATOM      9  C   UNL     1     -27.780  11.636 -30.177  1.00  0.00    -0.019 C 
ATOM     10  C   UNL     1     -29.129  10.875 -30.125  1.00  0.00     0.012 C 
ATOM     11  C   UNL     1     -27.063  11.267 -31.506  1.00  0.00     0.012 C 
ENDROOT
TORSDOF 0
ENDMDL
MODEL 3
REMARK VINA RESULT:    -5.063     10.981     12.422
REMARK INTER + INTRA:          -5.063
REMARK INTER:                  -5.063
REMARK INTRA:                   0.000
REMARK UNBOUND:                 0.000
REMARK SMILES CC1=CC(=O)[C@@H]2C[C@H]1C2(C)C
REMARK SMILES IDX 1 1 2 2 3 3 4 4 5 5 6 6 7 7 8 8 9 9 10 10 11 11
REMARK H PARENT
REMARK Flexibility Score: inf
ROOT
ATOM      1  C   UNL     1     -27.333  10.875 -32.659  1.00  0.00     0.040 C 
ATOM      2  C   UNL     1     -26.848  11.797 -31.586  1.00  0.00    -0.066 C 
ATOM      3  C   UNL     1     -26.623  13.122 -31.814  1.00  0.00     0.047 C 
ATOM      4  C   UNL     1     -26.140  13.922 -30.641  1.00  0.00     0.159 C 
ATOM      5  O   UNL     1     -25.938  15.162 -30.712  1.00  0.00    -0.295 OA
ATOM      6  C   UNL     1     -25.909  13.126 -29.356  1.00  0.00     0.067 C 
ATOM      7  C   UNL     1     -25.143  11.869 -29.824  1.00  0.00     0.021 C 
ATOM      8  C   UNL     1     -26.523  11.266 -30.175  1.00  0.00     0.022 C 
ATOM      9  C   UNL     1     -27.145  12.215 -29.110  1.00  0.00    -0.019 C 
ATOM     10  C   UNL     1     -27.144  11.590 -27.692  1.00  0.00     0.012 C 
ATOM     11  C   UNL     1     -28.560  12.799 -29.383  1.00  0.00     0.012 C 
ENDROOT
TORSDOF 0
ENDMDL
MODEL 4
REMARK VINA RESULT:    -4.980     11.462     13.487
REMARK INTER + INTRA:          -4.980
REMARK INTER:                  -4.980
REMARK INTRA:                   0.000
REMARK UNBOUND:                 0.000
REMARK SMILES CC1=CC(=O)[C@@H]2C[C@H]1C2(C)C
REMARK SMILES IDX 1 1 2 2 3 3 4 4 5 5 6 6 7 7 8 8 9 9 10 10 11 11
REMARK H PARENT
REMARK Flexibility Score: inf
ROOT
ATOM      1  C   UNL     1     -25.775  14.395 -30.493  1.00  0.00     0.040 C 
ATOM      2  C   UNL     1     -26.439  13.175 -29.938  1.00  0.00    -0.066 C 
ATOM      3  C   UNL     1     -26.168  12.705 -28.687  1.00  0.00     0.047 C 
ATOM      4  C   UNL     1     -26.913  11.473 -28.267  1.00  0.00     0.159 C 
ATOM      5  O   UNL     1     -26.782  10.968 -27.123  1.00  0.00    -0.295 OA
ATOM      6  C   UNL     1     -27.838  10.875 -29.327  1.00  0.00     0.067 C 
ATOM      7  C   UNL     1     -26.990  10.883 -30.618  1.00  0.00     0.021 C 
ATOM      8  C   UNL     1     -27.428  12.356 -30.792  1.00  0.00     0.022 C 
ATOM      9  C   UNL     1     -28.690  12.022 -29.944  1.00  0.00    -0.019 C 
ATOM     10  C   UNL     1     -29.858  11.489 -30.811  1.00  0.00     0.012 C 
ATOM     11  C   UNL     1     -29.249  13.119 -28.995  1.00  0.00     0.012 C 
ENDROOT
TORSDOF 0
ENDMDL
MODEL 5
REMARK VINA RESULT:    -4.965      1.535      3.356
REMARK INTER + INTRA:          -4.965
REMARK INTER:                  -4.965
REMARK INTRA:                   0.000
REMARK UNBOUND:                 0.000
REMARK SMILES CC1=CC(=O)[C@@H]2C[C@H]1C2(C)C
REMARK SMILES IDX 1 1 2 2 3 3 4 4 5 5 6 6 7 7 8 8 9 9 10 10 11 11
REMARK H PARENT
REMARK Flexibility Score: inf
ROOT
ATOM      1  C   UNL     1     -14.162  17.117 -30.592  1.00  0.00     0.040 C 
ATOM      2  C   UNL     1     -14.395  15.669 -30.884  1.00  0.00    -0.066 C 
ATOM      3  C   UNL     1     -13.414  14.732 -30.746  1.00  0.00     0.047 C 
ATOM      4  C   UNL     1     -13.797  13.320 -31.073  1.00  0.00     0.159 C 
ATOM      5  O   UNL     1     -12.994  12.360 -30.944  1.00  0.00    -0.295 OA
ATOM      6  C   UNL     1     -15.229  13.130 -31.575  1.00  0.00     0.067 C 
ATOM      7  C   UNL     1     -15.420  14.259 -32.610  1.00  0.00     0.021 C 
ATOM      8  C   UNL     1     -15.758  15.179 -31.415  1.00  0.00     0.022 C 
ATOM      9  C   UNL     1     -16.191  13.906 -30.631  1.00  0.00    -0.019 C 
ATOM     10  C   UNL     1     -17.677  13.542 -30.874  1.00  0.00     0.012 C 
ATOM     11  C   UNL     1     -15.923  13.859 -29.100  1.00  0.00     0.012 C 
ENDROOT
TORSDOF 0
ENDMDL
MODEL 6
REMARK VINA RESULT:    -4.885     11.408     12.789
REMARK INTER + INTRA:          -4.885
REMARK INTER:                  -4.885
REMARK INTRA:                   0.000
REMARK UNBOUND:                 0.000
REMARK SMILES CC1=CC(=O)[C@@H]2C[C@H]1C2(C)C
REMARK SMILES IDX 1 1 2 2 3 3 4 4 5 5 6 6 7 7 8 8 9 9 10 10 11 11
REMARK H PARENT
REMARK Flexibility Score: inf
ROOT
ATOM      1  C   UNL     1     -25.864  14.999 -30.139  1.00  0.00     0.040 C 
ATOM      2  C   UNL     1     -26.541  13.671 -30.258  1.00  0.00    -0.066 C 
ATOM      3  C   UNL     1     -26.600  12.988 -31.436  1.00  0.00     0.047 C 
ATOM      4  C   UNL     1     -27.309  11.667 -31.401  1.00  0.00     0.159 C 
ATOM      5  O   UNL     1     -27.393  10.924 -32.412  1.00  0.00    -0.295 OA
ATOM      6  C   UNL     1     -27.924  11.290 -30.053  1.00  0.00     0.067 C 
ATOM      7  C   UNL     1     -28.634  12.581 -29.587  1.00  0.00     0.021 C 
ATOM      8  C   UNL     1     -27.259  13.038 -29.048  1.00  0.00     0.022 C 
ATOM      9  C   UNL     1     -26.865  11.536 -28.940  1.00  0.00    -0.019 C 
ATOM     10  C   UNL     1     -27.280  10.915 -27.583  1.00  0.00     0.012 C 
ATOM     11  C   UNL     1     -25.389  11.141 -29.225  1.00  0.00     0.012 C 
ENDROOT
TORSDOF 0
ENDMDL
MODEL 7
REMARK VINA RESULT:    -4.858      0.917      3.154
REMARK INTER + INTRA:          -4.858
REMARK INTER:                  -4.858
REMARK INTRA:                   0.000
REMARK UNBOUND:                 0.000
REMARK SMILES CC1=CC(=O)[C@@H]2C[C@H]1C2(C)C
REMARK SMILES IDX 1 1 2 2 3 3 4 4 5 5 6 6 7 7 8 8 9 9 10 10 11 11
REMARK H PARENT
REMARK Flexibility Score: inf
ROOT
ATOM      1  C   UNL     1     -12.168  15.351 -30.249  1.00  0.00     0.040 C 
ATOM      2  C   UNL     1     -13.423  14.985 -30.977  1.00  0.00    -0.066 C 
ATOM      3  C   UNL     1     -13.423  14.637 -32.295  1.00  0.00     0.047 C 
ATOM      4  C   UNL     1     -14.757  14.293 -32.887  1.00  0.00     0.159 C 
ATOM      5  O   UNL     1     -14.883  13.915 -34.081  1.00  0.00    -0.295 OA
ATOM      6  C   UNL     1     -15.950  14.435 -31.942  1.00  0.00     0.067 C 
ATOM      7  C   UNL     1     -15.722  15.796 -31.248  1.00  0.00     0.021 C 
ATOM      8  C   UNL     1     -14.792  15.042 -30.269  1.00  0.00     0.022 C 
ATOM      9  C   UNL     1     -15.595  13.748 -30.592  1.00  0.00    -0.019 C 
ATOM     10  C   UNL     1     -16.832  13.579 -29.674  1.00  0.00     0.012 C 
ATOM     11  C   UNL     1     -14.828  12.397 -30.629  1.00  0.00     0.012 C 
ENDROOT
TORSDOF 0
ENDMDL
MODEL 8
REMARK VINA RESULT:    -4.767     10.993     12.436
REMARK INTER + INTRA:          -4.767
REMARK INTER:                  -4.767
REMARK INTRA:                   0.000
REMARK UNBOUND:                 0.000
REMARK SMILES CC1=CC(=O)[C@@H]2C[C@H]1C2(C)C
REMARK SMILES IDX 1 1 2 2 3 3 4 4 5 5 6 6 7 7 8 8 9 9 10 10 11 11
REMARK H PARENT
REMARK Flexibility Score: inf
ROOT
ATOM      1  C   UNL     1     -29.251  12.739 -28.349  1.00  0.00     0.040 C 
ATOM      2  C   UNL     1     -27.837  12.648 -28.831  1.00  0.00    -0.066 C 
ATOM      3  C   UNL     1     -26.870  11.995 -28.127  1.00  0.00     0.047 C 
ATOM      4  C   UNL     1     -25.500  11.986 -28.737  1.00  0.00     0.159 C 
ATOM      5  O   UNL     1     -24.533  11.381 -28.205  1.00  0.00    -0.295 OA
ATOM      6  C   UNL     1     -25.361  12.764 -30.046  1.00  0.00     0.067 C 
ATOM      7  C   UNL     1     -26.095  14.095 -29.774  1.00  0.00     0.021 C 
ATOM      8  C   UNL     1     -27.400  13.348 -30.134  1.00  0.00     0.022 C 
ATOM      9  C   UNL     1     -26.538  12.369 -30.983  1.00  0.00    -0.019 C 
ATOM     10  C   UNL     1     -26.332  12.872 -32.433  1.00  0.00     0.012 C 
ATOM     11  C   UNL     1     -26.966  10.875 -31.042  1.00  0.00     0.012 C 
ENDROOT
TORSDOF 0
ENDMDL
MODEL 9
REMARK VINA RESULT:    -4.696     11.396     12.700
REMARK INTER + INTRA:          -4.696
REMARK INTER:                  -4.696
REMARK INTRA:                   0.000
REMARK UNBOUND:                 0.000
REMARK SMILES CC1=CC(=O)[C@@H]2C[C@H]1C2(C)C
REMARK SMILES IDX 1 1 2 2 3 3 4 4 5 5 6 6 7 7 8 8 9 9 10 10 11 11
REMARK H PARENT
REMARK Flexibility Score: inf
ROOT
ATOM      1  C   UNL     1     -24.604  11.239 -27.881  1.00  0.00     0.040 C 
ATOM      2  C   UNL     1     -25.862  11.635 -28.587  1.00  0.00    -0.066 C 
ATOM      3  C   UNL     1     -26.993  11.990 -27.913  1.00  0.00     0.047 C 
ATOM      4  C   UNL     1     -28.175  12.365 -28.755  1.00  0.00     0.159 C 
ATOM      5  O   UNL     1     -29.262  12.751 -28.253  1.00  0.00    -0.295 OA
ATOM      6  C   UNL     1     -27.968  12.244 -30.265  1.00  0.00     0.067 C 
ATOM      7  C   UNL     1     -27.274  10.875 -30.443  1.00  0.00     0.021 C 
ATOM      8  C   UNL     1     -25.948  11.604 -30.126  1.00  0.00     0.022 C 
ATOM      9  C   UNL     1     -26.614  12.916 -30.634  1.00  0.00    -0.019 C 
ATOM     10  C   UNL     1     -26.448  13.108 -32.162  1.00  0.00     0.012 C 
ATOM     11  C   UNL     1     -26.237  14.251 -29.932  1.00  0.00     0.012 C 
ENDROOT
TORSDOF 0
ENDMDL
