MODEL 1
REMARK VINA RESULT:    -3.250      0.000      0.000
REMARK INTER + INTRA:          -4.551
REMARK INTER:                  -4.390
REMARK INTRA:                  -0.161
REMARK UNBOUND:                -0.161
REMARK SMILES [NH3+]CCCC[C@@H]([NH3+])C(=O)[O-]
REMARK SMILES IDX 4 1 3 2 2 3 1 4 5 8 6 9 7 10 8 14 9 15 10 16
REMARK H PARENT 1 5 1 6 1 7 7 11 7 12 7 13
REMARK Flexibility Score: inf
ROOT
ATOM      1  C   UNL     1     143.679 139.786 148.434  1.00  0.00     0.012 C 
ENDROOT
BRANCH   1   2
ATOM      2  C   UNL     1     143.181 138.336 148.508  1.00  0.00     0.061 C 
BRANCH   2   3
ATOM      3  C   UNL     1     142.364 137.970 147.262  1.00  0.00     0.258 C 
BRANCH   3   4
ATOM      4  N   UNL     1     141.282 137.046 147.599  1.00  0.00    -0.358 N 
ATOM      5  H   UNL     1     140.950 136.575 146.727  1.00  0.00     0.344 HD
ATOM      6  H   UNL     1     141.626 136.317 148.267  1.00  0.00     0.344 HD
ATOM      7  H   UNL     1     140.483 137.568 148.026  1.00  0.00     0.344 HD
ENDBRANCH   3   4
ENDBRANCH   2   3
ENDBRANCH   1   2
BRANCH   1   8
ATOM      8  C   UNL     1     145.199 139.921 148.654  1.00  0.00     0.072 C 
BRANCH   8   9
ATOM      9  C   UNL     1     145.859 138.670 149.287  1.00  0.00     0.227 C 
BRANCH   9  10
ATOM     10  N   UNL     1     146.988 138.218 148.464  1.00  0.00    -0.350 N 
ATOM     11  H   UNL     1     147.301 137.264 148.761  1.00  0.00     0.345 HD
ATOM     12  H   UNL     1     146.706 138.190 147.457  1.00  0.00     0.345 HD
ATOM     13  H   UNL     1     147.788 138.886 148.558  1.00  0.00     0.345 HD
ENDBRANCH   9  10
BRANCH   9  14
ATOM     14  C   UNL     1     146.339 138.945 150.688  1.00  0.00     0.099 C 
ATOM     15  O   UNL     1     146.801 140.077 150.987  1.00  0.00    -0.544 OA
ATOM     16  O   UNL     1     146.237 137.967 151.671  1.00  0.00    -0.544 OA
ENDBRANCH   9  14
ENDBRANCH   8   9
ENDBRANCH   1   8
TORSDOF 7
ENDMDL
MODEL 2
REMARK VINA RESULT:    -3.195     16.290     17.126
REMARK INTER + INTRA:          -4.478
REMARK INTER:                  -4.055
REMARK INTRA:                  -0.423
REMARK UNBOUND:                -0.161
REMARK SMILES [NH3+]CCCC[C@@H]([NH3+])C(=O)[O-]
REMARK SMILES IDX 4 1 3 2 2 3 1 4 5 8 6 9 7 10 8 14 9 15 10 16
REMARK H PARENT 1 5 1 6 1 7 7 11 7 12 7 13
REMARK Flexibility Score: inf
ROOT
ATOM      1  C   UNL     1     156.557 149.032 146.495  1.00  0.00     0.012 C 
ENDROOT
BRANCH   1   2
ATOM      2  C   UNL     1     157.339 147.729 146.708  1.00  0.00     0.061 C 
BRANCH   2   3
ATOM      3  C   UNL     1     158.749 147.829 146.112  1.00  0.00     0.258 C 
BRANCH   3   4
ATOM      4  N   UNL     1     159.762 147.862 147.166  1.00  0.00    -0.358 N 
ATOM      5  H   UNL     1     160.694 148.069 146.739  1.00  0.00     0.344 HD
ATOM      6  H   UNL     1     159.534 148.611 147.861  1.00  0.00     0.344 HD
ATOM      7  H   UNL     1     159.810 146.935 147.648  1.00  0.00     0.344 HD
ENDBRANCH   3   4
ENDBRANCH   2   3
ENDBRANCH   1   2
BRANCH   1   8
ATOM      8  C   UNL     1     157.432 150.295 146.613  1.00  0.00     0.072 C 
BRANCH   8   9
ATOM      9  C   UNL     1     157.108 151.176 147.846  1.00  0.00     0.227 C 
BRANCH   9  10
ATOM     10  N   UNL     1     155.696 151.579 147.828  1.00  0.00    -0.350 N 
ATOM     11  H   UNL     1     155.558 152.463 148.370  1.00  0.00     0.345 HD
ATOM     12  H   UNL     1     155.380 151.727 146.841  1.00  0.00     0.345 HD
ATOM     13  H   UNL     1     155.105 150.824 148.246  1.00  0.00     0.345 HD
ENDBRANCH   9  10
BRANCH   9  14
ATOM     14  C   UNL     1     157.409 150.459 149.136  1.00  0.00     0.099 C 
ATOM     15  O   UNL     1     156.561 150.453 150.067  1.00  0.00    -0.544 OA
ATOM     16  O   UNL     1     158.602 149.764 149.293  1.00  0.00    -0.544 OA
ENDBRANCH   9  14
ENDBRANCH   8   9
ENDBRANCH   1   8
TORSDOF 7
ENDMDL
MODEL 3
REMARK VINA RESULT:    -3.161     20.544     21.486
REMARK INTER + INTRA:          -4.431
REMARK INTER:                  -3.856
REMARK INTRA:                  -0.575
REMARK UNBOUND:                -0.161
REMARK SMILES [NH3+]CCCC[C@@H]([NH3+])C(=O)[O-]
REMARK SMILES IDX 4 1 3 2 2 3 1 4 5 8 6 9 7 10 8 14 9 15 10 16
REMARK H PARENT 1 5 1 6 1 7 7 11 7 12 7 13
REMARK Flexibility Score: inf
ROOT
ATOM      1  C   UNL     1     145.055 155.932 161.904  1.00  0.00     0.012 C 
ENDROOT
BRANCH   1   2
ATOM      2  C   UNL     1     145.882 154.940 161.074  1.00  0.00     0.061 C 
BRANCH   2   3
ATOM      3  C   UNL     1     145.103 153.640 160.832  1.00  0.00     0.258 C 
BRANCH   3   4
ATOM      4  N   UNL     1     143.847 153.637 161.580  1.00  0.00    -0.358 N 
ATOM      5  H   UNL     1     143.906 152.929 162.347  1.00  0.00     0.344 HD
ATOM      6  H   UNL     1     143.677 154.579 162.003  1.00  0.00     0.344 HD
ATOM      7  H   UNL     1     143.052 153.385 160.948  1.00  0.00     0.344 HD
ENDBRANCH   3   4
ENDBRANCH   2   3
ENDBRANCH   1   2
BRANCH   1   8
ATOM      8  C   UNL     1     145.759 156.379 163.200  1.00  0.00     0.072 C 
BRANCH   8   9
ATOM      9  C   UNL     1     145.179 155.738 164.487  1.00  0.00     0.227 C 
BRANCH   9  10
ATOM     10  N   UNL     1     143.715 155.657 164.401  1.00  0.00    -0.350 N 
ATOM     11  H   UNL     1     143.286 156.604 164.530  1.00  0.00     0.345 HD
ATOM     12  H   UNL     1     143.433 155.276 163.468  1.00  0.00     0.345 HD
ATOM     13  H   UNL     1     143.350 155.011 165.138  1.00  0.00     0.345 HD
ENDBRANCH   9  10
BRANCH   9  14
ATOM     14  C   UNL     1     145.743 154.361 164.724  1.00  0.00     0.099 C 
ATOM     15  O   UNL     1     145.079 153.342 164.399  1.00  0.00    -0.544 OA
ATOM     16  O   UNL     1     147.014 154.205 165.264  1.00  0.00    -0.544 OA
ENDBRANCH   9  14
ENDBRANCH   8   9
ENDBRANCH   1   8
TORSDOF 7
ENDMDL
MODEL 4
REMARK VINA RESULT:    -3.111     17.106     18.044
REMARK INTER + INTRA:          -4.364
REMARK INTER:                  -4.239
REMARK INTRA:                  -0.124
REMARK UNBOUND:                -0.161
REMARK SMILES [NH3+]CCCC[C@@H]([NH3+])C(=O)[O-]
REMARK SMILES IDX 4 1 3 2 2 3 1 4 5 8 6 9 7 10 8 14 9 15 10 16
REMARK H PARENT 1 5 1 6 1 7 7 11 7 12 7 13
REMARK Flexibility Score: inf
ROOT
ATOM      1  C   UNL     1     157.591 149.686 148.268  1.00  0.00     0.012 C 
ENDROOT
BRANCH   1   2
ATOM      2  C   UNL     1     157.891 149.325 146.806  1.00  0.00     0.061 C 
BRANCH   2   3
ATOM      3  C   UNL     1     158.351 147.867 146.682  1.00  0.00     0.258 C 
BRANCH   3   4
ATOM      4  N   UNL     1     159.568 147.770 145.877  1.00  0.00    -0.358 N 
ATOM      5  H   UNL     1     159.421 148.273 144.972  1.00  0.00     0.344 HD
ATOM      6  H   UNL     1     160.371 148.211 146.383  1.00  0.00     0.344 HD
ATOM      7  H   UNL     1     159.787 146.767 145.674  1.00  0.00     0.344 HD
ENDBRANCH   3   4
ENDBRANCH   2   3
ENDBRANCH   1   2
BRANCH   1   8
ATOM      8  C   UNL     1     157.637 151.201 148.544  1.00  0.00     0.072 C 
BRANCH   8   9
ATOM      9  C   UNL     1     158.651 151.614 149.641  1.00  0.00     0.227 C 
BRANCH   9  10
ATOM     10  N   UNL     1     158.782 153.076 149.691  1.00  0.00    -0.350 N 
ATOM     11  H   UNL     1     159.384 153.364 150.496  1.00  0.00     0.345 HD
ATOM     12  H   UNL     1     159.206 153.426 148.800  1.00  0.00     0.345 HD
ATOM     13  H   UNL     1     157.838 153.515 149.793  1.00  0.00     0.345 HD
ENDBRANCH   9  10
BRANCH   9  14
ATOM     14  C   UNL     1     158.243 151.101 150.997  1.00  0.00     0.099 C 
ATOM     15  O   UNL     1     159.053 150.431 151.689  1.00  0.00    -0.544 OA
ATOM     16  O   UNL     1     156.987 151.400 151.513  1.00  0.00    -0.544 OA
ENDBRANCH   9  14
ENDBRANCH   8   9
ENDBRANCH   1   8
TORSDOF 7
ENDMDL
MODEL 5
REMARK VINA RESULT:    -3.105      1.594      1.922
REMARK INTER + INTRA:          -4.356
REMARK INTER:                  -4.197
REMARK INTRA:                  -0.159
REMARK UNBOUND:                -0.161
REMARK SMILES [NH3+]CCCC[C@@H]([NH3+])C(=O)[O-]
REMARK SMILES IDX 4 1 3 2 2 3 1 4 5 8 6 9 7 10 8 14 9 15 10 16
REMARK H PARENT 1 5 1 6 1 7 7 11 7 12 7 13
REMARK Flexibility Score: inf
ROOT
ATOM      1  C   UNL     1     144.070 139.444 147.166  1.00  0.00     0.012 C 
ENDROOT
BRANCH   1   2
ATOM      2  C   UNL     1     143.087 138.331 146.779  1.00  0.00     0.061 C 
BRANCH   2   3
ATOM      3  C   UNL     1     142.269 137.871 147.993  1.00  0.00     0.258 C 
BRANCH   3   4
ATOM      4  N   UNL     1     141.250 136.899 147.600  1.00  0.00    -0.358 N 
ATOM      5  H   UNL     1     140.597 136.744 148.402  1.00  0.00     0.344 HD
ATOM      6  H   UNL     1     140.704 137.261 146.784  1.00  0.00     0.344 HD
ATOM      7  H   UNL     1     141.699 135.988 147.349  1.00  0.00     0.344 HD
ENDBRANCH   3   4
ENDBRANCH   2   3
ENDBRANCH   1   2
BRANCH   1   8
ATOM      8  C   UNL     1     144.287 139.564 148.688  1.00  0.00     0.072 C 
BRANCH   8   9
ATOM      9  C   UNL     1     145.687 139.103 149.165  1.00  0.00     0.227 C 
BRANCH   9  10
ATOM     10  N   UNL     1     146.084 137.873 148.467  1.00  0.00    -0.350 N 
ATOM     11  H   UNL     1     146.731 137.305 149.062  1.00  0.00     0.345 HD
ATOM     12  H   UNL     1     145.236 137.304 148.239  1.00  0.00     0.345 HD
ATOM     13  H   UNL     1     146.564 138.112 147.569  1.00  0.00     0.345 HD
ENDBRANCH   9  10
BRANCH   9  14
ATOM     14  C   UNL     1     146.730 140.166 148.937  1.00  0.00     0.099 C 
ATOM     15  O   UNL     1     147.549 140.055 147.988  1.00  0.00    -0.544 OA
ATOM     16  O   UNL     1     146.770 141.297 149.745  1.00  0.00    -0.544 OA
ENDBRANCH   9  14
ENDBRANCH   8   9
ENDBRANCH   1   8
TORSDOF 7
ENDMDL
MODEL 6
REMARK VINA RESULT:    -3.089     17.483     18.465
REMARK INTER + INTRA:          -4.334
REMARK INTER:                  -4.228
REMARK INTRA:                  -0.105
REMARK UNBOUND:                -0.161
REMARK SMILES [NH3+]CCCC[C@@H]([NH3+])C(=O)[O-]
REMARK SMILES IDX 4 1 3 2 2 3 1 4 5 8 6 9 7 10 8 14 9 15 10 16
REMARK H PARENT 1 5 1 6 1 7 7 11 7 12 7 13
REMARK Flexibility Score: inf
ROOT
ATOM      1  C   UNL     1     158.594 149.578 151.208  1.00  0.00     0.012 C 
ENDROOT
BRANCH   1   2
ATOM      2  C   UNL     1     159.109 149.532 152.653  1.00  0.00     0.061 C 
BRANCH   2   3
ATOM      3  C   UNL     1     158.502 148.349 153.417  1.00  0.00     0.258 C 
BRANCH   3   4
ATOM      4  N   UNL     1     159.252 147.120 153.160  1.00  0.00    -0.358 N 
ATOM      5  H   UNL     1     158.870 146.354 153.760  1.00  0.00     0.344 HD
ATOM      6  H   UNL     1     159.155 146.843 152.155  1.00  0.00     0.344 HD
ATOM      7  H   UNL     1     160.262 147.259 153.392  1.00  0.00     0.344 HD
ENDBRANCH   3   4
ENDBRANCH   2   3
ENDBRANCH   1   2
BRANCH   1   8
ATOM      8  C   UNL     1     159.247 150.688 150.362  1.00  0.00     0.072 C 
BRANCH   8   9
ATOM      9  C   UNL     1     158.299 151.867 150.026  1.00  0.00     0.227 C 
BRANCH   9  10
ATOM     10  N   UNL     1     159.074 153.036 149.590  1.00  0.00    -0.350 N 
ATOM     11  H   UNL     1     159.588 152.827 148.703  1.00  0.00     0.345 HD
ATOM     12  H   UNL     1     158.433 153.849 149.433  1.00  0.00     0.345 HD
ATOM     13  H   UNL     1     159.761 153.305 150.331  1.00  0.00     0.345 HD
ENDBRANCH   9  10
BRANCH   9  14
ATOM     14  C   UNL     1     157.308 151.496 148.955  1.00  0.00     0.099 C 
ATOM     15  O   UNL     1     157.641 151.543 147.742  1.00  0.00    -0.544 OA
ATOM     16  O   UNL     1     156.033 151.057 149.296  1.00  0.00    -0.544 OA
ENDBRANCH   9  14
ENDBRANCH   8   9
ENDBRANCH   1   8
TORSDOF 7
ENDMDL
MODEL 7
REMARK VINA RESULT:    -3.066     16.758     17.540
REMARK INTER + INTRA:          -4.303
REMARK INTER:                  -4.158
REMARK INTRA:                  -0.145
REMARK UNBOUND:                -0.161
REMARK SMILES [NH3+]CCCC[C@@H]([NH3+])C(=O)[O-]
REMARK SMILES IDX 4 1 3 2 2 3 1 4 5 8 6 9 7 10 8 14 9 15 10 16
REMARK H PARENT 1 5 1 6 1 7 7 11 7 12 7 13
REMARK Flexibility Score: inf
ROOT
ATOM      1  C   UNL     1     156.707 148.752 147.601  1.00  0.00     0.012 C 
ENDROOT
BRANCH   1   2
ATOM      2  C   UNL     1     157.567 147.747 146.821  1.00  0.00     0.061 C 
BRANCH   2   3
ATOM      3  C   UNL     1     158.586 148.468 145.929  1.00  0.00     0.258 C 
BRANCH   3   4
ATOM      4  N   UNL     1     159.848 147.732 145.875  1.00  0.00    -0.358 N 
ATOM      5  H   UNL     1     159.678 146.792 145.449  1.00  0.00     0.344 HD
ATOM      6  H   UNL     1     160.541 148.249 145.287  1.00  0.00     0.344 HD
ATOM      7  H   UNL     1     160.230 147.600 146.840  1.00  0.00     0.344 HD
ENDBRANCH   3   4
ENDBRANCH   2   3
ENDBRANCH   1   2
BRANCH   1   8
ATOM      8  C   UNL     1     157.492 149.996 148.061  1.00  0.00     0.072 C 
BRANCH   8   9
ATOM      9  C   UNL     1     157.598 150.143 149.600  1.00  0.00     0.227 C 
BRANCH   9  10
ATOM     10  N   UNL     1     158.655 149.267 150.124  1.00  0.00    -0.350 N 
ATOM     11  H   UNL     1     159.272 148.931 149.348  1.00  0.00     0.345 HD
ATOM     12  H   UNL     1     159.234 149.788 150.823  1.00  0.00     0.345 HD
ATOM     13  H   UNL     1     158.229 148.443 150.606  1.00  0.00     0.345 HD
ENDBRANCH   9  10
BRANCH   9  14
ATOM     14  C   UNL     1     157.881 151.566 150.005  1.00  0.00     0.099 C 
ATOM     15  O   UNL     1     158.596 152.300 149.274  1.00  0.00    -0.544 OA
ATOM     16  O   UNL     1     157.321 152.092 151.164  1.00  0.00    -0.544 OA
ENDBRANCH   9  14
ENDBRANCH   8   9
ENDBRANCH   1   8
TORSDOF 7
ENDMDL
MODEL 8
REMARK VINA RESULT:    -3.050     21.377     22.663
REMARK INTER + INTRA:          -4.281
REMARK INTER:                  -4.057
REMARK INTRA:                  -0.224
REMARK UNBOUND:                -0.161
REMARK SMILES [NH3+]CCCC[C@@H]([NH3+])C(=O)[O-]
REMARK SMILES IDX 4 1 3 2 2 3 1 4 5 8 6 9 7 10 8 14 9 15 10 16
REMARK H PARENT 1 5 1 6 1 7 7 11 7 12 7 13
REMARK Flexibility Score: inf
ROOT
ATOM      1  C   UNL     1     147.653 155.915 164.560  1.00  0.00     0.012 C 
ENDROOT
BRANCH   1   2
ATOM      2  C   UNL     1     148.619 156.772 163.731  1.00  0.00     0.061 C 
BRANCH   2   3
ATOM      3  C   UNL     1     149.231 155.958 162.583  1.00  0.00     0.258 C 
BRANCH   3   4
ATOM      4  N   UNL     1     150.629 156.331 162.365  1.00  0.00    -0.358 N 
ATOM      5  H   UNL     1     150.989 156.822 163.215  1.00  0.00     0.344 HD
ATOM      6  H   UNL     1     151.207 155.475 162.200  1.00  0.00     0.344 HD
ATOM      7  H   UNL     1     150.706 156.974 161.545  1.00  0.00     0.344 HD
ENDBRANCH   3   4
ENDBRANCH   2   3
ENDBRANCH   1   2
BRANCH   1   8
ATOM      8  C   UNL     1     146.186 156.377 164.459  1.00  0.00     0.072 C 
BRANCH   8   9
ATOM      9  C   UNL     1     145.230 155.318 163.855  1.00  0.00     0.227 C 
BRANCH   9  10
ATOM     10  N   UNL     1     143.839 155.624 164.214  1.00  0.00    -0.350 N 
ATOM     11  H   UNL     1     143.324 156.017 163.391  1.00  0.00     0.345 HD
ATOM     12  H   UNL     1     143.355 154.754 164.538  1.00  0.00     0.345 HD
ATOM     13  H   UNL     1     143.816 156.317 164.996  1.00  0.00     0.345 HD
ENDBRANCH   9  10
BRANCH   9  14
ATOM     14  C   UNL     1     145.356 155.246 162.356  1.00  0.00     0.099 C 
ATOM     15  O   UNL     1     144.826 156.131 161.634  1.00  0.00    -0.544 OA
ATOM     16  O   UNL     1     146.092 154.228 161.759  1.00  0.00    -0.544 OA
ENDBRANCH   9  14
ENDBRANCH   8   9
ENDBRANCH   1   8
TORSDOF 7
ENDMDL
MODEL 9
REMARK VINA RESULT:    -2.982     11.321     13.075
REMARK INTER + INTRA:          -4.189
REMARK INTER:                  -3.746
REMARK INTRA:                  -0.443
REMARK UNBOUND:                -0.161
REMARK SMILES [NH3+]CCCC[C@@H]([NH3+])C(=O)[O-]
REMARK SMILES IDX 4 1 3 2 2 3 1 4 5 8 6 9 7 10 8 14 9 15 10 16
REMARK H PARENT 1 5 1 6 1 7 7 11 7 12 7 13
REMARK Flexibility Score: inf
ROOT
ATOM      1  C   UNL     1     157.619 138.267 149.620  1.00  0.00     0.012 C 
ENDROOT
BRANCH   1   2
ATOM      2  C   UNL     1     156.205 138.011 149.080  1.00  0.00     0.061 C 
BRANCH   2   3
ATOM      3  C   UNL     1     155.156 138.769 149.902  1.00  0.00     0.258 C 
BRANCH   3   4
ATOM      4  N   UNL     1     155.786 139.533 150.978  1.00  0.00    -0.358 N 
ATOM      5  H   UNL     1     155.275 140.437 151.102  1.00  0.00     0.344 HD
ATOM      6  H   UNL     1     155.743 138.995 151.874  1.00  0.00     0.344 HD
ATOM      7  H   UNL     1     156.783 139.739 150.737  1.00  0.00     0.344 HD
ENDBRANCH   3   4
ENDBRANCH   2   3
ENDBRANCH   1   2
BRANCH   1   8
ATOM      8  C   UNL     1     158.213 137.061 150.373  1.00  0.00     0.072 C 
BRANCH   8   9
ATOM      9  C   UNL     1     159.006 137.440 151.649  1.00  0.00     0.227 C 
BRANCH   9  10
ATOM     10  N   UNL     1     159.631 138.760 151.487  1.00  0.00    -0.350 N 
ATOM     11  H   UNL     1     158.999 139.404 150.956  1.00  0.00     0.345 HD
ATOM     12  H   UNL     1     159.835 139.174 152.426  1.00  0.00     0.345 HD
ATOM     13  H   UNL     1     160.536 138.665 150.972  1.00  0.00     0.345 HD
ENDBRANCH   9  10
BRANCH   9  14
ATOM     14  C   UNL     1     158.124 137.450 152.869  1.00  0.00     0.099 C 
ATOM     15  O   UNL     1     158.611 137.717 153.999  1.00  0.00    -0.544 OA
ATOM     16  O   UNL     1     156.760 137.209 152.754  1.00  0.00    -0.544 OA
ENDBRANCH   9  14
ENDBRANCH   8   9
ENDBRANCH   1   8
TORSDOF 7
ENDMDL
