MODEL 1
REMARK VINA RESULT:    -4.781      0.000      0.000
REMARK INTER + INTRA:          -6.049
REMARK INTER:                  -5.900
REMARK INTRA:                  -0.149
REMARK UNBOUND:                -0.149
REMARK SMILES CCCCC=CC(C)=O
REMARK SMILES IDX 4 1 3 2 2 3 1 4 5 5 6 6 7 7 9 8 8 9
REMARK H PARENT
REMARK Flexibility Score: inf
ROOT
ATOM      1  C   UNL     1      19.283 200.606  14.183  1.00  0.00     0.027 C 
ENDROOT
BRANCH   1   2
ATOM      2  C   UNL     1      19.958 200.338  15.537  1.00  0.00     0.004 C 
BRANCH   2   3
ATOM      3  C   UNL     1      19.957 198.848  15.910  1.00  0.00    -0.003 C 
ATOM      4  C   UNL     1      18.778 198.464  16.804  1.00  0.00     0.004 C 
ENDBRANCH   2   3
ENDBRANCH   1   2
BRANCH   1   5
ATOM      5  C   UNL     1      19.293 202.072  13.854  1.00  0.00    -0.023 C 
ATOM      6  C   UNL     1      19.055 202.998  14.791  1.00  0.00     0.042 C 
BRANCH   6   7
ATOM      7  C   UNL     1      19.043 204.449  14.513  1.00  0.00     0.152 C 
ATOM      8  O   UNL     1      18.639 204.843  13.387  1.00  0.00    -0.295 OA
ATOM      9  C   UNL     1      19.494 205.465  15.519  1.00  0.00     0.093 C 
ENDBRANCH   6   7
ENDBRANCH   1   5
TORSDOF 4
ENDMDL
MODEL 2
REMARK VINA RESULT:    -4.672      1.249      1.300
REMARK INTER + INTRA:          -5.914
REMARK INTER:                  -5.747
REMARK INTRA:                  -0.167
REMARK UNBOUND:                -0.149
REMARK SMILES CCCCC=CC(C)=O
REMARK SMILES IDX 4 1 3 2 2 3 1 4 5 5 6 6 7 7 9 8 8 9
REMARK H PARENT
REMARK Flexibility Score: inf
ROOT
ATOM      1  C   UNL     1      19.322 201.321  14.237  1.00  0.00     0.027 C 
ENDROOT
BRANCH   1   2
ATOM      2  C   UNL     1      19.953 200.846  15.555  1.00  0.00     0.004 C 
BRANCH   2   3
ATOM      3  C   UNL     1      20.050 199.315  15.642  1.00  0.00    -0.003 C 
ATOM      4  C   UNL     1      18.972 198.706  16.538  1.00  0.00     0.004 C 
ENDBRANCH   2   3
ENDBRANCH   1   2
BRANCH   1   5
ATOM      5  C   UNL     1      19.143 202.812  14.230  1.00  0.00    -0.023 C 
ATOM      6  C   UNL     1      19.512 203.564  15.276  1.00  0.00     0.042 C 
BRANCH   6   7
ATOM      7  C   UNL     1      19.345 205.031  15.319  1.00  0.00     0.152 C 
ATOM      8  O   UNL     1      18.855 205.551  16.356  1.00  0.00    -0.295 OA
ATOM      9  C   UNL     1      19.736 205.920  14.177  1.00  0.00     0.093 C 
ENDBRANCH   6   7
ENDBRANCH   1   5
TORSDOF 4
ENDMDL
MODEL 3
REMARK VINA RESULT:    -4.500      2.751      5.293
REMARK INTER + INTRA:          -5.701
REMARK INTER:                  -5.541
REMARK INTRA:                  -0.161
REMARK UNBOUND:                -0.149
REMARK SMILES CCCCC=CC(C)=O
REMARK SMILES IDX 4 1 3 2 2 3 1 4 5 5 6 6 7 7 9 8 8 9
REMARK H PARENT
REMARK Flexibility Score: inf
ROOT
ATOM      1  C   UNL     1      20.132 202.253  14.853  1.00  0.00     0.027 C 
ENDROOT
BRANCH   1   2
ATOM      2  C   UNL     1      18.890 203.125  15.097  1.00  0.00     0.004 C 
BRANCH   2   3
ATOM      3  C   UNL     1      18.886 203.765  16.495  1.00  0.00    -0.003 C 
ATOM      4  C   UNL     1      18.931 205.292  16.445  1.00  0.00     0.004 C 
ENDBRANCH   2   3
ENDBRANCH   1   2
BRANCH   1   5
ATOM      5  C   UNL     1      20.131 201.049  15.751  1.00  0.00    -0.023 C 
ATOM      6  C   UNL     1      19.662 199.867  15.332  1.00  0.00     0.042 C 
BRANCH   6   7
ATOM      7  C   UNL     1      19.629 198.660  16.183  1.00  0.00     0.152 C 
ATOM      8  O   UNL     1      20.596 197.855  16.125  1.00  0.00    -0.295 OA
ATOM      9  C   UNL     1      18.490 198.359  17.110  1.00  0.00     0.093 C 
ENDBRANCH   6   7
ENDBRANCH   1   5
TORSDOF 4
ENDMDL
MODEL 4
REMARK VINA RESULT:    -4.393      2.157      2.767
REMARK INTER + INTRA:          -5.569
REMARK INTER:                  -5.419
REMARK INTRA:                  -0.150
REMARK UNBOUND:                -0.149
REMARK SMILES CCCCC=CC(C)=O
REMARK SMILES IDX 4 1 3 2 2 3 1 4 5 5 6 6 7 7 9 8 8 9
REMARK H PARENT
REMARK Flexibility Score: inf
ROOT
ATOM      1  C   UNL     1      19.050 203.022  14.473  1.00  0.00     0.027 C 
ENDROOT
BRANCH   1   2
ATOM      2  C   UNL     1      19.341 201.522  14.308  1.00  0.00     0.004 C 
BRANCH   2   3
ATOM      3  C   UNL     1      20.079 200.929  15.518  1.00  0.00    -0.003 C 
ATOM      4  C   UNL     1      19.786 199.443  15.717  1.00  0.00     0.004 C 
ENDBRANCH   2   3
ENDBRANCH   1   2
BRANCH   1   5
ATOM      5  C   UNL     1      20.301 203.781  14.810  1.00  0.00    -0.023 C 
ATOM      6  C   UNL     1      20.346 205.117  14.745  1.00  0.00     0.042 C 
BRANCH   6   7
ATOM      7  C   UNL     1      21.557 205.905  15.055  1.00  0.00     0.152 C 
ATOM      8  O   UNL     1      21.769 206.238  16.251  1.00  0.00    -0.295 OA
ATOM      9  C   UNL     1      22.539 206.321  14.001  1.00  0.00     0.093 C 
ENDBRANCH   6   7
ENDBRANCH   1   5
TORSDOF 4
ENDMDL
MODEL 5
REMARK VINA RESULT:    -4.381      2.227      5.373
REMARK INTER + INTRA:          -5.555
REMARK INTER:                  -5.384
REMARK INTRA:                  -0.170
REMARK UNBOUND:                -0.149
REMARK SMILES CCCCC=CC(C)=O
REMARK SMILES IDX 4 1 3 2 2 3 1 4 5 5 6 6 7 7 9 8 8 9
REMARK H PARENT
REMARK Flexibility Score: inf
ROOT
ATOM      1  C   UNL     1      19.348 205.208  14.192  1.00  0.00     0.027 C 
ENDROOT
BRANCH   1   2
ATOM      2  C   UNL     1      20.775 205.445  14.709  1.00  0.00     0.004 C 
BRANCH   2   3
ATOM      3  C   UNL     1      21.441 206.666  14.057  1.00  0.00    -0.003 C 
ATOM      4  C   UNL     1      22.909 206.420  13.705  1.00  0.00     0.004 C 
ENDBRANCH   2   3
ENDBRANCH   1   2
BRANCH   1   5
ATOM      5  C   UNL     1      19.021 203.741  14.161  1.00  0.00    -0.023 C 
ATOM      6  C   UNL     1      19.859 202.829  14.669  1.00  0.00     0.042 C 
BRANCH   6   7
ATOM      7  C   UNL     1      19.587 201.378  14.650  1.00  0.00     0.152 C 
ATOM      8  O   UNL     1      19.085 200.872  13.612  1.00  0.00    -0.295 OA
ATOM      9  C   UNL     1      19.886 200.487  15.818  1.00  0.00     0.093 C 
ENDBRANCH   6   7
ENDBRANCH   1   5
TORSDOF 4
ENDMDL
MODEL 6
REMARK VINA RESULT:    -4.180      1.748      5.198
REMARK INTER + INTRA:          -5.307
REMARK INTER:                  -5.140
REMARK INTRA:                  -0.167
REMARK UNBOUND:                -0.149
REMARK SMILES CCCCC=CC(C)=O
REMARK SMILES IDX 4 1 3 2 2 3 1 4 5 5 6 6 7 7 9 8 8 9
REMARK H PARENT
REMARK Flexibility Score: inf
ROOT
ATOM      1  C   UNL     1      19.322 205.142  14.744  1.00  0.00     0.027 C 
ENDROOT
BRANCH   1   2
ATOM      2  C   UNL     1      19.411 205.197  16.277  1.00  0.00     0.004 C 
BRANCH   2   3
ATOM      3  C   UNL     1      19.582 206.629  16.805  1.00  0.00    -0.003 C 
ATOM      4  C   UNL     1      21.038 207.094  16.790  1.00  0.00     0.004 C 
ENDBRANCH   2   3
ENDBRANCH   1   2
BRANCH   1   5
ATOM      5  C   UNL     1      19.256 203.723  14.257  1.00  0.00    -0.023 C 
ATOM      6  C   UNL     1      19.533 202.693  15.067  1.00  0.00     0.042 C 
BRANCH   6   7
ATOM      7  C   UNL     1      19.493 201.283  14.630  1.00  0.00     0.152 C 
ATOM      8  O   UNL     1      19.100 201.025  13.462  1.00  0.00    -0.295 OA
ATOM      9  C   UNL     1      19.902 200.151  15.524  1.00  0.00     0.093 C 
ENDBRANCH   6   7
ENDBRANCH   1   5
TORSDOF 4
ENDMDL
MODEL 7
REMARK VINA RESULT:    -4.156      2.042      5.352
REMARK INTER + INTRA:          -5.277
REMARK INTER:                  -5.096
REMARK INTRA:                  -0.180
REMARK UNBOUND:                -0.149
REMARK SMILES CCCCC=CC(C)=O
REMARK SMILES IDX 4 1 3 2 2 3 1 4 5 5 6 6 7 7 9 8 8 9
REMARK H PARENT
REMARK Flexibility Score: inf
ROOT
ATOM      1  C   UNL     1      21.233 204.527  15.761  1.00  0.00     0.027 C 
ENDROOT
BRANCH   1   2
ATOM      2  C   UNL     1      20.959 205.849  15.027  1.00  0.00     0.004 C 
BRANCH   2   3
ATOM      3  C   UNL     1      19.743 205.762  14.092  1.00  0.00    -0.003 C 
ATOM      4  C   UNL     1      19.724 206.875  13.044  1.00  0.00     0.004 C 
ENDBRANCH   2   3
ENDBRANCH   1   2
BRANCH   1   5
ATOM      5  C   UNL     1      20.583 203.372  15.054  1.00  0.00    -0.023 C 
ATOM      6  C   UNL     1      20.351 202.212  15.680  1.00  0.00     0.042 C 
BRANCH   6   7
ATOM      7  C   UNL     1      19.727 201.046  15.022  1.00  0.00     0.152 C 
ATOM      8  O   UNL     1      19.158 201.213  13.911  1.00  0.00    -0.295 OA
ATOM      9  C   UNL     1      19.747 199.674  15.627  1.00  0.00     0.093 C 
ENDBRANCH   6   7
ENDBRANCH   1   5
TORSDOF 4
ENDMDL
MODEL 8
REMARK VINA RESULT:    -3.807      2.758      5.844
REMARK INTER + INTRA:          -4.847
REMARK INTER:                  -4.597
REMARK INTRA:                  -0.250
REMARK UNBOUND:                -0.149
REMARK SMILES CCCCC=CC(C)=O
REMARK SMILES IDX 4 1 3 2 2 3 1 4 5 5 6 6 7 7 9 8 8 9
REMARK H PARENT
REMARK Flexibility Score: inf
ROOT
ATOM      1  C   UNL     1      21.442 205.903  15.572  1.00  0.00     0.027 C 
ENDROOT
BRANCH   1   2
ATOM      2  C   UNL     1      22.243 206.002  14.265  1.00  0.00     0.004 C 
BRANCH   2   3
ATOM      3  C   UNL     1      21.867 207.240  13.436  1.00  0.00    -0.003 C 
ATOM      4  C   UNL     1      20.364 207.341  13.174  1.00  0.00     0.004 C 
ENDBRANCH   2   3
ENDBRANCH   1   2
BRANCH   1   5
ATOM      5  C   UNL     1      20.674 204.614  15.639  1.00  0.00    -0.023 C 
ATOM      6  C   UNL     1      21.041 203.545  14.920  1.00  0.00     0.042 C 
BRANCH   6   7
ATOM      7  C   UNL     1      20.311 202.261  14.944  1.00  0.00     0.152 C 
ATOM      8  O   UNL     1      20.564 201.441  15.865  1.00  0.00    -0.295 OA
ATOM      9  C   UNL     1      19.283 201.901  13.914  1.00  0.00     0.093 C 
ENDBRANCH   6   7
ENDBRANCH   1   5
TORSDOF 4
ENDMDL
