MODEL 1
REMARK VINA RESULT:    -4.960      0.000      0.000
REMARK INTER + INTRA:          -5.486
REMARK INTER:                  -5.395
REMARK INTRA:                  -0.090
REMARK UNBOUND:                -0.090
REMARK SMILES C=C(C)[C@@H]1CC[C@H](C)[C@@H](O)C1
REMARK SMILES IDX 8 1 7 2 6 3 5 4 4 5 11 6 9 7 10 8 2 10 1 11 3 12
REMARK H PARENT 10 9
REMARK Flexibility Score: inf
ROOT
ATOM      1  C   UNL     1     116.655 127.734 124.674  1.00  0.00     0.010 C 
ATOM      2  C   UNL     1     115.818 126.452 124.824  1.00  0.00     0.015 C 
ATOM      3  C   UNL     1     115.466 126.167 126.301  1.00  0.00     0.006 C 
ATOM      4  C   UNL     1     114.390 127.119 126.844  1.00  0.00     0.008 C 
ATOM      5  C   UNL     1     113.130 127.089 125.960  1.00  0.00     0.017 C 
ATOM      6  C   UNL     1     113.472 127.424 124.495  1.00  0.00     0.040 C 
ATOM      7  C   UNL     1     114.552 126.477 123.933  1.00  0.00     0.117 C 
ENDROOT
BRANCH   7   8
ATOM      8  O   UNL     1     114.039 125.173 123.826  1.00  0.00    -0.393 OA
ATOM      9  H   UNL     1     113.880 125.003 122.860  1.00  0.00     0.210 HD
ENDBRANCH   7   8
BRANCH   5  10
ATOM     10  C   UNL     1     112.058 128.026 126.501  1.00  0.00    -0.077 C 
ATOM     11  C   UNL     1     111.186 128.609 125.662  1.00  0.00     0.008 C 
ATOM     12  C   UNL     1     111.948 128.326 127.976  1.00  0.00     0.039 C 
ENDBRANCH   5  10
TORSDOF 2
ENDMDL
MODEL 2
REMARK VINA RESULT:    -4.944     17.381     18.281
REMARK INTER + INTRA:          -5.468
REMARK INTER:                  -5.370
REMARK INTRA:                  -0.098
REMARK UNBOUND:                -0.090
REMARK SMILES C=C(C)[C@@H]1CC[C@H](C)[C@@H](O)C1
REMARK SMILES IDX 8 1 7 2 6 3 5 4 4 5 11 6 9 7 10 8 2 10 1 11 3 12
REMARK H PARENT 10 9
REMARK Flexibility Score: inf
ROOT
ATOM      1  C   UNL     1     123.211 119.886 112.870  1.00  0.00     0.010 C 
ATOM      2  C   UNL     1     124.337 120.573 112.079  1.00  0.00     0.015 C 
ATOM      3  C   UNL     1     124.479 122.063 112.460  1.00  0.00     0.006 C 
ATOM      4  C   UNL     1     125.120 122.259 113.842  1.00  0.00     0.008 C 
ATOM      5  C   UNL     1     126.475 121.535 113.930  1.00  0.00     0.017 C 
ATOM      6  C   UNL     1     126.326 120.036 113.600  1.00  0.00     0.040 C 
ATOM      7  C   UNL     1     125.684 119.821 112.214  1.00  0.00     0.117 C 
ENDROOT
BRANCH   7   8
ATOM      8  O   UNL     1     126.559 120.260 111.206  1.00  0.00    -0.393 OA
ATOM      9  H   UNL     1     126.818 119.460 110.678  1.00  0.00     0.210 HD
ENDBRANCH   7   8
BRANCH   5  10
ATOM     10  C   UNL     1     127.116 121.734 115.297  1.00  0.00    -0.077 C 
ATOM     11  C   UNL     1     126.970 120.802 116.252  1.00  0.00     0.008 C 
ATOM     12  C   UNL     1     127.922 122.969 115.614  1.00  0.00     0.039 C 
ENDBRANCH   5  10
TORSDOF 2
ENDMDL
MODEL 3
REMARK VINA RESULT:    -4.602      6.923      8.053
REMARK INTER + INTRA:          -5.096
REMARK INTER:                  -5.001
REMARK INTRA:                  -0.096
REMARK UNBOUND:                -0.090
REMARK SMILES C=C(C)[C@@H]1CC[C@H](C)[C@@H](O)C1
REMARK SMILES IDX 8 1 7 2 6 3 5 4 4 5 11 6 9 7 10 8 2 10 1 11 3 12
REMARK H PARENT 10 9
REMARK Flexibility Score: inf
ROOT
ATOM      1  C   UNL     1     113.906 122.364 124.135  1.00  0.00     0.010 C 
ATOM      2  C   UNL     1     113.863 120.954 123.523  1.00  0.00     0.015 C 
ATOM      3  C   UNL     1     115.125 120.136 123.873  1.00  0.00     0.006 C 
ATOM      4  C   UNL     1     115.136 119.669 125.336  1.00  0.00     0.008 C 
ATOM      5  C   UNL     1     113.858 118.882 125.674  1.00  0.00     0.017 C 
ATOM      6  C   UNL     1     112.597 119.716 125.373  1.00  0.00     0.040 C 
ATOM      7  C   UNL     1     112.569 120.194 123.907  1.00  0.00     0.117 C 
ENDROOT
BRANCH   7   8
ATOM      8  O   UNL     1     112.408 119.094 123.046  1.00  0.00    -0.393 OA
ATOM      9  H   UNL     1     111.582 119.257 122.520  1.00  0.00     0.210 HD
ENDBRANCH   7   8
BRANCH   5  10
ATOM     10  C   UNL     1     113.870 118.411 127.123  1.00  0.00    -0.077 C 
ATOM     11  C   UNL     1     113.078 119.002 128.031  1.00  0.00     0.008 C 
ATOM     12  C   UNL     1     114.763 117.281 127.573  1.00  0.00     0.039 C 
ENDBRANCH   5  10
TORSDOF 2
ENDMDL
MODEL 4
REMARK VINA RESULT:    -4.597     16.311     17.839
REMARK INTER + INTRA:          -5.091
REMARK INTER:                  -5.002
REMARK INTRA:                  -0.089
REMARK UNBOUND:                -0.090
REMARK SMILES C=C(C)[C@@H]1CC[C@H](C)[C@@H](O)C1
REMARK SMILES IDX 8 1 7 2 6 3 5 4 4 5 11 6 9 7 10 8 2 10 1 11 3 12
REMARK H PARENT 10 9
REMARK Flexibility Score: inf
ROOT
ATOM      1  C   UNL     1     122.438 117.461 112.640  1.00  0.00     0.010 C 
ATOM      2  C   UNL     1     121.933 118.910 112.739  1.00  0.00     0.015 C 
ATOM      3  C   UNL     1     122.200 119.517 114.134  1.00  0.00     0.006 C 
ATOM      4  C   UNL     1     123.682 119.854 114.356  1.00  0.00     0.008 C 
ATOM      5  C   UNL     1     124.211 120.776 113.242  1.00  0.00     0.017 C 
ATOM      6  C   UNL     1     123.992 120.149 111.851  1.00  0.00     0.040 C 
ATOM      7  C   UNL     1     122.508 119.804 111.612  1.00  0.00     0.117 C 
ENDROOT
BRANCH   7   8
ATOM      8  O   UNL     1     121.748 120.983 111.527  1.00  0.00    -0.393 OA
ATOM      9  H   UNL     1     120.793 120.717 111.589  1.00  0.00     0.210 HD
ENDBRANCH   7   8
BRANCH   5  10
ATOM     10  C   UNL     1     125.679 121.118 113.464  1.00  0.00    -0.077 C 
ATOM     11  C   UNL     1     126.019 122.256 114.089  1.00  0.00     0.008 C 
ATOM     12  C   UNL     1     126.779 120.200 112.992  1.00  0.00     0.039 C 
ENDBRANCH   5  10
TORSDOF 2
ENDMDL
MODEL 5
REMARK VINA RESULT:    -4.586      5.986      7.851
REMARK INTER + INTRA:          -5.079
REMARK INTER:                  -4.978
REMARK INTRA:                  -0.101
REMARK UNBOUND:                -0.090
REMARK SMILES C=C(C)[C@@H]1CC[C@H](C)[C@@H](O)C1
REMARK SMILES IDX 8 1 7 2 6 3 5 4 4 5 11 6 9 7 10 8 2 10 1 11 3 12
REMARK H PARENT 10 9
REMARK Flexibility Score: inf
ROOT
ATOM      1  C   UNL     1     111.250 120.258 123.010  1.00  0.00     0.010 C 
ATOM      2  C   UNL     1     112.162 119.794 121.862  1.00  0.00     0.015 C 
ATOM      3  C   UNL     1     111.858 120.546 120.547  1.00  0.00     0.006 C 
ATOM      4  C   UNL     1     112.362 121.996 120.568  1.00  0.00     0.008 C 
ATOM      5  C   UNL     1     113.864 122.054 120.903  1.00  0.00     0.017 C 
ATOM      6  C   UNL     1     114.162 121.348 122.240  1.00  0.00     0.040 C 
ATOM      7  C   UNL     1     113.662 119.889 122.237  1.00  0.00     0.117 C 
ENDROOT
BRANCH   7   8
ATOM      8  O   UNL     1     114.413 119.126 121.326  1.00  0.00    -0.393 OA
ATOM      9  H   UNL     1     114.199 119.466 120.418  1.00  0.00     0.210 HD
ENDBRANCH   7   8
BRANCH   5  10
ATOM     10  C   UNL     1     114.368 123.491 120.916  1.00  0.00    -0.077 C 
ATOM     11  C   UNL     1     113.801 124.396 121.729  1.00  0.00     0.008 C 
ATOM     12  C   UNL     1     115.504 123.933 120.027  1.00  0.00     0.039 C 
ENDBRANCH   5  10
TORSDOF 2
ENDMDL
MODEL 6
REMARK VINA RESULT:    -4.569     16.641     17.961
REMARK INTER + INTRA:          -5.060
REMARK INTER:                  -4.973
REMARK INTRA:                  -0.087
REMARK UNBOUND:                -0.090
REMARK SMILES C=C(C)[C@@H]1CC[C@H](C)[C@@H](O)C1
REMARK SMILES IDX 8 1 7 2 6 3 5 4 4 5 11 6 9 7 10 8 2 10 1 11 3 12
REMARK H PARENT 10 9
REMARK Flexibility Score: inf
ROOT
ATOM      1  C   UNL     1     127.234 118.964 114.821  1.00  0.00     0.010 C 
ATOM      2  C   UNL     1     127.114 120.321 114.107  1.00  0.00     0.015 C 
ATOM      3  C   UNL     1     126.830 120.153 112.598  1.00  0.00     0.006 C 
ATOM      4  C   UNL     1     125.388 119.704 112.318  1.00  0.00     0.008 C 
ATOM      5  C   UNL     1     124.374 120.663 112.967  1.00  0.00     0.017 C 
ATOM      6  C   UNL     1     124.625 120.792 114.483  1.00  0.00     0.040 C 
ATOM      7  C   UNL     1     126.069 121.243 114.783  1.00  0.00     0.117 C 
ENDROOT
BRANCH   7   8
ATOM      8  O   UNL     1     126.263 122.562 114.339  1.00  0.00    -0.393 OA
ATOM      9  H   UNL     1     126.505 123.103 115.135  1.00  0.00     0.210 HD
ENDBRANCH   7   8
BRANCH   5  10
ATOM     10  C   UNL     1     122.944 120.224 112.683  1.00  0.00    -0.077 C 
ATOM     11  C   UNL     1     122.365 120.531 111.512  1.00  0.00     0.008 C 
ATOM     12  C   UNL     1     122.146 119.443 113.698  1.00  0.00     0.039 C 
ENDBRANCH   5  10
TORSDOF 2
ENDMDL
MODEL 7
REMARK VINA RESULT:    -4.469     17.033     17.926
REMARK INTER + INTRA:          -4.952
REMARK INTER:                  -4.856
REMARK INTRA:                  -0.095
REMARK UNBOUND:                -0.090
REMARK SMILES C=C(C)[C@@H]1CC[C@H](C)[C@@H](O)C1
REMARK SMILES IDX 8 1 7 2 6 3 5 4 4 5 11 6 9 7 10 8 2 10 1 11 3 12
REMARK H PARENT 10 9
REMARK Flexibility Score: inf
ROOT
ATOM      1  C   UNL     1     126.535 122.475 114.364  1.00  0.00     0.010 C 
ATOM      2  C   UNL     1     126.671 120.946 114.273  1.00  0.00     0.015 C 
ATOM      3  C   UNL     1     125.629 120.224 115.155  1.00  0.00     0.006 C 
ATOM      4  C   UNL     1     124.213 120.288 114.566  1.00  0.00     0.008 C 
ATOM      5  C   UNL     1     124.189 119.744 113.126  1.00  0.00     0.017 C 
ATOM      6  C   UNL     1     125.191 120.498 112.231  1.00  0.00     0.040 C 
ATOM      7  C   UNL     1     126.621 120.444 112.808  1.00  0.00     0.117 C 
ENDROOT
BRANCH   7   8
ATOM      8  O   UNL     1     127.110 119.128 112.756  1.00  0.00    -0.393 OA
ATOM      9  H   UNL     1     127.927 119.145 112.191  1.00  0.00     0.210 HD
ENDBRANCH   7   8
BRANCH   5  10
ATOM     10  C   UNL     1     122.783 119.799 112.542  1.00  0.00    -0.077 C 
ATOM     11  C   UNL     1     122.485 120.693 111.586  1.00  0.00     0.008 C 
ATOM     12  C   UNL     1     121.698 118.864 113.017  1.00  0.00     0.039 C 
ENDBRANCH   5  10
TORSDOF 2
ENDMDL
MODEL 8
REMARK VINA RESULT:    -4.459     16.915     18.333
REMARK INTER + INTRA:          -4.940
REMARK INTER:                  -4.849
REMARK INTRA:                  -0.091
REMARK UNBOUND:                -0.090
REMARK SMILES C=C(C)[C@@H]1CC[C@H](C)[C@@H](O)C1
REMARK SMILES IDX 8 1 7 2 6 3 5 4 4 5 11 6 9 7 10 8 2 10 1 11 3 12
REMARK H PARENT 10 9
REMARK Flexibility Score: inf
ROOT
ATOM      1  C   UNL     1     121.770 119.257 113.467  1.00  0.00     0.010 C 
ATOM      2  C   UNL     1     122.736 119.167 112.274  1.00  0.00     0.015 C 
ATOM      3  C   UNL     1     123.153 120.564 111.766  1.00  0.00     0.006 C 
ATOM      4  C   UNL     1     124.140 121.264 112.712  1.00  0.00     0.008 C 
ATOM      5  C   UNL     1     125.374 120.381 112.974  1.00  0.00     0.017 C 
ATOM      6  C   UNL     1     124.962 119.004 113.530  1.00  0.00     0.040 C 
ATOM      7  C   UNL     1     123.970 118.286 112.592  1.00  0.00     0.117 C 
ENDROOT
BRANCH   7   8
ATOM      8  O   UNL     1     124.611 117.940 111.390  1.00  0.00    -0.393 OA
ATOM      9  H   UNL     1     124.462 116.968 111.251  1.00  0.00     0.210 HD
ENDBRANCH   7   8
BRANCH   5  10
ATOM     10  C   UNL     1     126.358 121.076 113.906  1.00  0.00    -0.077 C 
ATOM     11  C   UNL     1     126.234 122.389 114.160  1.00  0.00     0.008 C 
ATOM     12  C   UNL     1     127.488 120.321 114.560  1.00  0.00     0.039 C 
ENDBRANCH   5  10
TORSDOF 2
ENDMDL
MODEL 9
REMARK VINA RESULT:    -4.429      4.085      5.706
REMARK INTER + INTRA:          -4.908
REMARK INTER:                  -4.808
REMARK INTRA:                  -0.100
REMARK UNBOUND:                -0.090
REMARK SMILES C=C(C)[C@@H]1CC[C@H](C)[C@@H](O)C1
REMARK SMILES IDX 8 1 7 2 6 3 5 4 4 5 11 6 9 7 10 8 2 10 1 11 3 12
REMARK H PARENT 10 9
REMARK Flexibility Score: inf
ROOT
ATOM      1  C   UNL     1     116.995 122.060 120.088  1.00  0.00     0.010 C 
ATOM      2  C   UNL     1     116.810 123.587 120.047  1.00  0.00     0.015 C 
ATOM      3  C   UNL     1     115.318 123.984 120.046  1.00  0.00     0.006 C 
ATOM      4  C   UNL     1     114.655 123.786 121.417  1.00  0.00     0.008 C 
ATOM      5  C   UNL     1     115.426 124.538 122.517  1.00  0.00     0.017 C 
ATOM      6  C   UNL     1     116.905 124.105 122.553  1.00  0.00     0.040 C 
ATOM      7  C   UNL     1     117.587 124.297 121.183  1.00  0.00     0.117 C 
ENDROOT
BRANCH   7   8
ATOM      8  O   UNL     1     117.688 125.667 120.885  1.00  0.00    -0.393 OA
ATOM      9  H   UNL     1     117.222 126.156 121.613  1.00  0.00     0.210 HD
ENDBRANCH   7   8
BRANCH   5  10
ATOM     10  C   UNL     1     114.766 124.349 123.877  1.00  0.00    -0.077 C 
ATOM     11  C   UNL     1     114.312 123.141 124.243  1.00  0.00     0.008 C 
ATOM     12  C   UNL     1     114.605 125.501 124.838  1.00  0.00     0.039 C 
ENDBRANCH   5  10
TORSDOF 2
ENDMDL
