MODEL 1
REMARK VINA RESULT:    -1.951      0.000      0.000
REMARK INTER + INTRA:          -2.191
REMARK INTER:                  -2.179
REMARK INTRA:                  -0.012
REMARK UNBOUND:                -0.012
REMARK SMILES CCCC(=O)[O-]
REMARK SMILES IDX 3 1 4 2 5 3 6 4 2 5 1 6
REMARK H PARENT
REMARK Flexibility Score: inf
ROOT
ATOM      1  C   UNL     1       7.966  -1.501  -2.201  1.00  0.00     0.052 C 
ENDROOT
BRANCH   1   2
ATOM      2  C   UNL     1       7.658  -2.809  -2.855  1.00  0.00     0.041 C 
ATOM      3  O   UNL     1       6.932  -2.849  -3.884  1.00  0.00    -0.550 OA
ATOM      4  O   UNL     1       8.131  -3.992  -2.302  1.00  0.00    -0.550 OA
ENDBRANCH   1   2
BRANCH   1   5
ATOM      5  C   UNL     1       7.207  -0.364  -2.891  1.00  0.00     0.003 C 
ATOM      6  C   UNL     1       7.473   0.973  -2.205  1.00  0.00     0.004 C 
ENDBRANCH   1   5
TORSDOF 2
ENDMDL
MODEL 2
REMARK VINA RESULT:    -1.936      1.188      1.505
REMARK INTER + INTRA:          -2.174
REMARK INTER:                  -2.164
REMARK INTRA:                  -0.010
REMARK UNBOUND:                -0.012
REMARK SMILES CCCC(=O)[O-]
REMARK SMILES IDX 3 1 4 2 5 3 6 4 2 5 1 6
REMARK H PARENT
REMARK Flexibility Score: inf
ROOT
ATOM      1  C   UNL     1       7.612  -1.855  -2.646  1.00  0.00     0.052 C 
ENDROOT
BRANCH   1   2
ATOM      2  C   UNL     1       8.318  -2.984  -1.967  1.00  0.00     0.041 C 
ATOM      3  O   UNL     1       8.317  -4.134  -2.483  1.00  0.00    -0.550 OA
ATOM      4  O   UNL     1       8.935  -2.782  -0.740  1.00  0.00    -0.550 OA
ENDBRANCH   1   2
BRANCH   1   5
ATOM      5  C   UNL     1       7.964  -0.523  -1.977  1.00  0.00     0.003 C 
ATOM      6  C   UNL     1       7.162   0.627  -2.582  1.00  0.00     0.004 C 
ENDBRANCH   1   5
TORSDOF 2
ENDMDL
MODEL 3
REMARK VINA RESULT:    -1.933      2.724      3.866
REMARK INTER + INTRA:          -2.171
REMARK INTER:                  -2.158
REMARK INTRA:                  -0.012
REMARK UNBOUND:                -0.012
REMARK SMILES CCCC(=O)[O-]
REMARK SMILES IDX 3 1 4 2 5 3 6 4 2 5 1 6
REMARK H PARENT
REMARK Flexibility Score: inf
ROOT
ATOM      1  C   UNL     1       7.157  -0.775  -3.090  1.00  0.00     0.052 C 
ENDROOT
BRANCH   1   2
ATOM      2  C   UNL     1       7.258   0.596  -2.503  1.00  0.00     0.041 C 
ATOM      3  O   UNL     1       7.951   0.794  -1.470  1.00  0.00    -0.550 OA
ATOM      4  O   UNL     1       6.549   1.648  -3.067  1.00  0.00    -0.550 OA
ENDBRANCH   1   2
BRANCH   1   5
ATOM      5  C   UNL     1       7.968  -1.775  -2.260  1.00  0.00     0.003 C 
ATOM      6  C   UNL     1       7.821  -3.193  -2.807  1.00  0.00     0.004 C 
ENDBRANCH   1   5
TORSDOF 2
ENDMDL
MODEL 4
REMARK VINA RESULT:    -1.932      0.073      1.323
REMARK INTER + INTRA:          -2.170
REMARK INTER:                  -2.160
REMARK INTRA:                  -0.010
REMARK UNBOUND:                -0.012
REMARK SMILES CCCC(=O)[O-]
REMARK SMILES IDX 3 1 4 2 5 3 6 4 2 5 1 6
REMARK H PARENT
REMARK Flexibility Score: inf
ROOT
ATOM      1  C   UNL     1       7.966  -1.504  -2.210  1.00  0.00     0.052 C 
ENDROOT
BRANCH   1   2
ATOM      2  C   UNL     1       7.652  -2.828  -2.831  1.00  0.00     0.041 C 
ATOM      3  O   UNL     1       8.130  -3.886  -2.343  1.00  0.00    -0.550 OA
ATOM      4  O   UNL     1       6.874  -2.891  -3.979  1.00  0.00    -0.550 OA
ENDBRANCH   1   2
BRANCH   1   5
ATOM      5  C   UNL     1       7.195  -0.385  -2.915  1.00  0.00     0.003 C 
ATOM      6  C   UNL     1       7.443   0.963  -2.243  1.00  0.00     0.004 C 
ENDBRANCH   1   5
TORSDOF 2
ENDMDL
MODEL 5
REMARK VINA RESULT:    -1.873      8.308      8.975
REMARK INTER + INTRA:          -2.104
REMARK INTER:                  -2.093
REMARK INTRA:                  -0.010
REMARK UNBOUND:                -0.012
REMARK SMILES CCCC(=O)[O-]
REMARK SMILES IDX 3 1 4 2 5 3 6 4 2 5 1 6
REMARK H PARENT
REMARK Flexibility Score: inf
ROOT
ATOM      1  C   UNL     1       0.084   2.797  -1.073  1.00  0.00     0.052 C 
ENDROOT
BRANCH   1   2
ATOM      2  C   UNL     1       0.919   3.445  -0.015  1.00  0.00     0.041 C 
ATOM      3  O   UNL     1       0.574   3.377   1.195  1.00  0.00    -0.550 OA
ATOM      4  O   UNL     1       2.051   4.167  -0.367  1.00  0.00    -0.550 OA
ENDBRANCH   1   2
BRANCH   1   5
ATOM      5  C   UNL     1       0.935   2.477  -2.305  1.00  0.00     0.003 C 
ATOM      6  C   UNL     1       0.523   1.146  -2.929  1.00  0.00     0.004 C 
ENDBRANCH   1   5
TORSDOF 2
ENDMDL
MODEL 6
REMARK VINA RESULT:    -1.836      8.775      9.318
REMARK INTER + INTRA:          -2.063
REMARK INTER:                  -2.042
REMARK INTRA:                  -0.021
REMARK UNBOUND:                -0.012
REMARK SMILES CCCC(=O)[O-]
REMARK SMILES IDX 3 1 4 2 5 3 6 4 2 5 1 6
REMARK H PARENT
REMARK Flexibility Score: inf
ROOT
ATOM      1  C   UNL     1      -0.761   2.855  -1.734  1.00  0.00     0.052 C 
ENDROOT
BRANCH   1   2
ATOM      2  C   UNL     1      -1.442   1.543  -1.957  1.00  0.00     0.041 C 
ATOM      3  O   UNL     1      -1.821   0.850  -0.976  1.00  0.00    -0.550 OA
ATOM      4  O   UNL     1      -1.614   1.059  -3.247  1.00  0.00    -0.550 OA
ENDBRANCH   1   2
BRANCH   1   5
ATOM      5  C   UNL     1       0.727   2.645  -1.442  1.00  0.00     0.003 C 
ATOM      6  C   UNL     1       1.162   3.427  -0.205  1.00  0.00     0.004 C 
ENDBRANCH   1   5
TORSDOF 2
ENDMDL
MODEL 7
REMARK VINA RESULT:    -1.785      7.455      8.239
REMARK INTER + INTRA:          -2.005
REMARK INTER:                  -1.969
REMARK INTRA:                  -0.036
REMARK UNBOUND:                -0.012
REMARK SMILES CCCC(=O)[O-]
REMARK SMILES IDX 3 1 4 2 5 3 6 4 2 5 1 6
REMARK H PARENT
REMARK Flexibility Score: inf
ROOT
ATOM      1  C   UNL     1       8.046   2.725   3.916  1.00  0.00     0.052 C 
ENDROOT
BRANCH   1   2
ATOM      2  C   UNL     1       7.244   3.855   3.355  1.00  0.00     0.041 C 
ATOM      3  O   UNL     1       6.857   4.791   4.104  1.00  0.00    -0.550 OA
ATOM      4  O   UNL     1       6.880   3.853   2.015  1.00  0.00    -0.550 OA
ENDBRANCH   1   2
BRANCH   1   5
ATOM      5  C   UNL     1       7.550   1.388   3.358  1.00  0.00     0.003 C 
ATOM      6  C   UNL     1       8.584   0.764   2.423  1.00  0.00     0.004 C 
ENDBRANCH   1   5
TORSDOF 2
ENDMDL
MODEL 8
REMARK VINA RESULT:    -1.775      2.349      3.399
REMARK INTER + INTRA:          -1.994
REMARK INTER:                  -1.984
REMARK INTRA:                  -0.010
REMARK UNBOUND:                -0.012
REMARK SMILES CCCC(=O)[O-]
REMARK SMILES IDX 3 1 4 2 5 3 6 4 2 5 1 6
REMARK H PARENT
REMARK Flexibility Score: inf
ROOT
ATOM      1  C   UNL     1       7.359  -0.471  -2.772  1.00  0.00     0.052 C 
ENDROOT
BRANCH   1   2
ATOM      2  C   UNL     1       6.428   0.116  -3.784  1.00  0.00     0.041 C 
ATOM      3  O   UNL     1       6.341   1.366  -3.916  1.00  0.00    -0.550 OA
ATOM      4  O   UNL     1       5.618  -0.714  -4.548  1.00  0.00    -0.550 OA
ENDBRANCH   1   2
BRANCH   1   5
ATOM      5  C   UNL     1       7.382  -1.997  -2.887  1.00  0.00     0.003 C 
ATOM      6  C   UNL     1       8.363  -2.610  -1.890  1.00  0.00     0.004 C 
ENDBRANCH   1   5
TORSDOF 2
ENDMDL
MODEL 9
REMARK VINA RESULT:    -1.767      2.819      3.406
REMARK INTER + INTRA:          -1.985
REMARK INTER:                  -1.977
REMARK INTRA:                  -0.008
REMARK UNBOUND:                -0.012
REMARK SMILES CCCC(=O)[O-]
REMARK SMILES IDX 3 1 4 2 5 3 6 4 2 5 1 6
REMARK H PARENT
REMARK Flexibility Score: inf
ROOT
ATOM      1  C   UNL     1       8.398  -1.546  -1.624  1.00  0.00     0.052 C 
ENDROOT
BRANCH   1   2
ATOM      2  C   UNL     1       8.813  -0.994  -0.298  1.00  0.00     0.041 C 
ATOM      3  O   UNL     1       8.989  -1.765   0.682  1.00  0.00    -0.550 OA
ATOM      4  O   UNL     1       8.959   0.376  -0.130  1.00  0.00    -0.550 OA
ENDBRANCH   1   2
BRANCH   1   5
ATOM      5  C   UNL     1       7.596  -0.505  -2.411  1.00  0.00     0.003 C 
ATOM      6  C   UNL     1       6.902  -1.137  -3.615  1.00  0.00     0.004 C 
ENDBRANCH   1   5
TORSDOF 2
ENDMDL
