MODEL 1
REMARK VINA RESULT:    -3.500      0.000      0.000
REMARK INTER + INTRA:          -6.697
REMARK INTER:                  -5.547
REMARK INTRA:                  -1.151
REMARK UNBOUND:                -1.151
REMARK SMILES CCCCCCCCCCCC(=O)[O-]
REMARK SMILES IDX 7 1 8 2 9 3 10 4 11 5 12 6 13 7 14 8 6 9 5 10 4 11 3 12 2 13
REMARK SMILES IDX 1 14
REMARK H PARENT
REMARK Flexibility Score: inf
ROOT
ATOM      1  C   UNL     1      12.447  22.755  16.831  1.00  0.00     0.000 C 
ENDROOT
BRANCH   1   2
ATOM      2  C   UNL     1      13.093  23.055  18.195  1.00  0.00     0.000 C 
BRANCH   2   3
ATOM      3  C   UNL     1      12.078  23.032  19.349  1.00  0.00     0.000 C 
BRANCH   3   4
ATOM      4  C   UNL     1      11.862  21.618  19.916  1.00  0.00     0.006 C 
BRANCH   4   5
ATOM      5  C   UNL     1      11.434  21.644  21.389  1.00  0.00     0.053 C 
BRANCH   5   6
ATOM      6  C   UNL     1       9.944  21.636  21.538  1.00  0.00     0.041 C 
ATOM      7  O   UNL     1       9.414  21.961  22.633  1.00  0.00    -0.550 OA
ATOM      8  O   UNL     1       9.140  21.239  20.477  1.00  0.00    -0.550 OA
ENDBRANCH   5   6
ENDBRANCH   4   5
ENDBRANCH   3   4
ENDBRANCH   2   3
ENDBRANCH   1   2
BRANCH   1   9
ATOM      9  C   UNL     1      12.868  21.390  16.257  1.00  0.00     0.000 C 
BRANCH   9  10
ATOM     10  C   UNL     1      11.703  20.457  15.876  1.00  0.00    -0.000 C 
BRANCH  10  11
ATOM     11  C   UNL     1      10.324  21.100  16.097  1.00  0.00    -0.000 C 
BRANCH  11  12
ATOM     12  C   UNL     1       9.476  20.337  17.127  1.00  0.00    -0.000 C 
BRANCH  12  13
ATOM     13  C   UNL     1      10.247  19.188  17.794  1.00  0.00    -0.003 C 
ATOM     14  C   UNL     1       9.439  17.893  17.760  1.00  0.00     0.004 C 
ENDBRANCH  12  13
ENDBRANCH  11  12
ENDBRANCH  10  11
ENDBRANCH   9  10
ENDBRANCH   1   9
TORSDOF 10
ENDMDL
MODEL 2
REMARK VINA RESULT:    -3.407      1.858      4.230
REMARK INTER + INTRA:          -6.549
REMARK INTER:                  -5.496
REMARK INTRA:                  -1.053
REMARK UNBOUND:                -1.151
REMARK SMILES CCCCCCCCCCCC(=O)[O-]
REMARK SMILES IDX 7 1 8 2 9 3 10 4 11 5 12 6 13 7 14 8 6 9 5 10 4 11 3 12 2 13
REMARK SMILES IDX 1 14
REMARK H PARENT
REMARK Flexibility Score: inf
ROOT
ATOM      1  C   UNL     1      11.150  20.686  16.032  1.00  0.00     0.000 C 
ENDROOT
BRANCH   1   2
ATOM      2  C   UNL     1       9.910  21.583  15.876  1.00  0.00     0.000 C 
BRANCH   2   3
ATOM      3  C   UNL     1       8.620  20.900  16.357  1.00  0.00     0.000 C 
BRANCH   3   4
ATOM      4  C   UNL     1       8.543  20.798  17.890  1.00  0.00     0.006 C 
BRANCH   4   5
ATOM      5  C   UNL     1       8.099  19.406  18.357  1.00  0.00     0.053 C 
BRANCH   5   6
ATOM      6  C   UNL     1       9.171  18.380  18.148  1.00  0.00     0.041 C 
ATOM      7  O   UNL     1      10.225  18.416  18.837  1.00  0.00    -0.550 OA
ATOM      8  O   UNL     1       9.020  17.403  17.172  1.00  0.00    -0.550 OA
ENDBRANCH   5   6
ENDBRANCH   4   5
ENDBRANCH   3   4
ENDBRANCH   2   3
ENDBRANCH   1   2
BRANCH   1   9
ATOM      9  C   UNL     1      12.441  21.487  16.277  1.00  0.00     0.000 C 
BRANCH   9  10
ATOM     10  C   UNL     1      12.260  22.779  17.096  1.00  0.00    -0.000 C 
BRANCH  10  11
ATOM     11  C   UNL     1      13.332  22.953  18.185  1.00  0.00    -0.000 C 
BRANCH  11  12
ATOM     12  C   UNL     1      12.781  22.707  19.599  1.00  0.00    -0.000 C 
BRANCH  12  13
ATOM     13  C   UNL     1      11.634  21.686  19.619  1.00  0.00    -0.003 C 
ATOM     14  C   UNL     1      11.363  21.193  21.038  1.00  0.00     0.004 C 
ENDBRANCH  12  13
ENDBRANCH  11  12
ENDBRANCH  10  11
ENDBRANCH   9  10
ENDBRANCH   1   9
TORSDOF 10
ENDMDL
MODEL 3
REMARK VINA RESULT:    -3.349      1.442      4.103
REMARK INTER + INTRA:          -6.458
REMARK INTER:                  -5.453
REMARK INTRA:                  -1.005
REMARK UNBOUND:                -1.151
REMARK SMILES CCCCCCCCCCCC(=O)[O-]
REMARK SMILES IDX 7 1 8 2 9 3 10 4 11 5 12 6 13 7 14 8 6 9 5 10 4 11 3 12 2 13
REMARK SMILES IDX 1 14
REMARK H PARENT
REMARK Flexibility Score: inf
ROOT
ATOM      1  C   UNL     1      11.942  20.686  15.926  1.00  0.00     0.000 C 
ENDROOT
BRANCH   1   2
ATOM      2  C   UNL     1      10.470  21.131  15.913  1.00  0.00     0.000 C 
BRANCH   2   3
ATOM      3  C   UNL     1       9.500  19.984  16.236  1.00  0.00     0.000 C 
BRANCH   3   4
ATOM      4  C   UNL     1       9.965  19.139  17.435  1.00  0.00     0.006 C 
BRANCH   4   5
ATOM      5  C   UNL     1       8.790  18.667  18.302  1.00  0.00     0.053 C 
BRANCH   5   6
ATOM      6  C   UNL     1       7.830  19.779  18.592  1.00  0.00     0.041 C 
ATOM      7  O   UNL     1       8.153  20.706  19.381  1.00  0.00    -0.550 OA
ATOM      8  O   UNL     1       6.565  19.776  18.017  1.00  0.00    -0.550 OA
ENDBRANCH   5   6
ENDBRANCH   4   5
ENDBRANCH   3   4
ENDBRANCH   2   3
ENDBRANCH   1   2
BRANCH   1   9
ATOM      9  C   UNL     1      12.874  21.718  16.585  1.00  0.00     0.000 C 
BRANCH   9  10
ATOM     10  C   UNL     1      12.188  22.675  17.578  1.00  0.00    -0.000 C 
BRANCH  10  11
ATOM     11  C   UNL     1      12.561  22.388  19.042  1.00  0.00    -0.000 C 
BRANCH  11  12
ATOM     12  C   UNL     1      11.589  21.408  19.717  1.00  0.00    -0.000 C 
BRANCH  12  13
ATOM     13  C   UNL     1      11.476  21.635  21.232  1.00  0.00    -0.003 C 
ATOM     14  C   UNL     1      12.625  22.498  21.745  1.00  0.00     0.004 C 
ENDBRANCH  12  13
ENDBRANCH  11  12
ENDBRANCH  10  11
ENDBRANCH   9  10
ENDBRANCH   1   9
TORSDOF 10
ENDMDL
MODEL 4
REMARK VINA RESULT:    -3.285      2.330      4.389
REMARK INTER + INTRA:          -6.357
REMARK INTER:                  -5.167
REMARK INTRA:                  -1.190
REMARK UNBOUND:                -1.151
REMARK SMILES CCCCCCCCCCCC(=O)[O-]
REMARK SMILES IDX 7 1 8 2 9 3 10 4 11 5 12 6 13 7 14 8 6 9 5 10 4 11 3 12 2 13
REMARK SMILES IDX 1 14
REMARK H PARENT
REMARK Flexibility Score: inf
ROOT
ATOM      1  C   UNL     1      11.524  20.278  16.462  1.00  0.00     0.000 C 
ENDROOT
BRANCH   1   2
ATOM      2  C   UNL     1      10.154  20.660  15.875  1.00  0.00     0.000 C 
BRANCH   2   3
ATOM      3  C   UNL     1       9.082  20.866  16.957  1.00  0.00     0.000 C 
BRANCH   3   4
ATOM      4  C   UNL     1       8.679  19.551  17.646  1.00  0.00     0.006 C 
BRANCH   4   5
ATOM      5  C   UNL     1       7.374  19.689  18.440  1.00  0.00     0.053 C 
BRANCH   5   6
ATOM      6  C   UNL     1       6.198  19.930  17.544  1.00  0.00     0.041 C 
ATOM      7  O   UNL     1       5.359  20.825  17.828  1.00  0.00    -0.550 OA
ATOM      8  O   UNL     1       6.011  19.146  16.413  1.00  0.00    -0.550 OA
ENDBRANCH   5   6
ENDBRANCH   4   5
ENDBRANCH   3   4
ENDBRANCH   2   3
ENDBRANCH   1   2
BRANCH   1   9
ATOM      9  C   UNL     1      12.626  21.298  16.123  1.00  0.00     0.000 C 
BRANCH   9  10
ATOM     10  C   UNL     1      12.370  22.728  16.636  1.00  0.00    -0.000 C 
BRANCH  10  11
ATOM     11  C   UNL     1      12.926  22.965  18.051  1.00  0.00    -0.000 C 
BRANCH  11  12
ATOM     12  C   UNL     1      11.825  22.977  19.123  1.00  0.00    -0.000 C 
BRANCH  12  13
ATOM     13  C   UNL     1      12.078  21.958  20.244  1.00  0.00    -0.003 C 
ATOM     14  C   UNL     1      11.143  20.759  20.119  1.00  0.00     0.004 C 
ENDBRANCH  12  13
ENDBRANCH  11  12
ENDBRANCH  10  11
ENDBRANCH   9  10
ENDBRANCH   1   9
TORSDOF 10
ENDMDL
MODEL 5
REMARK VINA RESULT:    -3.242      1.117      3.350
REMARK INTER + INTRA:          -6.288
REMARK INTER:                  -5.118
REMARK INTRA:                  -1.169
REMARK UNBOUND:                -1.151
REMARK SMILES CCCCCCCCCCCC(=O)[O-]
REMARK SMILES IDX 7 1 8 2 9 3 10 4 11 5 12 6 13 7 14 8 6 9 5 10 4 11 3 12 2 13
REMARK SMILES IDX 1 14
REMARK H PARENT
REMARK Flexibility Score: inf
ROOT
ATOM      1  C   UNL     1       9.397  19.631  18.499  1.00  0.00     0.000 C 
ENDROOT
BRANCH   1   2
ATOM      2  C   UNL     1      10.078  20.821  19.197  1.00  0.00     0.000 C 
BRANCH   2   3
ATOM      3  C   UNL     1      11.078  20.381  20.278  1.00  0.00     0.000 C 
BRANCH   3   4
ATOM      4  C   UNL     1      11.228  21.421  21.402  1.00  0.00     0.006 C 
BRANCH   4   5
ATOM      5  C   UNL     1      10.058  22.413  21.433  1.00  0.00     0.053 C 
BRANCH   5   6
ATOM      6  C   UNL     1       9.117  22.132  22.563  1.00  0.00     0.041 C 
ATOM      7  O   UNL     1       8.174  21.310  22.414  1.00  0.00    -0.550 OA
ATOM      8  O   UNL     1       9.261  22.800  23.773  1.00  0.00    -0.550 OA
ENDBRANCH   5   6
ENDBRANCH   4   5
ENDBRANCH   3   4
ENDBRANCH   2   3
ENDBRANCH   1   2
BRANCH   1   9
ATOM      9  C   UNL     1       9.588  19.644  16.972  1.00  0.00     0.000 C 
BRANCH   9  10
ATOM     10  C   UNL     1      10.428  20.816  16.431  1.00  0.00    -0.000 C 
BRANCH  10  11
ATOM     11  C   UNL     1      11.837  20.389  15.986  1.00  0.00    -0.000 C 
BRANCH  11  12
ATOM     12  C   UNL     1      12.876  21.507  16.164  1.00  0.00    -0.000 C 
BRANCH  12  13
ATOM     13  C   UNL     1      12.306  22.735  16.890  1.00  0.00    -0.003 C 
ATOM     14  C   UNL     1      12.982  22.935  18.244  1.00  0.00     0.004 C 
ENDBRANCH  12  13
ENDBRANCH  11  12
ENDBRANCH  10  11
ENDBRANCH   9  10
ENDBRANCH   1   9
TORSDOF 10
ENDMDL
MODEL 6
REMARK VINA RESULT:    -3.223      1.346      2.731
REMARK INTER + INTRA:          -6.257
REMARK INTER:                  -4.986
REMARK INTRA:                  -1.271
REMARK UNBOUND:                -1.151
REMARK SMILES CCCCCCCCCCCC(=O)[O-]
REMARK SMILES IDX 7 1 8 2 9 3 10 4 11 5 12 6 13 7 14 8 6 9 5 10 4 11 3 12 2 13
REMARK SMILES IDX 1 14
REMARK H PARENT
REMARK Flexibility Score: inf
ROOT
ATOM      1  C   UNL     1      12.832  22.858  19.789  1.00  0.00     0.000 C 
ENDROOT
BRANCH   1   2
ATOM      2  C   UNL     1      11.952  21.608  19.960  1.00  0.00     0.000 C 
BRANCH   2   3
ATOM      3  C   UNL     1      11.272  21.545  21.337  1.00  0.00     0.000 C 
BRANCH   3   4
ATOM      4  C   UNL     1       9.737  21.516  21.236  1.00  0.00     0.006 C 
BRANCH   4   5
ATOM      5  C   UNL     1       9.229  22.164  19.942  1.00  0.00     0.053 C 
BRANCH   5   6
ATOM      6  C   UNL     1       7.938  21.559  19.484  1.00  0.00     0.041 C 
ATOM      7  O   UNL     1       7.546  21.723  18.298  1.00  0.00    -0.550 OA
ATOM      8  O   UNL     1       7.151  20.841  20.375  1.00  0.00    -0.550 OA
ENDBRANCH   5   6
ENDBRANCH   4   5
ENDBRANCH   3   4
ENDBRANCH   2   3
ENDBRANCH   1   2
BRANCH   1   9
ATOM      9  C   UNL     1      13.214  23.125  18.322  1.00  0.00     0.000 C 
BRANCH   9  10
ATOM     10  C   UNL     1      12.209  22.596  17.281  1.00  0.00    -0.000 C 
BRANCH  10  11
ATOM     11  C   UNL     1      12.831  21.574  16.315  1.00  0.00    -0.000 C 
BRANCH  11  12
ATOM     12  C   UNL     1      11.847  20.462  15.919  1.00  0.00    -0.000 C 
BRANCH  12  13
ATOM     13  C   UNL     1      10.516  20.549  16.681  1.00  0.00    -0.003 C 
ATOM     14  C   UNL     1      10.335  19.351  17.608  1.00  0.00     0.004 C 
ENDBRANCH  12  13
ENDBRANCH  11  12
ENDBRANCH  10  11
ENDBRANCH   9  10
ENDBRANCH   1   9
TORSDOF 10
ENDMDL
MODEL 7
REMARK VINA RESULT:    -3.217      2.045      4.176
REMARK INTER + INTRA:          -6.248
REMARK INTER:                  -4.704
REMARK INTRA:                  -1.544
REMARK UNBOUND:                -1.151
REMARK SMILES CCCCCCCCCCCC(=O)[O-]
REMARK SMILES IDX 7 1 8 2 9 3 10 4 11 5 12 6 13 7 14 8 6 9 5 10 4 11 3 12 2 13
REMARK SMILES IDX 1 14
REMARK H PARENT
REMARK Flexibility Score: inf
ROOT
ATOM      1  C   UNL     1      12.982  22.480  17.658  1.00  0.00     0.000 C 
ENDROOT
BRANCH   1   2
ATOM      2  C   UNL     1      12.307  21.744  16.488  1.00  0.00     0.000 C 
BRANCH   2   3
ATOM      3  C   UNL     1      10.858  22.202  16.257  1.00  0.00     0.000 C 
BRANCH   3   4
ATOM      4  C   UNL     1       9.853  21.039  16.328  1.00  0.00     0.006 C 
BRANCH   4   5
ATOM      5  C   UNL     1      10.456  19.793  16.990  1.00  0.00     0.053 C 
BRANCH   5   6
ATOM      6  C   UNL     1       9.404  18.790  17.351  1.00  0.00     0.041 C 
ATOM      7  O   UNL     1       9.405  18.253  18.491  1.00  0.00    -0.550 OA
ATOM      8  O   UNL     1       8.441  18.423  16.420  1.00  0.00    -0.550 OA
ENDBRANCH   5   6
ENDBRANCH   4   5
ENDBRANCH   3   4
ENDBRANCH   2   3
ENDBRANCH   1   2
BRANCH   1   9
ATOM      9  C   UNL     1      12.007  22.804  18.805  1.00  0.00     0.000 C 
BRANCH   9  10
ATOM     10  C   UNL     1      12.232  21.997  20.098  1.00  0.00    -0.000 C 
BRANCH  10  11
ATOM     11  C   UNL     1      11.137  20.946  20.346  1.00  0.00    -0.000 C 
BRANCH  11  12
ATOM     12  C   UNL     1       9.834  21.567  20.874  1.00  0.00    -0.000 C 
BRANCH  12  13
ATOM     13  C   UNL     1       8.664  21.417  19.889  1.00  0.00    -0.003 C 
ATOM     14  C   UNL     1       8.280  22.764  19.284  1.00  0.00     0.004 C 
ENDBRANCH  12  13
ENDBRANCH  11  12
ENDBRANCH  10  11
ENDBRANCH   9  10
ENDBRANCH   1   9
TORSDOF 10
ENDMDL
MODEL 8
REMARK VINA RESULT:    -3.204      2.406      5.107
REMARK INTER + INTRA:          -6.227
REMARK INTER:                  -4.985
REMARK INTRA:                  -1.242
REMARK UNBOUND:                -1.151
REMARK SMILES CCCCCCCCCCCC(=O)[O-]
REMARK SMILES IDX 7 1 8 2 9 3 10 4 11 5 12 6 13 7 14 8 6 9 5 10 4 11 3 12 2 13
REMARK SMILES IDX 1 14
REMARK H PARENT
REMARK Flexibility Score: inf
ROOT
ATOM      1  C   UNL     1      10.430  18.831  18.834  1.00  0.00     0.000 C 
ENDROOT
BRANCH   1   2
ATOM      2  C   UNL     1       9.463  18.341  17.743  1.00  0.00     0.000 C 
BRANCH   2   3
ATOM      3  C   UNL     1       9.234  19.388  16.641  1.00  0.00     0.000 C 
BRANCH   3   4
ATOM      4  C   UNL     1       7.852  19.253  15.977  1.00  0.00     0.006 C 
BRANCH   4   5
ATOM      5  C   UNL     1       6.871  20.329  16.458  1.00  0.00     0.053 C 
BRANCH   5   6
ATOM      6  C   UNL     1       5.989  19.827  17.560  1.00  0.00     0.041 C 
ATOM      7  O   UNL     1       4.821  19.431  17.306  1.00  0.00    -0.550 OA
ATOM      8  O   UNL     1       6.445  19.826  18.872  1.00  0.00    -0.550 OA
ENDBRANCH   5   6
ENDBRANCH   4   5
ENDBRANCH   3   4
ENDBRANCH   2   3
ENDBRANCH   1   2
BRANCH   1   9
ATOM      9  C   UNL     1      10.132  20.269  19.296  1.00  0.00     0.000 C 
BRANCH   9  10
ATOM     10  C   UNL     1      11.348  21.043  19.839  1.00  0.00    -0.000 C 
BRANCH  10  11
ATOM     11  C   UNL     1      12.025  21.920  18.771  1.00  0.00    -0.000 C 
BRANCH  11  12
ATOM     12  C   UNL     1      11.033  22.438  17.718  1.00  0.00    -0.000 C 
BRANCH  12  13
ATOM     13  C   UNL     1      11.576  22.325  16.286  1.00  0.00    -0.003 C 
ATOM     14  C   UNL     1      12.718  21.316  16.209  1.00  0.00     0.004 C 
ENDBRANCH  12  13
ENDBRANCH  11  12
ENDBRANCH  10  11
ENDBRANCH   9  10
ENDBRANCH   1   9
TORSDOF 10
ENDMDL
MODEL 9
REMARK VINA RESULT:    -3.105     20.649     22.640
REMARK INTER + INTRA:          -6.071
REMARK INTER:                  -4.902
REMARK INTRA:                  -1.169
REMARK UNBOUND:                -1.151
REMARK SMILES CCCCCCCCCCCC(=O)[O-]
REMARK SMILES IDX 7 1 8 2 9 3 10 4 11 5 12 6 13 7 14 8 6 9 5 10 4 11 3 12 2 13
REMARK SMILES IDX 1 14
REMARK H PARENT
REMARK Flexibility Score: inf
ROOT
ATOM      1  C   UNL     1      10.666   5.516  35.440  1.00  0.00     0.000 C 
ENDROOT
BRANCH   1   2
ATOM      2  C   UNL     1       9.290   5.448  36.125  1.00  0.00     0.000 C 
BRANCH   2   3
ATOM      3  C   UNL     1       8.179   4.970  35.177  1.00  0.00     0.000 C 
BRANCH   3   4
ATOM      4  C   UNL     1       8.156   5.753  33.853  1.00  0.00     0.006 C 
BRANCH   4   5
ATOM      5  C   UNL     1       7.677   4.890  32.678  1.00  0.00     0.053 C 
BRANCH   5   6
ATOM      6  C   UNL     1       6.319   5.301  32.200  1.00  0.00     0.041 C 
ATOM      7  O   UNL     1       5.963   5.058  31.016  1.00  0.00    -0.550 OA
ATOM      8  O   UNL     1       5.457   5.982  33.051  1.00  0.00    -0.550 OA
ENDBRANCH   5   6
ENDBRANCH   4   5
ENDBRANCH   3   4
ENDBRANCH   2   3
ENDBRANCH   1   2
BRANCH   1   9
ATOM      9  C   UNL     1      11.683   4.529  36.042  1.00  0.00     0.000 C 
BRANCH   9  10
ATOM     10  C   UNL     1      12.461   3.687  35.013  1.00  0.00    -0.000 C 
BRANCH  10  11
ATOM     11  C   UNL     1      11.600   3.265  33.811  1.00  0.00    -0.000 C 
BRANCH  11  12
ATOM     12  C   UNL     1      12.284   3.553  32.466  1.00  0.00    -0.000 C 
BRANCH  12  13
ATOM     13  C   UNL     1      11.320   4.139  31.423  1.00  0.00    -0.003 C 
ATOM     14  C   UNL     1      11.076   5.625  31.676  1.00  0.00     0.004 C 
ENDBRANCH  12  13
ENDBRANCH  11  12
ENDBRANCH  10  11
ENDBRANCH   9  10
ENDBRANCH   1   9
TORSDOF 10
ENDMDL
