MODEL 1
REMARK VINA RESULT:    -2.989      0.000      0.000
REMARK INTER + INTRA:          -4.634
REMARK INTER:                  -4.561
REMARK INTRA:                  -0.072
REMARK UNBOUND:                -0.072
REMARK SMILES CC1=CCC[C@@H](C)C(=O)C[C@@H](C(C)C)C(=O)C1
REMARK SMILES IDX 8 1 9 2 6 3 7 4 5 5 4 6 3 7 2 8 1 9 10 11 11 12 15 13 16 14
REMARK SMILES IDX 17 15 12 17 13 18 14 19
REMARK H PARENT
REMARK Flexibility Score: 70.00
ROOT
ATOM      1  C   UNL     1      10.242  10.080  -5.390  1.00  0.00     0.136 C 
ATOM      2  O   UNL     1       9.184   9.471  -5.322  1.00  0.00    -0.299 OA
ENDROOT
BRANCH   1   3
ATOM      3  C   UNL     1      11.544   9.259  -5.572  1.00  0.00     0.053 C 
ATOM      4  C   UNL     1      12.789  10.138  -5.386  1.00  0.00     0.016 C 
BRANCH   3   5
ATOM      5  C   UNL     1      11.619   8.443  -6.914  1.00  0.00     0.015 C 
BRANCH   5   6
ATOM      6  C   UNL     1      11.456   9.416  -8.057  1.00  0.00     0.028 C 
BRANCH   6   7
ATOM      7  C   UNL     1      10.235   9.586  -8.875  1.00  0.00    -0.028 C 
ATOM      8  C   UNL     1       9.849  10.858  -9.168  1.00  0.00    -0.070 CG0
ATOM      9  C   UNL     1       8.701  11.046 -10.125  1.00  0.00     0.039 C 
ATOM     10  G   UNL     1      10.452  12.100  -8.462  1.00  0.00     0.000 G0
ENDBRANCH   6   7
ENDBRANCH   5   6
ENDBRANCH   3   5
ENDBRANCH   1   3
BRANCH   1  11
ATOM     11  C   UNL     1      10.191  11.618  -5.321  1.00  0.00     0.087 C 
BRANCH  11  12
ATOM     12  C   UNL     1       9.037  12.289  -6.172  1.00  0.00     0.066 C 
BRANCH  12  13
ATOM     13  C   UNL     1       9.515  12.873  -7.524  1.00  0.00     0.140 C 
ATOM     14  O   UNL     1       9.144  13.987  -7.864  1.00  0.00    -0.299 OA
BRANCH  13  15
ATOM     15  C   UNL     1      10.457  12.104  -8.456  1.00  0.00     0.106 CG0
ATOM     16  G   UNL     1       9.849  10.867  -9.167  1.00  0.00     0.000 G0
ENDBRANCH  13  15
ENDBRANCH  12  13
BRANCH  12  17
ATOM     17  C   UNL     1       8.258  13.354  -5.340  1.00  0.00    -0.006 C 
ATOM     18  C   UNL     1       6.743  13.090  -5.264  1.00  0.00     0.008 C 
ATOM     19  C   UNL     1       8.839  13.502  -3.926  1.00  0.00     0.008 C 
ENDBRANCH  12  17
ENDBRANCH  11  12
ENDBRANCH   1  11
TORSDOF 1
ENDMDL
MODEL 2
REMARK VINA RESULT:    -2.982      1.616      3.945
REMARK INTER + INTRA:          -4.623
REMARK INTER:                  -4.415
REMARK INTRA:                  -0.208
REMARK UNBOUND:                -0.072
REMARK SMILES CC1=CCC[C@@H](C)C(=O)C[C@@H](C(C)C)C(=O)C1
REMARK SMILES IDX 8 1 9 2 6 3 7 4 5 5 4 6 3 7 2 8 1 9 10 11 11 12 15 13 16 14
REMARK SMILES IDX 17 15 12 17 13 18 14 19
REMARK H PARENT
REMARK Flexibility Score: 70.00
ROOT
ATOM      1  C   UNL     1       8.612  11.416  -5.430  1.00  0.00     0.136 C 
ATOM      2  O   UNL     1       7.497  11.501  -4.938  1.00  0.00    -0.299 OA
ENDROOT
BRANCH   1   3
ATOM      3  C   UNL     1       9.394  12.728  -5.694  1.00  0.00     0.053 C 
ATOM      4  C   UNL     1       9.573  13.541  -4.404  1.00  0.00     0.016 C 
BRANCH   3   5
ATOM      5  C   UNL     1       8.803  13.618  -6.849  1.00  0.00     0.015 C 
BRANCH   5   6
ATOM      6  C   UNL     1       8.509  12.716  -8.023  1.00  0.00     0.028 C 
BRANCH   6   7
ATOM      7  C   UNL     1       9.342  12.586  -9.238  1.00  0.00    -0.028 C 
ATOM      8  C   UNL     1       9.562  11.329  -9.716  1.00  0.00    -0.070 CG0
ATOM      9  C   UNL     1      10.276  11.190 -11.034  1.00  0.00     0.039 C 
ATOM     10  G   UNL     1       9.225  10.053  -8.903  1.00  0.00     0.000 G0
ENDBRANCH   6   7
ENDBRANCH   5   6
ENDBRANCH   3   5
ENDBRANCH   1   3
BRANCH   1  11
ATOM     11  C   UNL     1       9.166  10.007  -5.718  1.00  0.00     0.087 C 
BRANCH  11  12
ATOM     12  C   UNL     1      10.511   9.973  -6.551  1.00  0.00     0.066 C 
BRANCH  12  13
ATOM     13  C   UNL     1      10.330   9.497  -8.013  1.00  0.00     0.140 C 
ATOM     14  O   UNL     1      11.087   8.651  -8.468  1.00  0.00    -0.299 OA
BRANCH  13  15
ATOM     15  C   UNL     1       9.218  10.040  -8.916  1.00  0.00     0.106 CG0
ATOM     16  G   UNL     1       9.552  11.338  -9.697  1.00  0.00     0.000 G0
ENDBRANCH  13  15
ENDBRANCH  12  13
BRANCH  12  17
ATOM     17  C   UNL     1      11.617   9.150  -5.820  1.00  0.00    -0.006 C 
ATOM     18  C   UNL     1      12.754  10.016  -5.249  1.00  0.00     0.008 C 
ATOM     19  C   UNL     1      11.023   8.263  -4.714  1.00  0.00     0.008 C 
ENDBRANCH  12  17
ENDBRANCH  11  12
ENDBRANCH   1  11
TORSDOF 1
ENDMDL
MODEL 3
REMARK VINA RESULT:    -2.915      9.639     11.156
REMARK INTER + INTRA:          -4.521
REMARK INTER:                  -4.439
REMARK INTRA:                  -0.082
REMARK UNBOUND:                -0.072
REMARK SMILES CC1=CCC[C@@H](C)C(=O)C[C@@H](C(C)C)C(=O)C1
REMARK SMILES IDX 8 1 9 2 6 3 7 4 5 5 4 6 3 7 2 8 1 9 10 11 11 12 15 13 16 14
REMARK SMILES IDX 17 15 12 17 13 18 14 19
REMARK H PARENT
REMARK Flexibility Score: 70.00
ROOT
ATOM      1  C   UNL     1      -0.683   7.246  -9.267  1.00  0.00     0.136 C 
ATOM      2  O   UNL     1      -1.189   6.252  -9.766  1.00  0.00    -0.299 OA
ENDROOT
BRANCH   1   3
ATOM      3  C   UNL     1       0.671   7.082  -8.530  1.00  0.00     0.053 C 
ATOM      4  C   UNL     1       0.708   7.911  -7.238  1.00  0.00     0.016 C 
BRANCH   3   5
ATOM      5  C   UNL     1       1.936   7.360  -9.421  1.00  0.00     0.015 C 
BRANCH   5   6
ATOM      6  C   UNL     1       2.151   8.854  -9.468  1.00  0.00     0.028 C 
BRANCH   6   7
ATOM      7  C   UNL     1       2.531   9.630 -10.668  1.00  0.00    -0.028 C 
ATOM      8  C   UNL     1       1.749  10.694 -11.001  1.00  0.00    -0.070 CG0
ATOM      9  C   UNL     1       2.207  11.585 -12.125  1.00  0.00     0.039 C 
ATOM     10  G   UNL     1       0.357  10.942 -10.362  1.00  0.00     0.000 G0
ENDBRANCH   6   7
ENDBRANCH   5   6
ENDBRANCH   3   5
ENDBRANCH   1   3
BRANCH   1  11
ATOM     11  C   UNL     1      -1.417   8.590  -9.438  1.00  0.00     0.087 C 
BRANCH  11  12
ATOM     12  C   UNL     1      -1.541   9.099 -10.932  1.00  0.00     0.066 C 
BRANCH  12  13
ATOM     13  C   UNL     1      -0.862  10.468 -11.184  1.00  0.00     0.140 C 
ATOM     14  O   UNL     1      -1.299  11.205 -12.056  1.00  0.00    -0.299 OA
BRANCH  13  15
ATOM     15  C   UNL     1       0.342  10.944 -10.365  1.00  0.00     0.106 CG0
ATOM     16  G   UNL     1       1.735  10.692 -10.998  1.00  0.00     0.000 G0
ENDBRANCH  13  15
ENDBRANCH  12  13
BRANCH  12  17
ATOM     17  C   UNL     1      -3.025   9.107 -11.412  1.00  0.00    -0.006 C 
ATOM     18  C   UNL     1      -3.519   7.737 -11.912  1.00  0.00     0.008 C 
ATOM     19  C   UNL     1      -3.969   9.644 -10.325  1.00  0.00     0.008 C 
ENDBRANCH  12  17
ENDBRANCH  11  12
ENDBRANCH   1  11
TORSDOF 1
ENDMDL
MODEL 4
REMARK VINA RESULT:    -2.867      9.776     11.448
REMARK INTER + INTRA:          -4.447
REMARK INTER:                  -4.331
REMARK INTRA:                  -0.117
REMARK UNBOUND:                -0.072
REMARK SMILES CC1=CCC[C@@H](C)C(=O)C[C@@H](C(C)C)C(=O)C1
REMARK SMILES IDX 8 1 9 2 6 3 7 4 5 5 4 6 3 7 2 8 1 9 10 11 11 12 15 13 16 14
REMARK SMILES IDX 17 15 12 17 13 18 14 19
REMARK H PARENT
REMARK Flexibility Score: 70.00
ROOT
ATOM      1  C   UNL     1       1.349   8.259 -10.510  1.00  0.00     0.136 C 
ATOM      2  O   UNL     1       2.154   7.363 -10.717  1.00  0.00    -0.299 OA
ENDROOT
BRANCH   1   3
ATOM      3  C   UNL     1       0.401   8.118  -9.291  1.00  0.00     0.053 C 
ATOM      4  C   UNL     1       1.186   8.101  -7.972  1.00  0.00     0.016 C 
BRANCH   3   5
ATOM      5  C   UNL     1      -0.596   6.905  -9.377  1.00  0.00     0.015 C 
BRANCH   5   6
ATOM      6  C   UNL     1      -1.814   7.360 -10.144  1.00  0.00     0.028 C 
BRANCH   6   7
ATOM      7  C   UNL     1      -2.718   8.461  -9.747  1.00  0.00    -0.028 C 
ATOM      8  C   UNL     1      -2.778   9.548 -10.565  1.00  0.00    -0.070 CG0
ATOM      9  C   UNL     1      -3.804  10.607 -10.259  1.00  0.00     0.039 C 
ATOM     10  G   UNL     1      -1.756   9.797 -11.705  1.00  0.00     0.000 G0
ENDBRANCH   6   7
ENDBRANCH   5   6
ENDBRANCH   3   5
ENDBRANCH   1   3
BRANCH   1  11
ATOM     11  C   UNL     1       1.363   9.472 -11.459  1.00  0.00     0.087 C 
BRANCH  11  12
ATOM     12  C   UNL     1       0.630  10.762 -10.908  1.00  0.00     0.066 C 
BRANCH  12  13
ATOM     13  C   UNL     1      -0.785  10.979 -11.500  1.00  0.00     0.140 C 
ATOM     14  O   UNL     1      -1.140  12.106 -11.812  1.00  0.00    -0.299 OA
BRANCH  13  15
ATOM     15  C   UNL     1      -1.760   9.819 -11.724  1.00  0.00     0.106 CG0
ATOM     16  G   UNL     1      -2.769   9.549 -10.577  1.00  0.00     0.000 G0
ENDBRANCH  13  15
ENDBRANCH  12  13
BRANCH  12  17
ATOM     17  C   UNL     1       1.514  12.037 -11.073  1.00  0.00    -0.006 C 
ATOM     18  C   UNL     1       1.499  12.962  -9.843  1.00  0.00     0.008 C 
ATOM     19  C   UNL     1       2.960  11.678 -11.446  1.00  0.00     0.008 C 
ENDBRANCH  12  17
ENDBRANCH  11  12
ENDBRANCH   1  11
TORSDOF 1
ENDMDL
MODEL 5
REMARK VINA RESULT:    -2.814     10.304     11.875
REMARK INTER + INTRA:          -4.367
REMARK INTER:                  -4.655
REMARK INTRA:                   0.287
REMARK UNBOUND:                -0.072
REMARK SMILES CC1=CCC[C@@H](C)C(=O)C[C@@H](C(C)C)C(=O)C1
REMARK SMILES IDX 8 1 9 2 6 3 7 4 5 5 4 6 3 7 2 8 1 9 10 11 11 12 15 13 16 14
REMARK SMILES IDX 17 15 12 17 13 18 14 19
REMARK H PARENT
REMARK Flexibility Score: 70.00
ROOT
ATOM      1  C   UNL     1       1.200   9.810 -10.354  1.00  0.00     0.136 C 
ATOM      2  O   UNL     1       1.376  10.675  -9.509  1.00  0.00    -0.299 OA
ENDROOT
BRANCH   1   3
ATOM      3  C   UNL     1       1.954   8.466 -10.188  1.00  0.00     0.053 C 
ATOM      4  C   UNL     1       1.920   7.643 -11.483  1.00  0.00     0.016 C 
BRANCH   3   5
ATOM      5  C   UNL     1       1.493   7.607  -8.955  1.00  0.00     0.015 C 
BRANCH   5   6
ATOM      6  C   UNL     1      -0.009   7.465  -9.026  1.00  0.00     0.028 C 
BRANCH   6   7
ATOM      7  C   UNL     1      -0.750   6.658 -10.019  1.00  0.00    -0.028 C 
ATOM      8  C   UNL     1      -1.819   7.242 -10.629  1.00  0.00    -0.070 CG0
ATOM      9  C   UNL     1      -2.488   6.493 -11.751  1.00  0.00     0.039 C 
ATOM     10  G   UNL     1      -2.445   8.571 -10.131  1.00  0.00     0.000 G0
ENDBRANCH   6   7
ENDBRANCH   5   6
ENDBRANCH   3   5
ENDBRANCH   1   3
BRANCH   1  11
ATOM     11  C   UNL     1       0.215  10.114 -11.499  1.00  0.00     0.087 C 
BRANCH  11  12
ATOM     12  C   UNL     1      -1.162  10.749 -11.048  1.00  0.00     0.066 C 
BRANCH  12  13
ATOM     13  C   UNL     1      -2.354   9.762 -11.102  1.00  0.00     0.140 C 
ATOM     14  O   UNL     1      -3.230   9.921 -11.940  1.00  0.00    -0.299 OA
BRANCH  13  15
ATOM     15  C   UNL     1      -2.471   8.572 -10.144  1.00  0.00     0.106 CG0
ATOM     16  G   UNL     1      -1.804   7.254 -10.615  1.00  0.00     0.000 G0
ENDBRANCH  13  15
ENDBRANCH  12  13
BRANCH  12  17
ATOM     17  C   UNL     1      -1.475  12.058 -11.836  1.00  0.00    -0.006 C 
ATOM     18  C   UNL     1      -2.532  12.949 -11.159  1.00  0.00     0.008 C 
ATOM     19  C   UNL     1      -0.200  12.869 -12.114  1.00  0.00     0.008 C 
ENDBRANCH  12  17
ENDBRANCH  11  12
ENDBRANCH   1  11
TORSDOF 1
ENDMDL
MODEL 6
REMARK VINA RESULT:    -2.771      1.757      4.142
REMARK INTER + INTRA:          -4.301
REMARK INTER:                  -4.055
REMARK INTRA:                  -0.246
REMARK UNBOUND:                -0.072
REMARK SMILES CC1=CCC[C@@H](C)C(=O)C[C@@H](C(C)C)C(=O)C1
REMARK SMILES IDX 8 1 9 2 6 3 7 4 5 5 4 6 3 7 2 8 1 9 10 11 11 12 15 13 16 14
REMARK SMILES IDX 17 15 12 17 13 18 14 19
REMARK H PARENT
REMARK Flexibility Score: 70.00
ROOT
ATOM      1  C   UNL     1       9.399  10.382  -5.910  1.00  0.00     0.136 C 
ATOM      2  O   UNL     1       8.598  10.003  -5.069  1.00  0.00    -0.299 OA
ENDROOT
BRANCH   1   3
ATOM      3  C   UNL     1      10.534  11.336  -5.457  1.00  0.00     0.053 C 
ATOM      4  C   UNL     1      11.639  10.575  -4.711  1.00  0.00     0.016 C 
BRANCH   3   5
ATOM      5  C   UNL     1      10.047  12.584  -4.634  1.00  0.00     0.015 C 
BRANCH   5   6
ATOM      6  C   UNL     1       9.377  13.539  -5.593  1.00  0.00     0.028 C 
BRANCH   6   7
ATOM      7  C   UNL     1       7.927  13.593  -5.881  1.00  0.00    -0.028 C 
ATOM      8  C   UNL     1       7.530  13.317  -7.154  1.00  0.00    -0.070 CG0
ATOM      9  C   UNL     1       6.053  13.216  -7.427  1.00  0.00     0.039 C 
ATOM     10  G   UNL     1       8.524  13.235  -8.342  1.00  0.00     0.000 G0
ENDBRANCH   6   7
ENDBRANCH   5   6
ENDBRANCH   3   5
ENDBRANCH   1   3
BRANCH   1  11
ATOM     11  C   UNL     1       9.235   9.855  -7.348  1.00  0.00     0.087 C 
BRANCH  11  12
ATOM     12  C   UNL     1       9.747  10.832  -8.483  1.00  0.00     0.066 C 
BRANCH  12  13
ATOM     13  C   UNL     1       8.674  11.831  -8.981  1.00  0.00     0.140 C 
ATOM     14  O   UNL     1       7.922  11.503  -9.887  1.00  0.00    -0.299 OA
BRANCH  13  15
ATOM     15  C   UNL     1       8.508  13.224  -8.365  1.00  0.00     0.106 CG0
ATOM     16  G   UNL     1       7.548  13.319  -7.151  1.00  0.00     0.000 G0
ENDBRANCH  13  15
ENDBRANCH  12  13
BRANCH  12  17
ATOM     17  C   UNL     1      10.384  10.047  -9.670  1.00  0.00    -0.006 C 
ATOM     18  C   UNL     1      11.250  10.921 -10.595  1.00  0.00     0.008 C 
ATOM     19  C   UNL     1      11.193   8.836  -9.178  1.00  0.00     0.008 C 
ENDBRANCH  12  17
ENDBRANCH  11  12
ENDBRANCH   1  11
TORSDOF 1
ENDMDL
MODEL 7
REMARK VINA RESULT:    -2.695      1.771      4.291
REMARK INTER + INTRA:          -4.185
REMARK INTER:                  -4.590
REMARK INTRA:                   0.405
REMARK UNBOUND:                -0.072
REMARK SMILES CC1=CCC[C@@H](C)C(=O)C[C@@H](C(C)C)C(=O)C1
REMARK SMILES IDX 8 1 9 2 6 3 7 4 5 5 4 6 3 7 2 8 1 9 10 11 11 12 15 13 16 14
REMARK SMILES IDX 17 15 12 17 13 18 14 19
REMARK H PARENT
REMARK Flexibility Score: 70.00
ROOT
ATOM      1  C   UNL     1      10.728   9.678  -5.772  1.00  0.00     0.136 C 
ATOM      2  O   UNL     1       9.841   9.253  -5.048  1.00  0.00    -0.299 OA
ENDROOT
BRANCH   1   3
ATOM      3  C   UNL     1      11.254  11.114  -5.514  1.00  0.00     0.053 C 
ATOM      4  C   UNL     1      12.114  11.173  -4.244  1.00  0.00     0.016 C 
BRANCH   3   5
ATOM      5  C   UNL     1      10.139  12.223  -5.498  1.00  0.00     0.015 C 
BRANCH   5   6
ATOM      6  C   UNL     1      10.442  13.199  -6.610  1.00  0.00     0.028 C 
BRANCH   6   7
ATOM      7  C   UNL     1      11.449  13.003  -7.675  1.00  0.00    -0.028 C 
ATOM      8  C   UNL     1      11.060  12.319  -8.787  1.00  0.00    -0.070 CG0
ATOM      9  C   UNL     1      12.023  12.244  -9.943  1.00  0.00     0.039 C 
ATOM     10  G   UNL     1       9.736  11.516  -8.856  1.00  0.00     0.000 G0
ENDBRANCH   6   7
ENDBRANCH   5   6
ENDBRANCH   3   5
ENDBRANCH   1   3
BRANCH   1  11
ATOM     11  C   UNL     1      11.276   8.740  -6.864  1.00  0.00     0.087 C 
BRANCH  11  12
ATOM     12  C   UNL     1      11.139   9.284  -8.345  1.00  0.00     0.066 C 
BRANCH  12  13
ATOM     13  C   UNL     1       9.798  10.006  -8.624  1.00  0.00     0.140 C 
ATOM     14  O   UNL     1       8.759   9.363  -8.639  1.00  0.00    -0.299 OA
BRANCH  13  15
ATOM     15  C   UNL     1       9.722  11.516  -8.872  1.00  0.00     0.106 CG0
ATOM     16  G   UNL     1      11.064  12.288  -8.779  1.00  0.00     0.000 G0
ENDBRANCH  13  15
ENDBRANCH  12  13
BRANCH  12  17
ATOM     17  C   UNL     1      11.405   8.160  -9.394  1.00  0.00    -0.006 C 
ATOM     18  C   UNL     1      12.142   8.653 -10.652  1.00  0.00     0.008 C 
ATOM     19  C   UNL     1      12.157   6.973  -8.772  1.00  0.00     0.008 C 
ENDBRANCH  12  17
ENDBRANCH  11  12
ENDBRANCH   1  11
TORSDOF 1
ENDMDL
MODEL 8
REMARK VINA RESULT:    -2.605      2.101      3.775
REMARK INTER + INTRA:          -4.048
REMARK INTER:                  -4.341
REMARK INTRA:                   0.293
REMARK UNBOUND:                -0.072
REMARK SMILES CC1=CCC[C@@H](C)C(=O)C[C@@H](C(C)C)C(=O)C1
REMARK SMILES IDX 8 1 9 2 6 3 7 4 5 5 4 6 3 7 2 8 1 9 10 11 11 12 15 13 16 14
REMARK SMILES IDX 17 15 12 17 13 18 14 19
REMARK H PARENT
REMARK Flexibility Score: 70.00
ROOT
ATOM      1  C   UNL     1       9.554  10.054  -8.694  1.00  0.00     0.136 C 
ATOM      2  O   UNL     1       8.691   9.189  -8.723  1.00  0.00    -0.299 OA
ENDROOT
BRANCH   1   3
ATOM      3  C   UNL     1      10.945   9.714  -9.289  1.00  0.00     0.053 C 
ATOM      4  C   UNL     1      11.312   8.244  -9.047  1.00  0.00     0.016 C 
BRANCH   3   5
ATOM      5  C   UNL     1      12.103  10.673  -8.827  1.00  0.00     0.015 C 
BRANCH   5   6
ATOM      6  C   UNL     1      12.705  10.099  -7.567  1.00  0.00     0.028 C 
BRANCH   6   7
ATOM      7  C   UNL     1      12.905  10.833  -6.298  1.00  0.00    -0.028 C 
ATOM      8  C   UNL     1      12.123  10.480  -5.240  1.00  0.00    -0.070 CG0
ATOM      9  C   UNL     1      12.418  11.108  -3.903  1.00  0.00     0.039 C 
ATOM     10  G   UNL     1      10.876   9.570  -5.386  1.00  0.00     0.000 G0
ENDBRANCH   6   7
ENDBRANCH   5   6
ENDBRANCH   3   5
ENDBRANCH   1   3
BRANCH   1  11
ATOM     11  C   UNL     1       9.179  11.424  -8.099  1.00  0.00     0.087 C 
BRANCH  11  12
ATOM     12  C   UNL     1       9.542  11.611  -6.569  1.00  0.00     0.066 C 
BRANCH  12  13
ATOM     13  C   UNL     1       9.556  10.289  -5.763  1.00  0.00     0.140 C 
ATOM     14  O   UNL     1       8.497   9.782  -5.420  1.00  0.00    -0.299 OA
BRANCH  13  15
ATOM     15  C   UNL     1      10.859   9.577  -5.387  1.00  0.00     0.106 CG0
ATOM     16  G   UNL     1      12.112  10.481  -5.255  1.00  0.00     0.000 G0
ENDBRANCH  13  15
ENDBRANCH  12  13
BRANCH  12  17
ATOM     17  C   UNL     1       8.628  12.678  -5.891  1.00  0.00    -0.006 C 
ATOM     18  C   UNL     1       9.369  13.575  -4.883  1.00  0.00     0.008 C 
ATOM     19  C   UNL     1       7.901  13.543  -6.932  1.00  0.00     0.008 C 
ENDBRANCH  12  17
ENDBRANCH  11  12
ENDBRANCH   1  11
TORSDOF 1
ENDMDL
MODEL 9
REMARK VINA RESULT:    -2.549      2.353      5.476
REMARK INTER + INTRA:          -3.963
REMARK INTER:                  -4.360
REMARK INTRA:                   0.398
REMARK UNBOUND:                -0.072
REMARK SMILES CC1=CCC[C@@H](C)C(=O)C[C@@H](C(C)C)C(=O)C1
REMARK SMILES IDX 8 1 9 2 6 3 7 4 5 5 4 6 3 7 2 8 1 9 10 11 11 12 15 13 16 14
REMARK SMILES IDX 17 15 12 17 13 18 14 19
REMARK H PARENT
REMARK Flexibility Score: 70.00
ROOT
ATOM      1  C   UNL     1       9.429  10.817  -8.507  1.00  0.00     0.136 C 
ATOM      2  O   UNL     1       8.682   9.916  -8.860  1.00  0.00    -0.299 OA
ENDROOT
BRANCH   1   3
ATOM      3  C   UNL     1       8.882  11.865  -7.505  1.00  0.00     0.053 C 
ATOM      4  C   UNL     1       7.708  12.651  -8.104  1.00  0.00     0.016 C 
BRANCH   3   5
ATOM      5  C   UNL     1       9.972  12.833  -6.913  1.00  0.00     0.015 C 
BRANCH   5   6
ATOM      6  C   UNL     1      10.886  12.016  -6.031  1.00  0.00     0.028 C 
BRANCH   6   7
ATOM      7  C   UNL     1      10.509  10.778  -5.314  1.00  0.00    -0.028 C 
ATOM      8  C   UNL     1      11.280   9.675  -5.521  1.00  0.00    -0.070 CG0
ATOM      9  C   UNL     1      11.004   8.454  -4.684  1.00  0.00     0.039 C 
ATOM     10  G   UNL     1      12.329   9.587  -6.659  1.00  0.00     0.000 G0
ENDBRANCH   6   7
ENDBRANCH   5   6
ENDBRANCH   3   5
ENDBRANCH   1   3
BRANCH   1  11
ATOM     11  C   UNL     1      10.866  10.818  -9.062  1.00  0.00     0.087 C 
BRANCH  11  12
ATOM     12  C   UNL     1      11.523   9.388  -9.226  1.00  0.00     0.066 C 
BRANCH  12  13
ATOM     13  C   UNL     1      11.953   8.739  -7.887  1.00  0.00     0.140 C 
ATOM     14  O   UNL     1      12.000   7.521  -7.796  1.00  0.00    -0.299 OA
BRANCH  13  15
ATOM     15  C   UNL     1      12.341   9.576  -6.664  1.00  0.00     0.106 CG0
ATOM     16  G   UNL     1      11.281   9.660  -5.535  1.00  0.00     0.000 G0
ENDBRANCH  13  15
ENDBRANCH  12  13
BRANCH  12  17
ATOM     17  C   UNL     1      12.701   9.412 -10.248  1.00  0.00    -0.006 C 
ATOM     18  C   UNL     1      12.726   8.196 -11.191  1.00  0.00     0.008 C 
ATOM     19  C   UNL     1      12.714  10.714 -11.064  1.00  0.00     0.008 C 
ENDBRANCH  12  17
ENDBRANCH  11  12
ENDBRANCH   1  11
TORSDOF 1
ENDMDL
