MODEL 1
REMARK VINA RESULT:    -3.770      0.000      0.000
REMARK INTER + INTRA:          -4.525
REMARK INTER:                  -4.431
REMARK INTRA:                  -0.094
REMARK UNBOUND:                -0.094
REMARK SMILES O=C([O-])CCC(=O)[O-]
REMARK SMILES IDX 4 1 2 2 1 3 3 4 5 5 6 6 7 7 8 8
REMARK H PARENT
REMARK Flexibility Score: inf
ROOT
ATOM      1  C   UNL     1      -8.523  14.528 -13.747  1.00  0.00     0.059 C 
ENDROOT
BRANCH   1   2
ATOM      2  C   UNL     1      -7.538  13.990 -12.755  1.00  0.00     0.042 C 
ATOM      3  O   UNL     1      -6.580  13.271 -13.143  1.00  0.00    -0.550 OA
ATOM      4  O   UNL     1      -7.700  14.249 -11.400  1.00  0.00    -0.550 OA
ENDBRANCH   1   2
BRANCH   1   5
ATOM      5  C   UNL     1      -8.317  16.027 -13.991  1.00  0.00     0.059 C 
BRANCH   5   6
ATOM      6  C   UNL     1      -9.217  16.857 -13.130  1.00  0.00     0.042 C 
ATOM      7  O   UNL     1     -10.410  16.505 -12.934  1.00  0.00    -0.550 OA
ATOM      8  O   UNL     1      -8.752  18.043 -12.576  1.00  0.00    -0.550 OA
ENDBRANCH   5   6
ENDBRANCH   1   5
TORSDOF 3
ENDMDL
MODEL 2
REMARK VINA RESULT:    -3.755      0.058      3.742
REMARK INTER + INTRA:          -4.507
REMARK INTER:                  -4.409
REMARK INTRA:                  -0.098
REMARK UNBOUND:                -0.094
REMARK SMILES O=C([O-])CCC(=O)[O-]
REMARK SMILES IDX 4 1 2 2 1 3 3 4 5 5 6 6 7 7 8 8
REMARK H PARENT
REMARK Flexibility Score: inf
ROOT
ATOM      1  C   UNL     1      -8.230  16.054 -13.944  1.00  0.00     0.059 C 
ENDROOT
BRANCH   1   2
ATOM      2  C   UNL     1      -9.173  16.885 -13.128  1.00  0.00     0.042 C 
ATOM      3  O   UNL     1     -10.366  16.516 -12.970  1.00  0.00    -0.550 OA
ATOM      4  O   UNL     1      -8.745  18.085 -12.575  1.00  0.00    -0.550 OA
ENDBRANCH   1   2
BRANCH   1   5
ATOM      5  C   UNL     1      -8.476  14.556 -13.740  1.00  0.00     0.059 C 
BRANCH   5   6
ATOM      6  C   UNL     1      -7.528  13.971 -12.738  1.00  0.00     0.042 C 
ATOM      7  O   UNL     1      -6.576  13.239 -13.118  1.00  0.00    -0.550 OA
ATOM      8  O   UNL     1      -7.721  14.199 -11.381  1.00  0.00    -0.550 OA
ENDBRANCH   5   6
ENDBRANCH   1   5
TORSDOF 3
ENDMDL
MODEL 3
REMARK VINA RESULT:    -3.691      0.107      3.753
REMARK INTER + INTRA:          -4.432
REMARK INTER:                  -4.346
REMARK INTRA:                  -0.085
REMARK UNBOUND:                -0.094
REMARK SMILES O=C([O-])CCC(=O)[O-]
REMARK SMILES IDX 4 1 2 2 1 3 3 4 5 5 6 6 7 7 8 8
REMARK H PARENT
REMARK Flexibility Score: inf
ROOT
ATOM      1  C   UNL     1      -8.248  16.072 -13.918  1.00  0.00     0.059 C 
ENDROOT
BRANCH   1   2
ATOM      2  C   UNL     1      -9.183  16.892 -13.084  1.00  0.00     0.042 C 
ATOM      3  O   UNL     1     -10.330  16.455 -12.804  1.00  0.00    -0.550 OA
ATOM      4  O   UNL     1      -8.803  18.155 -12.647  1.00  0.00    -0.550 OA
ENDBRANCH   1   2
BRANCH   1   5
ATOM      5  C   UNL     1      -8.486  14.571 -13.725  1.00  0.00     0.059 C 
BRANCH   5   6
ATOM      6  C   UNL     1      -7.563  13.992 -12.697  1.00  0.00     0.042 C 
ATOM      7  O   UNL     1      -7.730  14.252 -11.476  1.00  0.00    -0.550 OA
ATOM      8  O   UNL     1      -6.493  13.198 -13.091  1.00  0.00    -0.550 OA
ENDBRANCH   5   6
ENDBRANCH   1   5
TORSDOF 3
ENDMDL
MODEL 4
REMARK VINA RESULT:    -3.450      1.541      3.735
REMARK INTER + INTRA:          -4.149
REMARK INTER:                  -4.030
REMARK INTRA:                  -0.119
REMARK UNBOUND:                -0.094
REMARK SMILES O=C([O-])CCC(=O)[O-]
REMARK SMILES IDX 4 1 2 2 1 3 3 4 5 5 6 6 7 7 8 8
REMARK H PARENT
REMARK Flexibility Score: inf
ROOT
ATOM      1  C   UNL     1      -8.110  15.579 -12.656  1.00  0.00     0.059 C 
ENDROOT
BRANCH   1   2
ATOM      2  C   UNL     1      -9.107  16.697 -12.658  1.00  0.00     0.042 C 
ATOM      3  O   UNL     1      -8.756  17.858 -12.323  1.00  0.00    -0.550 OA
ATOM      4  O   UNL     1     -10.433  16.448 -12.992  1.00  0.00    -0.550 OA
ENDBRANCH   1   2
BRANCH   1   5
ATOM      5  C   UNL     1      -7.891  15.015 -14.063  1.00  0.00     0.059 C 
BRANCH   5   6
ATOM      6  C   UNL     1      -8.532  13.671 -14.227  1.00  0.00     0.042 C 
ATOM      7  O   UNL     1      -9.676  13.573 -14.746  1.00  0.00    -0.550 OA
ATOM      8  O   UNL     1      -7.886  12.530 -13.769  1.00  0.00    -0.550 OA
ENDBRANCH   5   6
ENDBRANCH   1   5
TORSDOF 3
ENDMDL
MODEL 5
REMARK VINA RESULT:    -3.434      1.883      3.346
REMARK INTER + INTRA:          -4.130
REMARK INTER:                  -4.018
REMARK INTRA:                  -0.111
REMARK UNBOUND:                -0.094
REMARK SMILES O=C([O-])CCC(=O)[O-]
REMARK SMILES IDX 4 1 2 2 1 3 3 4 5 5 6 6 7 7 8 8
REMARK H PARENT
REMARK Flexibility Score: inf
ROOT
ATOM      1  C   UNL     1      -8.303  15.329 -12.512  1.00  0.00     0.059 C 
ENDROOT
BRANCH   1   2
ATOM      2  C   UNL     1      -9.201  16.525 -12.596  1.00  0.00     0.042 C 
ATOM      3  O   UNL     1     -10.403  16.390 -12.946  1.00  0.00    -0.550 OA
ATOM      4  O   UNL     1      -8.702  17.793 -12.326  1.00  0.00    -0.550 OA
ENDBRANCH   1   2
BRANCH   1   5
ATOM      5  C   UNL     1      -8.438  14.433 -13.747  1.00  0.00     0.059 C 
BRANCH   5   6
ATOM      6  C   UNL     1      -8.080  15.165 -15.004  1.00  0.00     0.042 C 
ATOM      7  O   UNL     1      -8.950  15.362 -15.893  1.00  0.00    -0.550 OA
ATOM      8  O   UNL     1      -6.776  15.595 -15.212  1.00  0.00    -0.550 OA
ENDBRANCH   5   6
ENDBRANCH   1   5
TORSDOF 3
ENDMDL
MODEL 6
REMARK VINA RESULT:    -3.422      1.912      2.413
REMARK INTER + INTRA:          -4.116
REMARK INTER:                  -3.944
REMARK INTRA:                  -0.172
REMARK UNBOUND:                -0.094
REMARK SMILES O=C([O-])CCC(=O)[O-]
REMARK SMILES IDX 4 1 2 2 1 3 3 4 5 5 6 6 7 7 8 8
REMARK H PARENT
REMARK Flexibility Score: inf
ROOT
ATOM      1  C   UNL     1      -9.591  16.462 -12.634  1.00  0.00     0.059 C 
ENDROOT
BRANCH   1   2
ATOM      2  C   UNL     1      -8.480  15.468 -12.488  1.00  0.00     0.042 C 
ATOM      3  O   UNL     1      -7.639  15.591 -11.560  1.00  0.00    -0.550 OA
ATOM      4  O   UNL     1      -8.350  14.428 -13.401  1.00  0.00    -0.550 OA
ENDBRANCH   1   2
BRANCH   1   5
ATOM      5  C   UNL     1      -9.055  17.888 -12.795  1.00  0.00     0.059 C 
BRANCH   5   6
ATOM      6  C   UNL     1      -8.139  18.006 -13.974  1.00  0.00     0.042 C 
ATOM      7  O   UNL     1      -8.567  17.772 -15.136  1.00  0.00    -0.550 OA
ATOM      8  O   UNL     1      -6.802  18.332 -13.787  1.00  0.00    -0.550 OA
ENDBRANCH   5   6
ENDBRANCH   1   5
TORSDOF 3
ENDMDL
MODEL 7
REMARK VINA RESULT:    -3.400      1.557      1.774
REMARK INTER + INTRA:          -4.090
REMARK INTER:                  -3.975
REMARK INTRA:                  -0.116
REMARK UNBOUND:                -0.094
REMARK SMILES O=C([O-])CCC(=O)[O-]
REMARK SMILES IDX 4 1 2 2 1 3 3 4 5 5 6 6 7 7 8 8
REMARK H PARENT
REMARK Flexibility Score: inf
ROOT
ATOM      1  C   UNL     1      -7.736  14.963 -13.930  1.00  0.00     0.059 C 
ENDROOT
BRANCH   1   2
ATOM      2  C   UNL     1      -8.407  13.654 -14.212  1.00  0.00     0.042 C 
ATOM      3  O   UNL     1      -7.854  12.574 -13.875  1.00  0.00    -0.550 OA
ATOM      4  O   UNL     1      -9.625  13.624 -14.880  1.00  0.00    -0.550 OA
ENDBRANCH   1   2
BRANCH   1   5
ATOM      5  C   UNL     1      -8.184  15.550 -12.587  1.00  0.00     0.059 C 
BRANCH   5   6
ATOM      6  C   UNL     1      -9.054  16.755 -12.773  1.00  0.00     0.042 C 
ATOM      7  O   UNL     1     -10.256  16.621 -13.125  1.00  0.00    -0.550 OA
ATOM      8  O   UNL     1      -8.528  18.028 -12.597  1.00  0.00    -0.550 OA
ENDBRANCH   5   6
ENDBRANCH   1   5
TORSDOF 3
ENDMDL
MODEL 8
REMARK VINA RESULT:    -3.362      1.805      4.077
REMARK INTER + INTRA:          -4.045
REMARK INTER:                  -3.941
REMARK INTRA:                  -0.104
REMARK UNBOUND:                -0.094
REMARK SMILES O=C([O-])CCC(=O)[O-]
REMARK SMILES IDX 4 1 2 2 1 3 3 4 5 5 6 6 7 7 8 8
REMARK H PARENT
REMARK Flexibility Score: inf
ROOT
ATOM      1  C   UNL     1      -9.156  17.772 -12.745  1.00  0.00     0.059 C 
ENDROOT
BRANCH   1   2
ATOM      2  C   UNL     1      -8.361  18.785 -13.512  1.00  0.00     0.042 C 
ATOM      3  O   UNL     1      -8.323  18.739 -14.769  1.00  0.00    -0.550 OA
ATOM      4  O   UNL     1      -7.631  19.755 -12.836  1.00  0.00    -0.550 OA
ENDBRANCH   1   2
BRANCH   1   5
ATOM      5  C   UNL     1      -9.051  16.379 -13.374  1.00  0.00     0.059 C 
BRANCH   5   6
ATOM      6  C   UNL     1      -7.900  15.603 -12.812  1.00  0.00     0.042 C 
ATOM      7  O   UNL     1      -7.633  15.665 -11.583  1.00  0.00    -0.550 OA
ATOM      8  O   UNL     1      -7.096  14.843 -13.652  1.00  0.00    -0.550 OA
ENDBRANCH   5   6
ENDBRANCH   1   5
TORSDOF 3
ENDMDL
MODEL 9
REMARK VINA RESULT:    -3.339      1.322      2.157
REMARK INTER + INTRA:          -4.018
REMARK INTER:                  -3.896
REMARK INTRA:                  -0.123
REMARK UNBOUND:                -0.094
REMARK SMILES O=C([O-])CCC(=O)[O-]
REMARK SMILES IDX 4 1 2 2 1 3 3 4 5 5 6 6 7 7 8 8
REMARK H PARENT
REMARK Flexibility Score: inf
ROOT
ATOM      1  C   UNL     1      -8.354  13.569 -14.007  1.00  0.00     0.059 C 
ENDROOT
BRANCH   1   2
ATOM      2  C   UNL     1      -6.957  13.030 -14.003  1.00  0.00     0.042 C 
ATOM      3  O   UNL     1      -6.250  13.114 -12.965  1.00  0.00    -0.550 OA
ATOM      4  O   UNL     1      -6.422  12.469 -15.156  1.00  0.00    -0.550 OA
ENDBRANCH   1   2
BRANCH   1   5
ATOM      5  C   UNL     1      -8.374  15.086 -14.223  1.00  0.00     0.059 C 
BRANCH   5   6
ATOM      6  C   UNL     1      -8.717  15.819 -12.963  1.00  0.00     0.042 C 
ATOM      7  O   UNL     1      -7.869  15.921 -12.037  1.00  0.00    -0.550 OA
ATOM      8  O   UNL     1      -9.988  16.355 -12.793  1.00  0.00    -0.550 OA
ENDBRANCH   5   6
ENDBRANCH   1   5
TORSDOF 3
ENDMDL
