MODEL 1
REMARK VINA RESULT:    -4.803      0.000      0.000
REMARK INTER + INTRA:          -5.319
REMARK INTER:                  -5.225
REMARK INTRA:                  -0.095
REMARK UNBOUND:                -0.095
REMARK SMILES C=C(C)[C@H]1CC=C(C)[C@H](O)C1
REMARK SMILES IDX 8 1 7 2 6 3 5 4 4 5 11 6 9 7 10 8 2 10 1 11 3 12
REMARK H PARENT 10 9
REMARK Flexibility Score: inf
ROOT
ATOM      1  C   UNL     1      12.466 -10.650  26.938  1.00  0.00     0.042 C 
ATOM      2  C   UNL     1      11.452  -9.558  26.727  1.00  0.00    -0.049 C 
ATOM      3  C   UNL     1      10.531  -9.329  27.688  1.00  0.00    -0.025 C 
ATOM      4  C   UNL     1       9.430  -8.310  27.544  1.00  0.00     0.035 C 
ATOM      5  C   UNL     1       9.809  -7.187  26.565  1.00  0.00     0.021 C 
ATOM      6  C   UNL     1      10.321  -7.794  25.247  1.00  0.00     0.044 C 
ATOM      7  C   UNL     1      11.557  -8.687  25.481  1.00  0.00     0.140 C 
ENDROOT
BRANCH   7   8
ATOM      8  O   UNL     1      12.730  -7.914  25.519  1.00  0.00    -0.389 OA
ATOM      9  H   UNL     1      13.447  -8.467  25.926  1.00  0.00     0.211 HD
ENDBRANCH   7   8
BRANCH   5  10
ATOM     10  C   UNL     1       8.639  -6.243  26.325  1.00  0.00    -0.077 C 
ATOM     11  C   UNL     1       8.703  -5.328  25.344  1.00  0.00     0.008 C 
ATOM     12  C   UNL     1       7.393  -6.301  27.173  1.00  0.00     0.039 C 
ENDBRANCH   5  10
TORSDOF 2
ENDMDL
MODEL 2
REMARK VINA RESULT:    -4.786      0.106      1.048
REMARK INTER + INTRA:          -5.301
REMARK INTER:                  -5.204
REMARK INTRA:                  -0.096
REMARK UNBOUND:                -0.095
REMARK SMILES C=C(C)[C@H]1CC=C(C)[C@H](O)C1
REMARK SMILES IDX 8 1 7 2 6 3 5 4 4 5 11 6 9 7 10 8 2 10 1 11 3 12
REMARK H PARENT 10 9
REMARK Flexibility Score: inf
ROOT
ATOM      1  C   UNL     1      12.495 -10.691  26.870  1.00  0.00     0.042 C 
ATOM      2  C   UNL     1      11.489  -9.590  26.674  1.00  0.00    -0.049 C 
ATOM      3  C   UNL     1      10.566  -9.371  27.635  1.00  0.00    -0.025 C 
ATOM      4  C   UNL     1       9.473  -8.342  27.505  1.00  0.00     0.035 C 
ATOM      5  C   UNL     1       9.863  -7.206  26.546  1.00  0.00     0.021 C 
ATOM      6  C   UNL     1      10.376  -7.793  25.220  1.00  0.00     0.044 C 
ATOM      7  C   UNL     1      11.605  -8.699  25.443  1.00  0.00     0.140 C 
ENDROOT
BRANCH   7   8
ATOM      8  O   UNL     1      12.783  -7.934  25.498  1.00  0.00    -0.389 OA
ATOM      9  H   UNL     1      13.069  -7.747  24.566  1.00  0.00     0.211 HD
ENDBRANCH   7   8
BRANCH   5  10
ATOM     10  C   UNL     1       8.700  -6.249  26.318  1.00  0.00    -0.077 C 
ATOM     11  C   UNL     1       7.610  -6.317  27.099  1.00  0.00     0.008 C 
ATOM     12  C   UNL     1       8.734  -5.215  25.220  1.00  0.00     0.039 C 
ENDBRANCH   5  10
TORSDOF 2
ENDMDL
MODEL 3
REMARK VINA RESULT:    -4.710      1.413      4.804
REMARK INTER + INTRA:          -5.218
REMARK INTER:                  -5.124
REMARK INTRA:                  -0.094
REMARK UNBOUND:                -0.095
REMARK SMILES C=C(C)[C@H]1CC=C(C)[C@H](O)C1
REMARK SMILES IDX 8 1 7 2 6 3 5 4 4 5 11 6 9 7 10 8 2 10 1 11 3 12
REMARK H PARENT 10 9
REMARK Flexibility Score: inf
ROOT
ATOM      1  C   UNL     1       8.644  -6.341  26.526  1.00  0.00     0.042 C 
ATOM      2  C   UNL     1       9.619  -7.485  26.481  1.00  0.00    -0.049 C 
ATOM      3  C   UNL     1      10.273  -7.739  25.327  1.00  0.00    -0.025 C 
ATOM      4  C   UNL     1      11.215  -8.903  25.155  1.00  0.00     0.035 C 
ATOM      5  C   UNL     1      11.822  -9.354  26.494  1.00  0.00     0.021 C 
ATOM      6  C   UNL     1      10.707  -9.557  27.533  1.00  0.00     0.044 C 
ATOM      7  C   UNL     1       9.907  -8.257  27.762  1.00  0.00     0.140 C 
ENDROOT
BRANCH   7   8
ATOM      8  O   UNL     1      10.555  -7.433  28.699  1.00  0.00    -0.389 OA
ATOM      9  H   UNL     1      11.532  -7.590  28.618  1.00  0.00     0.211 HD
ENDBRANCH   7   8
BRANCH   5  10
ATOM     10  C   UNL     1      12.662 -10.613  26.325  1.00  0.00    -0.077 C 
ATOM     11  C   UNL     1      12.090 -11.823  26.436  1.00  0.00     0.008 C 
ATOM     12  C   UNL     1      14.141 -10.541  26.038  1.00  0.00     0.039 C 
ENDBRANCH   5  10
TORSDOF 2
ENDMDL
MODEL 4
REMARK VINA RESULT:    -4.627      2.238      3.426
REMARK INTER + INTRA:          -5.128
REMARK INTER:                  -5.040
REMARK INTRA:                  -0.088
REMARK UNBOUND:                -0.095
REMARK SMILES C=C(C)[C@H]1CC=C(C)[C@H](O)C1
REMARK SMILES IDX 8 1 7 2 6 3 5 4 4 5 11 6 9 7 10 8 2 10 1 11 3 12
REMARK H PARENT 10 9
REMARK Flexibility Score: inf
ROOT
ATOM      1  C   UNL     1       7.536  -8.825  29.873  1.00  0.00     0.042 C 
ATOM      2  C   UNL     1       7.943  -8.054  28.646  1.00  0.00    -0.049 C 
ATOM      3  C   UNL     1       7.088  -7.140  28.137  1.00  0.00    -0.025 C 
ATOM      4  C   UNL     1       7.369  -6.368  26.874  1.00  0.00     0.035 C 
ATOM      5  C   UNL     1       8.876  -6.242  26.599  1.00  0.00     0.021 C 
ATOM      6  C   UNL     1       9.541  -7.627  26.686  1.00  0.00     0.044 C 
ATOM      7  C   UNL     1       9.341  -8.261  28.078  1.00  0.00     0.140 C 
ENDROOT
BRANCH   7   8
ATOM      8  O   UNL     1      10.313  -7.798  28.980  1.00  0.00    -0.389 OA
ATOM      9  H   UNL     1      10.273  -8.368  29.792  1.00  0.00     0.211 HD
ENDBRANCH   7   8
BRANCH   5  10
ATOM     10  C   UNL     1       9.141  -5.581  25.252  1.00  0.00    -0.077 C 
ATOM     11  C   UNL     1      10.130  -4.682  25.127  1.00  0.00     0.008 C 
ATOM     12  C   UNL     1       8.309  -5.907  24.038  1.00  0.00     0.039 C 
ENDBRANCH   5  10
TORSDOF 2
ENDMDL
MODEL 5
REMARK VINA RESULT:    -4.587      2.189      4.515
REMARK INTER + INTRA:          -5.084
REMARK INTER:                  -4.991
REMARK INTRA:                  -0.093
REMARK UNBOUND:                -0.095
REMARK SMILES C=C(C)[C@H]1CC=C(C)[C@H](O)C1
REMARK SMILES IDX 8 1 7 2 6 3 5 4 4 5 11 6 9 7 10 8 2 10 1 11 3 12
REMARK H PARENT 10 9
REMARK Flexibility Score: inf
ROOT
ATOM      1  C   UNL     1      10.051  -3.260  24.871  1.00  0.00     0.042 C 
ATOM      2  C   UNL     1      10.257  -4.694  25.277  1.00  0.00    -0.049 C 
ATOM      3  C   UNL     1      11.320  -5.008  26.048  1.00  0.00    -0.025 C 
ATOM      4  C   UNL     1      11.656  -6.421  26.449  1.00  0.00     0.035 C 
ATOM      5  C   UNL     1      10.415  -7.328  26.452  1.00  0.00     0.021 C 
ATOM      6  C   UNL     1       9.658  -7.184  25.121  1.00  0.00     0.044 C 
ATOM      7  C   UNL     1       9.208  -5.727  24.884  1.00  0.00     0.140 C 
ENDROOT
BRANCH   7   8
ATOM      8  O   UNL     1       7.993  -5.469  25.541  1.00  0.00    -0.389 OA
ATOM      9  H   UNL     1       7.803  -4.497  25.461  1.00  0.00     0.211 HD
ENDBRANCH   7   8
BRANCH   5  10
ATOM     10  C   UNL     1      10.790  -8.779  26.724  1.00  0.00    -0.077 C 
ATOM     11  C   UNL     1      11.379  -9.513  25.766  1.00  0.00     0.008 C 
ATOM     12  C   UNL     1      10.511  -9.428  28.057  1.00  0.00     0.039 C 
ENDBRANCH   5  10
TORSDOF 2
ENDMDL
MODEL 6
REMARK VINA RESULT:    -4.577      1.765      2.477
REMARK INTER + INTRA:          -5.073
REMARK INTER:                  -4.987
REMARK INTRA:                  -0.086
REMARK UNBOUND:                -0.095
REMARK SMILES C=C(C)[C@H]1CC=C(C)[C@H](O)C1
REMARK SMILES IDX 8 1 7 2 6 3 5 4 4 5 11 6 9 7 10 8 2 10 1 11 3 12
REMARK H PARENT 10 9
REMARK Flexibility Score: inf
ROOT
ATOM      1  C   UNL     1      11.741 -11.276  27.466  1.00  0.00     0.042 C 
ATOM      2  C   UNL     1      11.264  -9.913  27.043  1.00  0.00    -0.049 C 
ATOM      3  C   UNL     1      11.390  -9.550  25.748  1.00  0.00    -0.025 C 
ATOM      4  C   UNL     1      11.011  -8.185  25.237  1.00  0.00     0.035 C 
ATOM      5  C   UNL     1       9.942  -7.517  26.117  1.00  0.00     0.021 C 
ATOM      6  C   UNL     1      10.372  -7.572  27.593  1.00  0.00     0.044 C 
ATOM      7  C   UNL     1      10.570  -9.026  28.069  1.00  0.00     0.140 C 
ENDROOT
BRANCH   7   8
ATOM      8  O   UNL     1       9.344  -9.592  28.460  1.00  0.00    -0.389 OA
ATOM      9  H   UNL     1       9.277  -9.520  29.448  1.00  0.00     0.211 HD
ENDBRANCH   7   8
BRANCH   5  10
ATOM     10  C   UNL     1       9.670  -6.087  25.669  1.00  0.00    -0.077 C 
ATOM     11  C   UNL     1       8.436  -5.727  25.282  1.00  0.00     0.008 C 
ATOM     12  C   UNL     1      10.763  -5.048  25.642  1.00  0.00     0.039 C 
ENDBRANCH   5  10
TORSDOF 2
ENDMDL
MODEL 7
REMARK VINA RESULT:    -4.479      1.842      5.073
REMARK INTER + INTRA:          -4.966
REMARK INTER:                  -4.871
REMARK INTRA:                  -0.095
REMARK UNBOUND:                -0.095
REMARK SMILES C=C(C)[C@H]1CC=C(C)[C@H](O)C1
REMARK SMILES IDX 8 1 7 2 6 3 5 4 4 5 11 6 9 7 10 8 2 10 1 11 3 12
REMARK H PARENT 10 9
REMARK Flexibility Score: inf
ROOT
ATOM      1  C   UNL     1      10.111  -7.360  26.936  1.00  0.00     0.042 C 
ATOM      2  C   UNL     1      10.901  -8.598  26.611  1.00  0.00    -0.049 C 
ATOM      3  C   UNL     1      10.928  -9.609  27.507  1.00  0.00    -0.025 C 
ATOM      4  C   UNL     1      11.745 -10.859  27.310  1.00  0.00     0.035 C 
ATOM      5  C   UNL     1      12.004 -11.150  25.823  1.00  0.00     0.021 C 
ATOM      6  C   UNL     1      12.552  -9.890  25.132  1.00  0.00     0.044 C 
ATOM      7  C   UNL     1      11.564  -8.710  25.243  1.00  0.00     0.140 C 
ENDROOT
BRANCH   7   8
ATOM      8  O   UNL     1      10.592  -8.778  24.230  1.00  0.00    -0.389 OA
ATOM      9  H   UNL     1      10.084  -9.623  24.350  1.00  0.00     0.211 HD
ENDBRANCH   7   8
BRANCH   5  10
ATOM     10  C   UNL     1      12.943 -12.336  25.645  1.00  0.00    -0.077 C 
ATOM     11  C   UNL     1      14.205 -12.138  25.231  1.00  0.00     0.008 C 
ATOM     12  C   UNL     1      12.489 -13.748  25.919  1.00  0.00     0.039 C 
ENDBRANCH   5  10
TORSDOF 2
ENDMDL
MODEL 8
REMARK VINA RESULT:    -4.431      1.717      2.534
REMARK INTER + INTRA:          -4.914
REMARK INTER:                  -4.819
REMARK INTRA:                  -0.095
REMARK UNBOUND:                -0.095
REMARK SMILES C=C(C)[C@H]1CC=C(C)[C@H](O)C1
REMARK SMILES IDX 8 1 7 2 6 3 5 4 4 5 11 6 9 7 10 8 2 10 1 11 3 12
REMARK H PARENT 10 9
REMARK Flexibility Score: inf
ROOT
ATOM      1  C   UNL     1      13.340 -10.546  24.890  1.00  0.00     0.042 C 
ATOM      2  C   UNL     1      12.284 -10.029  25.828  1.00  0.00    -0.049 C 
ATOM      3  C   UNL     1      12.027 -10.714  26.963  1.00  0.00    -0.025 C 
ATOM      4  C   UNL     1      10.941 -10.322  27.931  1.00  0.00     0.035 C 
ATOM      5  C   UNL     1      10.616  -8.821  27.854  1.00  0.00     0.021 C 
ATOM      6  C   UNL     1      10.372  -8.414  26.391  1.00  0.00     0.044 C 
ATOM      7  C   UNL     1      11.608  -8.700  25.513  1.00  0.00     0.140 C 
ENDROOT
BRANCH   7   8
ATOM      8  O   UNL     1      12.533  -7.645  25.596  1.00  0.00    -0.389 OA
ATOM      9  H   UNL     1      12.023  -6.793  25.617  1.00  0.00     0.211 HD
ENDBRANCH   7   8
BRANCH   5  10
ATOM     10  C   UNL     1       9.427  -8.466  28.737  1.00  0.00    -0.077 C 
ATOM     11  C   UNL     1       8.278  -8.048  28.181  1.00  0.00     0.008 C 
ATOM     12  C   UNL     1       9.504  -8.565  30.240  1.00  0.00     0.039 C 
ENDBRANCH   5  10
TORSDOF 2
ENDMDL
MODEL 9
REMARK VINA RESULT:    -4.422      3.124      6.272
REMARK INTER + INTRA:          -4.905
REMARK INTER:                  -4.808
REMARK INTRA:                  -0.096
REMARK UNBOUND:                -0.095
REMARK SMILES C=C(C)[C@H]1CC=C(C)[C@H](O)C1
REMARK SMILES IDX 8 1 7 2 6 3 5 4 4 5 11 6 9 7 10 8 2 10 1 11 3 12
REMARK H PARENT 10 9
REMARK Flexibility Score: inf
ROOT
ATOM      1  C   UNL     1      11.226  -8.524  25.797  1.00  0.00     0.042 C 
ATOM      2  C   UNL     1      11.559  -9.957  25.483  1.00  0.00    -0.049 C 
ATOM      3  C   UNL     1      11.454 -10.387  24.207  1.00  0.00    -0.025 C 
ATOM      4  C   UNL     1      11.695 -11.817  23.799  1.00  0.00     0.035 C 
ATOM      5  C   UNL     1      12.635 -12.544  24.776  1.00  0.00     0.021 C 
ATOM      6  C   UNL     1      12.144 -12.344  26.220  1.00  0.00     0.044 C 
ATOM      7  C   UNL     1      12.095 -10.849  26.597  1.00  0.00     0.140 C 
ENDROOT
BRANCH   7   8
ATOM      8  O   UNL     1      13.358 -10.401  27.021  1.00  0.00    -0.389 OA
ATOM      9  H   UNL     1      13.235  -9.524  27.470  1.00  0.00     0.211 HD
ENDBRANCH   7   8
BRANCH   5  10
ATOM     10  C   UNL     1      12.759 -14.022  24.430  1.00  0.00    -0.077 C 
ATOM     11  C   UNL     1      12.117 -14.518  23.360  1.00  0.00     0.008 C 
ATOM     12  C   UNL     1      13.590 -14.960  25.268  1.00  0.00     0.039 C 
ENDBRANCH   5  10
TORSDOF 2
ENDMDL
