MODEL 1
REMARK VINA RESULT:    -4.115      0.000      0.000
REMARK INTER + INTRA:          -8.514
REMARK INTER:                  -7.122
REMARK INTRA:                  -1.392
REMARK UNBOUND:                -1.392
REMARK SMILES CCCCCCCCCCCCCCO
REMARK SMILES IDX 8 1 7 2 6 3 5 4 4 5 3 6 2 7 1 8 9 9 10 10 11 11 12 12 13 13
REMARK SMILES IDX 14 14 15 15
REMARK H PARENT 15 16
REMARK Flexibility Score: inf
ROOT
ATOM      1  C   UNL     1     171.587 169.427 197.887  1.00  0.00     0.000 C 
ENDROOT
BRANCH   1   2
ATOM      2  C   UNL     1     171.110 169.463 196.424  1.00  0.00    -0.000 C 
BRANCH   2   3
ATOM      3  C   UNL     1     171.810 170.506 195.533  1.00  0.00    -0.000 C 
BRANCH   3   4
ATOM      4  C   UNL     1     172.323 171.722 196.325  1.00  0.00    -0.000 C 
BRANCH   4   5
ATOM      5  C   UNL     1     173.811 172.008 196.066  1.00  0.00    -0.000 C 
BRANCH   5   6
ATOM      6  C   UNL     1     174.553 172.460 197.337  1.00  0.00    -0.000 C 
BRANCH   6   7
ATOM      7  C   UNL     1     174.601 171.362 198.410  1.00  0.00    -0.003 C 
ATOM      8  C   UNL     1     175.270 170.079 197.920  1.00  0.00     0.004 C 
ENDBRANCH   6   7
ENDBRANCH   5   6
ENDBRANCH   4   5
ENDBRANCH   3   4
ENDBRANCH   2   3
ENDBRANCH   1   2
BRANCH   1   9
ATOM      9  C   UNL     1     170.478 169.776 198.889  1.00  0.00     0.000 C 
BRANCH   9  10
ATOM     10  C   UNL     1     169.094 169.670 198.238  1.00  0.00     0.000 C 
BRANCH  10  11
ATOM     11  C   UNL     1     168.218 170.876 198.607  1.00  0.00     0.000 C 
BRANCH  11  12
ATOM     12  C   UNL     1     168.518 172.113 197.745  1.00  0.00     0.002 C 
BRANCH  12  13
ATOM     13  C   UNL     1     168.248 173.432 198.487  1.00  0.00     0.028 C 
BRANCH  13  14
ATOM     14  C   UNL     1     167.337 173.223 199.697  1.00  0.00     0.156 C 
BRANCH  14  15
ATOM     15  O   UNL     1     166.075 173.782 199.454  1.00  0.00    -0.396 OA
ATOM     16  H   UNL     1     165.414 173.133 199.810  1.00  0.00     0.210 HD
ENDBRANCH  14  15
ENDBRANCH  13  14
ENDBRANCH  12  13
ENDBRANCH  11  12
ENDBRANCH  10  11
ENDBRANCH   9  10
ENDBRANCH   1   9
TORSDOF 13
ENDMDL
MODEL 2
REMARK VINA RESULT:    -4.107      2.003      3.468
REMARK INTER + INTRA:          -8.500
REMARK INTER:                  -6.615
REMARK INTRA:                  -1.885
REMARK UNBOUND:                -1.392
REMARK SMILES CCCCCCCCCCCCCCO
REMARK SMILES IDX 8 1 7 2 6 3 5 4 4 5 3 6 2 7 1 8 9 9 10 10 11 11 12 12 13 13
REMARK SMILES IDX 14 14 15 15
REMARK H PARENT 15 16
REMARK Flexibility Score: inf
ROOT
ATOM      1  C   UNL     1     173.654 175.020 197.733  1.00  0.00     0.000 C 
ENDROOT
BRANCH   1   2
ATOM      2  C   UNL     1     172.755 175.001 196.484  1.00  0.00    -0.000 C 
BRANCH   2   3
ATOM      3  C   UNL     1     172.904 173.754 195.591  1.00  0.00    -0.000 C 
BRANCH   3   4
ATOM      4  C   UNL     1     171.817 172.697 195.851  1.00  0.00    -0.000 C 
BRANCH   4   5
ATOM      5  C   UNL     1     172.405 171.333 196.249  1.00  0.00    -0.000 C 
BRANCH   5   6
ATOM      6  C   UNL     1     172.456 171.137 197.775  1.00  0.00    -0.000 C 
BRANCH   6   7
ATOM      7  C   UNL     1     173.893 171.132 198.319  1.00  0.00    -0.003 C 
ATOM      8  C   UNL     1     174.948 171.098 197.213  1.00  0.00     0.004 C 
ENDBRANCH   6   7
ENDBRANCH   5   6
ENDBRANCH   4   5
ENDBRANCH   3   4
ENDBRANCH   2   3
ENDBRANCH   1   2
BRANCH   1   9
ATOM      9  C   UNL     1     172.897 174.674 199.023  1.00  0.00     0.000 C 
BRANCH   9  10
ATOM     10  C   UNL     1     171.462 175.212 198.980  1.00  0.00     0.000 C 
BRANCH  10  11
ATOM     11  C   UNL     1     170.443 174.069 199.108  1.00  0.00     0.000 C 
BRANCH  11  12
ATOM     12  C   UNL     1     169.358 174.119 198.020  1.00  0.00     0.002 C 
BRANCH  12  13
ATOM     13  C   UNL     1     168.258 173.067 198.233  1.00  0.00     0.028 C 
BRANCH  13  14
ATOM     14  C   UNL     1     167.550 173.254 199.576  1.00  0.00     0.156 C 
BRANCH  14  15
ATOM     15  O   UNL     1     166.257 173.757 199.375  1.00  0.00    -0.396 OA
ATOM     16  H   UNL     1     166.333 174.422 198.642  1.00  0.00     0.210 HD
ENDBRANCH  14  15
ENDBRANCH  13  14
ENDBRANCH  12  13
ENDBRANCH  11  12
ENDBRANCH  10  11
ENDBRANCH   9  10
ENDBRANCH   1   9
TORSDOF 13
ENDMDL
MODEL 3
REMARK VINA RESULT:    -4.062      1.680      2.197
REMARK INTER + INTRA:          -8.422
REMARK INTER:                  -6.763
REMARK INTRA:                  -1.659
REMARK UNBOUND:                -1.392
REMARK SMILES CCCCCCCCCCCCCCO
REMARK SMILES IDX 8 1 7 2 6 3 5 4 4 5 3 6 2 7 1 8 9 9 10 10 11 11 12 12 13 13
REMARK SMILES IDX 14 14 15 15
REMARK H PARENT 15 16
REMARK Flexibility Score: inf
ROOT
ATOM      1  C   UNL     1     170.157 168.702 197.957  1.00  0.00     0.000 C 
ENDROOT
BRANCH   1   2
ATOM      2  C   UNL     1     170.980 168.584 196.662  1.00  0.00    -0.000 C 
BRANCH   2   3
ATOM      3  C   UNL     1     170.831 169.764 195.683  1.00  0.00    -0.000 C 
BRANCH   3   4
ATOM      4  C   UNL     1     172.055 170.696 195.679  1.00  0.00    -0.000 C 
BRANCH   4   5
ATOM      5  C   UNL     1     171.666 172.179 195.799  1.00  0.00    -0.000 C 
BRANCH   5   6
ATOM      6  C   UNL     1     172.077 172.788 197.151  1.00  0.00    -0.000 C 
BRANCH   6   7
ATOM      7  C   UNL     1     171.614 174.245 197.305  1.00  0.00    -0.003 C 
ATOM      8  C   UNL     1     172.776 175.223 197.480  1.00  0.00     0.004 C 
ENDBRANCH   6   7
ENDBRANCH   5   6
ENDBRANCH   4   5
ENDBRANCH   3   4
ENDBRANCH   2   3
ENDBRANCH   1   2
BRANCH   1   9
ATOM      9  C   UNL     1     170.796 169.640 198.991  1.00  0.00     0.000 C 
BRANCH   9  10
ATOM     10  C   UNL     1     169.843 170.784 199.359  1.00  0.00     0.000 C 
BRANCH  10  11
ATOM     11  C   UNL     1     168.593 170.767 198.466  1.00  0.00     0.000 C 
BRANCH  11  12
ATOM     12  C   UNL     1     168.324 172.125 197.798  1.00  0.00     0.002 C 
BRANCH  12  13
ATOM     13  C   UNL     1     168.369 173.295 198.796  1.00  0.00     0.028 C 
BRANCH  13  14
ATOM     14  C   UNL     1     167.286 173.165 199.867  1.00  0.00     0.156 C 
BRANCH  14  15
ATOM     15  O   UNL     1     166.102 173.777 199.434  1.00  0.00    -0.396 OA
ATOM     16  H   UNL     1     165.361 173.197 199.750  1.00  0.00     0.210 HD
ENDBRANCH  14  15
ENDBRANCH  13  14
ENDBRANCH  12  13
ENDBRANCH  11  12
ENDBRANCH  10  11
ENDBRANCH   9  10
ENDBRANCH   1   9
TORSDOF 13
ENDMDL
MODEL 4
REMARK VINA RESULT:    -4.058      2.679      5.197
REMARK INTER + INTRA:          -8.415
REMARK INTER:                  -6.364
REMARK INTRA:                  -2.051
REMARK UNBOUND:                -1.392
REMARK SMILES CCCCCCCCCCCCCCO
REMARK SMILES IDX 8 1 7 2 6 3 5 4 4 5 3 6 2 7 1 8 9 9 10 10 11 11 12 12 13 13
REMARK SMILES IDX 14 14 15 15
REMARK H PARENT 15 16
REMARK Flexibility Score: inf
ROOT
ATOM      1  C   UNL     1     172.671 169.713 197.569  1.00  0.00     0.000 C 
ENDROOT
BRANCH   1   2
ATOM      2  C   UNL     1     171.659 168.635 197.998  1.00  0.00    -0.000 C 
BRANCH   2   3
ATOM      3  C   UNL     1     170.222 169.142 198.227  1.00  0.00    -0.000 C 
BRANCH   3   4
ATOM      4  C   UNL     1     170.120 170.153 199.382  1.00  0.00    -0.000 C 
BRANCH   4   5
ATOM      5  C   UNL     1     169.164 171.315 199.064  1.00  0.00    -0.000 C 
BRANCH   5   6
ATOM      6  C   UNL     1     168.651 171.276 197.614  1.00  0.00    -0.000 C 
BRANCH   6   7
ATOM      7  C   UNL     1     168.788 172.633 196.906  1.00  0.00    -0.003 C 
ATOM      8  C   UNL     1     168.546 173.818 197.839  1.00  0.00     0.004 C 
ENDBRANCH   6   7
ENDBRANCH   5   6
ENDBRANCH   4   5
ENDBRANCH   3   4
ENDBRANCH   2   3
ENDBRANCH   1   2
BRANCH   1   9
ATOM      9  C   UNL     1     172.192 170.541 196.368  1.00  0.00     0.000 C 
BRANCH   9  10
ATOM     10  C   UNL     1     172.452 172.036 196.591  1.00  0.00     0.000 C 
BRANCH  10  11
ATOM     11  C   UNL     1     172.741 172.328 198.072  1.00  0.00     0.000 C 
BRANCH  11  12
ATOM     12  C   UNL     1     172.165 173.676 198.533  1.00  0.00     0.002 C 
BRANCH  12  13
ATOM     13  C   UNL     1     172.425 174.807 197.525  1.00  0.00     0.028 C 
BRANCH  13  14
ATOM     14  C   UNL     1     173.829 175.392 197.682  1.00  0.00     0.156 C 
BRANCH  14  15
ATOM     15  O   UNL     1     173.789 176.530 198.499  1.00  0.00    -0.396 OA
ATOM     16  H   UNL     1     172.985 177.040 198.221  1.00  0.00     0.210 HD
ENDBRANCH  14  15
ENDBRANCH  13  14
ENDBRANCH  12  13
ENDBRANCH  11  12
ENDBRANCH  10  11
ENDBRANCH   9  10
ENDBRANCH   1   9
TORSDOF 13
ENDMDL
MODEL 5
REMARK VINA RESULT:    -4.024      2.616      4.113
REMARK INTER + INTRA:          -8.357
REMARK INTER:                  -6.017
REMARK INTRA:                  -2.340
REMARK UNBOUND:                -1.392
REMARK SMILES CCCCCCCCCCCCCCO
REMARK SMILES IDX 8 1 7 2 6 3 5 4 4 5 3 6 2 7 1 8 9 9 10 10 11 11 12 12 13 13
REMARK SMILES IDX 14 14 15 15
REMARK H PARENT 15 16
REMARK Flexibility Score: inf
ROOT
ATOM      1  C   UNL     1     168.641 173.622 197.501  1.00  0.00     0.000 C 
ENDROOT
BRANCH   1   2
ATOM      2  C   UNL     1     168.556 172.320 196.684  1.00  0.00    -0.000 C 
BRANCH   2   3
ATOM      3  C   UNL     1     169.787 172.015 195.811  1.00  0.00    -0.000 C 
BRANCH   3   4
ATOM      4  C   UNL     1     171.009 172.877 196.175  1.00  0.00    -0.000 C 
BRANCH   4   5
ATOM      5  C   UNL     1     172.073 172.090 196.957  1.00  0.00    -0.000 C 
BRANCH   5   6
ATOM      6  C   UNL     1     172.916 172.992 197.876  1.00  0.00    -0.000 C 
BRANCH   6   7
ATOM      7  C   UNL     1     172.226 174.331 198.178  1.00  0.00    -0.003 C 
ATOM      8  C   UNL     1     172.146 174.636 199.674  1.00  0.00     0.004 C 
ENDBRANCH   6   7
ENDBRANCH   5   6
ENDBRANCH   4   5
ENDBRANCH   3   4
ENDBRANCH   2   3
ENDBRANCH   1   2
BRANCH   1   9
ATOM      9  C   UNL     1     168.621 173.382 199.018  1.00  0.00     0.000 C 
BRANCH   9  10
ATOM     10  C   UNL     1     168.739 171.888 199.340  1.00  0.00     0.000 C 
BRANCH  10  11
ATOM     11  C   UNL     1     170.109 171.565 199.957  1.00  0.00     0.000 C 
BRANCH  11  12
ATOM     12  C   UNL     1     170.524 170.101 199.746  1.00  0.00     0.002 C 
BRANCH  12  13
ATOM     13  C   UNL     1     169.740 169.421 198.611  1.00  0.00     0.028 C 
BRANCH  13  14
ATOM     14  C   UNL     1     170.663 168.635 197.680  1.00  0.00     0.156 C 
BRANCH  14  15
ATOM     15  O   UNL     1     170.124 168.594 196.387  1.00  0.00    -0.396 OA
ATOM     16  H   UNL     1     170.127 169.531 196.058  1.00  0.00     0.210 HD
ENDBRANCH  14  15
ENDBRANCH  13  14
ENDBRANCH  12  13
ENDBRANCH  11  12
ENDBRANCH  10  11
ENDBRANCH   9  10
ENDBRANCH   1   9
TORSDOF 13
ENDMDL
MODEL 6
REMARK VINA RESULT:    -3.999      3.648      5.823
REMARK INTER + INTRA:          -8.314
REMARK INTER:                  -6.185
REMARK INTRA:                  -2.129
REMARK UNBOUND:                -1.392
REMARK SMILES CCCCCCCCCCCCCCO
REMARK SMILES IDX 8 1 7 2 6 3 5 4 4 5 3 6 2 7 1 8 9 9 10 10 11 11 12 12 13 13
REMARK SMILES IDX 14 14 15 15
REMARK H PARENT 15 16
REMARK Flexibility Score: inf
ROOT
ATOM      1  C   UNL     1     171.426 171.798 195.367  1.00  0.00     0.000 C 
ENDROOT
BRANCH   1   2
ATOM      2  C   UNL     1     170.901 172.560 196.598  1.00  0.00    -0.000 C 
BRANCH   2   3
ATOM      3  C   UNL     1     170.895 171.755 197.911  1.00  0.00    -0.000 C 
BRANCH   3   4
ATOM      4  C   UNL     1     171.360 172.582 199.123  1.00  0.00    -0.000 C 
BRANCH   4   5
ATOM      5  C   UNL     1     171.723 174.027 198.746  1.00  0.00    -0.000 C 
BRANCH   5   6
ATOM      6  C   UNL     1     173.151 174.408 199.177  1.00  0.00    -0.000 C 
BRANCH   6   7
ATOM      7  C   UNL     1     173.851 175.314 198.153  1.00  0.00    -0.003 C 
ATOM      8  C   UNL     1     173.142 175.343 196.800  1.00  0.00     0.004 C 
ENDBRANCH   6   7
ENDBRANCH   5   6
ENDBRANCH   4   5
ENDBRANCH   3   4
ENDBRANCH   2   3
ENDBRANCH   1   2
BRANCH   1   9
ATOM      9  C   UNL     1     172.723 171.025 195.648  1.00  0.00     0.000 C 
BRANCH   9  10
ATOM     10  C   UNL     1     173.942 171.952 195.578  1.00  0.00     0.000 C 
BRANCH  10  11
ATOM     11  C   UNL     1     174.728 171.927 196.898  1.00  0.00     0.000 C 
BRANCH  11  12
ATOM     12  C   UNL     1     174.692 170.552 197.583  1.00  0.00     0.002 C 
BRANCH  12  13
ATOM     13  C   UNL     1     174.486 170.653 199.103  1.00  0.00     0.028 C 
BRANCH  13  14
ATOM     14  C   UNL     1     175.816 170.623 199.857  1.00  0.00     0.156 C 
BRANCH  14  15
ATOM     15  O   UNL     1     176.814 170.056 199.053  1.00  0.00    -0.396 OA
ATOM     16  H   UNL     1     176.371 169.804 198.202  1.00  0.00     0.210 HD
ENDBRANCH  14  15
ENDBRANCH  13  14
ENDBRANCH  12  13
ENDBRANCH  11  12
ENDBRANCH  10  11
ENDBRANCH   9  10
ENDBRANCH   1   9
TORSDOF 13
ENDMDL
MODEL 7
REMARK VINA RESULT:    -3.987      2.488      4.584
REMARK INTER + INTRA:          -8.293
REMARK INTER:                  -5.938
REMARK INTRA:                  -2.355
REMARK UNBOUND:                -1.392
REMARK SMILES CCCCCCCCCCCCCCO
REMARK SMILES IDX 8 1 7 2 6 3 5 4 4 5 3 6 2 7 1 8 9 9 10 10 11 11 12 12 13 13
REMARK SMILES IDX 14 14 15 15
REMARK H PARENT 15 16
REMARK Flexibility Score: inf
ROOT
ATOM      1  C   UNL     1     168.272 170.955 198.306  1.00  0.00     0.000 C 
ENDROOT
BRANCH   1   2
ATOM      2  C   UNL     1     168.622 171.899 197.141  1.00  0.00    -0.000 C 
BRANCH   2   3
ATOM      3  C   UNL     1     168.688 173.393 197.509  1.00  0.00    -0.000 C 
BRANCH   3   4
ATOM      4  C   UNL     1     169.338 173.645 198.881  1.00  0.00    -0.000 C 
BRANCH   4   5
ATOM      5  C   UNL     1     170.873 173.694 198.805  1.00  0.00    -0.000 C 
BRANCH   5   6
ATOM      6  C   UNL     1     171.544 172.906 199.944  1.00  0.00    -0.000 C 
BRANCH   6   7
ATOM      7  C   UNL     1     170.526 172.326 200.937  1.00  0.00    -0.003 C 
ATOM      8  C   UNL     1     170.930 170.951 201.469  1.00  0.00     0.004 C 
ENDBRANCH   6   7
ENDBRANCH   5   6
ENDBRANCH   4   5
ENDBRANCH   3   4
ENDBRANCH   2   3
ENDBRANCH   1   2
BRANCH   1   9
ATOM      9  C   UNL     1     169.222 169.753 198.410  1.00  0.00     0.000 C 
BRANCH   9  10
ATOM     10  C   UNL     1     170.286 169.795 197.307  1.00  0.00     0.000 C 
BRANCH  10  11
ATOM     11  C   UNL     1     171.696 169.899 197.907  1.00  0.00     0.000 C 
BRANCH  11  12
ATOM     12  C   UNL     1     172.651 170.729 197.036  1.00  0.00     0.002 C 
BRANCH  12  13
ATOM     13  C   UNL     1     172.014 171.161 195.704  1.00  0.00     0.028 C 
BRANCH  13  14
ATOM     14  C   UNL     1     172.489 172.549 195.275  1.00  0.00     0.156 C 
BRANCH  14  15
ATOM     15  O   UNL     1     171.418 173.453 195.291  1.00  0.00    -0.396 OA
ATOM     16  H   UNL     1     171.315 173.741 196.235  1.00  0.00     0.210 HD
ENDBRANCH  14  15
ENDBRANCH  13  14
ENDBRANCH  12  13
ENDBRANCH  11  12
ENDBRANCH  10  11
ENDBRANCH   9  10
ENDBRANCH   1   9
TORSDOF 13
ENDMDL
MODEL 8
REMARK VINA RESULT:    -3.970      2.949      5.232
REMARK INTER + INTRA:          -8.264
REMARK INTER:                  -6.151
REMARK INTRA:                  -2.113
REMARK UNBOUND:                -1.392
REMARK SMILES CCCCCCCCCCCCCCO
REMARK SMILES IDX 8 1 7 2 6 3 5 4 4 5 3 6 2 7 1 8 9 9 10 10 11 11 12 12 13 13
REMARK SMILES IDX 14 14 15 15
REMARK H PARENT 15 16
REMARK Flexibility Score: inf
ROOT
ATOM      1  C   UNL     1     168.249 171.032 198.225  1.00  0.00     0.000 C 
ENDROOT
BRANCH   1   2
ATOM      2  C   UNL     1     167.907 171.985 199.384  1.00  0.00    -0.000 C 
BRANCH   2   3
ATOM      3  C   UNL     1     167.921 173.483 199.024  1.00  0.00    -0.000 C 
BRANCH   3   4
ATOM      4  C   UNL     1     168.798 173.797 197.800  1.00  0.00    -0.000 C 
BRANCH   4   5
ATOM      5  C   UNL     1     170.204 174.281 198.192  1.00  0.00    -0.000 C 
BRANCH   5   6
ATOM      6  C   UNL     1     171.305 173.667 197.309  1.00  0.00    -0.000 C 
BRANCH   6   7
ATOM      7  C   UNL     1     170.736 172.779 196.192  1.00  0.00    -0.003 C 
ATOM      8  C   UNL     1     171.594 171.544 195.917  1.00  0.00     0.004 C 
ENDBRANCH   6   7
ENDBRANCH   5   6
ENDBRANCH   4   5
ENDBRANCH   3   4
ENDBRANCH   2   3
ENDBRANCH   1   2
BRANCH   1   9
ATOM      9  C   UNL     1     169.438 170.112 198.534  1.00  0.00     0.000 C 
BRANCH   9  10
ATOM     10  C   UNL     1     170.279 170.669 199.689  1.00  0.00     0.000 C 
BRANCH  10  11
ATOM     11  C   UNL     1     171.728 170.166 199.607  1.00  0.00     0.000 C 
BRANCH  11  12
ATOM     12  C   UNL     1     172.758 171.300 199.741  1.00  0.00     0.002 C 
BRANCH  12  13
ATOM     13  C   UNL     1     173.936 171.148 198.765  1.00  0.00     0.028 C 
BRANCH  13  14
ATOM     14  C   UNL     1     174.047 169.720 198.231  1.00  0.00     0.156 C 
BRANCH  14  15
ATOM     15  O   UNL     1     174.934 169.676 197.147  1.00  0.00    -0.396 OA
ATOM     16  H   UNL     1     175.030 168.718 196.909  1.00  0.00     0.210 HD
ENDBRANCH  14  15
ENDBRANCH  13  14
ENDBRANCH  12  13
ENDBRANCH  11  12
ENDBRANCH  10  11
ENDBRANCH   9  10
ENDBRANCH   1   9
TORSDOF 13
ENDMDL
MODEL 9
REMARK VINA RESULT:    -3.946      2.859      4.351
REMARK INTER + INTRA:          -8.221
REMARK INTER:                  -6.182
REMARK INTRA:                  -2.039
REMARK UNBOUND:                -1.392
REMARK SMILES CCCCCCCCCCCCCCO
REMARK SMILES IDX 8 1 7 2 6 3 5 4 4 5 3 6 2 7 1 8 9 9 10 10 11 11 12 12 13 13
REMARK SMILES IDX 14 14 15 15
REMARK H PARENT 15 16
REMARK Flexibility Score: inf
ROOT
ATOM      1  C   UNL     1     168.714 172.487 196.720  1.00  0.00     0.000 C 
ENDROOT
BRANCH   1   2
ATOM      2  C   UNL     1     169.710 171.724 195.828  1.00  0.00    -0.000 C 
BRANCH   2   3
ATOM      3  C   UNL     1     171.121 172.336 195.754  1.00  0.00    -0.000 C 
BRANCH   3   4
ATOM      4  C   UNL     1     172.205 171.417 196.343  1.00  0.00    -0.000 C 
BRANCH   4   5
ATOM      5  C   UNL     1     171.685 169.998 196.626  1.00  0.00    -0.000 C 
BRANCH   5   6
ATOM      6  C   UNL     1     171.984 169.537 198.063  1.00  0.00    -0.000 C 
BRANCH   6   7
ATOM      7  C   UNL     1     170.722 169.075 198.807  1.00  0.00    -0.003 C 
ATOM      8  C   UNL     1     169.766 168.279 197.919  1.00  0.00     0.004 C 
ENDBRANCH   6   7
ENDBRANCH   5   6
ENDBRANCH   4   5
ENDBRANCH   3   4
ENDBRANCH   2   3
ENDBRANCH   1   2
BRANCH   1   9
ATOM      9  C   UNL     1     168.553 171.860 198.113  1.00  0.00     0.000 C 
BRANCH   9  10
ATOM     10  C   UNL     1     168.919 172.863 199.213  1.00  0.00     0.000 C 
BRANCH  10  11
ATOM     11  C   UNL     1     170.443 172.972 199.372  1.00  0.00     0.000 C 
BRANCH  11  12
ATOM     12  C   UNL     1     170.990 174.335 198.917  1.00  0.00     0.002 C 
BRANCH  12  13
ATOM     13  C   UNL     1     172.504 174.306 198.650  1.00  0.00     0.028 C 
BRANCH  13  14
ATOM     14  C   UNL     1     172.900 175.282 197.541  1.00  0.00     0.156 C 
BRANCH  14  15
ATOM     15  O   UNL     1     174.295 175.325 197.411  1.00  0.00    -0.396 OA
ATOM     16  H   UNL     1     174.495 176.126 196.861  1.00  0.00     0.210 HD
ENDBRANCH  14  15
ENDBRANCH  13  14
ENDBRANCH  12  13
ENDBRANCH  11  12
ENDBRANCH  10  11
ENDBRANCH   9  10
ENDBRANCH   1   9
TORSDOF 13
ENDMDL
