MODEL 1
REMARK VINA RESULT:    -3.636      0.000      0.000
REMARK INTER + INTRA:          -6.829
REMARK INTER:                  -5.550
REMARK INTRA:                  -1.280
REMARK UNBOUND:                -1.280
REMARK SMILES CCCCCCCCCCC(=O)[O-]
REMARK SMILES IDX 7 1 8 2 9 3 10 4 11 5 12 6 13 7 6 8 5 9 4 10 3 11 2 12 1 13
REMARK H PARENT
REMARK Flexibility Score: inf
ROOT
ATOM      1  C   UNL     1      13.851  26.437  51.563  1.00  0.00     0.000 C 
ENDROOT
BRANCH   1   2
ATOM      2  C   UNL     1      14.804  26.795  50.412  1.00  0.00     0.000 C 
BRANCH   2   3
ATOM      3  C   UNL     1      15.712  27.988  50.745  1.00  0.00     0.006 C 
BRANCH   3   4
ATOM      4  C   UNL     1      14.913  29.119  51.400  1.00  0.00     0.053 C 
BRANCH   4   5
ATOM      5  C   UNL     1      14.882  30.324  50.512  1.00  0.00     0.041 C 
ATOM      6  O   UNL     1      15.018  31.475  51.002  1.00  0.00    -0.550 OA
ATOM      7  O   UNL     1      14.756  30.170  49.137  1.00  0.00    -0.550 OA
ENDBRANCH   4   5
ENDBRANCH   3   4
ENDBRANCH   2   3
ENDBRANCH   1   2
BRANCH   1   8
ATOM      8  C   UNL     1      13.727  24.921  51.779  1.00  0.00     0.000 C 
BRANCH   8   9
ATOM      9  C   UNL     1      15.100  24.294  52.063  1.00  0.00    -0.000 C 
BRANCH   9  10
ATOM     10  C   UNL     1      15.618  24.620  53.473  1.00  0.00    -0.000 C 
BRANCH  10  11
ATOM     11  C   UNL     1      16.914  25.451  53.449  1.00  0.00    -0.000 C 
BRANCH  11  12
ATOM     12  C   UNL     1      16.757  26.807  54.153  1.00  0.00    -0.003 C 
ATOM     13  C   UNL     1      15.439  26.925  54.919  1.00  0.00     0.004 C 
ENDBRANCH  11  12
ENDBRANCH  10  11
ENDBRANCH   9  10
ENDBRANCH   8   9
ENDBRANCH   1   8
TORSDOF 9
ENDMDL
MODEL 2
REMARK VINA RESULT:    -3.616      2.370      4.141
REMARK INTER + INTRA:          -6.798
REMARK INTER:                  -5.494
REMARK INTRA:                  -1.303
REMARK UNBOUND:                -1.280
REMARK SMILES CCCCCCCCCCC(=O)[O-]
REMARK SMILES IDX 7 1 8 2 9 3 10 4 11 5 12 6 13 7 6 8 5 9 4 10 3 11 2 12 1 13
REMARK H PARENT
REMARK Flexibility Score: inf
ROOT
ATOM      1  C   UNL     1      15.458  23.900  52.054  1.00  0.00     0.000 C 
ENDROOT
BRANCH   1   2
ATOM      2  C   UNL     1      15.489  24.280  53.542  1.00  0.00     0.000 C 
BRANCH   2   3
ATOM      3  C   UNL     1      16.305  25.552  53.812  1.00  0.00     0.006 C 
BRANCH   3   4
ATOM      4  C   UNL     1      15.496  26.557  54.639  1.00  0.00     0.053 C 
BRANCH   4   5
ATOM      5  C   UNL     1      16.168  27.894  54.645  1.00  0.00     0.041 C 
ATOM      6  O   UNL     1      17.188  28.094  53.934  1.00  0.00    -0.550 OA
ATOM      7  O   UNL     1      15.638  28.935  55.397  1.00  0.00    -0.550 OA
ENDBRANCH   4   5
ENDBRANCH   3   4
ENDBRANCH   2   3
ENDBRANCH   1   2
BRANCH   1   8
ATOM      8  C   UNL     1      14.034  23.875  51.478  1.00  0.00     0.000 C 
BRANCH   8   9
ATOM      9  C   UNL     1      13.386  25.265  51.559  1.00  0.00    -0.000 C 
BRANCH   9  10
ATOM     10  C   UNL     1      13.939  26.237  50.504  1.00  0.00    -0.000 C 
BRANCH  10  11
ATOM     11  C   UNL     1      14.598  27.479  51.131  1.00  0.00    -0.000 C 
BRANCH  11  12
ATOM     12  C   UNL     1      15.836  27.945  50.351  1.00  0.00    -0.003 C 
ATOM     13  C   UNL     1      17.022  26.993  50.503  1.00  0.00     0.004 C 
ENDBRANCH  11  12
ENDBRANCH  10  11
ENDBRANCH   9  10
ENDBRANCH   8   9
ENDBRANCH   1   8
TORSDOF 9
ENDMDL
MODEL 3
REMARK VINA RESULT:    -3.600      1.418      3.190
REMARK INTER + INTRA:          -6.773
REMARK INTER:                  -5.663
REMARK INTRA:                  -1.110
REMARK UNBOUND:                -1.280
REMARK SMILES CCCCCCCCCCC(=O)[O-]
REMARK SMILES IDX 7 1 8 2 9 3 10 4 11 5 12 6 13 7 6 8 5 9 4 10 3 11 2 12 1 13
REMARK H PARENT
REMARK Flexibility Score: inf
ROOT
ATOM      1  C   UNL     1      16.954  29.048  54.047  1.00  0.00     0.000 C 
ENDROOT
BRANCH   1   2
ATOM      2  C   UNL     1      16.401  30.062  53.034  1.00  0.00     0.000 C 
BRANCH   2   3
ATOM      3  C   UNL     1      16.089  29.428  51.671  1.00  0.00     0.006 C 
BRANCH   3   4
ATOM      4  C   UNL     1      14.595  29.531  51.348  1.00  0.00     0.053 C 
BRANCH   4   5
ATOM      5  C   UNL     1      14.277  30.866  50.751  1.00  0.00     0.041 C 
ATOM      6  O   UNL     1      14.963  31.312  49.795  1.00  0.00    -0.550 OA
ATOM      7  O   UNL     1      13.190  31.595  51.218  1.00  0.00    -0.550 OA
ENDBRANCH   4   5
ENDBRANCH   3   4
ENDBRANCH   2   3
ENDBRANCH   1   2
BRANCH   1   8
ATOM      8  C   UNL     1      15.964  28.744  55.182  1.00  0.00     0.000 C 
BRANCH   8   9
ATOM      9  C   UNL     1      15.731  27.232  55.315  1.00  0.00    -0.000 C 
BRANCH   9  10
ATOM     10  C   UNL     1      16.619  26.411  54.366  1.00  0.00    -0.000 C 
BRANCH  10  11
ATOM     11  C   UNL     1      15.826  25.348  53.584  1.00  0.00    -0.000 C 
BRANCH  11  12
ATOM     12  C   UNL     1      15.363  25.851  52.209  1.00  0.00    -0.003 C 
ATOM     13  C   UNL     1      13.841  25.924  52.089  1.00  0.00     0.004 C 
ENDBRANCH  11  12
ENDBRANCH  10  11
ENDBRANCH   9  10
ENDBRANCH   8   9
ENDBRANCH   1   8
TORSDOF 9
ENDMDL
MODEL 4
REMARK VINA RESULT:    -3.594      1.785      3.581
REMARK INTER + INTRA:          -6.765
REMARK INTER:                  -5.451
REMARK INTRA:                  -1.313
REMARK UNBOUND:                -1.280
REMARK SMILES CCCCCCCCCCC(=O)[O-]
REMARK SMILES IDX 7 1 8 2 9 3 10 4 11 5 12 6 13 7 6 8 5 9 4 10 3 11 2 12 1 13
REMARK H PARENT
REMARK Flexibility Score: inf
ROOT
ATOM      1  C   UNL     1      17.007  29.384  52.696  1.00  0.00     0.000 C 
ENDROOT
BRANCH   1   2
ATOM      2  C   UNL     1      15.597  29.890  52.351  1.00  0.00     0.000 C 
BRANCH   2   3
ATOM      3  C   UNL     1      14.817  28.911  51.462  1.00  0.00     0.006 C 
BRANCH   3   4
ATOM      4  C   UNL     1      15.764  27.918  50.779  1.00  0.00     0.053 C 
BRANCH   4   5
ATOM      5  C   UNL     1      15.709  28.079  49.292  1.00  0.00     0.041 C 
ATOM      6  O   UNL     1      16.331  27.279  48.545  1.00  0.00    -0.550 OA
ATOM      7  O   UNL     1      14.929  29.082  48.729  1.00  0.00    -0.550 OA
ENDBRANCH   4   5
ENDBRANCH   3   4
ENDBRANCH   2   3
ENDBRANCH   1   2
BRANCH   1   8
ATOM      8  C   UNL     1      17.269  29.345  54.209  1.00  0.00     0.000 C 
BRANCH   8   9
ATOM      9  C   UNL     1      16.035  28.834  54.966  1.00  0.00    -0.000 C 
BRANCH   9  10
ATOM     10  C   UNL     1      16.105  27.328  55.264  1.00  0.00    -0.000 C 
BRANCH  10  11
ATOM     11  C   UNL     1      15.257  26.491  54.289  1.00  0.00    -0.000 C 
BRANCH  11  12
ATOM     12  C   UNL     1      16.051  25.338  53.658  1.00  0.00    -0.003 C 
ATOM     13  C   UNL     1      17.550  25.629  53.577  1.00  0.00     0.004 C 
ENDBRANCH  11  12
ENDBRANCH  10  11
ENDBRANCH   9  10
ENDBRANCH   8   9
ENDBRANCH   1   8
TORSDOF 9
ENDMDL
MODEL 5
REMARK VINA RESULT:    -3.594      2.035      3.937
REMARK INTER + INTRA:          -6.764
REMARK INTER:                  -5.601
REMARK INTRA:                  -1.163
REMARK UNBOUND:                -1.280
REMARK SMILES CCCCCCCCCCC(=O)[O-]
REMARK SMILES IDX 7 1 8 2 9 3 10 4 11 5 12 6 13 7 6 8 5 9 4 10 3 11 2 12 1 13
REMARK H PARENT
REMARK Flexibility Score: inf
ROOT
ATOM      1  C   UNL     1      17.162  26.772  53.997  1.00  0.00     0.000 C 
ENDROOT
BRANCH   1   2
ATOM      2  C   UNL     1      16.074  27.007  55.056  1.00  0.00     0.000 C 
BRANCH   2   3
ATOM      3  C   UNL     1      15.709  28.490  55.213  1.00  0.00     0.006 C 
BRANCH   3   4
ATOM      4  C   UNL     1      16.837  29.389  54.695  1.00  0.00     0.053 C 
BRANCH   4   5
ATOM      5  C   UNL     1      16.327  30.770  54.427  1.00  0.00     0.041 C 
ATOM      6  O   UNL     1      16.334  31.232  53.256  1.00  0.00    -0.550 OA
ATOM      7  O   UNL     1      15.796  31.528  55.463  1.00  0.00    -0.550 OA
ENDBRANCH   4   5
ENDBRANCH   3   4
ENDBRANCH   2   3
ENDBRANCH   1   2
BRANCH   1   8
ATOM      8  C   UNL     1      17.108  25.359  53.396  1.00  0.00     0.000 C 
BRANCH   8   9
ATOM      9  C   UNL     1      15.704  24.754  53.543  1.00  0.00    -0.000 C 
BRANCH   9  10
ATOM     10  C   UNL     1      14.917  24.759  52.223  1.00  0.00    -0.000 C 
BRANCH  10  11
ATOM     11  C   UNL     1      13.925  25.932  52.129  1.00  0.00    -0.000 C 
BRANCH  11  12
ATOM     12  C   UNL     1      14.300  26.934  51.026  1.00  0.00    -0.003 C 
ATOM     13  C   UNL     1      14.847  28.248  51.584  1.00  0.00     0.004 C 
ENDBRANCH  11  12
ENDBRANCH  10  11
ENDBRANCH   9  10
ENDBRANCH   8   9
ENDBRANCH   1   8
TORSDOF 9
ENDMDL
MODEL 6
REMARK VINA RESULT:    -3.532      3.395      5.184
REMARK INTER + INTRA:          -6.670
REMARK INTER:                  -6.145
REMARK INTRA:                  -0.525
REMARK UNBOUND:                -1.280
REMARK SMILES CCCCCCCCCCC(=O)[O-]
REMARK SMILES IDX 7 1 8 2 9 3 10 4 11 5 12 6 13 7 6 8 5 9 4 10 3 11 2 12 1 13
REMARK H PARENT
REMARK Flexibility Score: inf
ROOT
ATOM      1  C   UNL     1      16.938  26.859  53.774  1.00  0.00     0.000 C 
ENDROOT
BRANCH   1   2
ATOM      2  C   UNL     1      17.103  25.368  53.440  1.00  0.00     0.000 C 
BRANCH   2   3
ATOM      3  C   UNL     1      15.777  24.597  53.498  1.00  0.00     0.006 C 
BRANCH   3   4
ATOM      4  C   UNL     1      15.443  23.977  52.138  1.00  0.00     0.053 C 
BRANCH   4   5
ATOM      5  C   UNL     1      14.327  24.726  51.479  1.00  0.00     0.041 C 
ATOM      6  O   UNL     1      13.740  25.656  52.091  1.00  0.00    -0.550 OA
ATOM      7  O   UNL     1      13.969  24.430  50.169  1.00  0.00    -0.550 OA
ENDBRANCH   4   5
ENDBRANCH   3   4
ENDBRANCH   2   3
ENDBRANCH   1   2
BRANCH   1   8
ATOM      8  C   UNL     1      15.702  27.138  54.642  1.00  0.00     0.000 C 
BRANCH   8   9
ATOM      9  C   UNL     1      15.944  28.337  55.571  1.00  0.00    -0.000 C 
BRANCH   9  10
ATOM     10  C   UNL     1      16.638  29.508  54.857  1.00  0.00    -0.000 C 
BRANCH  10  11
ATOM     11  C   UNL     1      16.875  30.711  55.787  1.00  0.00    -0.000 C 
BRANCH  11  12
ATOM     12  C   UNL     1      15.619  31.098  56.582  1.00  0.00    -0.003 C 
ATOM     13  C   UNL     1      15.788  32.409  57.351  1.00  0.00     0.004 C 
ENDBRANCH  11  12
ENDBRANCH  10  11
ENDBRANCH   9  10
ENDBRANCH   8   9
ENDBRANCH   1   8
TORSDOF 9
ENDMDL
MODEL 7
REMARK VINA RESULT:    -3.528      1.596      2.605
REMARK INTER + INTRA:          -6.664
REMARK INTER:                  -5.391
REMARK INTRA:                  -1.273
REMARK UNBOUND:                -1.280
REMARK SMILES CCCCCCCCCCC(=O)[O-]
REMARK SMILES IDX 7 1 8 2 9 3 10 4 11 5 12 6 13 7 6 8 5 9 4 10 3 11 2 12 1 13
REMARK H PARENT
REMARK Flexibility Score: inf
ROOT
ATOM      1  C   UNL     1      18.189  25.881  52.176  1.00  0.00     0.000 C 
ENDROOT
BRANCH   1   2
ATOM      2  C   UNL     1      17.957  27.308  51.657  1.00  0.00     0.000 C 
BRANCH   2   3
ATOM      3  C   UNL     1      16.838  27.383  50.608  1.00  0.00     0.006 C 
BRANCH   3   4
ATOM      4  C   UNL     1      15.637  28.170  51.142  1.00  0.00     0.053 C 
BRANCH   4   5
ATOM      5  C   UNL     1      15.351  29.350  50.267  1.00  0.00     0.041 C 
ATOM      6  O   UNL     1      15.439  30.518  50.728  1.00  0.00    -0.550 OA
ATOM      7  O   UNL     1      15.038  29.160  48.926  1.00  0.00    -0.550 OA
ENDBRANCH   4   5
ENDBRANCH   3   4
ENDBRANCH   2   3
ENDBRANCH   1   2
BRANCH   1   8
ATOM      8  C   UNL     1      17.696  25.688  53.619  1.00  0.00     0.000 C 
BRANCH   8   9
ATOM      9  C   UNL     1      16.214  25.288  53.643  1.00  0.00    -0.000 C 
BRANCH   9  10
ATOM     10  C   UNL     1      15.335  26.321  54.367  1.00  0.00    -0.000 C 
BRANCH  10  11
ATOM     11  C   UNL     1      16.152  27.272  55.260  1.00  0.00    -0.000 C 
BRANCH  11  12
ATOM     12  C   UNL     1      15.908  28.750  54.924  1.00  0.00    -0.003 C 
ATOM     13  C   UNL     1      17.191  29.484  54.531  1.00  0.00     0.004 C 
ENDBRANCH  11  12
ENDBRANCH  10  11
ENDBRANCH   9  10
ENDBRANCH   8   9
ENDBRANCH   1   8
TORSDOF 9
ENDMDL
MODEL 8
REMARK VINA RESULT:    -3.521      4.117      5.728
REMARK INTER + INTRA:          -6.652
REMARK INTER:                  -6.091
REMARK INTRA:                  -0.562
REMARK UNBOUND:                -1.280
REMARK SMILES CCCCCCCCCCC(=O)[O-]
REMARK SMILES IDX 7 1 8 2 9 3 10 4 11 5 12 6 13 7 6 8 5 9 4 10 3 11 2 12 1 13
REMARK H PARENT
REMARK Flexibility Score: inf
ROOT
ATOM      1  C   UNL     1      16.880  30.452  54.413  1.00  0.00     0.000 C 
ENDROOT
BRANCH   1   2
ATOM      2  C   UNL     1      18.048  30.688  55.384  1.00  0.00     0.000 C 
BRANCH   2   3
ATOM      3  C   UNL     1      17.636  31.504  56.618  1.00  0.00     0.006 C 
BRANCH   3   4
ATOM      4  C   UNL     1      16.170  31.246  56.982  1.00  0.00     0.053 C 
BRANCH   4   5
ATOM      5  C   UNL     1      15.460  32.537  57.246  1.00  0.00     0.041 C 
ATOM      6  O   UNL     1      14.211  32.613  57.108  1.00  0.00    -0.550 OA
ATOM      7  O   UNL     1      16.172  33.643  57.694  1.00  0.00    -0.550 OA
ENDBRANCH   4   5
ENDBRANCH   3   4
ENDBRANCH   2   3
ENDBRANCH   1   2
BRANCH   1   8
ATOM      8  C   UNL     1      16.649  28.962  54.116  1.00  0.00     0.000 C 
BRANCH   8   9
ATOM      9  C   UNL     1      15.744  28.325  55.180  1.00  0.00    -0.000 C 
BRANCH   9  10
ATOM     10  C   UNL     1      15.924  26.801  55.274  1.00  0.00    -0.000 C 
BRANCH  10  11
ATOM     11  C   UNL     1      16.763  26.232  54.117  1.00  0.00    -0.000 C 
BRANCH  11  12
ATOM     12  C   UNL     1      16.066  25.065  53.402  1.00  0.00    -0.003 C 
ATOM     13  C   UNL     1      14.870  25.517  52.564  1.00  0.00     0.004 C 
ENDBRANCH  11  12
ENDBRANCH  10  11
ENDBRANCH   9  10
ENDBRANCH   8   9
ENDBRANCH   1   8
TORSDOF 9
ENDMDL
MODEL 9
REMARK VINA RESULT:    -3.517      4.310      6.197
REMARK INTER + INTRA:          -6.647
REMARK INTER:                  -6.077
REMARK INTRA:                  -0.571
REMARK UNBOUND:                -1.280
REMARK SMILES CCCCCCCCCCC(=O)[O-]
REMARK SMILES IDX 7 1 8 2 9 3 10 4 11 5 12 6 13 7 6 8 5 9 4 10 3 11 2 12 1 13
REMARK H PARENT
REMARK Flexibility Score: inf
ROOT
ATOM      1  C   UNL     1      15.799  28.560  55.493  1.00  0.00     0.000 C 
ENDROOT
BRANCH   1   2
ATOM      2  C   UNL     1      15.780  27.116  54.969  1.00  0.00     0.000 C 
BRANCH   2   3
ATOM      3  C   UNL     1      16.866  26.853  53.915  1.00  0.00     0.006 C 
BRANCH   3   4
ATOM      4  C   UNL     1      16.999  25.354  53.628  1.00  0.00     0.053 C 
BRANCH   4   5
ATOM      5  C   UNL     1      15.970  24.916  52.633  1.00  0.00     0.041 C 
ATOM      6  O   UNL     1      15.284  23.882  52.845  1.00  0.00    -0.550 OA
ATOM      7  O   UNL     1      15.733  25.680  51.497  1.00  0.00    -0.550 OA
ENDBRANCH   4   5
ENDBRANCH   3   4
ENDBRANCH   2   3
ENDBRANCH   1   2
BRANCH   1   8
ATOM      8  C   UNL     1      16.854  29.431  54.793  1.00  0.00     0.000 C 
BRANCH   8   9
ATOM      9  C   UNL     1      17.156  30.692  55.615  1.00  0.00    -0.000 C 
BRANCH   9  10
ATOM     10  C   UNL     1      16.517  30.655  57.013  1.00  0.00    -0.000 C 
BRANCH  10  11
ATOM     11  C   UNL     1      15.801  31.969  57.372  1.00  0.00    -0.000 C 
BRANCH  11  12
ATOM     12  C   UNL     1      15.008  32.549  56.191  1.00  0.00    -0.003 C 
ATOM     13  C   UNL     1      13.914  33.521  56.636  1.00  0.00     0.004 C 
ENDBRANCH  11  12
ENDBRANCH  10  11
ENDBRANCH   9  10
ENDBRANCH   8   9
ENDBRANCH   1   8
TORSDOF 9
ENDMDL
