MODEL 1
REMARK VINA RESULT:    -4.002      0.000      0.000
REMARK INTER + INTRA:          -4.852
REMARK INTER:                  -4.587
REMARK INTRA:                  -0.265
REMARK UNBOUND:                -0.265
REMARK SMILES COc1ccc(C=O)c(O)c1
REMARK SMILES IDX 3 1 11 2 9 3 6 4 5 5 4 6 2 7 1 8 10 9 7 11 8 12
REMARK H PARENT 10 10
REMARK Flexibility Score: inf
ROOT
ATOM      1  C   UNL     1      18.370  28.754  28.230  1.00  0.00     0.122 A 
ATOM      2  C   UNL     1      18.459  30.150  28.380  1.00  0.00     0.093 A 
ATOM      3  C   UNL     1      18.394  30.742  29.648  1.00  0.00     0.129 A 
ATOM      4  C   UNL     1      18.185  29.930  30.792  1.00  0.00     0.056 A 
ATOM      5  C   UNL     1      18.122  28.536  30.632  1.00  0.00     0.019 A 
ATOM      6  C   UNL     1      18.212  27.958  29.366  1.00  0.00     0.047 A 
ENDROOT
BRANCH   1   7
ATOM      7  O   UNL     1      18.441  28.125  26.979  1.00  0.00    -0.497 OA
ATOM      8  C   UNL     1      18.055  26.777  26.732  1.00  0.00     0.278 C 
ENDBRANCH   1   7
BRANCH   3   9
ATOM      9  O   UNL     1      18.573  32.125  29.724  1.00  0.00    -0.507 OA
ATOM     10  H   UNL     1      17.827  32.795  29.595  1.00  0.00     0.293 HD
ENDBRANCH   3   9
BRANCH   4  11
ATOM     11  C   UNL     1      18.002  30.471  32.155  1.00  0.00     0.263 C 
ATOM     12  O   UNL     1      17.649  31.664  32.353  1.00  0.00    -0.298 OA
ENDBRANCH   4  11
TORSDOF 3
ENDMDL
MODEL 2
REMARK VINA RESULT:    -3.923      2.227      3.501
REMARK INTER + INTRA:          -4.762
REMARK INTER:                  -4.501
REMARK INTRA:                  -0.261
REMARK UNBOUND:                -0.265
REMARK SMILES COc1ccc(C=O)c(O)c1
REMARK SMILES IDX 3 1 11 2 9 3 6 4 5 5 4 6 2 7 1 8 10 9 7 11 8 12
REMARK H PARENT 10 10
REMARK Flexibility Score: inf
ROOT
ATOM      1  C   UNL     1      18.640  25.768  27.882  1.00  0.00     0.122 A 
ATOM      2  C   UNL     1      18.984  26.339  29.121  1.00  0.00     0.093 A 
ATOM      3  C   UNL     1      18.870  27.719  29.332  1.00  0.00     0.129 A 
ATOM      4  C   UNL     1      18.449  28.559  28.269  1.00  0.00     0.056 A 
ATOM      5  C   UNL     1      18.085  27.975  27.045  1.00  0.00     0.019 A 
ATOM      6  C   UNL     1      18.181  26.596  26.856  1.00  0.00     0.047 A 
ENDROOT
BRANCH   1   7
ATOM      7  O   UNL     1      18.732  24.390  27.636  1.00  0.00    -0.497 OA
ATOM      8  C   UNL     1      18.935  23.404  28.643  1.00  0.00     0.278 C 
ENDBRANCH   1   7
BRANCH   3   9
ATOM      9  O   UNL     1      19.151  28.201  30.612  1.00  0.00    -0.507 OA
ATOM     10  H   UNL     1      19.411  29.158  30.807  1.00  0.00     0.293 HD
ENDBRANCH   3   9
BRANCH   4  11
ATOM     11  C   UNL     1      18.396  30.033  28.366  1.00  0.00     0.263 C 
ATOM     12  O   UNL     1      18.218  30.619  29.466  1.00  0.00    -0.298 OA
ENDBRANCH   4  11
TORSDOF 3
ENDMDL
MODEL 3
REMARK VINA RESULT:    -3.893      1.542      2.384
REMARK INTER + INTRA:          -4.727
REMARK INTER:                  -4.478
REMARK INTRA:                  -0.249
REMARK UNBOUND:                -0.265
REMARK SMILES COc1ccc(C=O)c(O)c1
REMARK SMILES IDX 3 1 11 2 9 3 6 4 5 5 4 6 2 7 1 8 10 9 7 11 8 12
REMARK H PARENT 10 10
REMARK Flexibility Score: inf
ROOT
ATOM      1  C   UNL     1      18.379  27.352  28.126  1.00  0.00     0.122 A 
ATOM      2  C   UNL     1      18.330  27.446  29.529  1.00  0.00     0.093 A 
ATOM      3  C   UNL     1      18.293  28.693  30.165  1.00  0.00     0.129 A 
ATOM      4  C   UNL     1      18.356  29.878  29.389  1.00  0.00     0.056 A 
ATOM      5  C   UNL     1      18.381  29.773  27.989  1.00  0.00     0.019 A 
ATOM      6  C   UNL     1      18.394  28.524  27.368  1.00  0.00     0.047 A 
ENDROOT
BRANCH   1   7
ATOM      7  O   UNL     1      18.408  26.122  27.454  1.00  0.00    -0.497 OA
ATOM      8  C   UNL     1      18.825  24.893  28.040  1.00  0.00     0.278 C 
ENDBRANCH   1   7
BRANCH   3   9
ATOM      9  O   UNL     1      18.161  28.704  31.556  1.00  0.00    -0.507 OA
ATOM     10  H   UNL     1      17.610  28.033  32.072  1.00  0.00     0.293 HD
ENDBRANCH   3   9
BRANCH   4  11
ATOM     11  C   UNL     1      18.426  31.234  29.974  1.00  0.00     0.263 C 
ATOM     12  O   UNL     1      18.096  31.459  31.169  1.00  0.00    -0.298 OA
ENDBRANCH   4  11
TORSDOF 3
ENDMDL
MODEL 4
REMARK VINA RESULT:    -3.871      3.556      4.465
REMARK INTER + INTRA:          -4.702
REMARK INTER:                  -4.428
REMARK INTRA:                  -0.274
REMARK UNBOUND:                -0.265
REMARK SMILES COc1ccc(C=O)c(O)c1
REMARK SMILES IDX 3 1 11 2 9 3 6 4 5 5 4 6 2 7 1 8 10 9 7 11 8 12
REMARK H PARENT 10 10
REMARK Flexibility Score: inf
ROOT
ATOM      1  C   UNL     1      19.832  26.927  32.534  1.00  0.00     0.122 A 
ATOM      2  C   UNL     1      19.052  27.947  31.958  1.00  0.00     0.093 A 
ATOM      3  C   UNL     1      18.371  28.871  32.761  1.00  0.00     0.129 A 
ATOM      4  C   UNL     1      18.427  28.749  34.173  1.00  0.00     0.056 A 
ATOM      5  C   UNL     1      19.228  27.743  34.736  1.00  0.00     0.019 A 
ATOM      6  C   UNL     1      19.920  26.844  33.924  1.00  0.00     0.047 A 
ENDROOT
BRANCH   1   7
ATOM      7  O   UNL     1      20.535  25.990  31.763  1.00  0.00    -0.497 OA
ATOM      8  C   UNL     1      21.258  24.886  32.299  1.00  0.00     0.278 C 
ENDBRANCH   1   7
BRANCH   3   9
ATOM      9  O   UNL     1      17.685  29.903  32.116  1.00  0.00    -0.507 OA
ATOM     10  H   UNL     1      16.844  29.764  31.574  1.00  0.00     0.293 HD
ENDBRANCH   3   9
BRANCH   4  11
ATOM     11  C   UNL     1      17.662  29.613  35.097  1.00  0.00     0.263 C 
ATOM     12  O   UNL     1      16.509  30.031  34.812  1.00  0.00    -0.298 OA
ENDBRANCH   4  11
TORSDOF 3
ENDMDL
MODEL 5
REMARK VINA RESULT:    -3.863      1.228      2.069
REMARK INTER + INTRA:          -4.693
REMARK INTER:                  -4.431
REMARK INTRA:                  -0.263
REMARK UNBOUND:                -0.265
REMARK SMILES COc1ccc(C=O)c(O)c1
REMARK SMILES IDX 3 1 11 2 9 3 6 4 5 5 4 6 2 7 1 8 10 9 7 11 8 12
REMARK H PARENT 10 10
REMARK Flexibility Score: inf
ROOT
ATOM      1  C   UNL     1      18.413  29.338  28.423  1.00  0.00     0.122 A 
ATOM      2  C   UNL     1      18.260  28.863  29.739  1.00  0.00     0.093 A 
ATOM      3  C   UNL     1      18.198  29.750  30.821  1.00  0.00     0.129 A 
ATOM      4  C   UNL     1      18.341  31.143  30.594  1.00  0.00     0.056 A 
ATOM      5  C   UNL     1      18.469  31.607  29.276  1.00  0.00     0.019 A 
ATOM      6  C   UNL     1      18.506  30.713  28.205  1.00  0.00     0.047 A 
ENDROOT
BRANCH   1   7
ATOM      7  O   UNL     1      18.470  28.481  27.315  1.00  0.00    -0.497 OA
ATOM      8  C   UNL     1      17.632  27.344  27.132  1.00  0.00     0.278 C 
ENDBRANCH   1   7
BRANCH   3   9
ATOM      9  O   UNL     1      17.962  29.209  32.086  1.00  0.00    -0.507 OA
ATOM     10  H   UNL     1      17.495  28.326  32.240  1.00  0.00     0.293 HD
ENDBRANCH   3   9
BRANCH   4  11
ATOM     11  C   UNL     1      18.391  32.145  31.680  1.00  0.00     0.263 C 
ATOM     12  O   UNL     1      17.581  32.119  32.644  1.00  0.00    -0.298 OA
ENDBRANCH   4  11
TORSDOF 3
ENDMDL
MODEL 6
REMARK VINA RESULT:    -3.862      3.549      5.669
REMARK INTER + INTRA:          -4.691
REMARK INTER:                  -4.434
REMARK INTRA:                  -0.257
REMARK UNBOUND:                -0.265
REMARK SMILES COc1ccc(C=O)c(O)c1
REMARK SMILES IDX 3 1 11 2 9 3 6 4 5 5 4 6 2 7 1 8 10 9 7 11 8 12
REMARK H PARENT 10 10
REMARK Flexibility Score: inf
ROOT
ATOM      1  C   UNL     1      16.970  30.777  33.602  1.00  0.00     0.122 A 
ATOM      2  C   UNL     1      17.611  30.302  32.443  1.00  0.00     0.093 A 
ATOM      3  C   UNL     1      18.402  29.147  32.482  1.00  0.00     0.129 A 
ATOM      4  C   UNL     1      18.602  28.475  33.715  1.00  0.00     0.056 A 
ATOM      5  C   UNL     1      17.939  28.944  34.859  1.00  0.00     0.019 A 
ATOM      6  C   UNL     1      17.134  30.083  34.801  1.00  0.00     0.047 A 
ENDROOT
BRANCH   1   7
ATOM      7  O   UNL     1      16.162  31.924  33.600  1.00  0.00    -0.497 OA
ATOM      8  C   UNL     1      16.255  32.976  34.555  1.00  0.00     0.278 C 
ENDBRANCH   1   7
BRANCH   3   9
ATOM      9  O   UNL     1      18.937  28.691  31.275  1.00  0.00    -0.507 OA
ATOM     10  H   UNL     1      19.356  27.779  31.156  1.00  0.00     0.293 HD
ENDBRANCH   3   9
BRANCH   4  11
ATOM     11  C   UNL     1      19.500  27.311  33.873  1.00  0.00     0.263 C 
ATOM     12  O   UNL     1      19.808  26.574  32.900  1.00  0.00    -0.298 OA
ENDBRANCH   4  11
TORSDOF 3
ENDMDL
MODEL 7
REMARK VINA RESULT:    -3.852      1.617      4.452
REMARK INTER + INTRA:          -4.680
REMARK INTER:                  -4.430
REMARK INTRA:                  -0.250
REMARK UNBOUND:                -0.265
REMARK SMILES COc1ccc(C=O)c(O)c1
REMARK SMILES IDX 3 1 11 2 9 3 6 4 5 5 4 6 2 7 1 8 10 9 7 11 8 12
REMARK H PARENT 10 10
REMARK Flexibility Score: inf
ROOT
ATOM      1  C   UNL     1      18.418  29.882  28.852  1.00  0.00     0.122 A 
ATOM      2  C   UNL     1      18.740  29.265  27.629  1.00  0.00     0.093 A 
ATOM      3  C   UNL     1      18.807  27.870  27.523  1.00  0.00     0.129 A 
ATOM      4  C   UNL     1      18.596  27.068  28.674  1.00  0.00     0.056 A 
ATOM      5  C   UNL     1      18.252  27.693  29.883  1.00  0.00     0.019 A 
ATOM      6  C   UNL     1      18.166  29.083  29.969  1.00  0.00     0.047 A 
ENDROOT
BRANCH   1   7
ATOM      7  O   UNL     1      18.333  31.274  28.995  1.00  0.00    -0.497 OA
ATOM      8  C   UNL     1      18.746  32.212  28.006  1.00  0.00     0.278 C 
ENDBRANCH   1   7
BRANCH   3   9
ATOM      9  O   UNL     1      19.051  27.331  26.258  1.00  0.00    -0.507 OA
ATOM     10  H   UNL     1      19.973  27.233  25.859  1.00  0.00     0.293 HD
ENDBRANCH   3   9
BRANCH   4  11
ATOM     11  C   UNL     1      18.746  25.598  28.682  1.00  0.00     0.263 C 
ATOM     12  O   UNL     1      18.735  24.924  27.619  1.00  0.00    -0.298 OA
ENDBRANCH   4  11
TORSDOF 3
ENDMDL
MODEL 8
REMARK VINA RESULT:    -3.842      1.163      4.775
REMARK INTER + INTRA:          -4.669
REMARK INTER:                  -4.404
REMARK INTRA:                  -0.265
REMARK UNBOUND:                -0.265
REMARK SMILES COc1ccc(C=O)c(O)c1
REMARK SMILES IDX 3 1 11 2 9 3 6 4 5 5 4 6 2 7 1 8 10 9 7 11 8 12
REMARK H PARENT 10 10
REMARK Flexibility Score: inf
ROOT
ATOM      1  C   UNL     1      18.288  29.984  30.661  1.00  0.00     0.122 A 
ATOM      2  C   UNL     1      18.335  28.579  30.601  1.00  0.00     0.093 A 
ATOM      3  C   UNL     1      18.442  27.916  29.372  1.00  0.00     0.129 A 
ATOM      4  C   UNL     1      18.451  28.666  28.168  1.00  0.00     0.056 A 
ATOM      5  C   UNL     1      18.427  30.068  28.242  1.00  0.00     0.019 A 
ATOM      6  C   UNL     1      18.345  30.716  29.475  1.00  0.00     0.047 A 
ENDROOT
BRANCH   1   7
ATOM      7  O   UNL     1      18.191  30.683  31.873  1.00  0.00    -0.497 OA
ATOM      8  C   UNL     1      17.266  30.374  32.910  1.00  0.00     0.278 C 
ENDBRANCH   1   7
BRANCH   3   9
ATOM      9  O   UNL     1      18.567  26.525  29.399  1.00  0.00    -0.507 OA
ATOM     10  H   UNL     1      18.391  25.931  28.601  1.00  0.00     0.293 HD
ENDBRANCH   3   9
BRANCH   4  11
ATOM     11  C   UNL     1      18.457  28.051  26.824  1.00  0.00     0.263 C 
ATOM     12  O   UNL     1      17.847  26.976  26.583  1.00  0.00    -0.298 OA
ENDBRANCH   4  11
TORSDOF 3
ENDMDL
MODEL 9
REMARK VINA RESULT:    -3.806      2.133      2.814
REMARK INTER + INTRA:          -4.628
REMARK INTER:                  -4.360
REMARK INTRA:                  -0.268
REMARK UNBOUND:                -0.265
REMARK SMILES COc1ccc(C=O)c(O)c1
REMARK SMILES IDX 3 1 11 2 9 3 6 4 5 5 4 6 2 7 1 8 10 9 7 11 8 12
REMARK H PARENT 10 10
REMARK Flexibility Score: inf
ROOT
ATOM      1  C   UNL     1      18.778  27.998  30.207  1.00  0.00     0.122 A 
ATOM      2  C   UNL     1      18.005  29.027  30.775  1.00  0.00     0.093 A 
ATOM      3  C   UNL     1      18.008  29.248  32.159  1.00  0.00     0.129 A 
ATOM      4  C   UNL     1      18.760  28.393  33.004  1.00  0.00     0.056 A 
ATOM      5  C   UNL     1      19.546  27.385  32.424  1.00  0.00     0.019 A 
ATOM      6  C   UNL     1      19.553  27.191  31.042  1.00  0.00     0.047 A 
ENDROOT
BRANCH   1   7
ATOM      7  O   UNL     1      18.809  27.753  28.827  1.00  0.00    -0.497 OA
ATOM      8  C   UNL     1      18.334  28.660  27.837  1.00  0.00     0.278 C 
ENDBRANCH   1   7
BRANCH   3   9
ATOM      9  O   UNL     1      17.280  30.339  32.639  1.00  0.00    -0.507 OA
ATOM     10  H   UNL     1      16.760  30.329  33.504  1.00  0.00     0.293 HD
ENDBRANCH   3   9
BRANCH   4  11
ATOM     11  C   UNL     1      18.744  28.484  34.480  1.00  0.00     0.263 C 
ATOM     12  O   UNL     1      17.721  28.863  35.109  1.00  0.00    -0.298 OA
ENDBRANCH   4  11
TORSDOF 3
ENDMDL
