MODEL 1
REMARK VINA RESULT:    -4.883      0.000      0.000
REMARK INTER + INTRA:         -11.562
REMARK INTER:                  -9.451
REMARK INTRA:                  -2.111
REMARK UNBOUND:                -2.111
REMARK SMILES CCCCCCCCCCCCCCCCCC(=O)[O-]
REMARK SMILES IDX 10 1 11 2 12 3 13 4 14 5 15 6 16 7 17 8 18 9 19 10 20 11
REMARK SMILES IDX 9 12 8 13 7 14 6 15 5 16 4 17 3 18 2 19 1 20
REMARK H PARENT
REMARK Flexibility Score: inf
ROOT
ATOM      1  C   UNL     1      -9.081 -25.407  32.439  1.00  0.00     0.000 C 
ENDROOT
BRANCH   1   2
ATOM      2  C   UNL     1      -8.590 -24.248  31.554  1.00  0.00     0.000 C 
BRANCH   2   3
ATOM      3  C   UNL     1      -7.073 -24.294  31.293  1.00  0.00     0.000 C 
BRANCH   3   4
ATOM      4  C   UNL     1      -6.230 -24.881  32.441  1.00  0.00     0.000 C 
BRANCH   4   5
ATOM      5  C   UNL     1      -5.152 -25.862  31.954  1.00  0.00     0.000 C 
BRANCH   5   6
ATOM      6  C   UNL     1      -5.421 -27.311  32.397  1.00  0.00     0.000 C 
BRANCH   6   7
ATOM      7  C   UNL     1      -5.018 -28.365  31.344  1.00  0.00     0.006 C 
BRANCH   7   8
ATOM      8  C   UNL     1      -3.733 -27.978  30.601  1.00  0.00     0.053 C 
BRANCH   8   9
ATOM      9  C   UNL     1      -3.939 -28.058  29.121  1.00  0.00     0.041 C 
ATOM     10  O   UNL     1      -5.061 -28.390  28.654  1.00  0.00    -0.550 OA
ATOM     11  O   UNL     1      -2.906 -27.720  28.257  1.00  0.00    -0.550 OA
ENDBRANCH   8   9
ENDBRANCH   7   8
ENDBRANCH   6   7
ENDBRANCH   5   6
ENDBRANCH   4   5
ENDBRANCH   3   4
ENDBRANCH   2   3
ENDBRANCH   1   2
BRANCH   1  12
ATOM     12  C   UNL     1      -9.859 -26.469  31.644  1.00  0.00     0.000 C 
BRANCH  12  13
ATOM     13  C   UNL     1      -8.980 -27.658  31.232  1.00  0.00    -0.000 C 
BRANCH  13  14
ATOM     14  C   UNL     1      -8.284 -27.387  29.892  1.00  0.00    -0.000 C 
BRANCH  14  15
ATOM     15  C   UNL     1      -9.309 -27.176  28.770  1.00  0.00    -0.000 C 
BRANCH  15  16
ATOM     16  C   UNL     1      -9.111 -25.848  28.019  1.00  0.00    -0.000 C 
BRANCH  16  17
ATOM     17  C   UNL     1     -10.419 -25.056  27.810  1.00  0.00    -0.000 C 
BRANCH  17  18
ATOM     18  C   UNL     1     -10.897 -25.102  26.348  1.00  0.00    -0.000 C 
BRANCH  18  19
ATOM     19  C   UNL     1     -10.890 -23.719  25.682  1.00  0.00    -0.003 C 
ATOM     20  C   UNL     1     -11.228 -22.593  26.660  1.00  0.00     0.004 C 
ENDBRANCH  18  19
ENDBRANCH  17  18
ENDBRANCH  16  17
ENDBRANCH  15  16
ENDBRANCH  14  15
ENDBRANCH  13  14
ENDBRANCH  12  13
ENDBRANCH   1  12
TORSDOF 16
ENDMDL
MODEL 2
REMARK VINA RESULT:    -4.871      2.788      6.037
REMARK INTER + INTRA:         -11.538
REMARK INTER:                  -9.414
REMARK INTRA:                  -2.124
REMARK UNBOUND:                -2.111
REMARK SMILES CCCCCCCCCCCCCCCCCC(=O)[O-]
REMARK SMILES IDX 10 1 11 2 12 3 13 4 14 5 15 6 16 7 17 8 18 9 19 10 20 11
REMARK SMILES IDX 9 12 8 13 7 14 6 15 5 16 4 17 3 18 2 19 1 20
REMARK H PARENT
REMARK Flexibility Score: inf
ROOT
ATOM      1  C   UNL     1      -5.599 -27.256  32.157  1.00  0.00     0.000 C 
ENDROOT
BRANCH   1   2
ATOM      2  C   UNL     1      -5.620 -28.076  30.855  1.00  0.00     0.000 C 
BRANCH   2   3
ATOM      3  C   UNL     1      -5.746 -27.198  29.596  1.00  0.00     0.000 C 
BRANCH   3   4
ATOM      4  C   UNL     1      -6.968 -27.499  28.708  1.00  0.00     0.000 C 
BRANCH   4   5
ATOM      5  C   UNL     1      -8.177 -26.606  29.027  1.00  0.00     0.000 C 
BRANCH   5   6
ATOM      6  C   UNL     1      -9.521 -27.314  28.784  1.00  0.00     0.000 C 
BRANCH   6   7
ATOM      7  C   UNL     1     -10.601 -26.399  28.168  1.00  0.00     0.006 C 
BRANCH   7   8
ATOM      8  C   UNL     1     -10.082 -24.975  27.925  1.00  0.00     0.053 C 
BRANCH   8   9
ATOM      9  C   UNL     1     -10.627 -24.431  26.642  1.00  0.00     0.041 C 
ATOM     10  O   UNL     1     -10.813 -23.193  26.508  1.00  0.00    -0.550 OA
ATOM     11  O   UNL     1     -10.887 -25.286  25.579  1.00  0.00    -0.550 OA
ENDBRANCH   8   9
ENDBRANCH   7   8
ENDBRANCH   6   7
ENDBRANCH   5   6
ENDBRANCH   4   5
ENDBRANCH   3   4
ENDBRANCH   2   3
ENDBRANCH   1   2
BRANCH   1  12
ATOM     12  C   UNL     1      -4.908 -25.893  31.986  1.00  0.00     0.000 C 
BRANCH  12  13
ATOM     13  C   UNL     1      -5.260 -24.909  33.110  1.00  0.00    -0.000 C 
BRANCH  13  14
ATOM     14  C   UNL     1      -6.771 -24.655  33.165  1.00  0.00    -0.000 C 
BRANCH  14  15
ATOM     15  C   UNL     1      -7.307 -24.215  31.795  1.00  0.00    -0.000 C 
BRANCH  15  16
ATOM     16  C   UNL     1      -8.797 -24.543  31.600  1.00  0.00    -0.000 C 
BRANCH  16  17
ATOM     17  C   UNL     1      -9.307 -25.671  32.522  1.00  0.00    -0.000 C 
BRANCH  17  18
ATOM     18  C   UNL     1     -10.661 -26.233  32.055  1.00  0.00    -0.000 C 
BRANCH  18  19
ATOM     19  C   UNL     1     -11.736 -26.164  33.150  1.00  0.00    -0.003 C 
ATOM     20  C   UNL     1     -11.153 -25.844  34.527  1.00  0.00     0.004 C 
ENDBRANCH  18  19
ENDBRANCH  17  18
ENDBRANCH  16  17
ENDBRANCH  15  16
ENDBRANCH  14  15
ENDBRANCH  13  14
ENDBRANCH  12  13
ENDBRANCH   1  12
TORSDOF 16
ENDMDL
MODEL 3
REMARK VINA RESULT:    -4.814      3.488      6.899
REMARK INTER + INTRA:         -11.428
REMARK INTER:                  -9.251
REMARK INTRA:                  -2.176
REMARK UNBOUND:                -2.111
REMARK SMILES CCCCCCCCCCCCCCCCCC(=O)[O-]
REMARK SMILES IDX 10 1 11 2 12 3 13 4 14 5 15 6 16 7 17 8 18 9 19 10 20 11
REMARK SMILES IDX 9 12 8 13 7 14 6 15 5 16 4 17 3 18 2 19 1 20
REMARK H PARENT
REMARK Flexibility Score: inf
ROOT
ATOM      1  C   UNL     1      -6.072 -27.249  29.012  1.00  0.00     0.000 C 
ENDROOT
BRANCH   1   2
ATOM      2  C   UNL     1      -7.577 -27.230  29.334  1.00  0.00     0.000 C 
BRANCH   2   3
ATOM      3  C   UNL     1      -8.460 -27.247  28.073  1.00  0.00     0.000 C 
BRANCH   3   4
ATOM      4  C   UNL     1      -9.969 -27.408  28.334  1.00  0.00     0.000 C 
BRANCH   4   5
ATOM      5  C   UNL     1     -10.737 -26.078  28.263  1.00  0.00     0.000 C 
BRANCH   5   6
ATOM      6  C   UNL     1      -9.900 -24.941  27.651  1.00  0.00     0.000 C 
BRANCH   6   7
ATOM      7  C   UNL     1     -10.531 -24.318  26.388  1.00  0.00     0.006 C 
BRANCH   7   8
ATOM      8  C   UNL     1     -11.128 -25.381  25.456  1.00  0.00     0.053 C 
BRANCH   8   9
ATOM      9  C   UNL     1     -12.440 -24.917  24.905  1.00  0.00     0.041 C 
ATOM     10  O   UNL     1     -13.277 -25.753  24.474  1.00  0.00    -0.550 OA
ATOM     11  O   UNL     1     -12.756 -23.565  24.910  1.00  0.00    -0.550 OA
ENDBRANCH   8   9
ENDBRANCH   7   8
ENDBRANCH   6   7
ENDBRANCH   5   6
ENDBRANCH   4   5
ENDBRANCH   3   4
ENDBRANCH   2   3
ENDBRANCH   1   2
BRANCH   1  12
ATOM     12  C   UNL     1      -5.199 -27.345  30.274  1.00  0.00     0.000 C 
BRANCH  12  13
ATOM     13  C   UNL     1      -5.864 -28.164  31.389  1.00  0.00    -0.000 C 
BRANCH  13  14
ATOM     14  C   UNL     1      -6.016 -27.329  32.667  1.00  0.00    -0.000 C 
BRANCH  14  15
ATOM     15  C   UNL     1      -4.893 -26.290  32.784  1.00  0.00    -0.000 C 
BRANCH  15  16
ATOM     16  C   UNL     1      -5.412 -24.878  33.105  1.00  0.00    -0.000 C 
BRANCH  16  17
ATOM     17  C   UNL     1      -6.951 -24.760  33.057  1.00  0.00    -0.000 C 
BRANCH  17  18
ATOM     18  C   UNL     1      -7.433 -23.991  31.815  1.00  0.00    -0.000 C 
BRANCH  18  19
ATOM     19  C   UNL     1      -8.705 -24.597  31.203  1.00  0.00    -0.003 C 
ATOM     20  C   UNL     1      -9.453 -25.504  32.181  1.00  0.00     0.004 C 
ENDBRANCH  18  19
ENDBRANCH  17  18
ENDBRANCH  16  17
ENDBRANCH  15  16
ENDBRANCH  14  15
ENDBRANCH  13  14
ENDBRANCH  12  13
ENDBRANCH   1  12
TORSDOF 16
ENDMDL
MODEL 4
REMARK VINA RESULT:    -4.804      3.318      7.016
REMARK INTER + INTRA:         -11.407
REMARK INTER:                  -8.628
REMARK INTRA:                  -2.780
REMARK UNBOUND:                -2.111
REMARK SMILES CCCCCCCCCCCCCCCCCC(=O)[O-]
REMARK SMILES IDX 10 1 11 2 12 3 13 4 14 5 15 6 16 7 17 8 18 9 19 10 20 11
REMARK SMILES IDX 9 12 8 13 7 14 6 15 5 16 4 17 3 18 2 19 1 20
REMARK H PARENT
REMARK Flexibility Score: inf
ROOT
ATOM      1  C   UNL     1      -8.473 -26.998  29.079  1.00  0.00     0.000 C 
ENDROOT
BRANCH   1   2
ATOM      2  C   UNL     1      -7.970 -27.620  27.765  1.00  0.00     0.000 C 
BRANCH   2   3
ATOM      3  C   UNL     1      -9.113 -28.003  26.807  1.00  0.00     0.000 C 
BRANCH   3   4
ATOM      4  C   UNL     1     -10.427 -28.425  27.493  1.00  0.00     0.000 C 
BRANCH   4   5
ATOM      5  C   UNL     1     -11.675 -27.856  26.801  1.00  0.00     0.000 C 
BRANCH   5   6
ATOM      6  C   UNL     1     -11.765 -26.323  26.904  1.00  0.00     0.000 C 
BRANCH   6   7
ATOM      7  C   UNL     1     -11.500 -25.596  25.569  1.00  0.00     0.006 C 
BRANCH   7   8
ATOM      8  C   UNL     1     -10.509 -24.436  25.729  1.00  0.00     0.053 C 
BRANCH   8   9
ATOM      9  C   UNL     1     -11.226 -23.184  26.127  1.00  0.00     0.041 C 
ATOM     10  O   UNL     1     -11.926 -22.560  25.287  1.00  0.00    -0.550 OA
ATOM     11  O   UNL     1     -11.160 -22.733  27.439  1.00  0.00    -0.550 OA
ENDBRANCH   8   9
ENDBRANCH   7   8
ENDBRANCH   6   7
ENDBRANCH   5   6
ENDBRANCH   4   5
ENDBRANCH   3   4
ENDBRANCH   2   3
ENDBRANCH   1   2
BRANCH   1  12
ATOM     12  C   UNL     1      -8.834 -25.511  28.929  1.00  0.00     0.000 C 
BRANCH  12  13
ATOM     13  C   UNL     1     -10.000 -25.093  29.836  1.00  0.00    -0.000 C 
BRANCH  13  14
ATOM     14  C   UNL     1     -10.646 -26.316  30.499  1.00  0.00    -0.000 C 
BRANCH  14  15
ATOM     15  C   UNL     1     -10.571 -26.218  32.028  1.00  0.00    -0.000 C 
BRANCH  15  16
ATOM     16  C   UNL     1      -9.519 -25.206  32.514  1.00  0.00    -0.000 C 
BRANCH  16  17
ATOM     17  C   UNL     1      -8.419 -25.833  33.396  1.00  0.00    -0.000 C 
BRANCH  17  18
ATOM     18  C   UNL     1      -7.181 -26.239  32.577  1.00  0.00    -0.000 C 
BRANCH  18  19
ATOM     19  C   UNL     1      -6.632 -25.083  31.728  1.00  0.00    -0.003 C 
ATOM     20  C   UNL     1      -5.247 -25.382  31.152  1.00  0.00     0.004 C 
ENDBRANCH  18  19
ENDBRANCH  17  18
ENDBRANCH  16  17
ENDBRANCH  15  16
ENDBRANCH  14  15
ENDBRANCH  13  14
ENDBRANCH  12  13
ENDBRANCH   1  12
TORSDOF 16
ENDMDL
MODEL 5
REMARK VINA RESULT:    -4.802      1.029      1.403
REMARK INTER + INTRA:         -11.405
REMARK INTER:                  -9.329
REMARK INTRA:                  -2.075
REMARK UNBOUND:                -2.111
REMARK SMILES CCCCCCCCCCCCCCCCCC(=O)[O-]
REMARK SMILES IDX 10 1 11 2 12 3 13 4 14 5 15 6 16 7 17 8 18 9 19 10 20 11
REMARK SMILES IDX 9 12 8 13 7 14 6 15 5 16 4 17 3 18 2 19 1 20
REMARK H PARENT
REMARK Flexibility Score: inf
ROOT
ATOM      1  C   UNL     1      -9.521 -26.015  30.988  1.00  0.00     0.000 C 
ENDROOT
BRANCH   1   2
ATOM      2  C   UNL     1      -8.594 -24.839  30.633  1.00  0.00     0.000 C 
BRANCH   2   3
ATOM      3  C   UNL     1      -7.571 -24.526  31.741  1.00  0.00     0.000 C 
BRANCH   3   4
ATOM      4  C   UNL     1      -6.115 -24.905  31.411  1.00  0.00     0.000 C 
BRANCH   4   5
ATOM      5  C   UNL     1      -5.521 -25.922  32.399  1.00  0.00     0.000 C 
BRANCH   5   6
ATOM      6  C   UNL     1      -6.253 -27.275  32.371  1.00  0.00     0.000 C 
BRANCH   6   7
ATOM      7  C   UNL     1      -5.601 -28.313  31.435  1.00  0.00     0.006 C 
BRANCH   7   8
ATOM      8  C   UNL     1      -4.107 -28.038  31.217  1.00  0.00     0.053 C 
BRANCH   8   9
ATOM      9  C   UNL     1      -3.814 -27.855  29.761  1.00  0.00     0.041 C 
ATOM     10  O   UNL     1      -4.748 -27.611  28.953  1.00  0.00    -0.550 OA
ATOM     11  O   UNL     1      -2.503 -27.907  29.305  1.00  0.00    -0.550 OA
ENDBRANCH   8   9
ENDBRANCH   7   8
ENDBRANCH   6   7
ENDBRANCH   5   6
ENDBRANCH   4   5
ENDBRANCH   3   4
ENDBRANCH   2   3
ENDBRANCH   1   2
BRANCH   1  12
ATOM     12  C   UNL     1      -9.215 -27.278  30.167  1.00  0.00     0.000 C 
BRANCH  12  13
ATOM     13  C   UNL     1      -8.230 -27.010  29.019  1.00  0.00    -0.000 C 
BRANCH  13  14
ATOM     14  C   UNL     1      -8.843 -27.399  27.668  1.00  0.00    -0.000 C 
BRANCH  14  15
ATOM     15  C   UNL     1     -10.351 -27.654  27.799  1.00  0.00    -0.000 C 
BRANCH  15  16
ATOM     16  C   UNL     1     -11.201 -26.427  27.428  1.00  0.00    -0.000 C 
BRANCH  16  17
ATOM     17  C   UNL     1     -10.644 -25.629  26.230  1.00  0.00    -0.000 C 
BRANCH  17  18
ATOM     18  C   UNL     1     -10.079 -24.263  26.657  1.00  0.00    -0.000 C 
BRANCH  18  19
ATOM     19  C   UNL     1     -11.174 -23.199  26.825  1.00  0.00    -0.003 C 
ATOM     20  C   UNL     1     -11.813 -22.797  25.496  1.00  0.00     0.004 C 
ENDBRANCH  18  19
ENDBRANCH  17  18
ENDBRANCH  16  17
ENDBRANCH  15  16
ENDBRANCH  14  15
ENDBRANCH  13  14
ENDBRANCH  12  13
ENDBRANCH   1  12
TORSDOF 16
ENDMDL
MODEL 6
REMARK VINA RESULT:    -4.790      3.219      6.926
REMARK INTER + INTRA:         -11.381
REMARK INTER:                  -9.359
REMARK INTRA:                  -2.022
REMARK UNBOUND:                -2.111
REMARK SMILES CCCCCCCCCCCCCCCCCC(=O)[O-]
REMARK SMILES IDX 10 1 11 2 12 3 13 4 14 5 15 6 16 7 17 8 18 9 19 10 20 11
REMARK SMILES IDX 9 12 8 13 7 14 6 15 5 16 4 17 3 18 2 19 1 20
REMARK H PARENT
REMARK Flexibility Score: inf
ROOT
ATOM      1  C   UNL     1      -9.179 -24.932  30.187  1.00  0.00     0.000 C 
ENDROOT
BRANCH   1   2
ATOM      2  C   UNL     1      -8.224 -25.843  29.395  1.00  0.00     0.000 C 
BRANCH   2   3
ATOM      3  C   UNL     1      -8.861 -27.193  29.015  1.00  0.00     0.000 C 
BRANCH   3   4
ATOM      4  C   UNL     1      -8.639 -27.632  27.555  1.00  0.00     0.000 C 
BRANCH   4   5
ATOM      5  C   UNL     1      -9.948 -27.973  26.825  1.00  0.00     0.000 C 
BRANCH   5   6
ATOM      6  C   UNL     1     -11.025 -26.888  26.997  1.00  0.00     0.000 C 
BRANCH   6   7
ATOM      7  C   UNL     1     -10.896 -25.723  25.993  1.00  0.00     0.006 C 
BRANCH   7   8
ATOM      8  C   UNL     1     -10.501 -24.409  26.679  1.00  0.00     0.053 C 
BRANCH   8   9
ATOM      9  C   UNL     1     -11.216 -23.254  26.053  1.00  0.00     0.041 C 
ATOM     10  O   UNL     1     -12.124 -23.456  25.205  1.00  0.00    -0.550 OA
ATOM     11  O   UNL     1     -10.912 -21.956  26.440  1.00  0.00    -0.550 OA
ENDBRANCH   8   9
ENDBRANCH   7   8
ENDBRANCH   6   7
ENDBRANCH   5   6
ENDBRANCH   4   5
ENDBRANCH   3   4
ENDBRANCH   2   3
ENDBRANCH   1   2
BRANCH   1  12
ATOM     12  C   UNL     1      -8.820 -24.855  31.680  1.00  0.00     0.000 C 
BRANCH  12  13
ATOM     13  C   UNL     1      -7.451 -24.207  31.925  1.00  0.00    -0.000 C 
BRANCH  13  14
ATOM     14  C   UNL     1      -6.908 -24.578  33.311  1.00  0.00    -0.000 C 
BRANCH  14  15
ATOM     15  C   UNL     1      -7.077 -26.078  33.587  1.00  0.00    -0.000 C 
BRANCH  15  16
ATOM     16  C   UNL     1      -5.946 -26.930  32.985  1.00  0.00    -0.000 C 
BRANCH  16  17
ATOM     17  C   UNL     1      -6.393 -27.792  31.785  1.00  0.00    -0.000 C 
BRANCH  17  18
ATOM     18  C   UNL     1      -5.196 -28.384  31.020  1.00  0.00    -0.000 C 
BRANCH  18  19
ATOM     19  C   UNL     1      -5.184 -27.978  29.540  1.00  0.00    -0.003 C 
ATOM     20  C   UNL     1      -3.779 -27.654  29.030  1.00  0.00     0.004 C 
ENDBRANCH  18  19
ENDBRANCH  17  18
ENDBRANCH  16  17
ENDBRANCH  15  16
ENDBRANCH  14  15
ENDBRANCH  13  14
ENDBRANCH  12  13
ENDBRANCH   1  12
TORSDOF 16
ENDMDL
MODEL 7
REMARK VINA RESULT:    -4.753      2.680      5.960
REMARK INTER + INTRA:         -11.309
REMARK INTER:                  -8.716
REMARK INTRA:                  -2.593
REMARK UNBOUND:                -2.111
REMARK SMILES CCCCCCCCCCCCCCCCCC(=O)[O-]
REMARK SMILES IDX 10 1 11 2 12 3 13 4 14 5 15 6 16 7 17 8 18 9 19 10 20 11
REMARK SMILES IDX 9 12 8 13 7 14 6 15 5 16 4 17 3 18 2 19 1 20
REMARK H PARENT
REMARK Flexibility Score: inf
ROOT
ATOM      1  C   UNL     1      -7.017 -27.904  32.089  1.00  0.00     0.000 C 
ENDROOT
BRANCH   1   2
ATOM      2  C   UNL     1      -5.883 -28.289  31.123  1.00  0.00     0.000 C 
BRANCH   2   3
ATOM      3  C   UNL     1      -5.639 -27.229  30.033  1.00  0.00     0.000 C 
BRANCH   3   4
ATOM      4  C   UNL     1      -6.180 -27.591  28.637  1.00  0.00     0.000 C 
BRANCH   4   5
ATOM      5  C   UNL     1      -7.518 -26.906  28.315  1.00  0.00     0.000 C 
BRANCH   5   6
ATOM      6  C   UNL     1      -8.453 -27.792  27.473  1.00  0.00     0.000 C 
BRANCH   6   7
ATOM      7  C   UNL     1      -9.945 -27.423  27.609  1.00  0.00     0.006 C 
BRANCH   7   8
ATOM      8  C   UNL     1     -10.370 -26.353  26.594  1.00  0.00     0.053 C 
BRANCH   8   9
ATOM      9  C   UNL     1     -10.302 -24.990  27.208  1.00  0.00     0.041 C 
ATOM     10  O   UNL     1     -10.424 -24.850  28.454  1.00  0.00    -0.550 OA
ATOM     11  O   UNL     1     -10.055 -23.881  26.411  1.00  0.00    -0.550 OA
ENDBRANCH   8   9
ENDBRANCH   7   8
ENDBRANCH   6   7
ENDBRANCH   5   6
ENDBRANCH   4   5
ENDBRANCH   3   4
ENDBRANCH   2   3
ENDBRANCH   1   2
BRANCH   1  12
ATOM     12  C   UNL     1      -8.391 -28.407  31.616  1.00  0.00     0.000 C 
BRANCH  12  13
ATOM     13  C   UNL     1      -9.296 -27.270  31.121  1.00  0.00    -0.000 C 
BRANCH  13  14
ATOM     14  C   UNL     1      -9.894 -26.491  32.299  1.00  0.00    -0.000 C 
BRANCH  14  15
ATOM     15  C   UNL     1      -9.456 -25.020  32.267  1.00  0.00    -0.000 C 
BRANCH  15  16
ATOM     16  C   UNL     1      -8.370 -24.741  31.214  1.00  0.00    -0.000 C 
BRANCH  16  17
ATOM     17  C   UNL     1      -7.040 -24.241  31.816  1.00  0.00    -0.000 C 
BRANCH  17  18
ATOM     18  C   UNL     1      -7.086 -24.179  33.353  1.00  0.00    -0.000 C 
BRANCH  18  19
ATOM     19  C   UNL     1      -6.003 -25.047  34.010  1.00  0.00    -0.003 C 
ATOM     20  C   UNL     1      -4.766 -25.213  33.127  1.00  0.00     0.004 C 
ENDBRANCH  18  19
ENDBRANCH  17  18
ENDBRANCH  16  17
ENDBRANCH  15  16
ENDBRANCH  14  15
ENDBRANCH  13  14
ENDBRANCH  12  13
ENDBRANCH   1  12
TORSDOF 16
ENDMDL
MODEL 8
REMARK VINA RESULT:    -4.747      2.874      6.699
REMARK INTER + INTRA:         -11.298
REMARK INTER:                  -8.758
REMARK INTRA:                  -2.540
REMARK UNBOUND:                -2.111
REMARK SMILES CCCCCCCCCCCCCCCCCC(=O)[O-]
REMARK SMILES IDX 10 1 11 2 12 3 13 4 14 5 15 6 16 7 17 8 18 9 19 10 20 11
REMARK SMILES IDX 9 12 8 13 7 14 6 15 5 16 4 17 3 18 2 19 1 20
REMARK H PARENT
REMARK Flexibility Score: inf
ROOT
ATOM      1  C   UNL     1      -6.811 -26.854  30.286  1.00  0.00     0.000 C 
ENDROOT
BRANCH   1   2
ATOM      2  C   UNL     1      -7.320 -27.863  31.331  1.00  0.00     0.000 C 
BRANCH   2   3
ATOM      3  C   UNL     1      -8.856 -27.914  31.415  1.00  0.00     0.000 C 
BRANCH   3   4
ATOM      4  C   UNL     1      -9.507 -26.751  32.188  1.00  0.00     0.000 C 
BRANCH   4   5
ATOM      5  C   UNL     1     -10.726 -26.157  31.463  1.00  0.00     0.000 C 
BRANCH   5   6
ATOM      6  C   UNL     1     -10.639 -26.305  29.934  1.00  0.00     0.000 C 
BRANCH   6   7
ATOM      7  C   UNL     1      -9.984 -25.096  29.232  1.00  0.00     0.006 C 
BRANCH   7   8
ATOM      8  C   UNL     1      -9.402 -25.470  27.862  1.00  0.00     0.053 C 
BRANCH   8   9
ATOM      9  C   UNL     1     -10.302 -24.999  26.763  1.00  0.00     0.041 C 
ATOM     10  O   UNL     1     -11.021 -25.821  26.137  1.00  0.00    -0.550 OA
ATOM     11  O   UNL     1     -10.381 -23.645  26.464  1.00  0.00    -0.550 OA
ENDBRANCH   8   9
ENDBRANCH   7   8
ENDBRANCH   6   7
ENDBRANCH   5   6
ENDBRANCH   4   5
ENDBRANCH   3   4
ENDBRANCH   2   3
ENDBRANCH   1   2
BRANCH   1  12
ATOM     12  C   UNL     1      -5.786 -27.470  29.320  1.00  0.00     0.000 C 
BRANCH  12  13
ATOM     13  C   UNL     1      -4.338 -27.259  29.783  1.00  0.00    -0.000 C 
BRANCH  13  14
ATOM     14  C   UNL     1      -3.651 -28.600  30.068  1.00  0.00    -0.000 C 
BRANCH  14  15
ATOM     15  C   UNL     1      -3.738 -28.958  31.558  1.00  0.00    -0.000 C 
BRANCH  15  16
ATOM     16  C   UNL     1      -3.730 -27.722  32.473  1.00  0.00    -0.000 C 
BRANCH  16  17
ATOM     17  C   UNL     1      -4.402 -27.962  33.842  1.00  0.00    -0.000 C 
BRANCH  17  18
ATOM     18  C   UNL     1      -5.312 -26.792  34.254  1.00  0.00    -0.000 C 
BRANCH  18  19
ATOM     19  C   UNL     1      -5.127 -25.558  33.358  1.00  0.00    -0.003 C 
ATOM     20  C   UNL     1      -6.373 -24.675  33.309  1.00  0.00     0.004 C 
ENDBRANCH  18  19
ENDBRANCH  17  18
ENDBRANCH  16  17
ENDBRANCH  15  16
ENDBRANCH  14  15
ENDBRANCH  13  14
ENDBRANCH  12  13
ENDBRANCH   1  12
TORSDOF 16
ENDMDL
MODEL 9
REMARK VINA RESULT:    -4.727      2.750      6.329
REMARK INTER + INTRA:         -11.260
REMARK INTER:                  -8.568
REMARK INTRA:                  -2.692
REMARK UNBOUND:                -2.111
REMARK SMILES CCCCCCCCCCCCCCCCCC(=O)[O-]
REMARK SMILES IDX 10 1 11 2 12 3 13 4 14 5 15 6 16 7 17 8 18 9 19 10 20 11
REMARK SMILES IDX 9 12 8 13 7 14 6 15 5 16 4 17 3 18 2 19 1 20
REMARK H PARENT
REMARK Flexibility Score: inf
ROOT
ATOM      1  C   UNL     1      -8.554 -24.544  31.286  1.00  0.00     0.000 C 
ENDROOT
BRANCH   1   2
ATOM      2  C   UNL     1      -9.249 -25.466  32.304  1.00  0.00     0.000 C 
BRANCH   2   3
ATOM      3  C   UNL     1      -9.890 -26.704  31.650  1.00  0.00     0.000 C 
BRANCH   3   4
ATOM      4  C   UNL     1     -11.238 -26.449  30.950  1.00  0.00     0.000 C 
BRANCH   4   5
ATOM      5  C   UNL     1     -11.201 -26.759  29.445  1.00  0.00     0.000 C 
BRANCH   5   6
ATOM      6  C   UNL     1      -9.828 -27.270  28.977  1.00  0.00     0.000 C 
BRANCH   6   7
ATOM      7  C   UNL     1      -9.216 -26.439  27.829  1.00  0.00     0.006 C 
BRANCH   7   8
ATOM      8  C   UNL     1      -9.764 -25.006  27.797  1.00  0.00     0.053 C 
BRANCH   8   9
ATOM      9  C   UNL     1     -10.475 -24.745  26.507  1.00  0.00     0.041 C 
ATOM     10  O   UNL     1     -10.828 -25.705  25.772  1.00  0.00    -0.550 OA
ATOM     11  O   UNL     1     -10.792 -23.444  26.140  1.00  0.00    -0.550 OA
ENDBRANCH   8   9
ENDBRANCH   7   8
ENDBRANCH   6   7
ENDBRANCH   5   6
ENDBRANCH   4   5
ENDBRANCH   3   4
ENDBRANCH   2   3
ENDBRANCH   1   2
BRANCH   1  12
ATOM     12  C   UNL     1      -7.163 -24.087  31.757  1.00  0.00     0.000 C 
BRANCH  12  13
ATOM     13  C   UNL     1      -6.946 -24.311  33.260  1.00  0.00    -0.000 C 
BRANCH  13  14
ATOM     14  C   UNL     1      -5.621 -25.038  33.521  1.00  0.00    -0.000 C 
BRANCH  14  15
ATOM     15  C   UNL     1      -5.866 -26.476  33.999  1.00  0.00    -0.000 C 
BRANCH  15  16
ATOM     16  C   UNL     1      -4.695 -27.421  33.679  1.00  0.00    -0.000 C 
BRANCH  16  17
ATOM     17  C   UNL     1      -4.448 -27.610  32.167  1.00  0.00    -0.000 C 
BRANCH  17  18
ATOM     18  C   UNL     1      -5.484 -28.549  31.524  1.00  0.00    -0.000 C 
BRANCH  18  19
ATOM     19  C   UNL     1      -6.556 -27.789  30.731  1.00  0.00    -0.003 C 
ATOM     20  C   UNL     1      -5.957 -26.849  29.683  1.00  0.00     0.004 C 
ENDBRANCH  18  19
ENDBRANCH  17  18
ENDBRANCH  16  17
ENDBRANCH  15  16
ENDBRANCH  14  15
ENDBRANCH  13  14
ENDBRANCH  12  13
ENDBRANCH   1  12
TORSDOF 16
ENDMDL
