MODEL 1
REMARK VINA RESULT:    -4.146      0.000      0.000
REMARK INTER + INTRA:          -5.366
REMARK INTER:                  -5.115
REMARK INTRA:                  -0.251
REMARK UNBOUND:                -0.251
REMARK SMILES CCCCCC(=O)[O-]
REMARK SMILES IDX 4 1 5 2 6 3 7 4 8 5 3 6 2 7 1 8
REMARK H PARENT
REMARK Flexibility Score: inf
ROOT
ATOM      1  C   UNL     1      -2.461  29.472  42.527  1.00  0.00     0.006 C 
ENDROOT
BRANCH   1   2
ATOM      2  C   UNL     1      -2.871  29.786  43.969  1.00  0.00     0.053 C 
BRANCH   2   3
ATOM      3  C   UNL     1      -1.755  29.468  44.913  1.00  0.00     0.041 C 
ATOM      4  O   UNL     1      -1.690  28.336  45.459  1.00  0.00    -0.550 OA
ATOM      5  O   UNL     1      -0.758  30.405  45.152  1.00  0.00    -0.550 OA
ENDBRANCH   2   3
ENDBRANCH   1   2
BRANCH   1   6
ATOM      6  C   UNL     1      -2.398  30.754  41.683  1.00  0.00     0.000 C 
BRANCH   6   7
ATOM      7  C   UNL     1      -1.003  31.398  41.692  1.00  0.00    -0.003 C 
ATOM      8  C   UNL     1       0.126  30.367  41.659  1.00  0.00     0.004 C 
ENDBRANCH   6   7
ENDBRANCH   1   6
TORSDOF 4
ENDMDL
MODEL 2
REMARK VINA RESULT:    -4.108      2.422      3.772
REMARK INTER + INTRA:          -5.320
REMARK INTER:                  -5.130
REMARK INTRA:                  -0.190
REMARK UNBOUND:                -0.251
REMARK SMILES CCCCCC(=O)[O-]
REMARK SMILES IDX 4 1 5 2 6 3 7 4 8 5 3 6 2 7 1 8
REMARK H PARENT
REMARK Flexibility Score: inf
ROOT
ATOM      1  C   UNL     1      -2.645  29.660  42.831  1.00  0.00     0.006 C 
ENDROOT
BRANCH   1   2
ATOM      2  C   UNL     1      -2.135  29.497  41.396  1.00  0.00     0.053 C 
BRANCH   2   3
ATOM      3  C   UNL     1      -1.114  30.544  41.080  1.00  0.00     0.041 C 
ATOM      4  O   UNL     1      -1.184  31.680  41.618  1.00  0.00    -0.550 OA
ATOM      5  O   UNL     1      -0.055  30.249  40.231  1.00  0.00    -0.550 OA
ENDBRANCH   2   3
ENDBRANCH   1   2
BRANCH   1   6
ATOM      6  C   UNL     1      -2.072  28.566  43.744  1.00  0.00     0.000 C 
BRANCH   6   7
ATOM      7  C   UNL     1      -1.670  29.102  45.127  1.00  0.00    -0.003 C 
ATOM      8  C   UNL     1      -0.907  30.424  45.051  1.00  0.00     0.004 C 
ENDBRANCH   6   7
ENDBRANCH   1   6
TORSDOF 4
ENDMDL
MODEL 3
REMARK VINA RESULT:    -4.077     22.021     22.950
REMARK INTER + INTRA:          -5.281
REMARK INTER:                  -5.038
REMARK INTRA:                  -0.244
REMARK UNBOUND:                -0.251
REMARK SMILES CCCCCC(=O)[O-]
REMARK SMILES IDX 4 1 5 2 6 3 7 4 8 5 3 6 2 7 1 8
REMARK H PARENT
REMARK Flexibility Score: inf
ROOT
ATOM      1  C   UNL     1      14.276  13.511  45.755  1.00  0.00     0.006 C 
ENDROOT
BRANCH   1   2
ATOM      2  C   UNL     1      14.917  13.332  44.376  1.00  0.00     0.053 C 
BRANCH   2   3
ATOM      3  C   UNL     1      14.637  14.518  43.509  1.00  0.00     0.041 C 
ATOM      4  O   UNL     1      13.544  14.606  42.890  1.00  0.00    -0.550 OA
ATOM      5  O   UNL     1      15.561  15.551  43.423  1.00  0.00    -0.550 OA
ENDBRANCH   2   3
ENDBRANCH   1   2
BRANCH   1   6
ATOM      6  C   UNL     1      15.347  13.583  46.854  1.00  0.00     0.000 C 
BRANCH   6   7
ATOM      7  C   UNL     1      15.923  14.997  47.026  1.00  0.00    -0.003 C 
ATOM      8  C   UNL     1      14.847  16.082  47.002  1.00  0.00     0.004 C 
ENDBRANCH   6   7
ENDBRANCH   1   6
TORSDOF 4
ENDMDL
MODEL 4
REMARK VINA RESULT:    -4.070     22.136     22.873
REMARK INTER + INTRA:          -5.272
REMARK INTER:                  -5.061
REMARK INTRA:                  -0.212
REMARK UNBOUND:                -0.251
REMARK SMILES CCCCCC(=O)[O-]
REMARK SMILES IDX 4 1 5 2 6 3 7 4 8 5 3 6 2 7 1 8
REMARK H PARENT
REMARK Flexibility Score: inf
ROOT
ATOM      1  C   UNL     1      15.935  15.019  46.444  1.00  0.00     0.006 C 
ENDROOT
BRANCH   1   2
ATOM      2  C   UNL     1      15.973  14.929  44.916  1.00  0.00     0.053 C 
BRANCH   2   3
ATOM      3  C   UNL     1      14.921  13.988  44.420  1.00  0.00     0.041 C 
ATOM      4  O   UNL     1      14.643  12.948  45.073  1.00  0.00    -0.550 OA
ATOM      5  O   UNL     1      14.211  14.284  43.264  1.00  0.00    -0.550 OA
ENDBRANCH   2   3
ENDBRANCH   1   2
BRANCH   1   6
ATOM      6  C   UNL     1      14.870  16.023  46.909  1.00  0.00     0.000 C 
BRANCH   6   7
ATOM      7  C   UNL     1      14.194  15.600  48.223  1.00  0.00    -0.003 C 
ATOM      8  C   UNL     1      13.314  14.360  48.063  1.00  0.00     0.004 C 
ENDBRANCH   6   7
ENDBRANCH   1   6
TORSDOF 4
ENDMDL
MODEL 5
REMARK VINA RESULT:    -4.043     21.785     22.692
REMARK INTER + INTRA:          -5.240
REMARK INTER:                  -4.996
REMARK INTRA:                  -0.244
REMARK UNBOUND:                -0.251
REMARK SMILES CCCCCC(=O)[O-]
REMARK SMILES IDX 4 1 5 2 6 3 7 4 8 5 3 6 2 7 1 8
REMARK H PARENT
REMARK Flexibility Score: inf
ROOT
ATOM      1  C   UNL     1      15.720  15.247  46.073  1.00  0.00     0.006 C 
ENDROOT
BRANCH   1   2
ATOM      2  C   UNL     1      15.659  14.932  47.571  1.00  0.00     0.053 C 
BRANCH   2   3
ATOM      3  C   UNL     1      14.310  15.267  48.123  1.00  0.00     0.041 C 
ATOM      4  O   UNL     1      14.049  16.444  48.486  1.00  0.00    -0.550 OA
ATOM      5  O   UNL     1      13.324  14.292  48.191  1.00  0.00    -0.550 OA
ENDBRANCH   2   3
ENDBRANCH   1   2
BRANCH   1   6
ATOM      6  C   UNL     1      15.940  13.969  45.251  1.00  0.00     0.000 C 
BRANCH   6   7
ATOM      7  C   UNL     1      14.623  13.260  44.898  1.00  0.00    -0.003 C 
ATOM      8  C   UNL     1      13.491  14.238  44.583  1.00  0.00     0.004 C 
ENDBRANCH   6   7
ENDBRANCH   1   6
TORSDOF 4
ENDMDL
MODEL 6
REMARK VINA RESULT:    -4.027      2.804      3.984
REMARK INTER + INTRA:          -5.220
REMARK INTER:                  -5.060
REMARK INTRA:                  -0.160
REMARK UNBOUND:                -0.251
REMARK SMILES CCCCCC(=O)[O-]
REMARK SMILES IDX 4 1 5 2 6 3 7 4 8 5 3 6 2 7 1 8
REMARK H PARENT
REMARK Flexibility Score: inf
ROOT
ATOM      1  C   UNL     1      -0.934  31.004  42.501  1.00  0.00     0.006 C 
ENDROOT
BRANCH   1   2
ATOM      2  C   UNL     1      -0.878  31.087  40.972  1.00  0.00     0.053 C 
BRANCH   2   3
ATOM      3  C   UNL     1      -0.397  29.794  40.394  1.00  0.00     0.041 C 
ATOM      4  O   UNL     1      -1.211  28.864  40.157  1.00  0.00    -0.550 OA
ATOM      5  O   UNL     1       0.944  29.633  40.069  1.00  0.00    -0.550 OA
ENDBRANCH   2   3
ENDBRANCH   1   2
BRANCH   1   6
ATOM      6  C   UNL     1      -2.386  30.933  42.994  1.00  0.00     0.000 C 
BRANCH   6   7
ATOM      7  C   UNL     1      -2.790  29.519  43.440  1.00  0.00    -0.003 C 
ATOM      8  C   UNL     1      -2.071  29.072  44.713  1.00  0.00     0.004 C 
ENDBRANCH   6   7
ENDBRANCH   1   6
TORSDOF 4
ENDMDL
MODEL 7
REMARK VINA RESULT:    -3.906      1.737      2.131
REMARK INTER + INTRA:          -5.071
REMARK INTER:                  -4.828
REMARK INTRA:                  -0.242
REMARK UNBOUND:                -0.251
REMARK SMILES CCCCCC(=O)[O-]
REMARK SMILES IDX 4 1 5 2 6 3 7 4 8 5 3 6 2 7 1 8
REMARK H PARENT
REMARK Flexibility Score: inf
ROOT
ATOM      1  C   UNL     1      -2.285  29.363  44.444  1.00  0.00     0.006 C 
ENDROOT
BRANCH   1   2
ATOM      2  C   UNL     1      -1.679  27.962  44.571  1.00  0.00     0.053 C 
BRANCH   2   3
ATOM      3  C   UNL     1      -0.314  27.924  43.961  1.00  0.00     0.041 C 
ATOM      4  O   UNL     1       0.028  26.955  43.233  1.00  0.00    -0.550 OA
ATOM      5  O   UNL     1       0.565  28.982  44.155  1.00  0.00    -0.550 OA
ENDBRANCH   2   3
ENDBRANCH   1   2
BRANCH   1   6
ATOM      6  C   UNL     1      -2.738  29.636  43.002  1.00  0.00     0.000 C 
BRANCH   6   7
ATOM      7  C   UNL     1      -2.321  31.029  42.505  1.00  0.00    -0.003 C 
ATOM      8  C   UNL     1      -1.117  30.985  41.563  1.00  0.00     0.004 C 
ENDBRANCH   6   7
ENDBRANCH   1   6
TORSDOF 4
ENDMDL
MODEL 8
REMARK VINA RESULT:    -3.887     21.720     22.534
REMARK INTER + INTRA:          -5.047
REMARK INTER:                  -4.947
REMARK INTRA:                  -0.100
REMARK UNBOUND:                -0.251
REMARK SMILES CCCCCC(=O)[O-]
REMARK SMILES IDX 4 1 5 2 6 3 7 4 8 5 3 6 2 7 1 8
REMARK H PARENT
REMARK Flexibility Score: inf
ROOT
ATOM      1  C   UNL     1      14.703  13.356  45.584  1.00  0.00     0.006 C 
ENDROOT
BRANCH   1   2
ATOM      2  C   UNL     1      14.269  13.723  47.006  1.00  0.00     0.053 C 
BRANCH   2   3
ATOM      3  C   UNL     1      15.051  14.896  47.508  1.00  0.00     0.041 C 
ATOM      4  O   UNL     1      14.651  15.540  48.513  1.00  0.00    -0.550 OA
ATOM      5  O   UNL     1      16.247  15.247  46.897  1.00  0.00    -0.550 OA
ENDBRANCH   2   3
ENDBRANCH   1   2
BRANCH   1   6
ATOM      6  C   UNL     1      13.670  13.834  44.553  1.00  0.00     0.000 C 
BRANCH   6   7
ATOM      7  C   UNL     1      14.322  14.470  43.315  1.00  0.00    -0.003 C 
ATOM      8  C   UNL     1      13.496  15.620  42.737  1.00  0.00     0.004 C 
ENDBRANCH   6   7
ENDBRANCH   1   6
TORSDOF 4
ENDMDL
MODEL 9
REMARK VINA RESULT:    -3.859      1.958      3.051
REMARK INTER + INTRA:          -5.013
REMARK INTER:                  -4.792
REMARK INTRA:                  -0.221
REMARK UNBOUND:                -0.251
REMARK SMILES CCCCCC(=O)[O-]
REMARK SMILES IDX 4 1 5 2 6 3 7 4 8 5 3 6 2 7 1 8
REMARK H PARENT
REMARK Flexibility Score: inf
ROOT
ATOM      1  C   UNL     1       0.926  29.940  41.346  1.00  0.00     0.006 C 
ENDROOT
BRANCH   1   2
ATOM      2  C   UNL     1       0.858  28.425  41.561  1.00  0.00     0.053 C 
BRANCH   2   3
ATOM      3  C   UNL     1       0.611  28.110  43.002  1.00  0.00     0.041 C 
ATOM      4  O   UNL     1       0.737  26.930  43.423  1.00  0.00    -0.550 OA
ATOM      5  O   UNL     1       0.292  29.127  43.892  1.00  0.00    -0.550 OA
ENDBRANCH   2   3
ENDBRANCH   1   2
BRANCH   1   6
ATOM      6  C   UNL     1      -0.316  30.444  40.596  1.00  0.00     0.000 C 
BRANCH   6   7
ATOM      7  C   UNL     1      -1.114  31.479  41.405  1.00  0.00    -0.003 C 
ATOM      8  C   UNL     1      -2.378  30.891  42.034  1.00  0.00     0.004 C 
ENDBRANCH   6   7
ENDBRANCH   1   6
TORSDOF 4
ENDMDL
