MODEL 1
REMARK VINA RESULT:    -5.496      0.000      0.000
REMARK INTER + INTRA:          -7.296
REMARK INTER:                  -7.102
REMARK INTRA:                  -0.194
REMARK UNBOUND:                -0.194
REMARK SMILES C=CC(=O)CCCCC
REMARK SMILES IDX 6 1 7 2 8 3 9 4 5 5 3 6 4 7 2 8 1 9
REMARK H PARENT
REMARK Flexibility Score: inf
ROOT
ATOM      1  C   UNL     1     -13.811  16.196   1.143  1.00  0.00     0.008 C 
ENDROOT
BRANCH   1   2
ATOM      2  C   UNL     1     -14.400  17.336   0.301  1.00  0.00     0.000 C 
BRANCH   2   3
ATOM      3  C   UNL     1     -15.876  17.610   0.629  1.00  0.00    -0.003 C 
ATOM      4  C   UNL     1     -16.652  16.338   0.970  1.00  0.00     0.004 C 
ENDBRANCH   2   3
ENDBRANCH   1   2
BRANCH   1   5
ATOM      5  C   UNL     1     -13.433  15.001   0.260  1.00  0.00     0.080 C 
BRANCH   5   6
ATOM      6  C   UNL     1     -14.201  13.780   0.669  1.00  0.00     0.155 C 
ATOM      7  O   UNL     1     -14.424  13.570   1.893  1.00  0.00    -0.295 OA
BRANCH   6   8
ATOM      8  C   UNL     1     -14.728  12.860  -0.358  1.00  0.00     0.039 C 
ATOM      9  C   UNL     1     -14.511  11.547  -0.321  1.00  0.00     0.012 C 
ENDBRANCH   6   8
ENDBRANCH   5   6
ENDBRANCH   1   5
TORSDOF 5
ENDMDL
MODEL 2
REMARK VINA RESULT:    -5.365      0.995      4.155
REMARK INTER + INTRA:          -7.127
REMARK INTER:                  -6.827
REMARK INTRA:                  -0.300
REMARK UNBOUND:                -0.194
REMARK SMILES C=CC(=O)CCCCC
REMARK SMILES IDX 6 1 7 2 8 3 9 4 5 5 3 6 4 7 2 8 1 9
REMARK H PARENT
REMARK Flexibility Score: inf
ROOT
ATOM      1  C   UNL     1     -13.531  13.988   0.416  1.00  0.00     0.008 C 
ENDROOT
BRANCH   1   2
ATOM      2  C   UNL     1     -14.544  13.372  -0.560  1.00  0.00     0.000 C 
BRANCH   2   3
ATOM      3  C   UNL     1     -14.707  11.857  -0.364  1.00  0.00    -0.003 C 
ATOM      4  C   UNL     1     -14.033  11.350   0.910  1.00  0.00     0.004 C 
ENDBRANCH   2   3
ENDBRANCH   1   2
BRANCH   1   5
ATOM      5  C   UNL     1     -13.861  15.459   0.694  1.00  0.00     0.080 C 
BRANCH   5   6
ATOM      6  C   UNL     1     -15.119  15.574   1.502  1.00  0.00     0.155 C 
ATOM      7  O   UNL     1     -15.202  14.968   2.606  1.00  0.00    -0.295 OA
BRANCH   6   8
ATOM      8  C   UNL     1     -16.227  16.425   1.028  1.00  0.00     0.039 C 
ATOM      9  C   UNL     1     -16.043  17.683   0.632  1.00  0.00     0.012 C 
ENDBRANCH   6   8
ENDBRANCH   5   6
ENDBRANCH   1   5
TORSDOF 5
ENDMDL
MODEL 3
REMARK VINA RESULT:    -5.316      1.237      1.353
REMARK INTER + INTRA:          -7.064
REMARK INTER:                  -6.783
REMARK INTRA:                  -0.281
REMARK UNBOUND:                -0.194
REMARK SMILES C=CC(=O)CCCCC
REMARK SMILES IDX 6 1 7 2 8 3 9 4 5 5 3 6 4 7 2 8 1 9
REMARK H PARENT
REMARK Flexibility Score: inf
ROOT
ATOM      1  C   UNL     1     -14.229  15.219   1.105  1.00  0.00     0.008 C 
ENDROOT
BRANCH   1   2
ATOM      2  C   UNL     1     -14.082  16.661   0.597  1.00  0.00     0.000 C 
BRANCH   2   3
ATOM      3  C   UNL     1     -15.411  17.432   0.617  1.00  0.00    -0.003 C 
ATOM      4  C   UNL     1     -16.601  16.549   0.993  1.00  0.00     0.004 C 
ENDBRANCH   2   3
ENDBRANCH   1   2
BRANCH   1   5
ATOM      5  C   UNL     1     -13.693  14.218   0.075  1.00  0.00     0.080 C 
BRANCH   5   6
ATOM      6  C   UNL     1     -14.729  13.182  -0.242  1.00  0.00     0.155 C 
ATOM      7  O   UNL     1     -15.862  13.548  -0.661  1.00  0.00    -0.295 OA
BRANCH   6   8
ATOM      8  C   UNL     1     -14.407  11.749  -0.107  1.00  0.00     0.039 C 
ATOM      9  C   UNL     1     -14.006  11.210   1.043  1.00  0.00     0.012 C 
ENDBRANCH   6   8
ENDBRANCH   5   6
ENDBRANCH   1   5
TORSDOF 5
ENDMDL
MODEL 4
REMARK VINA RESULT:    -5.173      1.613      4.767
REMARK INTER + INTRA:          -6.880
REMARK INTER:                  -6.702
REMARK INTRA:                  -0.177
REMARK UNBOUND:                -0.194
REMARK SMILES C=CC(=O)CCCCC
REMARK SMILES IDX 6 1 7 2 8 3 9 4 5 5 3 6 4 7 2 8 1 9
REMARK H PARENT
REMARK Flexibility Score: inf
ROOT
ATOM      1  C   UNL     1     -14.568  13.213  -0.234  1.00  0.00     0.008 C 
ENDROOT
BRANCH   1   2
ATOM      2  C   UNL     1     -14.363  11.710   0.005  1.00  0.00     0.000 C 
BRANCH   2   3
ATOM      3  C   UNL     1     -13.999  11.389   1.463  1.00  0.00    -0.003 C 
ATOM      4  C   UNL     1     -12.944  10.290   1.581  1.00  0.00     0.004 C 
ENDBRANCH   2   3
ENDBRANCH   1   2
BRANCH   1   5
ATOM      5  C   UNL     1     -14.382  14.005   1.066  1.00  0.00     0.080 C 
BRANCH   5   6
ATOM      6  C   UNL     1     -14.478  15.478   0.804  1.00  0.00     0.155 C 
ATOM      7  O   UNL     1     -13.495  16.081   0.292  1.00  0.00    -0.295 OA
BRANCH   6   8
ATOM      8  C   UNL     1     -15.729  16.202   1.101  1.00  0.00     0.039 C 
ATOM      9  C   UNL     1     -15.925  17.469   0.743  1.00  0.00     0.012 C 
ENDBRANCH   6   8
ENDBRANCH   5   6
ENDBRANCH   1   5
TORSDOF 5
ENDMDL
MODEL 5
REMARK VINA RESULT:    -5.106      1.557      2.046
REMARK INTER + INTRA:          -6.792
REMARK INTER:                  -6.521
REMARK INTRA:                  -0.271
REMARK UNBOUND:                -0.194
REMARK SMILES C=CC(=O)CCCCC
REMARK SMILES IDX 6 1 7 2 8 3 9 4 5 5 3 6 4 7 2 8 1 9
REMARK H PARENT
REMARK Flexibility Score: inf
ROOT
ATOM      1  C   UNL     1     -14.587  14.288   2.560  1.00  0.00     0.008 C 
ENDROOT
BRANCH   1   2
ATOM      2  C   UNL     1     -14.569  15.511   1.630  1.00  0.00     0.000 C 
BRANCH   2   3
ATOM      3  C   UNL     1     -15.978  15.938   1.191  1.00  0.00    -0.003 C 
ATOM      4  C   UNL     1     -16.037  17.392   0.725  1.00  0.00     0.004 C 
ENDBRANCH   2   3
ENDBRANCH   1   2
BRANCH   1   5
ATOM      5  C   UNL     1     -13.447  13.322   2.218  1.00  0.00     0.080 C 
BRANCH   5   6
ATOM      6  C   UNL     1     -13.987  11.956   1.915  1.00  0.00     0.155 C 
ATOM      7  O   UNL     1     -14.341  11.207   2.867  1.00  0.00    -0.295 OA
BRANCH   6   8
ATOM      8  C   UNL     1     -14.142  11.516   0.516  1.00  0.00     0.039 C 
ATOM      9  C   UNL     1     -14.676  12.293  -0.424  1.00  0.00     0.012 C 
ENDBRANCH   6   8
ENDBRANCH   5   6
ENDBRANCH   1   5
TORSDOF 5
ENDMDL
MODEL 6
REMARK VINA RESULT:    -5.101      1.561      2.291
REMARK INTER + INTRA:          -6.786
REMARK INTER:                  -6.336
REMARK INTRA:                  -0.450
REMARK UNBOUND:                -0.194
REMARK SMILES C=CC(=O)CCCCC
REMARK SMILES IDX 6 1 7 2 8 3 9 4 5 5 3 6 4 7 2 8 1 9
REMARK H PARENT
REMARK Flexibility Score: inf
ROOT
ATOM      1  C   UNL     1     -13.286  14.866   0.200  1.00  0.00     0.008 C 
ENDROOT
BRANCH   1   2
ATOM      2  C   UNL     1     -13.738  16.302   0.504  1.00  0.00     0.000 C 
BRANCH   2   3
ATOM      3  C   UNL     1     -15.176  16.366   1.042  1.00  0.00    -0.003 C 
ATOM      4  C   UNL     1     -15.894  17.659   0.658  1.00  0.00     0.004 C 
ENDBRANCH   2   3
ENDBRANCH   1   2
BRANCH   1   5
ATOM      5  C   UNL     1     -14.459  13.885   0.319  1.00  0.00     0.080 C 
BRANCH   5   6
ATOM      6  C   UNL     1     -14.115  12.763   1.252  1.00  0.00     0.155 C 
ATOM      7  O   UNL     1     -14.148  11.575   0.828  1.00  0.00    -0.295 OA
BRANCH   6   8
ATOM      8  C   UNL     1     -13.700  13.054   2.637  1.00  0.00     0.039 C 
ATOM      9  C   UNL     1     -14.488  13.687   3.503  1.00  0.00     0.012 C 
ENDBRANCH   6   8
ENDBRANCH   5   6
ENDBRANCH   1   5
TORSDOF 5
ENDMDL
MODEL 7
REMARK VINA RESULT:    -4.856      1.261      1.626
REMARK INTER + INTRA:          -6.469
REMARK INTER:                  -6.209
REMARK INTRA:                  -0.260
REMARK UNBOUND:                -0.194
REMARK SMILES C=CC(=O)CCCCC
REMARK SMILES IDX 6 1 7 2 8 3 9 4 5 5 3 6 4 7 2 8 1 9
REMARK H PARENT
REMARK Flexibility Score: inf
ROOT
ATOM      1  C   UNL     1     -13.279  14.993   0.405  1.00  0.00     0.008 C 
ENDROOT
BRANCH   1   2
ATOM      2  C   UNL     1     -13.797  16.437   0.469  1.00  0.00     0.000 C 
BRANCH   2   3
ATOM      3  C   UNL     1     -15.239  16.524   0.993  1.00  0.00    -0.003 C 
ATOM      4  C   UNL     1     -15.919  17.845   0.636  1.00  0.00     0.004 C 
ENDBRANCH   2   3
ENDBRANCH   1   2
BRANCH   1   5
ATOM      5  C   UNL     1     -14.377  13.999   0.799  1.00  0.00     0.080 C 
BRANCH   5   6
ATOM      6  C   UNL     1     -13.988  13.245   2.034  1.00  0.00     0.155 C 
ATOM      7  O   UNL     1     -13.814  13.875   3.114  1.00  0.00    -0.295 OA
BRANCH   6   8
ATOM      8  C   UNL     1     -13.855  11.776   1.993  1.00  0.00     0.039 C 
ATOM      9  C   UNL     1     -14.036  11.072   0.878  1.00  0.00     0.012 C 
ENDBRANCH   6   8
ENDBRANCH   5   6
ENDBRANCH   1   5
TORSDOF 5
ENDMDL
MODEL 8
REMARK VINA RESULT:    -4.745      2.890      4.779
REMARK INTER + INTRA:          -6.326
REMARK INTER:                  -6.161
REMARK INTRA:                  -0.165
REMARK UNBOUND:                -0.194
REMARK SMILES C=CC(=O)CCCCC
REMARK SMILES IDX 6 1 7 2 8 3 9 4 5 5 3 6 4 7 2 8 1 9
REMARK H PARENT
REMARK Flexibility Score: inf
ROOT
ATOM      1  C   UNL     1     -14.708  14.386   3.233  1.00  0.00     0.008 C 
ENDROOT
BRANCH   1   2
ATOM      2  C   UNL     1     -14.377  13.105   4.013  1.00  0.00     0.000 C 
BRANCH   2   3
ATOM      3  C   UNL     1     -12.865  12.897   4.193  1.00  0.00    -0.003 C 
ATOM      4  C   UNL     1     -12.453  12.792   5.660  1.00  0.00     0.004 C 
ENDBRANCH   2   3
ENDBRANCH   1   2
BRANCH   1   5
ATOM      5  C   UNL     1     -14.281  14.260   1.767  1.00  0.00     0.080 C 
BRANCH   5   6
ATOM      6  C   UNL     1     -14.494  15.556   1.043  1.00  0.00     0.155 C 
ATOM      7  O   UNL     1     -13.545  16.054   0.375  1.00  0.00    -0.295 OA
BRANCH   6   8
ATOM      8  C   UNL     1     -15.813  16.214   1.077  1.00  0.00     0.039 C 
ATOM      9  C   UNL     1     -15.986  17.489   0.731  1.00  0.00     0.012 C 
ENDBRANCH   6   8
ENDBRANCH   5   6
ENDBRANCH   1   5
TORSDOF 5
ENDMDL
MODEL 9
REMARK VINA RESULT:    -4.559      2.823      4.261
REMARK INTER + INTRA:          -6.085
REMARK INTER:                  -5.813
REMARK INTRA:                  -0.272
REMARK UNBOUND:                -0.194
REMARK SMILES C=CC(=O)CCCCC
REMARK SMILES IDX 6 1 7 2 8 3 9 4 5 5 3 6 4 7 2 8 1 9
REMARK H PARENT
REMARK Flexibility Score: inf
ROOT
ATOM      1  C   UNL     1     -14.380  13.710   3.213  1.00  0.00     0.008 C 
ENDROOT
BRANCH   1   2
ATOM      2  C   UNL     1     -14.379  12.393   4.003  1.00  0.00     0.000 C 
BRANCH   2   3
ATOM      3  C   UNL     1     -12.965  11.951   4.410  1.00  0.00    -0.003 C 
ATOM      4  C   UNL     1     -12.310  12.908   5.406  1.00  0.00     0.004 C 
ENDBRANCH   2   3
ENDBRANCH   1   2
BRANCH   1   5
ATOM      5  C   UNL     1     -13.618  13.557   1.891  1.00  0.00     0.080 C 
BRANCH   5   6
ATOM      6  C   UNL     1     -14.457  14.031   0.742  1.00  0.00     0.155 C 
ATOM      7  O   UNL     1     -14.830  15.236   0.705  1.00  0.00    -0.295 OA
BRANCH   6   8
ATOM      8  C   UNL     1     -14.799  13.106  -0.355  1.00  0.00     0.039 C 
ATOM      9  C   UNL     1     -14.527  11.803  -0.303  1.00  0.00     0.012 C 
ENDBRANCH   6   8
ENDBRANCH   5   6
ENDBRANCH   1   5
TORSDOF 5
ENDMDL
