MODEL 1
REMARK VINA RESULT:    -5.804      0.000      0.000
REMARK INTER + INTRA:          -9.463
REMARK INTER:                  -7.840
REMARK INTRA:                  -1.624
REMARK UNBOUND:                -1.624
REMARK SMILES CC[C@H](CC[C@H](C)[C@H]1CC[C@@H]2[C@@H]3CC(=O)C4=CC(=O)CC[C@@]4(C)[C@H]3CC[C@@]21C)C(C)C
REMARK SMILES IDX 4 1 3 2 2 3 1 4 29 5 30 6 31 7 5 8 6 9 7 10 8 11 9 12 27 13
REMARK SMILES IDX 10 14 11 15 26 16 28 17 12 18 25 19 24 20 13 21 22 22 14 23
REMARK SMILES IDX 16 24 21 25 23 26 15 27 17 28 20 29 18 30 19 31
REMARK H PARENT
REMARK Flexibility Score: inf
ROOT
ATOM      1  C   UNL     1      16.581  25.246  14.926  1.00  0.00     0.004 C 
ENDROOT
BRANCH   1   2
ATOM      2  C   UNL     1      17.307  26.264  13.995  1.00  0.00    -0.009 C 
BRANCH   2   3
ATOM      3  C   UNL     1      16.358  27.484  13.785  1.00  0.00     0.000 C 
ATOM      4  C   UNL     1      16.231  28.401  15.008  1.00  0.00     0.004 C 
ENDBRANCH   2   3
BRANCH   2   5
ATOM      5  C   UNL     1      18.757  26.592  14.540  1.00  0.00    -0.014 C 
ATOM      6  C   UNL     1      19.771  27.160  13.530  1.00  0.00     0.007 C 
ATOM      7  C   UNL     1      19.386  25.349  15.200  1.00  0.00     0.007 C 
ENDBRANCH   2   5
ENDBRANCH   1   2
BRANCH   1   8
ATOM      8  C   UNL     1      15.874  24.102  14.171  1.00  0.00     0.004 C 
BRANCH   8   9
ATOM      9  C   UNL     1      14.395  23.910  14.607  1.00  0.00    -0.011 C 
ATOM     10  C   UNL     1      13.885  22.507  14.205  1.00  0.00     0.008 C 
BRANCH   9  11
ATOM     11  C   UNL     1      13.499  25.089  14.069  1.00  0.00    -0.002 C 
ATOM     12  C   UNL     1      12.579  24.643  12.922  1.00  0.00     0.005 C 
ATOM     13  C   UNL     1      12.570  25.834  15.100  1.00  0.00    -0.026 C 
ATOM     14  C   UNL     1      11.161  24.568  13.472  1.00  0.00     0.005 C 
ATOM     15  C   UNL     1      11.151  25.235  14.861  1.00  0.00    -0.001 C 
ATOM     16  C   UNL     1      12.590  27.389  14.845  1.00  0.00     0.007 C 
ATOM     17  C   UNL     1      12.995  25.630  16.580  1.00  0.00     0.012 C 
ATOM     18  C   UNL     1      10.022  26.284  15.058  1.00  0.00     0.004 C 
ATOM     19  C   UNL     1      11.612  27.854  13.758  1.00  0.00     0.005 C 
ATOM     20  C   UNL     1      10.136  27.494  14.092  1.00  0.00     0.003 C 
ATOM     21  C   UNL     1       8.611  25.670  14.948  1.00  0.00     0.085 C 
ATOM     22  C   UNL     1       9.226  28.694  14.576  1.00  0.00    -0.000 C 
ATOM     23  C   UNL     1       7.551  26.730  15.059  1.00  0.00     0.159 C 
ATOM     24  C   UNL     1       7.922  28.162  15.196  1.00  0.00     0.005 C 
ATOM     25  C   UNL     1       9.930  29.583  15.649  1.00  0.00     0.020 C 
ATOM     26  C   UNL     1       8.855  29.550  13.336  1.00  0.00     0.017 C 
ATOM     27  O   UNL     1       6.339  26.384  15.071  1.00  0.00    -0.295 OA
ATOM     28  C   UNL     1       7.156  28.960  15.962  1.00  0.00     0.055 C 
ATOM     29  C   UNL     1       9.037  30.735  16.144  1.00  0.00     0.081 C 
ATOM     30  C   UNL     1       7.621  30.289  16.387  1.00  0.00     0.156 C 
ATOM     31  O   UNL     1       6.820  31.066  16.970  1.00  0.00    -0.295 OA
ENDBRANCH   9  11
ENDBRANCH   8   9
ENDBRANCH   1   8
TORSDOF 6
ENDMDL
MODEL 2
REMARK VINA RESULT:    -5.724      3.986      6.873
REMARK INTER + INTRA:          -9.356
REMARK INTER:                  -8.316
REMARK INTRA:                  -1.040
REMARK UNBOUND:                -1.624
REMARK SMILES CC[C@H](CC[C@H](C)[C@H]1CC[C@@H]2[C@@H]3CC(=O)C4=CC(=O)CC[C@@]4(C)[C@H]3CC[C@@]21C)C(C)C
REMARK SMILES IDX 4 1 3 2 2 3 1 4 29 5 30 6 31 7 5 8 6 9 7 10 8 11 9 12 27 13
REMARK SMILES IDX 10 14 11 15 26 16 28 17 12 18 25 19 24 20 13 21 22 22 14 23
REMARK SMILES IDX 16 24 21 25 23 26 15 27 17 28 20 29 18 30 19 31
REMARK H PARENT
REMARK Flexibility Score: inf
ROOT
ATOM      1  C   UNL     1      14.586  26.898  15.989  1.00  0.00     0.004 C 
ENDROOT
BRANCH   1   2
ATOM      2  C   UNL     1      15.563  27.267  14.833  1.00  0.00    -0.009 C 
BRANCH   2   3
ATOM      3  C   UNL     1      15.688  28.821  14.787  1.00  0.00     0.000 C 
ATOM      4  C   UNL     1      15.095  29.463  13.527  1.00  0.00     0.004 C 
ENDBRANCH   2   3
BRANCH   2   5
ATOM      5  C   UNL     1      16.920  26.459  14.961  1.00  0.00    -0.014 C 
ATOM      6  C   UNL     1      17.321  25.575  13.767  1.00  0.00     0.007 C 
ATOM      7  C   UNL     1      16.913  25.579  16.227  1.00  0.00     0.007 C 
ENDBRANCH   2   5
ENDBRANCH   1   2
BRANCH   1   8
ATOM      8  C   UNL     1      13.203  26.414  15.509  1.00  0.00     0.004 C 
BRANCH   8   9
ATOM      9  C   UNL     1      13.134  26.204  13.970  1.00  0.00    -0.011 C 
ATOM     10  C   UNL     1      12.083  27.146  13.339  1.00  0.00     0.008 C 
BRANCH   9  11
ATOM     11  C   UNL     1      12.912  24.683  13.626  1.00  0.00    -0.002 C 
ATOM     12  C   UNL     1      14.174  23.842  13.875  1.00  0.00     0.005 C 
ATOM     13  C   UNL     1      11.741  23.928  14.361  1.00  0.00    -0.026 C 
ATOM     14  C   UNL     1      13.934  23.011  15.128  1.00  0.00     0.005 C 
ATOM     15  C   UNL     1      12.439  23.114  15.492  1.00  0.00    -0.001 C 
ATOM     16  C   UNL     1      10.974  22.983  13.360  1.00  0.00     0.007 C 
ATOM     17  C   UNL     1      10.672  24.878  14.967  1.00  0.00     0.012 C 
ATOM     18  C   UNL     1      11.749  21.748  15.755  1.00  0.00     0.004 C 
ATOM     19  C   UNL     1      11.630  21.608  13.176  1.00  0.00     0.005 C 
ATOM     20  C   UNL     1      11.741  20.818  14.512  1.00  0.00     0.003 C 
ATOM     21  C   UNL     1      12.357  20.994  16.956  1.00  0.00     0.085 C 
ATOM     22  C   UNL     1      10.712  19.631  14.698  1.00  0.00    -0.000 C 
ATOM     23  C   UNL     1      11.719  19.642  17.123  1.00  0.00     0.159 C 
ATOM     24  C   UNL     1      10.689  19.167  16.165  1.00  0.00     0.005 C 
ATOM     25  C   UNL     1       9.255  20.036  14.309  1.00  0.00     0.020 C 
ATOM     26  C   UNL     1      11.184  18.440  13.823  1.00  0.00     0.017 C 
ATOM     27  O   UNL     1      12.047  18.931  18.110  1.00  0.00    -0.295 OA
ATOM     28  C   UNL     1       9.675  18.412  16.625  1.00  0.00     0.055 C 
ATOM     29  C   UNL     1       8.245  18.893  14.517  1.00  0.00     0.081 C 
ATOM     30  C   UNL     1       8.474  18.165  15.813  1.00  0.00     0.156 C 
ATOM     31  O   UNL     1       7.618  17.331  16.212  1.00  0.00    -0.295 OA
ENDBRANCH   9  11
ENDBRANCH   8   9
ENDBRANCH   1   8
TORSDOF 6
ENDMDL
MODEL 3
REMARK VINA RESULT:    -5.721      3.500      9.385
REMARK INTER + INTRA:          -9.351
REMARK INTER:                  -7.631
REMARK INTRA:                  -1.721
REMARK UNBOUND:                -1.624
REMARK SMILES CC[C@H](CC[C@H](C)[C@H]1CC[C@@H]2[C@@H]3CC(=O)C4=CC(=O)CC[C@@]4(C)[C@H]3CC[C@@]21C)C(C)C
REMARK SMILES IDX 4 1 3 2 2 3 1 4 29 5 30 6 31 7 5 8 6 9 7 10 8 11 9 12 27 13
REMARK SMILES IDX 10 14 11 15 26 16 28 17 12 18 25 19 24 20 13 21 22 22 14 23
REMARK SMILES IDX 16 24 21 25 23 26 15 27 17 28 20 29 18 30 19 31
REMARK H PARENT
REMARK Flexibility Score: inf
ROOT
ATOM      1  C   UNL     1       3.896  26.339  16.550  1.00  0.00     0.004 C 
ENDROOT
BRANCH   1   2
ATOM      2  C   UNL     1       3.288  25.031  15.962  1.00  0.00    -0.009 C 
BRANCH   2   3
ATOM      3  C   UNL     1       4.463  24.151  15.433  1.00  0.00     0.000 C 
ATOM      4  C   UNL     1       4.806  24.382  13.956  1.00  0.00     0.004 C 
ENDBRANCH   2   3
BRANCH   2   5
ATOM      5  C   UNL     1       2.314  24.343  17.004  1.00  0.00    -0.014 C 
ATOM      6  C   UNL     1       2.912  23.955  18.369  1.00  0.00     0.007 C 
ATOM      7  C   UNL     1       1.662  23.086  16.394  1.00  0.00     0.007 C 
ENDBRANCH   2   5
ENDBRANCH   1   2
BRANCH   1   8
ATOM      8  C   UNL     1       3.370  27.627  15.884  1.00  0.00     0.004 C 
BRANCH   8   9
ATOM      9  C   UNL     1       4.509  28.569  15.401  1.00  0.00    -0.011 C 
ATOM     10  C   UNL     1       3.954  29.649  14.444  1.00  0.00     0.008 C 
BRANCH   9  11
ATOM     11  C   UNL     1       5.700  27.734  14.795  1.00  0.00    -0.002 C 
ATOM     12  C   UNL     1       6.082  28.208  13.383  1.00  0.00     0.005 C 
ATOM     13  C   UNL     1       7.047  27.682  15.609  1.00  0.00    -0.026 C 
ATOM     14  C   UNL     1       7.403  28.956  13.490  1.00  0.00     0.005 C 
ATOM     15  C   UNL     1       7.983  28.705  14.896  1.00  0.00    -0.001 C 
ATOM     16  C   UNL     1       7.656  26.229  15.584  1.00  0.00     0.007 C 
ATOM     17  C   UNL     1       6.884  28.060  17.107  1.00  0.00     0.012 C 
ATOM     18  C   UNL     1       9.470  28.256  14.903  1.00  0.00     0.004 C 
ATOM     19  C   UNL     1       8.498  25.928  14.337  1.00  0.00     0.005 C 
ATOM     20  C   UNL     1       9.703  26.900  14.184  1.00  0.00     0.003 C 
ATOM     21  C   UNL     1      10.417  29.320  14.313  1.00  0.00     0.085 C 
ATOM     22  C   UNL     1      11.122  26.302  14.546  1.00  0.00    -0.000 C 
ATOM     23  C   UNL     1      11.832  28.814  14.260  1.00  0.00     0.159 C 
ATOM     24  C   UNL     1      12.158  27.430  14.690  1.00  0.00     0.005 C 
ATOM     25  C   UNL     1      11.108  25.501  15.886  1.00  0.00     0.020 C 
ATOM     26  C   UNL     1      11.570  25.382  13.380  1.00  0.00     0.017 C 
ATOM     27  O   UNL     1      12.746  29.593  13.877  1.00  0.00    -0.295 OA
ATOM     28  C   UNL     1      13.332  27.203  15.306  1.00  0.00     0.055 C 
ATOM     29  C   UNL     1      12.494  24.942  16.257  1.00  0.00     0.081 C 
ATOM     30  C   UNL     1      13.590  25.944  16.023  1.00  0.00     0.156 C 
ATOM     31  O   UNL     1      14.749  25.704  16.453  1.00  0.00    -0.295 OA
ENDBRANCH   9  11
ENDBRANCH   8   9
ENDBRANCH   1   8
TORSDOF 6
ENDMDL
MODEL 4
REMARK VINA RESULT:    -5.533      8.296     13.321
REMARK INTER + INTRA:          -9.097
REMARK INTER:                  -7.922
REMARK INTRA:                  -1.175
REMARK UNBOUND:                -1.624
REMARK SMILES CC[C@H](CC[C@H](C)[C@H]1CC[C@@H]2[C@@H]3CC(=O)C4=CC(=O)CC[C@@]4(C)[C@H]3CC[C@@]21C)C(C)C
REMARK SMILES IDX 4 1 3 2 2 3 1 4 29 5 30 6 31 7 5 8 6 9 7 10 8 11 9 12 27 13
REMARK SMILES IDX 10 14 11 15 26 16 28 17 12 18 25 19 24 20 13 21 22 22 14 23
REMARK SMILES IDX 16 24 21 25 23 26 15 27 17 28 20 29 18 30 19 31
REMARK H PARENT
REMARK Flexibility Score: inf
ROOT
ATOM      1  C   UNL     1       4.008  18.828  13.828  1.00  0.00     0.004 C 
ENDROOT
BRANCH   1   2
ATOM      2  C   UNL     1       3.331  17.430  13.706  1.00  0.00    -0.009 C 
BRANCH   2   3
ATOM      3  C   UNL     1       3.890  16.524  14.846  1.00  0.00     0.000 C 
ATOM      4  C   UNL     1       4.830  15.413  14.363  1.00  0.00     0.004 C 
ENDBRANCH   2   3
BRANCH   2   5
ATOM      5  C   UNL     1       1.755  17.571  13.634  1.00  0.00    -0.014 C 
ATOM      6  C   UNL     1       1.031  17.989  14.928  1.00  0.00     0.007 C 
ATOM      7  C   UNL     1       1.113  16.263  13.130  1.00  0.00     0.007 C 
ENDBRANCH   2   5
ENDBRANCH   1   2
BRANCH   1   8
ATOM      8  C   UNL     1       5.404  18.905  13.179  1.00  0.00     0.004 C 
BRANCH   8   9
ATOM      9  C   UNL     1       6.521  19.298  14.186  1.00  0.00    -0.011 C 
ATOM     10  C   UNL     1       6.421  20.796  14.555  1.00  0.00     0.008 C 
BRANCH   9  11
ATOM     11  C   UNL     1       7.936  18.872  13.641  1.00  0.00    -0.002 C 
ATOM     12  C   UNL     1       8.835  20.084  13.348  1.00  0.00     0.005 C 
ATOM     13  C   UNL     1       8.802  17.901  14.530  1.00  0.00    -0.026 C 
ATOM     14  C   UNL     1       9.898  20.143  14.436  1.00  0.00     0.005 C 
ATOM     15  C   UNL     1       9.842  18.825  15.233  1.00  0.00    -0.001 C 
ATOM     16  C   UNL     1       9.510  16.813  13.636  1.00  0.00     0.007 C 
ATOM     17  C   UNL     1       7.974  17.123  15.589  1.00  0.00     0.012 C 
ATOM     18  C   UNL     1      11.220  18.134  15.423  1.00  0.00     0.004 C 
ATOM     19  C   UNL     1      10.831  17.282  13.013  1.00  0.00     0.005 C 
ATOM     20  C   UNL     1      11.877  17.703  14.084  1.00  0.00     0.003 C 
ATOM     21  C   UNL     1      12.213  18.995  16.230  1.00  0.00     0.085 C 
ATOM     22  C   UNL     1      13.057  16.680  14.335  1.00  0.00    -0.000 C 
ATOM     23  C   UNL     1      13.558  18.328  16.318  1.00  0.00     0.159 C 
ATOM     24  C   UNL     1      13.809  17.036  15.630  1.00  0.00     0.005 C 
ATOM     25  C   UNL     1      12.554  15.209  14.472  1.00  0.00     0.020 C 
ATOM     26  C   UNL     1      14.055  16.793  13.153  1.00  0.00     0.017 C 
ATOM     27  O   UNL     1      14.461  18.865  17.014  1.00  0.00    -0.295 OA
ATOM     28  C   UNL     1      14.622  16.138  16.215  1.00  0.00     0.055 C 
ATOM     29  C   UNL     1      13.696  14.213  14.746  1.00  0.00     0.081 C 
ATOM     30  C   UNL     1      14.676  14.741  15.757  1.00  0.00     0.156 C 
ATOM     31  O   UNL     1      15.557  13.971  16.224  1.00  0.00    -0.295 OA
ENDBRANCH   9  11
ENDBRANCH   8   9
ENDBRANCH   1   8
TORSDOF 6
ENDMDL
MODEL 5
REMARK VINA RESULT:    -5.508      4.964      8.483
REMARK INTER + INTRA:          -9.064
REMARK INTER:                  -7.784
REMARK INTRA:                  -1.279
REMARK UNBOUND:                -1.624
REMARK SMILES CC[C@H](CC[C@H](C)[C@H]1CC[C@@H]2[C@@H]3CC(=O)C4=CC(=O)CC[C@@]4(C)[C@H]3CC[C@@]21C)C(C)C
REMARK SMILES IDX 4 1 3 2 2 3 1 4 29 5 30 6 31 7 5 8 6 9 7 10 8 11 9 12 27 13
REMARK SMILES IDX 10 14 11 15 26 16 28 17 12 18 25 19 24 20 13 21 22 22 14 23
REMARK SMILES IDX 16 24 21 25 23 26 15 27 17 28 20 29 18 30 19 31
REMARK H PARENT
REMARK Flexibility Score: inf
ROOT
ATOM      1  C   UNL     1       8.465  18.861  15.590  1.00  0.00     0.004 C 
ENDROOT
BRANCH   1   2
ATOM      2  C   UNL     1       7.977  17.388  15.448  1.00  0.00    -0.009 C 
BRANCH   2   3
ATOM      3  C   UNL     1       6.459  17.349  15.805  1.00  0.00     0.000 C 
ATOM      4  C   UNL     1       5.618  16.459  14.881  1.00  0.00     0.004 C 
ENDBRANCH   2   3
BRANCH   2   5
ATOM      5  C   UNL     1       8.379  16.794  14.036  1.00  0.00    -0.014 C 
ATOM      6  C   UNL     1       9.648  15.923  13.981  1.00  0.00     0.007 C 
ATOM      7  C   UNL     1       8.527  17.919  12.993  1.00  0.00     0.007 C 
ENDBRANCH   2   5
ENDBRANCH   1   2
BRANCH   1   8
ATOM      8  C   UNL     1       9.852  18.999  16.249  1.00  0.00     0.004 C 
BRANCH   8   9
ATOM      9  C   UNL     1      10.906  19.658  15.315  1.00  0.00    -0.011 C 
ATOM     10  C   UNL     1      12.053  18.670  15.005  1.00  0.00     0.008 C 
BRANCH   9  11
ATOM     11  C   UNL     1      11.394  21.032  15.911  1.00  0.00    -0.002 C 
ATOM     12  C   UNL     1      12.724  20.896  16.670  1.00  0.00     0.005 C 
ATOM     13  C   UNL     1      11.591  22.235  14.912  1.00  0.00    -0.026 C 
ATOM     14  C   UNL     1      13.812  21.527  15.810  1.00  0.00     0.005 C 
ATOM     15  C   UNL     1      13.129  22.300  14.665  1.00  0.00    -0.001 C 
ATOM     16  C   UNL     1      11.051  23.574  15.543  1.00  0.00     0.007 C 
ATOM     17  C   UNL     1      10.839  22.055  13.565  1.00  0.00     0.012 C 
ATOM     18  C   UNL     1      13.641  23.755  14.483  1.00  0.00     0.004 C 
ATOM     19  C   UNL     1      12.059  24.281  16.459  1.00  0.00     0.005 C 
ATOM     20  C   UNL     1      13.375  24.656  15.718  1.00  0.00     0.003 C 
ATOM     21  C   UNL     1      15.137  23.819  14.112  1.00  0.00     0.085 C 
ATOM     22  C   UNL     1      13.549  26.186  15.353  1.00  0.00    -0.000 C 
ATOM     23  C   UNL     1      15.612  25.243  14.029  1.00  0.00     0.159 C 
ATOM     24  C   UNL     1      14.693  26.368  14.340  1.00  0.00     0.005 C 
ATOM     25  C   UNL     1      12.260  26.801  14.724  1.00  0.00     0.020 C 
ATOM     26  C   UNL     1      13.926  26.952  16.648  1.00  0.00     0.017 C 
ATOM     27  O   UNL     1      16.793  25.472  13.656  1.00  0.00    -0.295 OA
ATOM     28  C   UNL     1      14.810  27.512  13.643  1.00  0.00     0.055 C 
ATOM     29  C   UNL     1      12.434  28.281  14.340  1.00  0.00     0.081 C 
ATOM     30  C   UNL     1      13.759  28.541  13.678  1.00  0.00     0.156 C 
ATOM     31  O   UNL     1      13.971  29.660  13.139  1.00  0.00    -0.295 OA
ENDBRANCH   9  11
ENDBRANCH   8   9
ENDBRANCH   1   8
TORSDOF 6
ENDMDL
MODEL 6
REMARK VINA RESULT:    -5.309      4.073      8.311
REMARK INTER + INTRA:          -8.795
REMARK INTER:                  -7.446
REMARK INTRA:                  -1.349
REMARK UNBOUND:                -1.624
REMARK SMILES CC[C@H](CC[C@H](C)[C@H]1CC[C@@H]2[C@@H]3CC(=O)C4=CC(=O)CC[C@@]4(C)[C@H]3CC[C@@]21C)C(C)C
REMARK SMILES IDX 4 1 3 2 2 3 1 4 29 5 30 6 31 7 5 8 6 9 7 10 8 11 9 12 27 13
REMARK SMILES IDX 10 14 11 15 26 16 28 17 12 18 25 19 24 20 13 21 22 22 14 23
REMARK SMILES IDX 16 24 21 25 23 26 15 27 17 28 20 29 18 30 19 31
REMARK H PARENT
REMARK Flexibility Score: inf
ROOT
ATOM      1  C   UNL     1       9.694  28.774  15.115  1.00  0.00     0.004 C 
ENDROOT
BRANCH   1   2
ATOM      2  C   UNL     1       8.466  29.641  14.705  1.00  0.00    -0.009 C 
BRANCH   2   3
ATOM      3  C   UNL     1       7.803  28.976  13.459  1.00  0.00     0.000 C 
ATOM      4  C   UNL     1       8.125  27.486  13.294  1.00  0.00     0.004 C 
ENDBRANCH   2   3
BRANCH   2   5
ATOM      5  C   UNL     1       7.517  29.900  15.947  1.00  0.00    -0.014 C 
ATOM      6  C   UNL     1       8.018  30.892  17.012  1.00  0.00     0.007 C 
ATOM      7  C   UNL     1       7.171  28.575  16.654  1.00  0.00     0.007 C 
ENDBRANCH   2   5
ENDBRANCH   1   2
BRANCH   1   8
ATOM      8  C   UNL     1      11.054  29.424  14.790  1.00  0.00     0.004 C 
BRANCH   8   9
ATOM      9  C   UNL     1      12.209  28.389  14.676  1.00  0.00    -0.011 C 
ATOM     10  C   UNL     1      13.176  28.775  13.534  1.00  0.00     0.008 C 
BRANCH   9  11
ATOM     11  C   UNL     1      11.635  26.927  14.555  1.00  0.00    -0.002 C 
ATOM     12  C   UNL     1      11.549  26.455  13.095  1.00  0.00     0.005 C 
ATOM     13  C   UNL     1      12.383  25.779  15.334  1.00  0.00    -0.026 C 
ATOM     14  C   UNL     1      12.656  25.433  12.875  1.00  0.00     0.005 C 
ATOM     15  C   UNL     1      13.240  25.057  14.251  1.00  0.00    -0.001 C 
ATOM     16  C   UNL     1      11.348  24.795  16.001  1.00  0.00     0.007 C 
ATOM     17  C   UNL     1      13.293  26.296  16.481  1.00  0.00     0.012 C 
ATOM     18  C   UNL     1      13.352  23.528  14.502  1.00  0.00     0.004 C 
ATOM     19  C   UNL     1      10.833  23.701  15.056  1.00  0.00     0.005 C 
ATOM     20  C   UNL     1      11.977  22.807  14.499  1.00  0.00     0.003 C 
ATOM     21  C   UNL     1      14.301  22.828  13.508  1.00  0.00     0.085 C 
ATOM     22  C   UNL     1      12.094  21.362  15.132  1.00  0.00    -0.000 C 
ATOM     23  C   UNL     1      14.315  21.341  13.731  1.00  0.00     0.159 C 
ATOM     24  C   UNL     1      13.443  20.722  14.762  1.00  0.00     0.005 C 
ATOM     25  C   UNL     1      11.994  21.382  16.690  1.00  0.00     0.020 C 
ATOM     26  C   UNL     1      10.963  20.481  14.538  1.00  0.00     0.017 C 
ATOM     27  O   UNL     1      15.103  20.629  13.054  1.00  0.00    -0.295 OA
ATOM     28  C   UNL     1      13.901  19.656  15.442  1.00  0.00     0.055 C 
ATOM     29  C   UNL     1      12.137  19.981  17.313  1.00  0.00     0.081 C 
ATOM     30  C   UNL     1      13.237  19.185  16.667  1.00  0.00     0.156 C 
ATOM     31  O   UNL     1      13.599  18.097  17.188  1.00  0.00    -0.295 OA
ENDBRANCH   9  11
ENDBRANCH   8   9
ENDBRANCH   1   8
TORSDOF 6
ENDMDL
MODEL 7
REMARK VINA RESULT:    -5.273      3.922      7.847
REMARK INTER + INTRA:          -8.746
REMARK INTER:                  -7.073
REMARK INTRA:                  -1.673
REMARK UNBOUND:                -1.624
REMARK SMILES CC[C@H](CC[C@H](C)[C@H]1CC[C@@H]2[C@@H]3CC(=O)C4=CC(=O)CC[C@@]4(C)[C@H]3CC[C@@]21C)C(C)C
REMARK SMILES IDX 4 1 3 2 2 3 1 4 29 5 30 6 31 7 5 8 6 9 7 10 8 11 9 12 27 13
REMARK SMILES IDX 10 14 11 15 26 16 28 17 12 18 25 19 24 20 13 21 22 22 14 23
REMARK SMILES IDX 16 24 21 25 23 26 15 27 17 28 20 29 18 30 19 31
REMARK H PARENT
REMARK Flexibility Score: inf
ROOT
ATOM      1  C   UNL     1      11.765  28.314  14.812  1.00  0.00     0.004 C 
ENDROOT
BRANCH   1   2
ATOM      2  C   UNL     1      10.648  28.473  13.737  1.00  0.00    -0.009 C 
BRANCH   2   3
ATOM      3  C   UNL     1       9.944  27.091  13.568  1.00  0.00     0.000 C 
ATOM      4  C   UNL     1       8.751  26.874  14.507  1.00  0.00     0.004 C 
ENDBRANCH   2   3
BRANCH   2   5
ATOM      5  C   UNL     1       9.707  29.701  14.077  1.00  0.00    -0.014 C 
ATOM      6  C   UNL     1       9.679  30.860  13.065  1.00  0.00     0.007 C 
ATOM      7  C   UNL     1      10.051  30.284  15.462  1.00  0.00     0.007 C 
ENDBRANCH   2   5
ENDBRANCH   1   2
BRANCH   1   8
ATOM      8  C   UNL     1      13.050  27.646  14.284  1.00  0.00     0.004 C 
BRANCH   8   9
ATOM      9  C   UNL     1      13.516  26.450  15.161  1.00  0.00    -0.011 C 
ATOM     10  C   UNL     1      15.026  26.559  15.475  1.00  0.00     0.008 C 
BRANCH   9  11
ATOM     11  C   UNL     1      13.103  25.082  14.499  1.00  0.00    -0.002 C 
ATOM     12  C   UNL     1      14.318  24.189  14.202  1.00  0.00     0.005 C 
ATOM     13  C   UNL     1      12.081  24.170  15.278  1.00  0.00    -0.026 C 
ATOM     14  C   UNL     1      14.314  23.053  15.216  1.00  0.00     0.005 C 
ATOM     15  C   UNL     1      12.960  23.072  15.951  1.00  0.00    -0.001 C 
ATOM     16  C   UNL     1      11.030  23.540  14.287  1.00  0.00     0.007 C 
ATOM     17  C   UNL     1      11.261  24.933  16.355  1.00  0.00     0.012 C 
ATOM     18  C   UNL     1      12.246  21.694  16.012  1.00  0.00     0.004 C 
ATOM     19  C   UNL     1      11.516  22.258  13.597  1.00  0.00     0.005 C 
ATOM     20  C   UNL     1      11.874  21.135  14.612  1.00  0.00     0.003 C 
ATOM     21  C   UNL     1      13.057  20.636  16.788  1.00  0.00     0.085 C 
ATOM     22  C   UNL     1      10.829  19.955  14.732  1.00  0.00    -0.000 C 
ATOM     23  C   UNL     1      12.374  19.297  16.751  1.00  0.00     0.159 C 
ATOM     24  C   UNL     1      11.114  19.111  15.986  1.00  0.00     0.005 C 
ATOM     25  C   UNL     1       9.357  20.467  14.833  1.00  0.00     0.020 C 
ATOM     26  C   UNL     1      10.988  19.039  13.489  1.00  0.00     0.017 C 
ATOM     27  O   UNL     1      12.866  18.341  17.407  1.00  0.00    -0.295 OA
ATOM     28  C   UNL     1      10.180  18.272  16.471  1.00  0.00     0.055 C 
ATOM     29  C   UNL     1       8.338  19.322  14.979  1.00  0.00     0.081 C 
ATOM     30  C   UNL     1       8.807  18.268  15.944  1.00  0.00     0.156 C 
ATOM     31  O   UNL     1       8.006  17.368  16.311  1.00  0.00    -0.295 OA
ENDBRANCH   9  11
ENDBRANCH   8   9
ENDBRANCH   1   8
TORSDOF 6
ENDMDL
MODEL 8
REMARK VINA RESULT:    -5.221      8.247     13.270
REMARK INTER + INTRA:          -8.676
REMARK INTER:                  -7.314
REMARK INTRA:                  -1.362
REMARK UNBOUND:                -1.624
REMARK SMILES CC[C@H](CC[C@H](C)[C@H]1CC[C@@H]2[C@@H]3CC(=O)C4=CC(=O)CC[C@@]4(C)[C@H]3CC[C@@]21C)C(C)C
REMARK SMILES IDX 4 1 3 2 2 3 1 4 29 5 30 6 31 7 5 8 6 9 7 10 8 11 9 12 27 13
REMARK SMILES IDX 10 14 11 15 26 16 28 17 12 18 25 19 24 20 13 21 22 22 14 23
REMARK SMILES IDX 16 24 21 25 23 26 15 27 17 28 20 29 18 30 19 31
REMARK H PARENT
REMARK Flexibility Score: inf
ROOT
ATOM      1  C   UNL     1       6.319  17.495  13.139  1.00  0.00     0.004 C 
ENDROOT
BRANCH   1   2
ATOM      2  C   UNL     1       4.985  16.710  12.956  1.00  0.00    -0.009 C 
BRANCH   2   3
ATOM      3  C   UNL     1       5.317  15.186  12.982  1.00  0.00     0.000 C 
ATOM      4  C   UNL     1       6.683  14.850  13.593  1.00  0.00     0.004 C 
ENDBRANCH   2   3
BRANCH   2   5
ATOM      5  C   UNL     1       3.892  17.206  13.989  1.00  0.00    -0.014 C 
ATOM      6  C   UNL     1       4.146  16.898  15.476  1.00  0.00     0.007 C 
ATOM      7  C   UNL     1       2.501  16.654  13.617  1.00  0.00     0.007 C 
ENDBRANCH   2   5
ENDBRANCH   1   2
BRANCH   1   8
ATOM      8  C   UNL     1       6.128  18.947  13.621  1.00  0.00     0.004 C 
BRANCH   8   9
ATOM      9  C   UNL     1       7.462  19.628  14.039  1.00  0.00    -0.011 C 
ATOM     10  C   UNL     1       7.476  21.112  13.608  1.00  0.00     0.008 C 
BRANCH   9  11
ATOM     11  C   UNL     1       8.696  18.802  13.512  1.00  0.00    -0.002 C 
ATOM     12  C   UNL     1       9.767  19.702  12.875  1.00  0.00     0.005 C 
ATOM     13  C   UNL     1       9.460  17.888  14.542  1.00  0.00    -0.026 C 
ATOM     14  C   UNL     1      10.944  19.771  13.840  1.00  0.00     0.005 C 
ATOM     15  C   UNL     1      10.732  18.701  14.929  1.00  0.00    -0.001 C 
ATOM     16  C   UNL     1       9.838  16.506  13.885  1.00  0.00     0.007 C 
ATOM     17  C   UNL     1       8.631  17.553  15.812  1.00  0.00     0.012 C 
ATOM     18  C   UNL     1      11.967  17.792  15.180  1.00  0.00     0.004 C 
ATOM     19  C   UNL     1      11.141  16.537  13.076  1.00  0.00     0.005 C 
ATOM     20  C   UNL     1      12.368  16.950  13.939  1.00  0.00     0.003 C 
ATOM     21  C   UNL     1      13.193  18.578  15.686  1.00  0.00     0.085 C 
ATOM     22  C   UNL     1      13.353  15.780  14.342  1.00  0.00    -0.000 C 
ATOM     23  C   UNL     1      14.388  17.677  15.834  1.00  0.00     0.159 C 
ATOM     24  C   UNL     1      14.306  16.242  15.457  1.00  0.00     0.005 C 
ATOM     25  C   UNL     1      12.599  14.515  14.860  1.00  0.00     0.020 C 
ATOM     26  C   UNL     1      14.207  15.417  13.098  1.00  0.00     0.017 C 
ATOM     27  O   UNL     1      15.452  18.148  16.316  1.00  0.00    -0.295 OA
ATOM     28  C   UNL     1      14.997  15.342  16.180  1.00  0.00     0.055 C 
ATOM     29  C   UNL     1      13.555  13.385  15.281  1.00  0.00     0.081 C 
ATOM     30  C   UNL     1      14.730  13.900  16.065  1.00  0.00     0.156 C 
ATOM     31  O   UNL     1      15.498  13.082  16.638  1.00  0.00    -0.295 OA
ENDBRANCH   9  11
ENDBRANCH   8   9
ENDBRANCH   1   8
TORSDOF 6
ENDMDL
MODEL 9
REMARK VINA RESULT:    -5.041      8.389     12.784
REMARK INTER + INTRA:          -8.433
REMARK INTER:                  -7.563
REMARK INTRA:                  -0.870
REMARK UNBOUND:                -1.624
REMARK SMILES CC[C@H](CC[C@H](C)[C@H]1CC[C@@H]2[C@@H]3CC(=O)C4=CC(=O)CC[C@@]4(C)[C@H]3CC[C@@]21C)C(C)C
REMARK SMILES IDX 4 1 3 2 2 3 1 4 29 5 30 6 31 7 5 8 6 9 7 10 8 11 9 12 27 13
REMARK SMILES IDX 10 14 11 15 26 16 28 17 12 18 25 19 24 20 13 21 22 22 14 23
REMARK SMILES IDX 16 24 21 25 23 26 15 27 17 28 20 29 18 30 19 31
REMARK H PARENT
REMARK Flexibility Score: inf
ROOT
ATOM      1  C   UNL     1       3.812  17.640  15.020  1.00  0.00     0.004 C 
ENDROOT
BRANCH   1   2
ATOM      2  C   UNL     1       3.061  17.960  13.693  1.00  0.00    -0.009 C 
BRANCH   2   3
ATOM      3  C   UNL     1       1.676  17.243  13.740  1.00  0.00     0.000 C 
ATOM      4  C   UNL     1       1.595  15.973  12.886  1.00  0.00     0.004 C 
ENDBRANCH   2   3
BRANCH   2   5
ATOM      5  C   UNL     1       3.032  19.520  13.422  1.00  0.00    -0.014 C 
ATOM      6  C   UNL     1       3.867  20.407  14.364  1.00  0.00     0.007 C 
ATOM      7  C   UNL     1       1.584  20.048  13.427  1.00  0.00     0.007 C 
ENDBRANCH   2   5
ENDBRANCH   1   2
BRANCH   1   8
ATOM      8  C   UNL     1       5.028  16.709  14.843  1.00  0.00     0.004 C 
BRANCH   8   9
ATOM      9  C   UNL     1       5.429  16.513  13.354  1.00  0.00    -0.011 C 
ATOM     10  C   UNL     1       5.309  15.026  12.948  1.00  0.00     0.008 C 
BRANCH   9  11
ATOM     11  C   UNL     1       6.850  17.134  13.075  1.00  0.00    -0.002 C 
ATOM     12  C   UNL     1       6.834  18.670  13.132  1.00  0.00     0.005 C 
ATOM     13  C   UNL     1       8.042  16.682  14.001  1.00  0.00    -0.026 C 
ATOM     14  C   UNL     1       7.527  19.090  14.421  1.00  0.00     0.005 C 
ATOM     15  C   UNL     1       8.220  17.850  15.018  1.00  0.00    -0.001 C 
ATOM     16  C   UNL     1       9.350  16.454  13.151  1.00  0.00     0.007 C 
ATOM     17  C   UNL     1       7.775  15.351  14.755  1.00  0.00     0.012 C 
ATOM     18  C   UNL     1       9.706  18.075  15.411  1.00  0.00     0.004 C 
ATOM     19  C   UNL     1      10.152  17.735  12.888  1.00  0.00     0.005 C 
ATOM     20  C   UNL     1      10.611  18.431  14.201  1.00  0.00     0.003 C 
ATOM     21  C   UNL     1       9.876  19.143  16.511  1.00  0.00     0.085 C 
ATOM     22  C   UNL     1      12.140  18.269  14.570  1.00  0.00    -0.000 C 
ATOM     23  C   UNL     1      11.331  19.391  16.801  1.00  0.00     0.159 C 
ATOM     24  C   UNL     1      12.388  18.690  16.029  1.00  0.00     0.005 C 
ATOM     25  C   UNL     1      12.640  16.798  14.413  1.00  0.00     0.020 C 
ATOM     26  C   UNL     1      12.962  19.210  13.651  1.00  0.00     0.017 C 
ATOM     27  O   UNL     1      11.641  20.179  17.735  1.00  0.00    -0.295 OA
ATOM     28  C   UNL     1      13.522  18.334  16.659  1.00  0.00     0.055 C 
ATOM     29  C   UNL     1      14.121  16.629  14.799  1.00  0.00     0.081 C 
ATOM     30  C   UNL     1      14.468  17.383  16.054  1.00  0.00     0.156 C 
ATOM     31  O   UNL     1      15.587  17.193  16.599  1.00  0.00    -0.295 OA
ENDBRANCH   9  11
ENDBRANCH   8   9
ENDBRANCH   1   8
TORSDOF 6
ENDMDL
