MODEL 1
REMARK VINA RESULT:    -3.984      0.000      0.000
REMARK INTER + INTRA:          -5.791
REMARK INTER:                  -5.614
REMARK INTRA:                  -0.177
REMARK UNBOUND:                -0.177
REMARK SMILES CC1=CCC(=C(C)C)C(=O)CC(C)=CCC1
REMARK SMILES IDX 12 1 14 2 13 3 15 4 16 5 2 6 1 7 3 8 11 10 9 11 10 12 5 13
REMARK SMILES IDX 6 14 7 15 8 16 4 17
REMARK H PARENT
REMARK Flexibility Score: 60.00
ROOT
ATOM      1  C   UNL     1      18.097  11.865  11.662  1.00  0.00    -0.070 C 
ATOM      2  C   UNL     1      17.632  11.834  12.932  1.00  0.00    -0.027 C 
ATOM      3  C   UNL     1      18.603  10.581  11.058  1.00  0.00     0.039 C 
ENDROOT
BRANCH   2   4
ATOM      4  C   UNL     1      16.958  12.983  13.636  1.00  0.00     0.032 C 
BRANCH   4   5
ATOM      5  C   UNL     1      17.979  13.742  14.490  1.00  0.00     0.034 C 
BRANCH   5   6
ATOM      6  C   UNL     1      17.837  15.246  14.366  1.00  0.00    -0.077 C 
ATOM      7  C   UNL     1      16.708  15.927  15.099  1.00  0.00     0.039 C 
ATOM      8  C   UNL     1      18.627  16.011  13.572  1.00  0.00    -0.023 CG0
ATOM      9  G   UNL     1      19.851  15.571  12.788  1.00  0.00     0.000 G0
ENDBRANCH   5   6
ENDBRANCH   4   5
ENDBRANCH   2   4
BRANCH   1  10
ATOM     10  C   UNL     1      18.151  13.129  10.826  1.00  0.00     0.111 C 
BRANCH  10  11
ATOM     11  C   UNL     1      19.488  13.821  10.936  1.00  0.00     0.163 C 
ATOM     12  O   UNL     1      20.515  13.121  10.718  1.00  0.00    -0.294 OA
BRANCH  11  13
ATOM     13  C   UNL     1      19.654  15.265  11.307  1.00  0.00    -0.002 C 
ATOM     14  C   UNL     1      19.776  16.223  10.337  1.00  0.00    -0.069 C 
ATOM     15  C   UNL     1      20.173  17.645  10.661  1.00  0.00     0.039 C 
ATOM     16  C   UNL     1      19.466  15.923   8.888  1.00  0.00     0.039 C 
BRANCH  13  17
ATOM     17  C   UNL     1      19.867  15.601  12.779  1.00  0.00     0.066 CG0
ATOM     18  G   UNL     1      18.632  16.001  13.566  1.00  0.00     0.000 G0
ENDBRANCH  13  17
ENDBRANCH  11  13
ENDBRANCH  10  11
ENDBRANCH   1  10
TORSDOF 0
ENDMDL
MODEL 2
REMARK VINA RESULT:    -3.803      4.469      7.362
REMARK INTER + INTRA:          -5.536
REMARK INTER:                  -5.402
REMARK INTRA:                  -0.134
REMARK UNBOUND:                -0.177
REMARK SMILES CC1=CCC(=C(C)C)C(=O)CC(C)=CCC1
REMARK SMILES IDX 12 1 14 2 13 3 15 4 16 5 2 6 1 7 3 8 11 10 9 11 10 12 5 13
REMARK SMILES IDX 6 14 7 15 8 16 4 17
REMARK H PARENT
REMARK Flexibility Score: 60.00
ROOT
ATOM      1  C   UNL     1      19.975  22.072   9.070  1.00  0.00    -0.070 C 
ATOM      2  C   UNL     1      18.757  22.633   9.247  1.00  0.00    -0.027 C 
ATOM      3  C   UNL     1      20.972  22.796   8.202  1.00  0.00     0.039 C 
ENDROOT
BRANCH   2   4
ATOM      4  C   UNL     1      17.699  22.125  10.192  1.00  0.00     0.032 C 
BRANCH   4   5
ATOM      5  C   UNL     1      16.550  21.495   9.398  1.00  0.00     0.034 C 
BRANCH   5   6
ATOM      6  C   UNL     1      16.030  20.224  10.039  1.00  0.00    -0.077 C 
ATOM      7  C   UNL     1      14.938  20.332  11.075  1.00  0.00     0.039 C 
ATOM      8  C   UNL     1      16.541  18.993   9.788  1.00  0.00    -0.023 CG0
ATOM      9  G   UNL     1      17.593  18.623   8.757  1.00  0.00     0.000 G0
ENDBRANCH   5   6
ENDBRANCH   4   5
ENDBRANCH   2   4
BRANCH   1  10
ATOM     10  C   UNL     1      20.379  20.746   9.686  1.00  0.00     0.111 C 
BRANCH  10  11
ATOM     11  C   UNL     1      19.986  19.578   8.814  1.00  0.00     0.163 C 
ATOM     12  O   UNL     1      20.484  19.534   7.656  1.00  0.00    -0.294 OA
BRANCH  11  13
ATOM     13  C   UNL     1      19.033  18.501   9.241  1.00  0.00    -0.002 C 
ATOM     14  C   UNL     1      19.487  17.393   9.904  1.00  0.00    -0.069 C 
ATOM     15  C   UNL     1      18.607  16.187  10.144  1.00  0.00     0.039 C 
ATOM     16  C   UNL     1      20.883  17.335  10.481  1.00  0.00     0.039 C 
BRANCH  13  17
ATOM     17  C   UNL     1      17.591  18.593   8.753  1.00  0.00     0.066 CG0
ATOM     18  G   UNL     1      16.553  18.999   9.785  1.00  0.00     0.000 G0
ENDBRANCH  13  17
ENDBRANCH  11  13
ENDBRANCH  10  11
ENDBRANCH   1  10
TORSDOF 0
ENDMDL
MODEL 3
REMARK VINA RESULT:    -3.650      3.362      6.219
REMARK INTER + INTRA:          -5.321
REMARK INTER:                  -5.168
REMARK INTRA:                  -0.153
REMARK UNBOUND:                -0.177
REMARK SMILES CC1=CCC(=C(C)C)C(=O)CC(C)=CCC1
REMARK SMILES IDX 12 1 14 2 13 3 15 4 16 5 2 6 1 7 3 8 11 10 9 11 10 12 5 13
REMARK SMILES IDX 6 14 7 15 8 16 4 17
REMARK H PARENT
REMARK Flexibility Score: 60.00
ROOT
ATOM      1  C   UNL     1      16.211  19.430  10.529  1.00  0.00    -0.070 C 
ATOM      2  C   UNL     1      16.833  20.450   9.894  1.00  0.00    -0.027 C 
ATOM      3  C   UNL     1      15.016  19.752  11.389  1.00  0.00     0.039 C 
ENDROOT
BRANCH   2   4
ATOM      4  C   UNL     1      17.942  20.294   8.886  1.00  0.00     0.032 C 
BRANCH   4   5
ATOM      5  C   UNL     1      19.300  20.444   9.579  1.00  0.00     0.034 C 
BRANCH   5   6
ATOM      6  C   UNL     1      20.317  19.433   9.089  1.00  0.00    -0.077 C 
ATOM      7  C   UNL     1      20.947  19.640   7.734  1.00  0.00     0.039 C 
ATOM      8  C   UNL     1      20.643  18.306   9.771  1.00  0.00    -0.023 CG0
ATOM      9  G   UNL     1      20.192  17.907  11.165  1.00  0.00     0.000 G0
ENDBRANCH   5   6
ENDBRANCH   4   5
ENDBRANCH   2   4
BRANCH   1  10
ATOM     10  C   UNL     1      16.666  17.987  10.432  1.00  0.00     0.111 C 
BRANCH  10  11
ATOM     11  C   UNL     1      17.647  17.632  11.523  1.00  0.00     0.163 C 
ATOM     12  O   UNL     1      17.313  17.914  12.707  1.00  0.00    -0.294 OA
BRANCH  11  13
ATOM     13  C   UNL     1      18.981  16.993  11.273  1.00  0.00    -0.002 C 
ATOM     14  C   UNL     1      19.118  15.632  11.302  1.00  0.00    -0.069 C 
ATOM     15  C   UNL     1      20.473  14.962  11.287  1.00  0.00     0.039 C 
ATOM     16  C   UNL     1      17.914  14.717  11.300  1.00  0.00     0.039 C 
BRANCH  13  17
ATOM     17  C   UNL     1      20.198  17.906  11.170  1.00  0.00     0.066 CG0
ATOM     18  G   UNL     1      20.645  18.282   9.768  1.00  0.00     0.000 G0
ENDBRANCH  13  17
ENDBRANCH  11  13
ENDBRANCH  10  11
ENDBRANCH   1  10
TORSDOF 0
ENDMDL
MODEL 4
REMARK VINA RESULT:    -3.603      4.639      7.413
REMARK INTER + INTRA:          -5.254
REMARK INTER:                  -5.383
REMARK INTRA:                   0.130
REMARK UNBOUND:                -0.177
REMARK SMILES CC1=CCC(=C(C)C)C(=O)CC(C)=CCC1
REMARK SMILES IDX 12 1 14 2 13 3 15 4 16 5 2 6 1 7 3 8 11 10 9 11 10 12 5 13
REMARK SMILES IDX 6 14 7 15 8 16 4 17
REMARK H PARENT
REMARK Flexibility Score: 60.00
ROOT
ATOM      1  C   UNL     1      20.337  19.459   8.923  1.00  0.00    -0.070 C 
ATOM      2  C   UNL     1      20.879  20.626   9.343  1.00  0.00    -0.027 C 
ATOM      3  C   UNL     1      20.864  18.177   9.514  1.00  0.00     0.039 C 
ENDROOT
BRANCH   2   4
ATOM      4  C   UNL     1      20.377  21.997   8.971  1.00  0.00     0.032 C 
BRANCH   4   5
ATOM      5  C   UNL     1      19.585  22.595  10.139  1.00  0.00     0.034 C 
BRANCH   5   6
ATOM      6  C   UNL     1      18.102  22.698   9.842  1.00  0.00    -0.077 C 
ATOM      7  C   UNL     1      17.588  23.941   9.158  1.00  0.00     0.039 C 
ATOM      8  C   UNL     1      17.194  21.765  10.221  1.00  0.00    -0.023 CG0
ATOM      9  G   UNL     1      17.469  20.417  10.864  1.00  0.00     0.000 G0
ENDBRANCH   5   6
ENDBRANCH   4   5
ENDBRANCH   2   4
BRANCH   1  10
ATOM     10  C   UNL     1      19.241  19.379   7.878  1.00  0.00     0.111 C 
BRANCH  10  11
ATOM     11  C   UNL     1      17.866  19.452   8.496  1.00  0.00     0.163 C 
ATOM     12  O   UNL     1      16.910  19.758   7.732  1.00  0.00    -0.294 OA
BRANCH  11  13
ATOM     13  C   UNL     1      17.589  19.206   9.950  1.00  0.00    -0.002 C 
ATOM     14  C   UNL     1      17.278  17.950  10.396  1.00  0.00    -0.069 C 
ATOM     15  C   UNL     1      16.769  17.701  11.798  1.00  0.00     0.039 C 
ATOM     16  C   UNL     1      17.477  16.731   9.525  1.00  0.00     0.039 C 
BRANCH  13  17
ATOM     17  C   UNL     1      17.485  20.418  10.869  1.00  0.00     0.066 CG0
ATOM     18  G   UNL     1      17.188  21.749  10.202  1.00  0.00     0.000 G0
ENDBRANCH  13  17
ENDBRANCH  11  13
ENDBRANCH  10  11
ENDBRANCH   1  10
TORSDOF 0
ENDMDL
MODEL 5
REMARK VINA RESULT:    -3.587      5.565      7.573
REMARK INTER + INTRA:          -5.231
REMARK INTER:                  -5.624
REMARK INTRA:                   0.393
REMARK UNBOUND:                -0.177
REMARK SMILES CC1=CCC(=C(C)C)C(=O)CC(C)=CCC1
REMARK SMILES IDX 12 1 14 2 13 3 15 4 16 5 2 6 1 7 3 8 11 10 9 11 10 12 5 13
REMARK SMILES IDX 6 14 7 15 8 16 4 17
REMARK H PARENT
REMARK Flexibility Score: 60.00
ROOT
ATOM      1  C   UNL     1      18.968  18.864   8.814  1.00  0.00    -0.070 C 
ATOM      2  C   UNL     1      17.632  18.877   9.026  1.00  0.00    -0.027 C 
ATOM      3  C   UNL     1      19.755  17.677   9.310  1.00  0.00     0.039 C 
ENDROOT
BRANCH   2   4
ATOM      4  C   UNL     1      16.678  19.904   8.472  1.00  0.00     0.032 C 
BRANCH   4   5
ATOM      5  C   UNL     1      15.907  20.567   9.618  1.00  0.00     0.034 C 
BRANCH   5   6
ATOM      6  C   UNL     1      16.805  20.951  10.777  1.00  0.00    -0.077 C 
ATOM      7  C   UNL     1      16.664  20.204  12.080  1.00  0.00     0.039 C 
ATOM      8  C   UNL     1      17.686  21.983  10.734  1.00  0.00    -0.023 CG0
ATOM      9  G   UNL     1      18.046  22.839   9.533  1.00  0.00     0.000 G0
ENDBRANCH   5   6
ENDBRANCH   4   5
ENDBRANCH   2   4
BRANCH   1  10
ATOM     10  C   UNL     1      19.713  19.988   8.122  1.00  0.00     0.111 C 
BRANCH  10  11
ATOM     11  C   UNL     1      19.977  21.146   9.054  1.00  0.00     0.163 C 
ATOM     12  O   UNL     1      20.710  20.920  10.056  1.00  0.00    -0.294 OA
BRANCH  11  13
ATOM     13  C   UNL     1      19.404  22.520   8.864  1.00  0.00    -0.002 C 
ATOM     14  C   UNL     1      20.139  23.503   8.258  1.00  0.00    -0.069 C 
ATOM     15  C   UNL     1      19.695  24.948   8.254  1.00  0.00     0.039 C 
ATOM     16  C   UNL     1      21.414  23.187   7.510  1.00  0.00     0.039 C 
BRANCH  13  17
ATOM     17  C   UNL     1      18.066  22.830   9.527  1.00  0.00     0.066 CG0
ATOM     18  G   UNL     1      17.702  21.993  10.740  1.00  0.00     0.000 G0
ENDBRANCH  13  17
ENDBRANCH  11  13
ENDBRANCH  10  11
ENDBRANCH   1  10
TORSDOF 0
ENDMDL
MODEL 6
REMARK VINA RESULT:    -3.558      2.123      3.880
REMARK INTER + INTRA:          -5.191
REMARK INTER:                  -5.076
REMARK INTRA:                  -0.114
REMARK UNBOUND:                -0.177
REMARK SMILES CC1=CCC(=C(C)C)C(=O)CC(C)=CCC1
REMARK SMILES IDX 12 1 14 2 13 3 15 4 16 5 2 6 1 7 3 8 11 10 9 11 10 12 5 13
REMARK SMILES IDX 6 14 7 15 8 16 4 17
REMARK H PARENT
REMARK Flexibility Score: 60.00
ROOT
ATOM      1  C   UNL     1      18.194  14.308  14.336  1.00  0.00    -0.070 C 
ATOM      2  C   UNL     1      17.480  13.164  14.218  1.00  0.00    -0.027 C 
ATOM      3  C   UNL     1      18.049  15.108  15.605  1.00  0.00     0.039 C 
ENDROOT
BRANCH   2   4
ATOM      4  C   UNL     1      17.614  12.174  13.091  1.00  0.00     0.032 C 
BRANCH   4   5
ATOM      5  C   UNL     1      16.525  12.427  12.043  1.00  0.00     0.034 C 
BRANCH   5   6
ATOM      6  C   UNL     1      17.058  12.374  10.626  1.00  0.00    -0.077 C 
ATOM      7  C   UNL     1      17.340  11.025  10.011  1.00  0.00     0.039 C 
ATOM      8  C   UNL     1      17.367  13.476   9.898  1.00  0.00    -0.023 CG0
ATOM      9  G   UNL     1      17.123  14.927  10.272  1.00  0.00     0.000 G0
ENDBRANCH   5   6
ENDBRANCH   4   5
ENDBRANCH   2   4
BRANCH   1  10
ATOM     10  C   UNL     1      19.113  14.832  13.251  1.00  0.00     0.111 C 
BRANCH  10  11
ATOM     11  C   UNL     1      18.415  15.822  12.350  1.00  0.00     0.163 C 
ATOM     12  O   UNL     1      17.861  16.811  12.905  1.00  0.00    -0.294 OA
BRANCH  11  13
ATOM     13  C   UNL     1      18.329  15.679  10.859  1.00  0.00    -0.002 C 
ATOM     14  C   UNL     1      19.204  16.345  10.044  1.00  0.00    -0.069 C 
ATOM     15  C   UNL     1      19.010  16.414   8.547  1.00  0.00     0.039 C 
ATOM     16  C   UNL     1      20.446  17.007  10.594  1.00  0.00     0.039 C 
BRANCH  13  17
ATOM     17  C   UNL     1      17.134  14.925  10.285  1.00  0.00     0.066 CG0
ATOM     18  G   UNL     1      17.373  13.478   9.893  1.00  0.00     0.000 G0
ENDBRANCH  13  17
ENDBRANCH  11  13
ENDBRANCH  10  11
ENDBRANCH   1  10
TORSDOF 0
ENDMDL
MODEL 7
REMARK VINA RESULT:    -3.526      3.753      6.277
REMARK INTER + INTRA:          -5.145
REMARK INTER:                  -4.969
REMARK INTRA:                  -0.176
REMARK UNBOUND:                -0.177
REMARK SMILES CC1=CCC(=C(C)C)C(=O)CC(C)=CCC1
REMARK SMILES IDX 12 1 14 2 13 3 15 4 16 5 2 6 1 7 3 8 11 10 9 11 10 12 5 13
REMARK SMILES IDX 6 14 7 15 8 16 4 17
REMARK H PARENT
REMARK Flexibility Score: 60.00
ROOT
ATOM      1  C   UNL     1      19.636  16.748   9.362  1.00  0.00    -0.070 C 
ATOM      2  C   UNL     1      20.104  17.640   8.457  1.00  0.00    -0.027 C 
ATOM      3  C   UNL     1      19.496  15.309   8.936  1.00  0.00     0.039 C 
ENDROOT
BRANCH   2   4
ATOM      4  C   UNL     1      20.443  19.077   8.754  1.00  0.00     0.032 C 
BRANCH   4   5
ATOM      5  C   UNL     1      19.260  19.978   8.381  1.00  0.00     0.034 C 
BRANCH   5   6
ATOM      6  C   UNL     1      19.034  21.087   9.390  1.00  0.00    -0.077 C 
ATOM      7  C   UNL     1      19.959  22.278   9.373  1.00  0.00     0.039 C 
ATOM      8  C   UNL     1      18.087  21.037  10.360  1.00  0.00    -0.023 CG0
ATOM      9  G   UNL     1      17.011  19.982  10.546  1.00  0.00     0.000 G0
ENDBRANCH   5   6
ENDBRANCH   4   5
ENDBRANCH   2   4
BRANCH   1  10
ATOM     10  C   UNL     1      19.228  17.129  10.772  1.00  0.00     0.111 C 
BRANCH  10  11
ATOM     11  C   UNL     1      17.777  17.536  10.848  1.00  0.00     0.163 C 
ATOM     12  O   UNL     1      16.933  16.750  10.335  1.00  0.00    -0.294 OA
BRANCH  11  13
ATOM     13  C   UNL     1      17.298  18.813  11.473  1.00  0.00    -0.002 C 
ATOM     14  C   UNL     1      16.991  18.864  12.806  1.00  0.00    -0.069 C 
ATOM     15  C   UNL     1      16.292  20.055  13.422  1.00  0.00     0.039 C 
ATOM     16  C   UNL     1      17.383  17.750  13.749  1.00  0.00     0.039 C 
BRANCH  13  17
ATOM     17  C   UNL     1      16.993  19.986  10.547  1.00  0.00     0.066 CG0
ATOM     18  G   UNL     1      18.096  21.015  10.374  1.00  0.00     0.000 G0
ENDBRANCH  13  17
ENDBRANCH  11  13
ENDBRANCH  10  11
ENDBRANCH   1  10
TORSDOF 0
ENDMDL
MODEL 8
REMARK VINA RESULT:    -3.415      4.084      6.726
REMARK INTER + INTRA:          -4.989
REMARK INTER:                  -4.997
REMARK INTRA:                   0.008
REMARK UNBOUND:                -0.177
REMARK SMILES CC1=CCC(=C(C)C)C(=O)CC(C)=CCC1
REMARK SMILES IDX 12 1 14 2 13 3 15 4 16 5 2 6 1 7 3 8 11 10 9 11 10 12 5 13
REMARK SMILES IDX 6 14 7 15 8 16 4 17
REMARK H PARENT
REMARK Flexibility Score: 60.00
ROOT
ATOM      1  C   UNL     1      19.861  20.674   9.483  1.00  0.00    -0.070 C 
ATOM      2  C   UNL     1      20.814  19.779   9.833  1.00  0.00    -0.027 C 
ATOM      3  C   UNL     1      20.264  22.119   9.333  1.00  0.00     0.039 C 
ENDROOT
BRANCH   2   4
ATOM      4  C   UNL     1      20.621  18.285   9.883  1.00  0.00     0.032 C 
BRANCH   4   5
ATOM      5  C   UNL     1      20.244  17.858  11.306  1.00  0.00     0.034 C 
BRANCH   5   6
ATOM      6  C   UNL     1      19.021  16.962  11.337  1.00  0.00    -0.077 C 
ATOM      7  C   UNL     1      19.170  15.521  10.914  1.00  0.00     0.039 C 
ATOM      8  C   UNL     1      17.778  17.400  11.657  1.00  0.00    -0.023 CG0
ATOM      9  G   UNL     1      17.387  18.776  12.165  1.00  0.00     0.000 G0
ENDBRANCH   5   6
ENDBRANCH   4   5
ENDBRANCH   2   4
BRANCH   1  10
ATOM     10  C   UNL     1      18.410  20.299   9.255  1.00  0.00     0.111 C 
BRANCH  10  11
ATOM     11  C   UNL     1      17.538  20.682  10.426  1.00  0.00     0.163 C 
ATOM     12  O   UNL     1      17.557  21.892  10.784  1.00  0.00    -0.294 OA
BRANCH  11  13
ATOM     13  C   UNL     1      16.685  19.709  11.186  1.00  0.00    -0.002 C 
ATOM     14  C   UNL     1      15.321  19.774  11.111  1.00  0.00    -0.069 C 
ATOM     15  C   UNL     1      14.428  18.972  12.031  1.00  0.00     0.039 C 
ATOM     16  C   UNL     1      14.627  20.614  10.064  1.00  0.00     0.039 C 
BRANCH  13  17
ATOM     17  C   UNL     1      17.378  18.779  12.177  1.00  0.00     0.066 CG0
ATOM     18  G   UNL     1      17.784  17.413  11.651  1.00  0.00     0.000 G0
ENDBRANCH  13  17
ENDBRANCH  11  13
ENDBRANCH  10  11
ENDBRANCH   1  10
TORSDOF 0
ENDMDL
MODEL 9
REMARK VINA RESULT:    -3.361      2.580      4.668
REMARK INTER + INTRA:          -4.912
REMARK INTER:                  -4.861
REMARK INTRA:                  -0.052
REMARK UNBOUND:                -0.177
REMARK SMILES CC1=CCC(=C(C)C)C(=O)CC(C)=CCC1
REMARK SMILES IDX 12 1 14 2 13 3 15 4 16 5 2 6 1 7 3 8 11 10 9 11 10 12 5 13
REMARK SMILES IDX 6 14 7 15 8 16 4 17
REMARK H PARENT
REMARK Flexibility Score: 60.00
ROOT
ATOM      1  C   UNL     1      18.146  14.186  13.596  1.00  0.00    -0.070 C 
ATOM      2  C   UNL     1      18.819  13.947  12.446  1.00  0.00    -0.027 C 
ATOM      3  C   UNL     1      17.260  13.096  14.141  1.00  0.00     0.039 C 
ENDROOT
BRANCH   2   4
ATOM      4  C   UNL     1      19.853  14.862  11.842  1.00  0.00     0.032 C 
BRANCH   4   5
ATOM      5  C   UNL     1      19.189  15.801  10.830  1.00  0.00     0.034 C 
BRANCH   5   6
ATOM      6  C   UNL     1      19.613  17.245  11.014  1.00  0.00    -0.077 C 
ATOM      7  C   UNL     1      21.003  17.649  10.590  1.00  0.00     0.039 C 
ATOM      8  C   UNL     1      18.836  18.186  11.607  1.00  0.00    -0.023 CG0
ATOM      9  G   UNL     1      17.395  18.040  12.061  1.00  0.00     0.000 G0
ENDBRANCH   5   6
ENDBRANCH   4   5
ENDBRANCH   2   4
BRANCH   1  10
ATOM     10  C   UNL     1      18.224  15.500  14.348  1.00  0.00     0.111 C 
BRANCH  10  11
ATOM     11  C   UNL     1      17.052  16.398  14.037  1.00  0.00     0.163 C 
ATOM     12  O   UNL     1      15.899  15.905  14.175  1.00  0.00    -0.294 OA
BRANCH  11  13
ATOM     13  C   UNL     1      17.187  17.815  13.560  1.00  0.00    -0.002 C 
ATOM     14  C   UNL     1      16.961  18.861  14.412  1.00  0.00    -0.069 C 
ATOM     15  C   UNL     1      16.859  20.287  13.920  1.00  0.00     0.039 C 
ATOM     16  C   UNL     1      16.852  18.653  15.905  1.00  0.00     0.039 C 
BRANCH  13  17
ATOM     17  C   UNL     1      17.401  18.044  12.067  1.00  0.00     0.066 CG0
ATOM     18  G   UNL     1      18.840  18.172  11.602  1.00  0.00     0.000 G0
ENDBRANCH  13  17
ENDBRANCH  11  13
ENDBRANCH  10  11
ENDBRANCH   1  10
TORSDOF 0
ENDMDL
