MODEL 1
REMARK VINA RESULT:    -4.278      0.000      0.000
REMARK INTER + INTRA:          -6.290
REMARK INTER:                  -5.779
REMARK INTRA:                  -0.511
REMARK UNBOUND:                -0.511
REMARK SMILES [NH3+]CCCC[C@H]([NH3+])C(=O)[O-]
REMARK SMILES IDX 4 1 3 2 2 3 1 4 5 8 6 9 7 10 8 14 9 15 10 16
REMARK H PARENT 1 5 1 6 1 7 7 11 7 12 7 13
REMARK Flexibility Score: inf
ROOT
ATOM      1  C   UNL     1     -36.247  -5.035  -6.959  1.00  0.00     0.012 C 
ENDROOT
BRANCH   1   2
ATOM      2  C   UNL     1     -35.034  -5.484  -6.124  1.00  0.00     0.061 C 
BRANCH   2   3
ATOM      3  C   UNL     1     -33.700  -4.820  -6.514  1.00  0.00     0.258 C 
BRANCH   3   4
ATOM      4  N   UNL     1     -32.830  -5.722  -7.273  1.00  0.00    -0.358 N 
ATOM      5  H   UNL     1     -32.312  -5.167  -7.992  1.00  0.00     0.344 HD
ATOM      6  H   UNL     1     -33.401  -6.445  -7.766  1.00  0.00     0.344 HD
ATOM      7  H   UNL     1     -32.137  -6.181  -6.639  1.00  0.00     0.344 HD
ENDBRANCH   3   4
ENDBRANCH   2   3
ENDBRANCH   1   2
BRANCH   1   8
ATOM      8  C   UNL     1     -36.340  -5.757  -8.315  1.00  0.00     0.072 C 
BRANCH   8   9
ATOM      9  C   UNL     1     -36.408  -4.768  -9.499  1.00  0.00     0.227 C 
BRANCH   9  10
ATOM     10  N   UNL     1     -37.203  -5.334 -10.596  1.00  0.00    -0.350 N 
ATOM     11  H   UNL     1     -36.689  -5.221 -11.500  1.00  0.00     0.345 HD
ATOM     12  H   UNL     1     -37.356  -6.356 -10.434  1.00  0.00     0.345 HD
ATOM     13  H   UNL     1     -38.129  -4.854 -10.667  1.00  0.00     0.345 HD
ENDBRANCH   9  10
BRANCH   9  14
ATOM     14  C   UNL     1     -35.027  -4.421  -9.994  1.00  0.00     0.099 C 
ATOM     15  O   UNL     1     -34.131  -5.304 -10.040  1.00  0.00    -0.544 OA
ATOM     16  O   UNL     1     -34.734  -3.125 -10.403  1.00  0.00    -0.544 OA
ENDBRANCH   9  14
ENDBRANCH   8   9
ENDBRANCH   1   8
TORSDOF 7
ENDMDL
MODEL 2
REMARK VINA RESULT:    -4.232      2.034      4.040
REMARK INTER + INTRA:          -6.228
REMARK INTER:                  -5.819
REMARK INTRA:                  -0.408
REMARK UNBOUND:                -0.511
REMARK SMILES [NH3+]CCCC[C@H]([NH3+])C(=O)[O-]
REMARK SMILES IDX 4 1 3 2 2 3 1 4 5 8 6 9 7 10 8 14 9 15 10 16
REMARK H PARENT 1 5 1 6 1 7 7 11 7 12 7 13
REMARK Flexibility Score: inf
ROOT
ATOM      1  C   UNL     1     -34.090  -6.140  -8.857  1.00  0.00     0.012 C 
ENDROOT
BRANCH   1   2
ATOM      2  C   UNL     1     -34.173  -5.555 -10.278  1.00  0.00     0.061 C 
BRANCH   2   3
ATOM      3  C   UNL     1     -35.577  -5.080 -10.700  1.00  0.00     0.258 C 
BRANCH   3   4
ATOM      4  N   UNL     1     -36.634  -5.660  -9.869  1.00  0.00    -0.358 N 
ATOM      5  H   UNL     1     -37.015  -4.919  -9.238  1.00  0.00     0.344 HD
ATOM      6  H   UNL     1     -36.248  -6.428  -9.275  1.00  0.00     0.344 HD
ATOM      7  H   UNL     1     -37.410  -6.024 -10.467  1.00  0.00     0.344 HD
ENDBRANCH   3   4
ENDBRANCH   2   3
ENDBRANCH   1   2
BRANCH   1   8
ATOM      8  C   UNL     1     -33.118  -5.367  -7.947  1.00  0.00     0.072 C 
BRANCH   8   9
ATOM      9  C   UNL     1     -33.832  -4.741  -6.729  1.00  0.00     0.227 C 
BRANCH   9  10
ATOM     10  N   UNL     1     -34.266  -5.787  -5.795  1.00  0.00    -0.350 N 
ATOM     11  H   UNL     1     -34.784  -5.355  -4.995  1.00  0.00     0.345 HD
ATOM     12  H   UNL     1     -34.910  -6.452  -6.280  1.00  0.00     0.345 HD
ATOM     13  H   UNL     1     -33.442  -6.313  -5.423  1.00  0.00     0.345 HD
ENDBRANCH   9  10
BRANCH   9  14
ATOM     14  C   UNL     1     -35.019  -3.917  -7.161  1.00  0.00     0.099 C 
ATOM     15  O   UNL     1     -34.858  -2.727  -7.541  1.00  0.00    -0.544 OA
ATOM     16  O   UNL     1     -36.297  -4.464  -7.143  1.00  0.00    -0.544 OA
ENDBRANCH   9  14
ENDBRANCH   8   9
ENDBRANCH   1   8
TORSDOF 7
ENDMDL
MODEL 3
REMARK VINA RESULT:    -4.225      1.872      3.995
REMARK INTER + INTRA:          -6.217
REMARK INTER:                  -5.730
REMARK INTRA:                  -0.488
REMARK UNBOUND:                -0.511
REMARK SMILES [NH3+]CCCC[C@H]([NH3+])C(=O)[O-]
REMARK SMILES IDX 4 1 3 2 2 3 1 4 5 8 6 9 7 10 8 14 9 15 10 16
REMARK H PARENT 1 5 1 6 1 7 7 11 7 12 7 13
REMARK Flexibility Score: inf
ROOT
ATOM      1  C   UNL     1     -34.212  -2.932  -8.437  1.00  0.00     0.012 C 
ENDROOT
BRANCH   1   2
ATOM      2  C   UNL     1     -35.253  -2.784  -9.561  1.00  0.00     0.061 C 
BRANCH   2   3
ATOM      3  C   UNL     1     -34.951  -3.601 -10.832  1.00  0.00     0.258 C 
BRANCH   3   4
ATOM      4  N   UNL     1     -35.687  -4.867 -10.869  1.00  0.00    -0.358 N 
ATOM      5  H   UNL     1     -35.869  -5.125 -11.865  1.00  0.00     0.344 HD
ATOM      6  H   UNL     1     -36.608  -4.765 -10.384  1.00  0.00     0.344 HD
ATOM      7  H   UNL     1     -35.128  -5.628 -10.420  1.00  0.00     0.344 HD
ENDBRANCH   3   4
ENDBRANCH   2   3
ENDBRANCH   1   2
BRANCH   1   8
ATOM      8  C   UNL     1     -34.841  -3.312  -7.084  1.00  0.00     0.072 C 
BRANCH   8   9
ATOM      9  C   UNL     1     -34.531  -4.771  -6.685  1.00  0.00     0.227 C 
BRANCH   9  10
ATOM     10  N   UNL     1     -33.089  -4.949  -6.473  1.00  0.00    -0.350 N 
ATOM     11  H   UNL     1     -32.889  -5.030  -5.449  1.00  0.00     0.345 HD
ATOM     12  H   UNL     1     -32.768  -5.830  -6.937  1.00  0.00     0.345 HD
ATOM     13  H   UNL     1     -32.555  -4.139  -6.862  1.00  0.00     0.345 HD
ENDBRANCH   9  10
BRANCH   9  14
ATOM     14  C   UNL     1     -35.016  -5.736  -7.737  1.00  0.00     0.099 C 
ATOM     15  O   UNL     1     -36.250  -5.940  -7.886  1.00  0.00    -0.544 OA
ATOM     16  O   UNL     1     -34.107  -6.405  -8.549  1.00  0.00    -0.544 OA
ENDBRANCH   9  14
ENDBRANCH   8   9
ENDBRANCH   1   8
TORSDOF 7
ENDMDL
MODEL 4
REMARK VINA RESULT:    -4.210      2.501      4.166
REMARK INTER + INTRA:          -6.197
REMARK INTER:                  -5.701
REMARK INTRA:                  -0.497
REMARK UNBOUND:                -0.511
REMARK SMILES [NH3+]CCCC[C@H]([NH3+])C(=O)[O-]
REMARK SMILES IDX 4 1 3 2 2 3 1 4 5 8 6 9 7 10 8 14 9 15 10 16
REMARK H PARENT 1 5 1 6 1 7 7 11 7 12 7 13
REMARK Flexibility Score: inf
ROOT
ATOM      1  C   UNL     1     -34.146  -5.822  -9.081  1.00  0.00     0.012 C 
ENDROOT
BRANCH   1   2
ATOM      2  C   UNL     1     -34.386  -5.521 -10.571  1.00  0.00     0.061 C 
BRANCH   2   3
ATOM      3  C   UNL     1     -35.814  -5.054 -10.914  1.00  0.00     0.258 C 
BRANCH   3   4
ATOM      4  N   UNL     1     -36.829  -5.717 -10.093  1.00  0.00    -0.358 N 
ATOM      5  H   UNL     1     -36.379  -6.075  -9.220  1.00  0.00     0.344 HD
ATOM      6  H   UNL     1     -37.238  -6.529 -10.608  1.00  0.00     0.344 HD
ATOM      7  H   UNL     1     -37.583  -5.042  -9.830  1.00  0.00     0.344 HD
ENDBRANCH   3   4
ENDBRANCH   2   3
ENDBRANCH   1   2
BRANCH   1   8
ATOM      8  C   UNL     1     -33.676  -4.589  -8.289  1.00  0.00     0.072 C 
BRANCH   8   9
ATOM      9  C   UNL     1     -34.844  -3.874  -7.576  1.00  0.00     0.227 C 
BRANCH   9  10
ATOM     10  N   UNL     1     -34.340  -2.781  -6.735  1.00  0.00    -0.350 N 
ATOM     11  H   UNL     1     -35.074  -2.043  -6.635  1.00  0.00     0.345 HD
ATOM     12  H   UNL     1     -34.111  -3.144  -5.780  1.00  0.00     0.345 HD
ATOM     13  H   UNL     1     -33.483  -2.356  -7.157  1.00  0.00     0.345 HD
ENDBRANCH   9  10
BRANCH   9  14
ATOM     14  C   UNL     1     -35.640  -4.840  -6.737  1.00  0.00     0.099 C 
ATOM     15  O   UNL     1     -35.124  -5.363  -5.714  1.00  0.00    -0.544 OA
ATOM     16  O   UNL     1     -36.947  -5.160  -7.084  1.00  0.00    -0.544 OA
ENDBRANCH   9  14
ENDBRANCH   8   9
ENDBRANCH   1   8
TORSDOF 7
ENDMDL
MODEL 5
REMARK VINA RESULT:    -4.198      2.211      3.768
REMARK INTER + INTRA:          -6.182
REMARK INTER:                  -5.727
REMARK INTRA:                  -0.455
REMARK UNBOUND:                -0.511
REMARK SMILES [NH3+]CCCC[C@H]([NH3+])C(=O)[O-]
REMARK SMILES IDX 4 1 3 2 2 3 1 4 5 8 6 9 7 10 8 14 9 15 10 16
REMARK H PARENT 1 5 1 6 1 7 7 11 7 12 7 13
REMARK Flexibility Score: inf
ROOT
ATOM      1  C   UNL     1     -34.497  -2.702  -8.429  1.00  0.00     0.012 C 
ENDROOT
BRANCH   1   2
ATOM      2  C   UNL     1     -35.499  -2.997  -9.559  1.00  0.00     0.061 C 
BRANCH   2   3
ATOM      3  C   UNL     1     -34.860  -3.300 -10.927  1.00  0.00     0.258 C 
BRANCH   3   4
ATOM      4  N   UNL     1     -34.601  -4.729 -11.118  1.00  0.00    -0.358 N 
ATOM      5  H   UNL     1     -34.892  -5.244 -10.256  1.00  0.00     0.344 HD
ATOM      6  H   UNL     1     -33.581  -4.895 -11.270  1.00  0.00     0.344 HD
ATOM      7  H   UNL     1     -35.149  -5.094 -11.930  1.00  0.00     0.344 HD
ENDBRANCH   3   4
ENDBRANCH   2   3
ENDBRANCH   1   2
BRANCH   1   8
ATOM      8  C   UNL     1     -34.885  -3.365  -7.095  1.00  0.00     0.072 C 
BRANCH   8   9
ATOM      9  C   UNL     1     -35.132  -4.882  -7.248  1.00  0.00     0.227 C 
BRANCH   9  10
ATOM     10  N   UNL     1     -35.583  -5.459  -5.976  1.00  0.00    -0.350 N 
ATOM     11  H   UNL     1     -36.002  -6.403  -6.144  1.00  0.00     0.345 HD
ATOM     12  H   UNL     1     -34.769  -5.575  -5.329  1.00  0.00     0.345 HD
ATOM     13  H   UNL     1     -36.297  -4.844  -5.524  1.00  0.00     0.345 HD
ENDBRANCH   9  10
BRANCH   9  14
ATOM     14  C   UNL     1     -33.887  -5.590  -7.718  1.00  0.00     0.099 C 
ATOM     15  O   UNL     1     -33.948  -6.413  -8.668  1.00  0.00    -0.544 OA
ATOM     16  O   UNL     1     -32.664  -5.338  -7.107  1.00  0.00    -0.544 OA
ENDBRANCH   9  14
ENDBRANCH   8   9
ENDBRANCH   1   8
TORSDOF 7
ENDMDL
MODEL 6
REMARK VINA RESULT:    -4.197      1.919      2.361
REMARK INTER + INTRA:          -6.181
REMARK INTER:                  -5.664
REMARK INTRA:                  -0.516
REMARK UNBOUND:                -0.511
REMARK SMILES [NH3+]CCCC[C@H]([NH3+])C(=O)[O-]
REMARK SMILES IDX 4 1 3 2 2 3 1 4 5 8 6 9 7 10 8 14 9 15 10 16
REMARK H PARENT 1 5 1 6 1 7 7 11 7 12 7 13
REMARK Flexibility Score: inf
ROOT
ATOM      1  C   UNL     1     -34.108  -3.437  -7.962  1.00  0.00     0.012 C 
ENDROOT
BRANCH   1   2
ATOM      2  C   UNL     1     -34.740  -3.646  -6.575  1.00  0.00     0.061 C 
BRANCH   2   3
ATOM      3  C   UNL     1     -34.750  -5.106  -6.083  1.00  0.00     0.258 C 
BRANCH   3   4
ATOM      4  N   UNL     1     -36.085  -5.705  -6.144  1.00  0.00    -0.358 N 
ATOM      5  H   UNL     1     -36.273  -6.209  -5.248  1.00  0.00     0.344 HD
ATOM      6  H   UNL     1     -36.136  -6.397  -6.925  1.00  0.00     0.344 HD
ATOM      7  H   UNL     1     -36.812  -4.965  -6.273  1.00  0.00     0.344 HD
ENDBRANCH   3   4
ENDBRANCH   2   3
ENDBRANCH   1   2
BRANCH   1   8
ATOM      8  C   UNL     1     -35.122  -2.959  -9.016  1.00  0.00     0.072 C 
BRANCH   8   9
ATOM      9  C   UNL     1     -35.178  -3.898 -10.241  1.00  0.00     0.227 C 
BRANCH   9  10
ATOM     10  N   UNL     1     -36.248  -3.485 -11.157  1.00  0.00    -0.350 N 
ATOM     11  H   UNL     1     -36.018  -2.553 -11.573  1.00  0.00     0.345 HD
ATOM     12  H   UNL     1     -36.335  -4.176 -11.937  1.00  0.00     0.345 HD
ATOM     13  H   UNL     1     -37.161  -3.418 -10.652  1.00  0.00     0.345 HD
ENDBRANCH   9  10
BRANCH   9  14
ATOM     14  C   UNL     1     -35.391  -5.329  -9.818  1.00  0.00     0.099 C 
ATOM     15  O   UNL     1     -34.506  -6.195 -10.049  1.00  0.00    -0.544 OA
ATOM     16  O   UNL     1     -36.563  -5.702  -9.170  1.00  0.00    -0.544 OA
ENDBRANCH   9  14
ENDBRANCH   8   9
ENDBRANCH   1   8
TORSDOF 7
ENDMDL
MODEL 7
REMARK VINA RESULT:    -4.152      2.105      2.498
REMARK INTER + INTRA:          -6.120
REMARK INTER:                  -5.667
REMARK INTRA:                  -0.453
REMARK UNBOUND:                -0.511
REMARK SMILES [NH3+]CCCC[C@H]([NH3+])C(=O)[O-]
REMARK SMILES IDX 4 1 3 2 2 3 1 4 5 8 6 9 7 10 8 14 9 15 10 16
REMARK H PARENT 1 5 1 6 1 7 7 11 7 12 7 13
REMARK Flexibility Score: inf
ROOT
ATOM      1  C   UNL     1     -34.609  -3.112  -7.590  1.00  0.00     0.012 C 
ENDROOT
BRANCH   1   2
ATOM      2  C   UNL     1     -34.055  -4.433  -7.028  1.00  0.00     0.061 C 
BRANCH   2   3
ATOM      3  C   UNL     1     -34.789  -4.962  -5.781  1.00  0.00     0.258 C 
BRANCH   3   4
ATOM      4  N   UNL     1     -36.022  -5.676  -6.120  1.00  0.00    -0.358 N 
ATOM      5  H   UNL     1     -36.704  -4.999  -6.531  1.00  0.00     0.344 HD
ATOM      6  H   UNL     1     -36.448  -6.091  -5.260  1.00  0.00     0.344 HD
ATOM      7  H   UNL     1     -35.827  -6.427  -6.822  1.00  0.00     0.344 HD
ENDBRANCH   3   4
ENDBRANCH   2   3
ENDBRANCH   1   2
BRANCH   1   8
ATOM      8  C   UNL     1     -34.603  -3.066  -9.129  1.00  0.00     0.072 C 
BRANCH   8   9
ATOM      9  C   UNL     1     -34.921  -4.442  -9.755  1.00  0.00     0.227 C 
BRANCH   9  10
ATOM     10  N   UNL     1     -34.520  -4.468 -11.167  1.00  0.00    -0.350 N 
ATOM     11  H   UNL     1     -33.512  -4.204 -11.254  1.00  0.00     0.345 HD
ATOM     12  H   UNL     1     -34.638  -5.434 -11.552  1.00  0.00     0.345 HD
ATOM     13  H   UNL     1     -35.098  -3.801 -11.727  1.00  0.00     0.345 HD
ENDBRANCH   9  10
BRANCH   9  14
ATOM     14  C   UNL     1     -36.388  -4.766  -9.633  1.00  0.00     0.099 C 
ATOM     15  O   UNL     1     -36.761  -5.766  -8.965  1.00  0.00    -0.544 OA
ATOM     16  O   UNL     1     -37.338  -3.964 -10.255  1.00  0.00    -0.544 OA
ENDBRANCH   9  14
ENDBRANCH   8   9
ENDBRANCH   1   8
TORSDOF 7
ENDMDL
MODEL 8
REMARK VINA RESULT:    -4.138      2.171      4.198
REMARK INTER + INTRA:          -6.100
REMARK INTER:                  -5.584
REMARK INTRA:                  -0.516
REMARK UNBOUND:                -0.511
REMARK SMILES [NH3+]CCCC[C@H]([NH3+])C(=O)[O-]
REMARK SMILES IDX 4 1 3 2 2 3 1 4 5 8 6 9 7 10 8 14 9 15 10 16
REMARK H PARENT 1 5 1 6 1 7 7 11 7 12 7 13
REMARK Flexibility Score: inf
ROOT
ATOM      1  C   UNL     1     -34.607  -5.595 -10.083  1.00  0.00     0.012 C 
ENDROOT
BRANCH   1   2
ATOM      2  C   UNL     1     -36.111  -5.561 -10.408  1.00  0.00     0.061 C 
BRANCH   2   3
ATOM      3  C   UNL     1     -36.829  -4.257 -10.011  1.00  0.00     0.258 C 
BRANCH   3   4
ATOM      4  N   UNL     1     -35.967  -3.081 -10.154  1.00  0.00    -0.358 N 
ATOM      5  H   UNL     1     -36.563  -2.222 -10.152  1.00  0.00     0.344 HD
ATOM      6  H   UNL     1     -35.450  -3.119 -11.061  1.00  0.00     0.344 HD
ATOM      7  H   UNL     1     -35.292  -3.024  -9.357  1.00  0.00     0.344 HD
ENDBRANCH   3   4
ENDBRANCH   2   3
ENDBRANCH   1   2
BRANCH   1   8
ATOM      8  C   UNL     1     -34.318  -6.020  -8.633  1.00  0.00     0.072 C 
BRANCH   8   9
ATOM      9  C   UNL     1     -33.598  -4.913  -7.833  1.00  0.00     0.227 C 
BRANCH   9  10
ATOM     10  N   UNL     1     -32.533  -5.489  -7.002  1.00  0.00    -0.350 N 
ATOM     11  H   UNL     1     -32.930  -5.803  -6.086  1.00  0.00     0.345 HD
ATOM     12  H   UNL     1     -32.120  -6.322  -7.481  1.00  0.00     0.345 HD
ATOM     13  H   UNL     1     -31.781  -4.784  -6.825  1.00  0.00     0.345 HD
ENDBRANCH   9  10
BRANCH   9  14
ATOM     14  C   UNL     1     -34.568  -4.152  -6.966  1.00  0.00     0.099 C 
ATOM     15  O   UNL     1     -34.879  -2.967  -7.254  1.00  0.00    -0.544 OA
ATOM     16  O   UNL     1     -35.127  -4.753  -5.844  1.00  0.00    -0.544 OA
ENDBRANCH   9  14
ENDBRANCH   8   9
ENDBRANCH   1   8
TORSDOF 7
ENDMDL
MODEL 9
REMARK VINA RESULT:    -4.133      1.780      2.189
REMARK INTER + INTRA:          -6.093
REMARK INTER:                  -5.578
REMARK INTRA:                  -0.515
REMARK UNBOUND:                -0.511
REMARK SMILES [NH3+]CCCC[C@H]([NH3+])C(=O)[O-]
REMARK SMILES IDX 4 1 3 2 2 3 1 4 5 8 6 9 7 10 8 14 9 15 10 16
REMARK H PARENT 1 5 1 6 1 7 7 11 7 12 7 13
REMARK Flexibility Score: inf
ROOT
ATOM      1  C   UNL     1     -33.804  -6.135  -8.388  1.00  0.00     0.012 C 
ENDROOT
BRANCH   1   2
ATOM      2  C   UNL     1     -33.266  -5.176  -7.311  1.00  0.00     0.061 C 
BRANCH   2   3
ATOM      3  C   UNL     1     -34.336  -4.600  -6.365  1.00  0.00     0.258 C 
BRANCH   3   4
ATOM      4  N   UNL     1     -34.494  -3.151  -6.518  1.00  0.00    -0.358 N 
ATOM      5  H   UNL     1     -34.948  -2.955  -7.438  1.00  0.00     0.344 HD
ATOM      6  H   UNL     1     -33.560  -2.683  -6.506  1.00  0.00     0.344 HD
ATOM      7  H   UNL     1     -35.097  -2.767  -5.755  1.00  0.00     0.344 HD
ENDBRANCH   3   4
ENDBRANCH   2   3
ENDBRANCH   1   2
BRANCH   1   8
ATOM      8  C   UNL     1     -34.203  -5.413  -9.687  1.00  0.00     0.072 C 
BRANCH   8   9
ATOM      9  C   UNL     1     -35.724  -5.163  -9.773  1.00  0.00     0.227 C 
BRANCH   9  10
ATOM     10  N   UNL     1     -36.311  -5.942 -10.870  1.00  0.00    -0.350 N 
ATOM     11  H   UNL     1     -35.727  -6.790 -11.055  1.00  0.00     0.345 HD
ATOM     12  H   UNL     1     -37.272  -6.259 -10.607  1.00  0.00     0.345 HD
ATOM     13  H   UNL     1     -36.365  -5.367 -11.743  1.00  0.00     0.345 HD
ENDBRANCH   9  10
BRANCH   9  14
ATOM     14  C   UNL     1     -36.023  -3.699  -9.968  1.00  0.00     0.099 C 
ATOM     15  O   UNL     1     -35.379  -2.831  -9.322  1.00  0.00    -0.544 OA
ATOM     16  O   UNL     1     -37.010  -3.296 -10.860  1.00  0.00    -0.544 OA
ENDBRANCH   9  14
ENDBRANCH   8   9
ENDBRANCH   1   8
TORSDOF 7
ENDMDL
