MODEL 1
REMARK VINA RESULT:    10.555      0.000      0.000
REMARK INTER + INTRA:          13.340
REMARK INTER:                  13.023
REMARK INTRA:                   0.317
REMARK UNBOUND:                 0.317
REMARK SMILES Oc1cc(O)c2cc(O)c(-c3cc(O)c(O)c(O)c3)[o+]c2c1
REMARK SMILES IDX 10 1 20 2 21 3 22 4 2 5 3 6 4 7 6 8 7 9 8 10 11 11 12 12
REMARK SMILES IDX 13 13 19 14 15 15 17 16 14 17 16 19 18 21 9 23 1 25 5 27
REMARK H PARENT 14 18 16 20 18 22 9 24 1 26 5 28
REMARK Flexibility Score: inf
ROOT
ATOM      1  C   UNL     1      71.150  13.921  21.586  1.00  0.00     0.402 A 
ATOM      2  O   UNL     1      70.212  14.833  21.829  1.00  0.00    -0.202 OA
ATOM      3  C   UNL     1      68.988  14.527  22.245  1.00  0.00     0.368 A 
ATOM      4  C   UNL     1      68.070  15.557  22.470  1.00  0.00     0.162 A 
ATOM      5  C   UNL     1      66.776  15.265  22.904  1.00  0.00     0.128 A 
ATOM      6  C   UNL     1      66.394  13.935  23.114  1.00  0.00     0.093 A 
ATOM      7  C   UNL     1      67.296  12.886  22.895  1.00  0.00     0.136 A 
ATOM      8  C   UNL     1      68.613  13.179  22.456  1.00  0.00     0.125 A 
ATOM      9  C   UNL     1      69.587  12.193  22.223  1.00  0.00     0.078 A 
ATOM     10  C   UNL     1      70.866  12.559  21.796  1.00  0.00     0.223 A 
ENDROOT
BRANCH   1  11
ATOM     11  C   UNL     1      72.475  14.387  21.115  1.00  0.00     0.091 A 
ATOM     12  C   UNL     1      73.618  13.577  21.227  1.00  0.00     0.068 A 
ATOM     13  C   UNL     1      74.859  14.028  20.755  1.00  0.00     0.162 A 
ATOM     14  C   UNL     1      72.585  15.642  20.495  1.00  0.00     0.068 A 
ATOM     15  C   UNL     1      74.962  15.294  20.156  1.00  0.00     0.200 A 
ATOM     16  C   UNL     1      73.823  16.097  20.024  1.00  0.00     0.162 A 
BRANCH  13  17
ATOM     17  O   UNL     1      75.988  13.218  20.875  1.00  0.00    -0.504 OA
ATOM     18  H   UNL     1      76.869  13.582  21.220  1.00  0.00     0.293 HD
ENDBRANCH  13  17
BRANCH  15  19
ATOM     19  O   UNL     1      76.187  15.766  19.683  1.00  0.00    -0.502 OA
ATOM     20  H   UNL     1      76.895  15.145  19.309  1.00  0.00     0.293 HD
ENDBRANCH  15  19
BRANCH  16  21
ATOM     21  O   UNL     1      73.929  17.350  19.422  1.00  0.00    -0.504 OA
ATOM     22  H   UNL     1      74.111  18.186  19.965  1.00  0.00     0.293 HD
ENDBRANCH  16  21
ENDBRANCH   1  11
BRANCH  10  23
ATOM     23  O   UNL     1      71.849  11.585  21.613  1.00  0.00    -0.500 OA
ATOM     24  H   UNL     1      71.777  10.669  22.042  1.00  0.00     0.294 HD
ENDBRANCH  10  23
BRANCH   5  25
ATOM     25  O   UNL     1      65.875  16.304  23.124  1.00  0.00    -0.507 OA
ATOM     26  H   UNL     1      65.174  16.553  22.435  1.00  0.00     0.293 HD
ENDBRANCH   5  25
BRANCH   7  27
ATOM     27  O   UNL     1      66.837  11.585  23.124  1.00  0.00    -0.507 OA
ATOM     28  H   UNL     1      65.906  11.357  23.443  1.00  0.00     0.293 HD
ENDBRANCH   7  27
TORSDOF 7
ENDMDL
MODEL 2
REMARK VINA RESULT:    11.037      0.176      1.797
REMARK INTER + INTRA:          13.934
REMARK INTER:                  13.590
REMARK INTRA:                   0.345
REMARK UNBOUND:                 0.317
REMARK SMILES Oc1cc(O)c2cc(O)c(-c3cc(O)c(O)c(O)c3)[o+]c2c1
REMARK SMILES IDX 10 1 20 2 21 3 22 4 2 5 3 6 4 7 6 8 7 9 8 10 11 11 12 12
REMARK SMILES IDX 13 13 19 14 15 15 17 16 14 17 16 19 18 21 9 23 1 25 5 27
REMARK H PARENT 14 18 16 20 18 22 9 24 1 26 5 28
REMARK Flexibility Score: inf
ROOT
ATOM      1  C   UNL     1      71.093  14.059  21.453  1.00  0.00     0.402 A 
ATOM      2  O   UNL     1      70.167  14.977  21.717  1.00  0.00    -0.202 OA
ATOM      3  C   UNL     1      68.953  14.680  22.168  1.00  0.00     0.368 A 
ATOM      4  C   UNL     1      68.047  15.716  22.413  1.00  0.00     0.162 A 
ATOM      5  C   UNL     1      66.765  15.434  22.885  1.00  0.00     0.128 A 
ATOM      6  C   UNL     1      66.382  14.107  23.113  1.00  0.00     0.093 A 
ATOM      7  C   UNL     1      67.272  13.052  22.875  1.00  0.00     0.136 A 
ATOM      8  C   UNL     1      68.577  13.335  22.398  1.00  0.00     0.125 A 
ATOM      9  C   UNL     1      69.539  12.343  22.144  1.00  0.00     0.078 A 
ATOM     10  C   UNL     1      70.808  12.699  21.678  1.00  0.00     0.223 A 
ENDROOT
BRANCH   1  11
ATOM     11  C   UNL     1      72.406  14.515  20.943  1.00  0.00     0.091 A 
ATOM     12  C   UNL     1      72.556  15.769  20.325  1.00  0.00     0.068 A 
ATOM     13  C   UNL     1      73.813  16.191  19.868  1.00  0.00     0.162 A 
ATOM     14  C   UNL     1      73.538  13.704  21.127  1.00  0.00     0.068 A 
ATOM     15  C   UNL     1      74.935  15.363  20.038  1.00  0.00     0.200 A 
ATOM     16  C   UNL     1      74.795  14.122  20.671  1.00  0.00     0.162 A 
BRANCH  13  17
ATOM     17  O   UNL     1      73.950  17.435  19.252  1.00  0.00    -0.504 OA
ATOM     18  H   UNL     1      73.860  18.300  19.773  1.00  0.00     0.293 HD
ENDBRANCH  13  17
BRANCH  15  19
ATOM     19  O   UNL     1      76.194  15.760  19.589  1.00  0.00    -0.502 OA
ATOM     20  H   UNL     1      76.347  16.106  18.649  1.00  0.00     0.293 HD
ENDBRANCH  15  19
BRANCH  16  21
ATOM     21  O   UNL     1      75.912  13.307  20.844  1.00  0.00    -0.504 OA
ATOM     22  H   UNL     1      76.645  13.543  21.504  1.00  0.00     0.293 HD
ENDBRANCH  16  21
ENDBRANCH   1  11
BRANCH  10  23
ATOM     23  O   UNL     1      71.779  11.719  21.474  1.00  0.00    -0.500 OA
ATOM     24  H   UNL     1      71.536  10.740  21.376  1.00  0.00     0.294 HD
ENDBRANCH  10  23
BRANCH   5  25
ATOM     25  O   UNL     1      65.876  16.480  23.124  1.00  0.00    -0.507 OA
ATOM     26  H   UNL     1      64.874  16.355  23.034  1.00  0.00     0.293 HD
ENDBRANCH   5  25
BRANCH   7  27
ATOM     27  O   UNL     1      66.812  11.756  23.125  1.00  0.00    -0.507 OA
ATOM     28  H   UNL     1      66.799  11.013  22.439  1.00  0.00     0.293 HD
ENDBRANCH   7  27
TORSDOF 7
ENDMDL
MODEL 3
REMARK VINA RESULT:    11.352      1.090      7.036
REMARK INTER + INTRA:          14.324
REMARK INTER:                  13.945
REMARK INTRA:                   0.379
REMARK UNBOUND:                 0.317
REMARK SMILES Oc1cc(O)c2cc(O)c(-c3cc(O)c(O)c(O)c3)[o+]c2c1
REMARK SMILES IDX 10 1 20 2 21 3 22 4 2 5 3 6 4 7 6 8 7 9 8 10 11 11 12 12
REMARK SMILES IDX 13 13 19 14 15 15 17 16 14 17 16 19 18 21 9 23 1 25 5 27
REMARK H PARENT 14 18 16 20 18 22 9 24 1 26 5 28
REMARK Flexibility Score: inf
ROOT
ATOM      1  C   UNL     1      71.157  14.197  21.474  1.00  0.00     0.402 A 
ATOM      2  O   UNL     1      71.374  15.381  20.906  1.00  0.00    -0.202 OA
ATOM      3  C   UNL     1      72.568  15.776  20.477  1.00  0.00     0.368 A 
ATOM      4  C   UNL     1      72.697  17.040  19.896  1.00  0.00     0.162 A 
ATOM      5  C   UNL     1      73.940  17.483  19.439  1.00  0.00     0.128 A 
ATOM      6  C   UNL     1      75.063  16.657  19.564  1.00  0.00     0.093 A 
ATOM      7  C   UNL     1      74.959  15.386  20.142  1.00  0.00     0.136 A 
ATOM      8  C   UNL     1      73.697  14.932  20.606  1.00  0.00     0.125 A 
ATOM      9  C   UNL     1      73.497  13.668  21.187  1.00  0.00     0.078 A 
ATOM     10  C   UNL     1      72.222  13.288  21.616  1.00  0.00     0.223 A 
ENDROOT
BRANCH   1  11
ATOM     11  C   UNL     1      69.782  13.877  21.921  1.00  0.00     0.091 A 
ATOM     12  C   UNL     1      68.815  14.883  22.093  1.00  0.00     0.068 A 
ATOM     13  C   UNL     1      67.512  14.557  22.496  1.00  0.00     0.162 A 
ATOM     14  C   UNL     1      69.417  12.537  22.126  1.00  0.00     0.068 A 
ATOM     15  C   UNL     1      67.164  13.215  22.720  1.00  0.00     0.200 A 
ATOM     16  C   UNL     1      68.117  12.206  22.530  1.00  0.00     0.162 A 
BRANCH  13  17
ATOM     17  O   UNL     1      66.562  15.563  22.669  1.00  0.00    -0.504 OA
ATOM     18  H   UNL     1      66.829  16.511  22.909  1.00  0.00     0.293 HD
ENDBRANCH  13  17
BRANCH  15  19
ATOM     19  O   UNL     1      65.875  12.866  23.125  1.00  0.00    -0.502 OA
ATOM     20  H   UNL     1      65.387  12.067  22.739  1.00  0.00     0.293 HD
ENDBRANCH  15  19
BRANCH  16  21
ATOM     21  O   UNL     1      67.764  10.875  22.746  1.00  0.00    -0.504 OA
ATOM     22  H   UNL     1      67.546  10.528  23.672  1.00  0.00     0.293 HD
ENDBRANCH  16  21
ENDBRANCH   1  11
BRANCH  10  23
ATOM     23  O   UNL     1      72.012  12.015  22.147  1.00  0.00    -0.500 OA
ATOM     24  H   UNL     1      71.338  11.375  21.745  1.00  0.00     0.294 HD
ENDBRANCH  10  23
BRANCH   5  25
ATOM     25  O   UNL     1      74.049  18.746  18.863  1.00  0.00    -0.507 OA
ATOM     26  H   UNL     1      74.185  19.576  19.427  1.00  0.00     0.293 HD
ENDBRANCH   5  25
BRANCH   7  27
ATOM     27  O   UNL     1      76.127  14.623  20.233  1.00  0.00    -0.507 OA
ATOM     28  H   UNL     1      76.441  13.974  19.526  1.00  0.00     0.293 HD
ENDBRANCH   7  27
TORSDOF 7
ENDMDL
MODEL 4
REMARK VINA RESULT:    11.568      1.098      6.814
REMARK INTER + INTRA:          14.589
REMARK INTER:                  14.247
REMARK INTRA:                   0.342
REMARK UNBOUND:                 0.317
REMARK SMILES Oc1cc(O)c2cc(O)c(-c3cc(O)c(O)c(O)c3)[o+]c2c1
REMARK SMILES IDX 10 1 20 2 21 3 22 4 2 5 3 6 4 7 6 8 7 9 8 10 11 11 12 12
REMARK SMILES IDX 13 13 19 14 15 15 17 16 14 17 16 19 18 21 9 23 1 25 5 27
REMARK H PARENT 14 18 16 20 18 22 9 24 1 26 5 28
REMARK Flexibility Score: inf
ROOT
ATOM      1  C   UNL     1      71.177  14.163  21.439  1.00  0.00     0.402 A 
ATOM      2  O   UNL     1      71.396  15.362  20.904  1.00  0.00    -0.202 OA
ATOM      3  C   UNL     1      72.593  15.774  20.501  1.00  0.00     0.368 A 
ATOM      4  C   UNL     1      72.722  17.053  19.954  1.00  0.00     0.162 A 
ATOM      5  C   UNL     1      73.968  17.513  19.525  1.00  0.00     0.128 A 
ATOM      6  C   UNL     1      75.094  16.691  19.644  1.00  0.00     0.093 A 
ATOM      7  C   UNL     1      74.990  15.405  20.189  1.00  0.00     0.136 A 
ATOM      8  C   UNL     1      73.725  14.933  20.624  1.00  0.00     0.125 A 
ATOM      9  C   UNL     1      73.524  13.654  21.171  1.00  0.00     0.078 A 
ATOM     10  C   UNL     1      72.246  13.257  21.573  1.00  0.00     0.223 A 
ENDROOT
BRANCH   1  11
ATOM     11  C   UNL     1      69.799  13.825  21.860  1.00  0.00     0.091 A 
ATOM     12  C   UNL     1      69.414  12.496  22.106  1.00  0.00     0.068 A 
ATOM     13  C   UNL     1      68.109  12.198  22.525  1.00  0.00     0.162 A 
ATOM     14  C   UNL     1      68.869  14.855  22.072  1.00  0.00     0.068 A 
ATOM     15  C   UNL     1      67.180  13.235  22.712  1.00  0.00     0.200 A 
ATOM     16  C   UNL     1      67.563  14.563  22.489  1.00  0.00     0.162 A 
BRANCH  13  17
ATOM     17  O   UNL     1      67.736  10.875  22.761  1.00  0.00    -0.504 OA
ATOM     18  H   UNL     1      68.424  10.138  22.859  1.00  0.00     0.293 HD
ENDBRANCH  13  17
BRANCH  15  19
ATOM     19  O   UNL     1      65.875  12.963  23.125  1.00  0.00    -0.502 OA
ATOM     20  H   UNL     1      65.086  13.516  22.815  1.00  0.00     0.293 HD
ENDBRANCH  15  19
BRANCH  16  21
ATOM     21  O   UNL     1      66.640  15.589  22.683  1.00  0.00    -0.504 OA
ATOM     22  H   UNL     1      66.792  16.315  23.374  1.00  0.00     0.293 HD
ENDBRANCH  16  21
ENDBRANCH   1  11
BRANCH  10  23
ATOM     23  O   UNL     1      72.036  11.970  22.069  1.00  0.00    -0.500 OA
ATOM     24  H   UNL     1      72.772  11.272  22.068  1.00  0.00     0.294 HD
ENDBRANCH  10  23
BRANCH   5  25
ATOM     25  O   UNL     1      74.078  18.791  18.982  1.00  0.00    -0.507 OA
ATOM     26  H   UNL     1      74.025  19.621  19.562  1.00  0.00     0.293 HD
ENDBRANCH   5  25
BRANCH   7  27
ATOM     27  O   UNL     1      76.161  14.647  20.277  1.00  0.00    -0.507 OA
ATOM     28  H   UNL     1      76.245  13.689  19.967  1.00  0.00     0.293 HD
ENDBRANCH   7  27
TORSDOF 7
ENDMDL
MODEL 5
REMARK VINA RESULT:    13.152     16.211     19.085
REMARK INTER + INTRA:          16.545
REMARK INTER:                  16.419
REMARK INTRA:                   0.126
REMARK UNBOUND:                 0.317
REMARK SMILES Oc1cc(O)c2cc(O)c(-c3cc(O)c(O)c(O)c3)[o+]c2c1
REMARK SMILES IDX 10 1 20 2 21 3 22 4 2 5 3 6 4 7 6 8 7 9 8 10 11 11 12 12
REMARK SMILES IDX 13 13 19 14 15 15 17 16 14 17 16 19 18 21 9 23 1 25 5 27
REMARK H PARENT 14 18 16 20 18 22 9 24 1 26 5 28
REMARK Flexibility Score: inf
ROOT
ATOM      1  C   UNL     1      77.338  25.104   7.484  1.00  0.00     0.402 A 
ATOM      2  O   UNL     1      76.627  24.169   6.858  1.00  0.00    -0.202 OA
ATOM      3  C   UNL     1      75.456  23.725   7.301  1.00  0.00     0.368 A 
ATOM      4  C   UNL     1      74.785  22.737   6.575  1.00  0.00     0.162 A 
ATOM      5  C   UNL     1      73.555  22.249   7.018  1.00  0.00     0.128 A 
ATOM      6  C   UNL     1      72.990  22.750   8.196  1.00  0.00     0.093 A 
ATOM      7  C   UNL     1      73.643  23.740   8.942  1.00  0.00     0.136 A 
ATOM      8  C   UNL     1      74.893  24.240   8.493  1.00  0.00     0.125 A 
ATOM      9  C   UNL     1      75.612  25.240   9.169  1.00  0.00     0.078 A 
ATOM     10  C   UNL     1      76.836  25.686   8.663  1.00  0.00     0.223 A 
ENDROOT
BRANCH   1  11
ATOM     11  C   UNL     1      78.636  25.508   6.896  1.00  0.00     0.091 A 
ATOM     12  C   UNL     1      79.715  25.903   7.705  1.00  0.00     0.068 A 
ATOM     13  C   UNL     1      80.943  26.261   7.129  1.00  0.00     0.162 A 
ATOM     14  C   UNL     1      78.812  25.444   5.504  1.00  0.00     0.068 A 
ATOM     15  C   UNL     1      81.102  26.215   5.734  1.00  0.00     0.200 A 
ATOM     16  C   UNL     1      80.036  25.802   4.924  1.00  0.00     0.162 A 
BRANCH  13  17
ATOM     17  O   UNL     1      82.006  26.657   7.940  1.00  0.00    -0.504 OA
ATOM     18  H   UNL     1      82.036  26.425   8.927  1.00  0.00     0.293 HD
ENDBRANCH  13  17
BRANCH  15  19
ATOM     19  O   UNL     1      82.312  26.570   5.139  1.00  0.00    -0.502 OA
ATOM     20  H   UNL     1      82.774  25.975   4.460  1.00  0.00     0.293 HD
ENDBRANCH  15  19
BRANCH  16  21
ATOM     21  O   UNL     1      80.202  25.751   3.541  1.00  0.00    -0.504 OA
ATOM     22  H   UNL     1      80.965  26.233   3.080  1.00  0.00     0.293 HD
ENDBRANCH  16  21
ENDBRANCH   1  11
BRANCH  10  23
ATOM     23  O   UNL     1      77.527  26.714   9.306  1.00  0.00    -0.500 OA
ATOM     24  H   UNL     1      78.524  26.844   9.182  1.00  0.00     0.294 HD
ENDBRANCH  10  23
BRANCH   5  25
ATOM     25  O   UNL     1      72.901  21.266   6.280  1.00  0.00    -0.507 OA
ATOM     26  H   UNL     1      73.401  20.668   5.633  1.00  0.00     0.293 HD
ENDBRANCH   5  25
BRANCH   7  27
ATOM     27  O   UNL     1      73.015  24.185  10.109  1.00  0.00    -0.507 OA
ATOM     28  H   UNL     1      72.502  23.589  10.744  1.00  0.00     0.293 HD
ENDBRANCH   7  27
TORSDOF 7
ENDMDL
