MODEL 1
REMARK VINA RESULT:     5.739      0.000      0.000
REMARK INTER + INTRA:           8.023
REMARK INTER:                   7.081
REMARK INTRA:                   0.942
REMARK UNBOUND:                 0.942
REMARK SMILES C=C1CC[C@H]2[C@@H]1[C@H]1[C@H](CC[C@H]2C)C1(C)C
REMARK SMILES IDX 6 1 5 2 4 3 3 4 2 5 1 6 11 7 12 8 10 9 7 11 8 12 13 13 14 14
REMARK SMILES IDX 15 15 9 16
REMARK H PARENT
REMARK Flexibility Score: 80.00
ROOT
ATOM      1  C   UNL     1       4.819   7.077  12.378  1.00  0.00     0.022 C 
ATOM      2  C   UNL     1       5.079   5.546  12.192  1.00  0.00    -0.000 C 
ATOM      3  C   UNL     1       3.749   4.875  12.594  1.00  0.00     0.009 C 
ATOM      4  C   UNL     1       3.064   5.804  13.591  1.00  0.00     0.031 C 
ATOM      5  C   UNL     1       3.675   7.136  13.337  1.00  0.00    -0.074 C 
ATOM      6  C   UNL     1       3.188   8.270  13.854  1.00  0.00     0.008 C 
ENDROOT
BRANCH   2   7
ATOM      7  C   UNL     1       6.309   4.875  12.927  1.00  0.00    -0.011 C 
ATOM      8  C   UNL     1       6.246   4.883  14.469  1.00  0.00     0.008 C 
BRANCH   7   9
ATOM      9  C   UNL     1       7.721   5.253  12.375  1.00  0.00     0.004 CG0
ATOM     10  G   UNL     1       8.176   6.713  12.570  1.00  0.00     0.000 G0
ENDBRANCH   7   9
ENDBRANCH   2   7
BRANCH   1  11
ATOM     11  C   UNL     1       6.040   7.848  12.895  1.00  0.00     0.006 C 
ATOM     12  C   UNL     1       7.179   7.625  11.883  1.00  0.00    -0.001 C 
ATOM     13  C   UNL     1       6.752   9.039  12.256  1.00  0.00    -0.029 C 
ATOM     14  C   UNL     1       7.711   9.831  13.153  1.00  0.00     0.012 C 
ATOM     15  C   UNL     1       5.967   9.832  11.203  1.00  0.00     0.012 C 
BRANCH  12  16
ATOM     16  C   UNL     1       8.181   6.708  12.576  1.00  0.00     0.005 CG0
ATOM     17  G   UNL     1       7.717   5.252  12.380  1.00  0.00     0.000 G0
ENDBRANCH  12  16
ENDBRANCH   1  11
TORSDOF 0
ENDMDL
MODEL 2
REMARK VINA RESULT:     8.207      1.197      3.863
REMARK INTER + INTRA:          11.068
REMARK INTER:                  10.130
REMARK INTRA:                   0.938
REMARK UNBOUND:                 0.942
REMARK SMILES C=C1CC[C@H]2[C@@H]1[C@H]1[C@H](CC[C@H]2C)C1(C)C
REMARK SMILES IDX 6 1 5 2 4 3 3 4 2 5 1 6 11 7 12 8 10 9 7 11 8 12 13 13 14 14
REMARK SMILES IDX 15 15 9 16
REMARK H PARENT
REMARK Flexibility Score: 80.00
ROOT
ATOM      1  C   UNL     1       5.772   8.159  12.967  1.00  0.00     0.022 C 
ATOM      2  C   UNL     1       7.190   7.820  13.534  1.00  0.00    -0.000 C 
ATOM      3  C   UNL     1       8.118   8.892  12.926  1.00  0.00     0.009 C 
ATOM      4  C   UNL     1       7.491   9.328  11.605  1.00  0.00     0.031 C 
ATOM      5  C   UNL     1       6.056   8.957  11.736  1.00  0.00    -0.074 C 
ATOM      6  C   UNL     1       5.117   9.371  10.876  1.00  0.00     0.008 C 
ENDROOT
BRANCH   2   7
ATOM      7  C   UNL     1       7.778   6.365  13.329  1.00  0.00    -0.011 C 
ATOM      8  C   UNL     1       8.067   5.966  11.868  1.00  0.00     0.008 C 
BRANCH   7   9
ATOM      9  C   UNL     1       7.080   5.229  14.143  1.00  0.00     0.004 CG0
ATOM     10  G   UNL     1       5.623   4.896  13.766  1.00  0.00     0.000 G0
ENDBRANCH   7   9
ENDBRANCH   2   7
BRANCH   1  11
ATOM     11  C   UNL     1       4.922   6.919  12.662  1.00  0.00     0.006 C 
ATOM     12  C   UNL     1       4.791   6.125  13.974  1.00  0.00    -0.001 C 
ATOM     13  C   UNL     1       3.544   6.554  13.212  1.00  0.00    -0.029 C 
ATOM     14  C   UNL     1       2.778   5.450  12.473  1.00  0.00     0.012 C 
ATOM     15  C   UNL     1       2.715   7.694  13.817  1.00  0.00     0.012 C 
BRANCH  12  16
ATOM     16  C   UNL     1       5.647   4.876  13.793  1.00  0.00     0.005 CG0
ATOM     17  G   UNL     1       7.102   5.232  14.157  1.00  0.00     0.000 G0
ENDBRANCH  12  16
ENDBRANCH   1  11
TORSDOF 0
ENDMDL
MODEL 3
REMARK VINA RESULT:     8.603      1.575      2.622
REMARK INTER + INTRA:          11.557
REMARK INTER:                  10.642
REMARK INTRA:                   0.916
REMARK UNBOUND:                 0.942
REMARK SMILES C=C1CC[C@H]2[C@@H]1[C@H]1[C@H](CC[C@H]2C)C1(C)C
REMARK SMILES IDX 6 1 5 2 4 3 3 4 2 5 1 6 11 7 12 8 10 9 7 11 8 12 13 13 14 14
REMARK SMILES IDX 15 15 9 16
REMARK H PARENT
REMARK Flexibility Score: 80.00
ROOT
ATOM      1  C   UNL     1       6.241   7.878  11.936  1.00  0.00     0.022 C 
ATOM      2  C   UNL     1       5.353   6.602  11.775  1.00  0.00    -0.000 C 
ATOM      3  C   UNL     1       4.182   7.054  10.878  1.00  0.00     0.009 C 
ATOM      4  C   UNL     1       3.998   8.551  11.106  1.00  0.00     0.031 C 
ATOM      5  C   UNL     1       5.309   9.008  11.641  1.00  0.00    -0.074 C 
ATOM      6  C   UNL     1       5.633  10.301  11.763  1.00  0.00     0.008 C 
ENDROOT
BRANCH   2   7
ATOM      7  C   UNL     1       4.833   5.852  13.068  1.00  0.00    -0.011 C 
ATOM      8  C   UNL     1       3.857   6.655  13.953  1.00  0.00     0.008 C 
BRANCH   7   9
ATOM      9  C   UNL     1       5.918   5.091  13.896  1.00  0.00     0.004 CG0
ATOM     10  G   UNL     1       6.994   5.950  14.589  1.00  0.00     0.000 G0
ENDBRANCH   7   9
ENDBRANCH   2   7
BRANCH   1  11
ATOM     11  C   UNL     1       6.880   8.010  13.325  1.00  0.00     0.006 C 
ATOM     12  C   UNL     1       7.733   6.749  13.552  1.00  0.00    -0.001 C 
ATOM     13  C   UNL     1       8.361   8.132  13.681  1.00  0.00    -0.029 C 
ATOM     14  C   UNL     1       8.689   8.606  15.102  1.00  0.00     0.012 C 
ATOM     15  C   UNL     1       9.309   8.575  12.560  1.00  0.00     0.012 C 
BRANCH  12  16
ATOM     16  C   UNL     1       6.993   5.927  14.601  1.00  0.00     0.005 CG0
ATOM     17  G   UNL     1       5.903   5.104  13.887  1.00  0.00     0.000 G0
ENDBRANCH  12  16
ENDBRANCH   1  11
TORSDOF 0
ENDMDL
