MODEL 1
REMARK VINA RESULT:    -6.486      0.000      0.000
REMARK INTER + INTRA:          -7.244
REMARK INTER:                  -7.244
REMARK INTRA:                   0.000
REMARK UNBOUND:                 0.000
REMARK SMILES Oc1cc(O)c2c(c1)CCc1cc(O)c(O)cc1-2
REMARK SMILES IDX 10 1 9 2 7 3 6 4 18 5 17 6 15 7 13 8 12 9 11 10 4 11 3 12
REMARK SMILES IDX 2 13 8 14 14 15 5 17 1 19 16 21
REMARK H PARENT 14 16 5 18 1 20 16 22
REMARK Flexibility Score: inf
ROOT
ATOM      1  C   UNL     1      48.297  47.030  35.987  1.00  0.00     0.041 C 
ATOM      2  C   UNL     1      48.199  46.942  34.457  1.00  0.00     0.041 C 
ATOM      3  C   UNL     1      48.132  45.502  34.007  1.00  0.00    -0.032 A 
ATOM      4  C   UNL     1      48.817  44.499  34.734  1.00  0.00     0.027 A 
ATOM      5  C   UNL     1      49.697  44.935  35.861  1.00  0.00    -0.007 A 
ATOM      6  C   UNL     1      50.861  44.231  36.221  1.00  0.00     0.059 A 
ATOM      7  C   UNL     1      51.673  44.679  37.273  1.00  0.00     0.158 A 
ATOM      8  C   UNL     1      51.349  45.866  37.948  1.00  0.00     0.157 A 
ATOM      9  C   UNL     1      50.239  46.613  37.545  1.00  0.00     0.054 A 
ATOM     10  C   UNL     1      49.436  46.176  36.482  1.00  0.00    -0.036 A 
ATOM     11  C   UNL     1      48.616  43.141  34.373  1.00  0.00     0.127 A 
ATOM     12  C   UNL     1      47.925  42.830  33.197  1.00  0.00     0.093 A 
ATOM     13  C   UNL     1      47.338  43.840  32.427  1.00  0.00     0.119 A 
ATOM     14  C   UNL     1      47.426  45.168  32.843  1.00  0.00     0.050 A 
ENDROOT
BRANCH   8  15
ATOM     15  O   UNL     1      52.128  46.327  39.009  1.00  0.00    -0.504 OA
ATOM     16  H   UNL     1      52.272  47.315  39.181  1.00  0.00     0.293 HD
ENDBRANCH   8  15
BRANCH  11  17
ATOM     17  O   UNL     1      49.027  42.078  35.181  1.00  0.00    -0.507 OA
ATOM     18  H   UNL     1      49.368  41.204  34.804  1.00  0.00     0.293 HD
ENDBRANCH  11  17
BRANCH  13  19
ATOM     19  O   UNL     1      46.646  43.529  31.258  1.00  0.00    -0.508 OA
ATOM     20  H   UNL     1      45.640  43.402  31.255  1.00  0.00     0.293 HD
ENDBRANCH  13  19
BRANCH   7  21
ATOM     21  O   UNL     1      52.806  43.954  37.641  1.00  0.00    -0.504 OA
ATOM     22  H   UNL     1      53.309  44.153  38.497  1.00  0.00     0.293 HD
ENDBRANCH   7  21
TORSDOF 4
ENDMDL
MODEL 2
REMARK VINA RESULT:    -6.361      1.167      5.539
REMARK INTER + INTRA:          -7.105
REMARK INTER:                  -7.105
REMARK INTRA:                   0.000
REMARK UNBOUND:                 0.000
REMARK SMILES Oc1cc(O)c2c(c1)CCc1cc(O)c(O)cc1-2
REMARK SMILES IDX 10 1 9 2 7 3 6 4 18 5 17 6 15 7 13 8 12 9 11 10 4 11 3 12
REMARK SMILES IDX 2 13 8 14 14 15 5 17 1 19 16 21
REMARK H PARENT 14 16 5 18 1 20 16 22
REMARK Flexibility Score: inf
ROOT
ATOM      1  C   UNL     1      48.585  47.451  35.061  1.00  0.00     0.041 C 
ATOM      2  C   UNL     1      48.625  47.892  36.531  1.00  0.00     0.041 C 
ATOM      3  C   UNL     1      49.811  47.281  37.240  1.00  0.00    -0.032 A 
ATOM      4  C   UNL     1      50.275  45.996  36.870  1.00  0.00     0.027 A 
ATOM      5  C   UNL     1      49.476  45.232  35.862  1.00  0.00    -0.007 A 
ATOM      6  C   UNL     1      49.399  43.827  35.875  1.00  0.00     0.059 A 
ATOM      7  C   UNL     1      48.625  43.143  34.925  1.00  0.00     0.158 A 
ATOM      8  C   UNL     1      47.884  43.866  33.978  1.00  0.00     0.157 A 
ATOM      9  C   UNL     1      47.893  45.263  34.009  1.00  0.00     0.054 A 
ATOM     10  C   UNL     1      48.651  45.948  34.969  1.00  0.00    -0.036 A 
ATOM     11  C   UNL     1      51.476  45.513  37.451  1.00  0.00     0.127 A 
ATOM     12  C   UNL     1      52.060  46.208  38.515  1.00  0.00     0.093 A 
ATOM     13  C   UNL     1      51.532  47.431  38.944  1.00  0.00     0.119 A 
ATOM     14  C   UNL     1      50.424  47.973  38.294  1.00  0.00     0.050 A 
ENDROOT
BRANCH   8  15
ATOM     15  O   UNL     1      47.119  43.214  33.011  1.00  0.00    -0.504 OA
ATOM     16  H   UNL     1      47.460  42.400  32.515  1.00  0.00     0.293 HD
ENDBRANCH   8  15
BRANCH  11  17
ATOM     17  O   UNL     1      52.151  44.392  36.964  1.00  0.00    -0.507 OA
ATOM     18  H   UNL     1      52.811  44.439  36.199  1.00  0.00     0.293 HD
ENDBRANCH  11  17
BRANCH  13  19
ATOM     19  O   UNL     1      52.118  48.125  40.000  1.00  0.00    -0.508 OA
ATOM     20  H   UNL     1      51.585  48.769  40.573  1.00  0.00     0.293 HD
ENDBRANCH  13  19
BRANCH   7  21
ATOM     21  O   UNL     1      48.583  41.750  34.929  1.00  0.00    -0.504 OA
ATOM     22  H   UNL     1      48.941  41.210  35.707  1.00  0.00     0.293 HD
ENDBRANCH   7  21
TORSDOF 4
ENDMDL
MODEL 3
REMARK VINA RESULT:    -6.225      2.234      5.811
REMARK INTER + INTRA:          -6.953
REMARK INTER:                  -6.953
REMARK INTRA:                   0.000
REMARK UNBOUND:                 0.000
REMARK SMILES Oc1cc(O)c2c(c1)CCc1cc(O)c(O)cc1-2
REMARK SMILES IDX 10 1 9 2 7 3 6 4 18 5 17 6 15 7 13 8 12 9 11 10 4 11 3 12
REMARK SMILES IDX 2 13 8 14 14 15 5 17 1 19 16 21
REMARK H PARENT 14 16 5 18 1 20 16 22
REMARK Flexibility Score: inf
ROOT
ATOM      1  C   UNL     1      50.184  44.009  36.267  1.00  0.00     0.041 C 
ATOM      2  C   UNL     1      51.322  45.005  36.005  1.00  0.00     0.041 C 
ATOM      3  C   UNL     1      50.774  46.390  35.754  1.00  0.00    -0.032 A 
ATOM      4  C   UNL     1      49.524  46.552  35.108  1.00  0.00     0.027 A 
ATOM      5  C   UNL     1      48.851  45.326  34.578  1.00  0.00    -0.007 A 
ATOM      6  C   UNL     1      48.034  45.354  33.433  1.00  0.00     0.059 A 
ATOM      7  C   UNL     1      47.433  44.181  32.953  1.00  0.00     0.158 A 
ATOM      8  C   UNL     1      47.681  42.957  33.593  1.00  0.00     0.157 A 
ATOM      9  C   UNL     1      48.554  42.909  34.683  1.00  0.00     0.054 A 
ATOM     10  C   UNL     1      49.171  44.077  35.153  1.00  0.00    -0.036 A 
ATOM     11  C   UNL     1      48.969  47.855  35.018  1.00  0.00     0.127 A 
ATOM     12  C   UNL     1      49.743  48.965  35.374  1.00  0.00     0.093 A 
ATOM     13  C   UNL     1      51.022  48.798  35.917  1.00  0.00     0.119 A 
ATOM     14  C   UNL     1      51.525  47.514  36.124  1.00  0.00     0.050 A 
ENDROOT
BRANCH   8  15
ATOM     15  O   UNL     1      47.083  41.778  33.150  1.00  0.00    -0.504 OA
ATOM     16  H   UNL     1      47.110  41.494  32.179  1.00  0.00     0.293 HD
ENDBRANCH   8  15
BRANCH  11  17
ATOM     17  O   UNL     1      47.643  48.085  34.645  1.00  0.00    -0.507 OA
ATOM     18  H   UNL     1      47.043  47.356  34.282  1.00  0.00     0.293 HD
ENDBRANCH  11  17
BRANCH  13  19
ATOM     19  O   UNL     1      51.789  49.904  36.276  1.00  0.00    -0.508 OA
ATOM     20  H   UNL     1      52.524  49.838  36.970  1.00  0.00     0.293 HD
ENDBRANCH  13  19
BRANCH   7  21
ATOM     21  O   UNL     1      46.599  44.228  31.837  1.00  0.00    -0.504 OA
ATOM     22  H   UNL     1      46.659  43.537  31.099  1.00  0.00     0.293 HD
ENDBRANCH   7  21
TORSDOF 4
ENDMDL
MODEL 4
REMARK VINA RESULT:    -6.219      1.441      5.728
REMARK INTER + INTRA:          -6.946
REMARK INTER:                  -6.946
REMARK INTRA:                   0.000
REMARK UNBOUND:                 0.000
REMARK SMILES Oc1cc(O)c2c(c1)CCc1cc(O)c(O)cc1-2
REMARK SMILES IDX 10 1 9 2 7 3 6 4 18 5 17 6 15 7 13 8 12 9 11 10 4 11 3 12
REMARK SMILES IDX 2 13 8 14 14 15 5 17 1 19 16 21
REMARK H PARENT 14 16 5 18 1 20 16 22
REMARK Flexibility Score: inf
ROOT
ATOM      1  C   UNL     1      49.436  48.030  36.575  1.00  0.00     0.041 C 
ATOM      2  C   UNL     1      49.460  47.705  38.076  1.00  0.00     0.041 C 
ATOM      3  C   UNL     1      50.496  46.647  38.376  1.00  0.00    -0.032 A 
ATOM      4  C   UNL     1      50.775  45.637  37.425  1.00  0.00     0.027 A 
ATOM      5  C   UNL     1      49.926  45.585  36.195  1.00  0.00    -0.007 A 
ATOM      6  C   UNL     1      49.633  44.377  35.536  1.00  0.00     0.059 A 
ATOM      7  C   UNL     1      48.817  44.364  34.394  1.00  0.00     0.158 A 
ATOM      8  C   UNL     1      48.251  45.561  33.927  1.00  0.00     0.157 A 
ATOM      9  C   UNL     1      48.474  46.752  34.622  1.00  0.00     0.054 A 
ATOM     10  C   UNL     1      49.274  46.764  35.774  1.00  0.00    -0.036 A 
ATOM     11  C   UNL     1      51.853  44.747  37.674  1.00  0.00     0.127 A 
ATOM     12  C   UNL     1      52.476  44.747  38.927  1.00  0.00     0.093 A 
ATOM     13  C   UNL     1      52.120  45.686  39.901  1.00  0.00     0.119 A 
ATOM     14  C   UNL     1      51.148  46.644  39.617  1.00  0.00     0.050 A 
ENDROOT
BRANCH   8  15
ATOM     15  O   UNL     1      47.451  45.581  32.785  1.00  0.00    -0.504 OA
ATOM     16  H   UNL     1      47.059  46.440  32.418  1.00  0.00     0.293 HD
ENDBRANCH   8  15
BRANCH  11  17
ATOM     17  O   UNL     1      52.372  43.900  36.693  1.00  0.00    -0.507 OA
ATOM     18  H   UNL     1      52.469  44.177  35.726  1.00  0.00     0.293 HD
ENDBRANCH  11  17
BRANCH  13  19
ATOM     19  O   UNL     1      52.746  45.688  41.146  1.00  0.00    -0.508 OA
ATOM     20  H   UNL     1      53.513  45.060  41.355  1.00  0.00     0.293 HD
ENDBRANCH  13  19
BRANCH   7  21
ATOM     21  O   UNL     1      48.560  43.165  33.731  1.00  0.00    -0.504 OA
ATOM     22  H   UNL     1      49.284  42.473  33.586  1.00  0.00     0.293 HD
ENDBRANCH   7  21
TORSDOF 4
ENDMDL
MODEL 5
REMARK VINA RESULT:    -5.906      3.465      6.082
REMARK INTER + INTRA:          -6.596
REMARK INTER:                  -6.596
REMARK INTRA:                   0.000
REMARK UNBOUND:                 0.000
REMARK SMILES Oc1cc(O)c2c(c1)CCc1cc(O)c(O)cc1-2
REMARK SMILES IDX 10 1 9 2 7 3 6 4 18 5 17 6 15 7 13 8 12 9 11 10 4 11 3 12
REMARK SMILES IDX 2 13 8 14 14 15 5 17 1 19 16 21
REMARK H PARENT 14 16 5 18 1 20 16 22
REMARK Flexibility Score: inf
ROOT
ATOM      1  C   UNL     1      49.763  46.619  35.208  1.00  0.00     0.041 C 
ATOM      2  C   UNL     1      50.829  45.514  35.183  1.00  0.00     0.041 C 
ATOM      3  C   UNL     1      51.659  45.544  36.444  1.00  0.00    -0.032 A 
ATOM      4  C   UNL     1      51.927  46.775  37.089  1.00  0.00     0.027 A 
ATOM      5  C   UNL     1      51.475  48.029  36.410  1.00  0.00    -0.007 A 
ATOM      6  C   UNL     1      52.172  49.244  36.537  1.00  0.00     0.059 A 
ATOM      7  C   UNL     1      51.729  50.397  35.871  1.00  0.00     0.158 A 
ATOM      8  C   UNL     1      50.604  50.331  35.034  1.00  0.00     0.157 A 
ATOM      9  C   UNL     1      49.954  49.109  34.841  1.00  0.00     0.054 A 
ATOM     10  C   UNL     1      50.406  47.952  35.491  1.00  0.00    -0.036 A 
ATOM     11  C   UNL     1      52.584  46.755  38.347  1.00  0.00     0.127 A 
ATOM     12  C   UNL     1      53.134  45.561  38.823  1.00  0.00     0.093 A 
ATOM     13  C   UNL     1      52.952  44.363  38.124  1.00  0.00     0.119 A 
ATOM     14  C   UNL     1      52.201  44.353  36.949  1.00  0.00     0.050 A 
ENDROOT
BRANCH   8  15
ATOM     15  O   UNL     1      50.130  51.464  34.373  1.00  0.00    -0.504 OA
ATOM     16  H   UNL     1      49.994  52.346  34.849  1.00  0.00     0.293 HD
ENDBRANCH   8  15
BRANCH  11  17
ATOM     17  O   UNL     1      52.655  47.876  39.177  1.00  0.00    -0.507 OA
ATOM     18  H   UNL     1      52.050  48.679  39.067  1.00  0.00     0.293 HD
ENDBRANCH  11  17
BRANCH  13  19
ATOM     19  O   UNL     1      53.496  43.173  38.602  1.00  0.00    -0.508 OA
ATOM     20  H   UNL     1      53.647  42.376  37.995  1.00  0.00     0.293 HD
ENDBRANCH  13  19
BRANCH   7  21
ATOM     21  O   UNL     1      52.410  51.603  36.031  1.00  0.00    -0.504 OA
ATOM     22  H   UNL     1      53.366  51.718  35.720  1.00  0.00     0.293 HD
ENDBRANCH   7  21
TORSDOF 4
ENDMDL
MODEL 6
REMARK VINA RESULT:    -5.833      1.234      1.816
REMARK INTER + INTRA:          -6.515
REMARK INTER:                  -6.515
REMARK INTRA:                   0.000
REMARK UNBOUND:                 0.000
REMARK SMILES Oc1cc(O)c2c(c1)CCc1cc(O)c(O)cc1-2
REMARK SMILES IDX 10 1 9 2 7 3 6 4 18 5 17 6 15 7 13 8 12 9 11 10 4 11 3 12
REMARK SMILES IDX 2 13 8 14 14 15 5 17 1 19 16 21
REMARK H PARENT 14 16 5 18 1 20 16 22
REMARK Flexibility Score: inf
ROOT
ATOM      1  C   UNL     1      49.508  47.383  37.830  1.00  0.00     0.041 C 
ATOM      2  C   UNL     1      49.351  47.778  36.354  1.00  0.00     0.041 C 
ATOM      3  C   UNL     1      49.025  46.570  35.509  1.00  0.00    -0.032 A 
ATOM      4  C   UNL     1      49.548  45.301  35.853  1.00  0.00     0.027 A 
ATOM      5  C   UNL     1      50.524  45.234  36.985  1.00  0.00    -0.007 A 
ATOM      6  C   UNL     1      51.559  44.282  37.029  1.00  0.00     0.059 A 
ATOM      7  C   UNL     1      52.467  44.260  38.098  1.00  0.00     0.158 A 
ATOM      8  C   UNL     1      52.371  45.223  39.115  1.00  0.00     0.157 A 
ATOM      9  C   UNL     1      51.395  46.219  39.037  1.00  0.00     0.054 A 
ATOM     10  C   UNL     1      50.498  46.254  37.960  1.00  0.00    -0.036 A 
ATOM     11  C   UNL     1      49.107  44.163  35.127  1.00  0.00     0.127 A 
ATOM     12  C   UNL     1      48.339  44.334  33.971  1.00  0.00     0.093 A 
ATOM     13  C   UNL     1      47.911  45.607  33.580  1.00  0.00     0.119 A 
ATOM     14  C   UNL     1      48.238  46.717  34.358  1.00  0.00     0.050 A 
ENDROOT
BRANCH   8  15
ATOM     15  O   UNL     1      53.249  45.216  40.199  1.00  0.00    -0.504 OA
ATOM     16  H   UNL     1      53.100  45.796  41.015  1.00  0.00     0.293 HD
ENDBRANCH   8  15
BRANCH  11  17
ATOM     17  O   UNL     1      49.353  42.856  35.553  1.00  0.00    -0.507 OA
ATOM     18  H   UNL     1      48.876  42.438  36.341  1.00  0.00     0.293 HD
ENDBRANCH  11  17
BRANCH  13  19
ATOM     19  O   UNL     1      47.142  45.775  32.430  1.00  0.00    -0.508 OA
ATOM     20  H   UNL     1      47.165  46.636  31.897  1.00  0.00     0.293 HD
ENDBRANCH  13  19
BRANCH   7  21
ATOM     21  O   UNL     1      53.468  43.292  38.146  1.00  0.00    -0.504 OA
ATOM     22  H   UNL     1      54.400  43.474  37.795  1.00  0.00     0.293 HD
ENDBRANCH   7  21
TORSDOF 4
ENDMDL
MODEL 7
REMARK VINA RESULT:    -5.784      5.051      7.157
REMARK INTER + INTRA:          -6.460
REMARK INTER:                  -6.460
REMARK INTRA:                   0.000
REMARK UNBOUND:                 0.000
REMARK SMILES Oc1cc(O)c2c(c1)CCc1cc(O)c(O)cc1-2
REMARK SMILES IDX 10 1 9 2 7 3 6 4 18 5 17 6 15 7 13 8 12 9 11 10 4 11 3 12
REMARK SMILES IDX 2 13 8 14 14 15 5 17 1 19 16 21
REMARK H PARENT 14 16 5 18 1 20 16 22
REMARK Flexibility Score: inf
ROOT
ATOM      1  C   UNL     1      54.087  49.182  35.449  1.00  0.00     0.041 C 
ATOM      2  C   UNL     1      53.680  49.071  36.925  1.00  0.00     0.041 C 
ATOM      3  C   UNL     1      52.260  48.573  37.052  1.00  0.00    -0.032 A 
ATOM      4  C   UNL     1      51.297  48.916  36.072  1.00  0.00     0.027 A 
ATOM      5  C   UNL     1      51.704  49.880  35.004  1.00  0.00    -0.007 A 
ATOM      6  C   UNL     1      50.792  50.772  34.411  1.00  0.00     0.059 A 
ATOM      7  C   UNL     1      51.214  51.676  33.424  1.00  0.00     0.158 A 
ATOM      8  C   UNL     1      52.566  51.724  33.052  1.00  0.00     0.157 A 
ATOM      9  C   UNL     1      53.491  50.896  33.694  1.00  0.00     0.054 A 
ATOM     10  C   UNL     1      53.076  50.005  34.693  1.00  0.00    -0.036 A 
ATOM     11  C   UNL     1      50.013  48.314  36.141  1.00  0.00     0.127 A 
ATOM     12  C   UNL     1      49.655  47.569  37.269  1.00  0.00     0.093 A 
ATOM     13  C   UNL     1      50.586  47.321  38.284  1.00  0.00     0.119 A 
ATOM     14  C   UNL     1      51.888  47.805  38.165  1.00  0.00     0.050 A 
ENDROOT
BRANCH   8  15
ATOM     15  O   UNL     1      53.011  52.599  32.062  1.00  0.00    -0.504 OA
ATOM     16  H   UNL     1      52.374  53.051  31.418  1.00  0.00     0.293 HD
ENDBRANCH   8  15
BRANCH  11  17
ATOM     17  O   UNL     1      49.095  48.378  35.090  1.00  0.00    -0.507 OA
ATOM     18  H   UNL     1      48.790  49.251  34.681  1.00  0.00     0.293 HD
ENDBRANCH  11  17
BRANCH  13  19
ATOM     19  O   UNL     1      50.229  46.574  39.405  1.00  0.00    -0.508 OA
ATOM     20  H   UNL     1      49.831  45.647  39.320  1.00  0.00     0.293 HD
ENDBRANCH  13  19
BRANCH   7  21
ATOM     21  O   UNL     1      50.294  52.532  32.821  1.00  0.00    -0.504 OA
ATOM     22  H   UNL     1      50.410  52.849  31.866  1.00  0.00     0.293 HD
ENDBRANCH   7  21
TORSDOF 4
ENDMDL
MODEL 8
REMARK VINA RESULT:    -5.668      2.081      3.692
REMARK INTER + INTRA:          -6.331
REMARK INTER:                  -6.331
REMARK INTRA:                   0.000
REMARK UNBOUND:                 0.000
REMARK SMILES Oc1cc(O)c2c(c1)CCc1cc(O)c(O)cc1-2
REMARK SMILES IDX 10 1 9 2 7 3 6 4 18 5 17 6 15 7 13 8 12 9 11 10 4 11 3 12
REMARK SMILES IDX 2 13 8 14 14 15 5 17 1 19 16 21
REMARK H PARENT 14 16 5 18 1 20 16 22
REMARK Flexibility Score: inf
ROOT
ATOM      1  C   UNL     1      52.240  45.195  36.926  1.00  0.00     0.041 C 
ATOM      2  C   UNL     1      51.188  44.145  36.544  1.00  0.00     0.041 C 
ATOM      3  C   UNL     1      50.019  44.791  35.839  1.00  0.00    -0.032 A 
ATOM      4  C   UNL     1      49.620  46.105  36.186  1.00  0.00     0.027 A 
ATOM      5  C   UNL     1      50.305  46.757  37.344  1.00  0.00    -0.007 A 
ATOM      6  C   UNL     1      49.651  47.683  38.178  1.00  0.00     0.059 A 
ATOM      7  C   UNL     1      50.319  48.262  39.267  1.00  0.00     0.158 A 
ATOM      8  C   UNL     1      51.640  47.885  39.557  1.00  0.00     0.157 A 
ATOM      9  C   UNL     1      52.268  46.908  38.781  1.00  0.00     0.054 A 
ATOM     10  C   UNL     1      51.596  46.314  37.703  1.00  0.00    -0.036 A 
ATOM     11  C   UNL     1      48.615  46.738  35.408  1.00  0.00     0.127 A 
ATOM     12  C   UNL     1      47.900  45.995  34.462  1.00  0.00     0.093 A 
ATOM     13  C   UNL     1      48.235  44.663  34.199  1.00  0.00     0.119 A 
ATOM     14  C   UNL     1      49.303  44.071  34.872  1.00  0.00     0.050 A 
ENDROOT
BRANCH   8  15
ATOM     15  O   UNL     1      52.335  48.456  40.622  1.00  0.00    -0.504 OA
ATOM     16  H   UNL     1      53.276  48.816  40.519  1.00  0.00     0.293 HD
ENDBRANCH   8  15
BRANCH  11  17
ATOM     17  O   UNL     1      48.343  48.104  35.497  1.00  0.00    -0.507 OA
ATOM     18  H   UNL     1      48.819  48.795  34.933  1.00  0.00     0.293 HD
ENDBRANCH  11  17
BRANCH  13  19
ATOM     19  O   UNL     1      47.525  43.926  33.253  1.00  0.00    -0.508 OA
ATOM     20  H   UNL     1      47.090  44.370  32.453  1.00  0.00     0.293 HD
ENDBRANCH  13  19
BRANCH   7  21
ATOM     21  O   UNL     1      49.671  49.202  40.067  1.00  0.00    -0.504 OA
ATOM     22  H   UNL     1      49.768  50.196  39.902  1.00  0.00     0.293 HD
ENDBRANCH   7  21
TORSDOF 4
ENDMDL
MODEL 9
REMARK VINA RESULT:    -5.657      7.623      9.451
REMARK INTER + INTRA:          -6.318
REMARK INTER:                  -6.318
REMARK INTRA:                   0.000
REMARK UNBOUND:                 0.000
REMARK SMILES Oc1cc(O)c2c(c1)CCc1cc(O)c(O)cc1-2
REMARK SMILES IDX 10 1 9 2 7 3 6 4 18 5 17 6 15 7 13 8 12 9 11 10 4 11 3 12
REMARK SMILES IDX 2 13 8 14 14 15 5 17 1 19 16 21
REMARK H PARENT 14 16 5 18 1 20 16 22
REMARK Flexibility Score: inf
ROOT
ATOM      1  C   UNL     1      52.370  44.301  40.821  1.00  0.00     0.041 C 
ATOM      2  C   UNL     1      52.661  42.859  41.260  1.00  0.00     0.041 C 
ATOM      3  C   UNL     1      52.176  42.621  42.671  1.00  0.00    -0.032 A 
ATOM      4  C   UNL     1      52.207  43.673  43.618  1.00  0.00     0.027 A 
ATOM      5  C   UNL     1      52.849  44.960  43.209  1.00  0.00    -0.007 A 
ATOM      6  C   UNL     1      53.516  45.791  44.127  1.00  0.00     0.059 A 
ATOM      7  C   UNL     1      54.123  46.983  43.705  1.00  0.00     0.158 A 
ATOM      8  C   UNL     1      54.105  47.332  42.345  1.00  0.00     0.157 A 
ATOM      9  C   UNL     1      53.514  46.472  41.416  1.00  0.00     0.054 A 
ATOM     10  C   UNL     1      52.922  45.271  41.834  1.00  0.00    -0.036 A 
ATOM     11  C   UNL     1      51.611  43.460  44.889  1.00  0.00     0.127 A 
ATOM     12  C   UNL     1      51.197  42.175  45.255  1.00  0.00     0.093 A 
ATOM     13  C   UNL     1      51.267  41.117  44.343  1.00  0.00     0.119 A 
ATOM     14  C   UNL     1      51.737  41.345  43.050  1.00  0.00     0.050 A 
ENDROOT
BRANCH   8  15
ATOM     15  O   UNL     1      54.684  48.519  41.898  1.00  0.00    -0.504 OA
ATOM     16  H   UNL     1      55.550  48.873  42.284  1.00  0.00     0.293 HD
ENDBRANCH   8  15
BRANCH  11  17
ATOM     17  O   UNL     1      51.355  44.501  45.784  1.00  0.00    -0.507 OA
ATOM     18  H   UNL     1      50.657  44.438  46.513  1.00  0.00     0.293 HD
ENDBRANCH  11  17
BRANCH  13  19
ATOM     19  O   UNL     1      50.850  39.838  44.708  1.00  0.00    -0.508 OA
ATOM     20  H   UNL     1      50.350  39.239  44.061  1.00  0.00     0.293 HD
ENDBRANCH  13  19
BRANCH   7  21
ATOM     21  O   UNL     1      54.752  47.815  44.630  1.00  0.00    -0.504 OA
ATOM     22  H   UNL     1      54.275  48.607  45.043  1.00  0.00     0.293 HD
ENDBRANCH   7  21
TORSDOF 4
ENDMDL
