MODEL 1
REMARK VINA RESULT:     2.166      0.000      0.000
REMARK INTER + INTRA:           2.998
REMARK INTER:                   2.546
REMARK INTRA:                   0.452
REMARK UNBOUND:                 0.452
REMARK SMILES O=c1c(O)c(-c2ccc(O)c(O)c2)oc2cc(O)ccc12
REMARK SMILES IDX 5 1 3 2 2 3 1 4 21 5 15 6 14 7 16 8 17 9 19 10 20 11 6 12
REMARK SMILES IDX 7 13 8 14 9 15 13 16 11 17 10 18 12 20 4 22 18 24
REMARK H PARENT 10 19 12 21 4 23 18 25
REMARK Flexibility Score: inf
ROOT
ATOM      1  C   UNL     1     -20.123 -20.910 -25.975  1.00  0.00     0.180 A 
ATOM      2  C   UNL     1     -20.310 -20.013 -24.901  1.00  0.00     0.208 A 
ATOM      3  C   UNL     1     -20.398 -20.527 -23.599  1.00  0.00     0.235 A 
ATOM      4  O   UNL     1     -20.576 -19.746 -22.624  1.00  0.00    -0.285 OA
ATOM      5  C   UNL     1     -20.280 -21.911 -23.392  1.00  0.00     0.069 A 
ATOM      6  C   UNL     1     -20.072 -22.739 -24.516  1.00  0.00     0.142 A 
ATOM      7  O   UNL     1     -20.002 -22.214 -25.734  1.00  0.00    -0.452 OA
ATOM      8  C   UNL     1     -19.939 -24.122 -24.351  1.00  0.00     0.094 A 
ATOM      9  C   UNL     1     -20.013 -24.690 -23.076  1.00  0.00     0.119 A 
ATOM     10  C   UNL     1     -20.222 -23.872 -21.957  1.00  0.00     0.047 A 
ATOM     11  C   UNL     1     -20.355 -22.489 -22.112  1.00  0.00     0.020 A 
ENDROOT
BRANCH   1  12
ATOM     12  C   UNL     1     -20.039 -20.449 -27.379  1.00  0.00     0.025 A 
ATOM     13  C   UNL     1     -19.956 -19.082 -27.697  1.00  0.00     0.016 A 
ATOM     14  C   UNL     1     -19.901 -18.668 -29.030  1.00  0.00     0.051 A 
ATOM     15  C   UNL     1     -19.942 -19.611 -30.065  1.00  0.00     0.157 A 
ATOM     16  C   UNL     1     -20.101 -21.389 -28.420  1.00  0.00     0.062 A 
ATOM     17  C   UNL     1     -20.046 -20.978 -29.757  1.00  0.00     0.158 A 
BRANCH  15  18
ATOM     18  O   UNL     1     -19.886 -19.196 -31.395  1.00  0.00    -0.504 OA
ATOM     19  H   UNL     1     -19.074 -19.376 -31.973  1.00  0.00     0.293 HD
ENDBRANCH  15  18
BRANCH  17  20
ATOM     20  O   UNL     1     -20.096 -21.942 -30.764  1.00  0.00    -0.504 OA
ATOM     21  H   UNL     1     -20.856 -21.983 -31.432  1.00  0.00     0.293 HD
ENDBRANCH  17  20
ENDBRANCH   1  12
BRANCH   2  22
ATOM     22  O   UNL     1     -20.375 -18.637 -25.133  1.00  0.00    -0.502 OA
ATOM     23  H   UNL     1     -21.010 -18.033 -24.625  1.00  0.00     0.293 HD
ENDBRANCH   2  22
BRANCH   9  24
ATOM     24  O   UNL     1     -19.880 -26.069 -22.929  1.00  0.00    -0.508 OA
ATOM     25  H   UNL     1     -19.079 -26.567 -23.302  1.00  0.00     0.293 HD
ENDBRANCH   9  24
TORSDOF 5
ENDMDL
MODEL 2
REMARK VINA RESULT:     2.454      2.248      6.101
REMARK INTER + INTRA:           3.336
REMARK INTER:                   3.129
REMARK INTRA:                   0.207
REMARK UNBOUND:                 0.452
REMARK SMILES O=c1c(O)c(-c2ccc(O)c(O)c2)oc2cc(O)ccc12
REMARK SMILES IDX 5 1 3 2 2 3 1 4 21 5 15 6 14 7 16 8 17 9 19 10 20 11 6 12
REMARK SMILES IDX 7 13 8 14 9 15 13 16 11 17 10 18 12 20 4 22 18 24
REMARK H PARENT 10 19 12 21 4 23 18 25
REMARK Flexibility Score: inf
ROOT
ATOM      1  C   UNL     1     -20.676 -20.158 -25.437  1.00  0.00     0.180 A 
ATOM      2  C   UNL     1     -20.409 -21.463 -24.972  1.00  0.00     0.208 A 
ATOM      3  C   UNL     1     -20.148 -22.475 -25.909  1.00  0.00     0.235 A 
ATOM      4  O   UNL     1     -19.917 -23.652 -25.517  1.00  0.00    -0.285 OA
ATOM      5  C   UNL     1     -20.140 -22.164 -27.278  1.00  0.00     0.069 A 
ATOM      6  C   UNL     1     -20.394 -20.829 -27.662  1.00  0.00     0.142 A 
ATOM      7  O   UNL     1     -20.645 -19.902 -26.744  1.00  0.00    -0.452 OA
ATOM      8  C   UNL     1     -20.385 -20.476 -29.015  1.00  0.00     0.094 A 
ATOM      9  C   UNL     1     -20.126 -21.442 -29.993  1.00  0.00     0.119 A 
ATOM     10  C   UNL     1     -19.876 -22.768 -29.617  1.00  0.00     0.047 A 
ATOM     11  C   UNL     1     -19.882 -23.130 -28.267  1.00  0.00     0.020 A 
ENDROOT
BRANCH   1  12
ATOM     12  C   UNL     1     -20.978 -19.041 -24.514  1.00  0.00     0.025 A 
ATOM     13  C   UNL     1     -20.350 -18.937 -23.261  1.00  0.00     0.016 A 
ATOM     14  C   UNL     1     -20.668 -17.886 -22.396  1.00  0.00     0.051 A 
ATOM     15  C   UNL     1     -21.628 -16.935 -22.763  1.00  0.00     0.157 A 
ATOM     16  C   UNL     1     -21.955 -18.096 -24.869  1.00  0.00     0.062 A 
ATOM     17  C   UNL     1     -22.276 -17.043 -24.005  1.00  0.00     0.158 A 
BRANCH  15  18
ATOM     18  O   UNL     1     -21.943 -15.887 -21.899  1.00  0.00    -0.504 OA
ATOM     19  H   UNL     1     -21.951 -16.012 -20.894  1.00  0.00     0.293 HD
ENDBRANCH  15  18
BRANCH  17  20
ATOM     20  O   UNL     1     -23.241 -16.115 -24.398  1.00  0.00    -0.504 OA
ATOM     21  H   UNL     1     -23.772 -16.222 -25.254  1.00  0.00     0.293 HD
ENDBRANCH  17  20
ENDBRANCH   1  12
BRANCH   2  22
ATOM     22  O   UNL     1     -20.376 -21.732 -23.602  1.00  0.00    -0.502 OA
ATOM     23  H   UNL     1     -19.508 -21.770 -23.079  1.00  0.00     0.293 HD
ENDBRANCH   2  22
BRANCH   9  24
ATOM     24  O   UNL     1     -20.122 -21.073 -31.337  1.00  0.00    -0.508 OA
ATOM     25  H   UNL     1     -20.677 -21.570 -32.025  1.00  0.00     0.293 HD
ENDBRANCH   9  24
TORSDOF 5
ENDMDL
MODEL 3
REMARK VINA RESULT:     2.810      1.845      4.046
REMARK INTER + INTRA:           3.755
REMARK INTER:                   3.285
REMARK INTRA:                   0.470
REMARK UNBOUND:                 0.452
REMARK SMILES O=c1c(O)c(-c2ccc(O)c(O)c2)oc2cc(O)ccc12
REMARK SMILES IDX 5 1 3 2 2 3 1 4 21 5 15 6 14 7 16 8 17 9 19 10 20 11 6 12
REMARK SMILES IDX 7 13 8 14 9 15 13 16 11 17 10 18 12 20 4 22 18 24
REMARK H PARENT 10 19 12 21 4 23 18 25
REMARK Flexibility Score: inf
ROOT
ATOM      1  C   UNL     1     -20.086 -20.475 -26.344  1.00  0.00     0.180 A 
ATOM      2  C   UNL     1     -20.034 -21.550 -25.432  1.00  0.00     0.208 A 
ATOM      3  C   UNL     1     -20.051 -21.272 -24.056  1.00  0.00     0.235 A 
ATOM      4  O   UNL     1     -19.995 -22.217 -23.222  1.00  0.00    -0.285 OA
ATOM      5  C   UNL     1     -20.139 -19.940 -23.622  1.00  0.00     0.069 A 
ATOM      6  C   UNL     1     -20.210 -18.922 -24.597  1.00  0.00     0.142 A 
ATOM      7  O   UNL     1     -20.183 -19.226 -25.889  1.00  0.00    -0.452 OA
ATOM      8  C   UNL     1     -20.309 -17.583 -24.204  1.00  0.00     0.094 A 
ATOM      9  C   UNL     1     -20.335 -17.246 -22.848  1.00  0.00     0.119 A 
ATOM     10  C   UNL     1     -20.262 -18.254 -21.876  1.00  0.00     0.047 A 
ATOM     11  C   UNL     1     -20.165 -19.595 -22.258  1.00  0.00     0.020 A 
ENDROOT
BRANCH   1  12
ATOM     12  C   UNL     1     -20.054 -20.684 -27.808  1.00  0.00     0.025 A 
ATOM     13  C   UNL     1     -20.032 -21.975 -28.364  1.00  0.00     0.016 A 
ATOM     14  C   UNL     1     -19.977 -22.149 -29.749  1.00  0.00     0.051 A 
ATOM     15  C   UNL     1     -19.929 -21.036 -30.599  1.00  0.00     0.157 A 
ATOM     16  C   UNL     1     -19.984 -19.572 -28.664  1.00  0.00     0.062 A 
ATOM     17  C   UNL     1     -19.930 -19.742 -30.052  1.00  0.00     0.158 A 
BRANCH  15  18
ATOM     18  O   UNL     1     -19.876 -21.212 -31.981  1.00  0.00    -0.504 OA
ATOM     19  H   UNL     1     -19.950 -20.428 -32.619  1.00  0.00     0.293 HD
ENDBRANCH  15  18
BRANCH  17  20
ATOM     20  O   UNL     1     -19.876 -18.614 -30.871  1.00  0.00    -0.504 OA
ATOM     21  H   UNL     1     -19.020 -18.319 -31.324  1.00  0.00     0.293 HD
ENDBRANCH  17  20
ENDBRANCH   1  12
BRANCH   2  22
ATOM     22  O   UNL     1     -19.997 -22.868 -25.894  1.00  0.00    -0.502 OA
ATOM     23  H   UNL     1     -20.815 -23.332 -26.271  1.00  0.00     0.293 HD
ENDBRANCH   2  22
BRANCH   9  24
ATOM     24  O   UNL     1     -20.433 -15.907 -22.474  1.00  0.00    -0.508 OA
ATOM     25  H   UNL     1     -21.021 -15.257 -22.983  1.00  0.00     0.293 HD
ENDBRANCH   9  24
TORSDOF 5
ENDMDL
