MODEL 1
REMARK VINA RESULT:    -4.234      0.000      0.000
REMARK INTER + INTRA:          -6.206
REMARK INTER:                  -5.966
REMARK INTRA:                  -0.240
REMARK UNBOUND:                -0.240
REMARK SMILES CCCCCCCCC(=O)[O-]
REMARK SMILES IDX 6 1 7 2 8 3 9 4 10 5 11 6 5 7 4 8 3 9 2 10 1 11
REMARK H PARENT
REMARK Flexibility Score: inf
ROOT
ATOM      1  C   UNL     1      35.340  24.290  70.802  1.00  0.00     0.000 C 
ENDROOT
BRANCH   1   2
ATOM      2  C   UNL     1      33.925  24.606  70.305  1.00  0.00     0.006 C 
BRANCH   2   3
ATOM      3  C   UNL     1      33.367  25.856  70.991  1.00  0.00     0.053 C 
BRANCH   3   4
ATOM      4  C   UNL     1      31.871  25.845  70.962  1.00  0.00     0.041 C 
ATOM      5  O   UNL     1      31.217  26.568  71.760  1.00  0.00    -0.550 OA
ATOM      6  O   UNL     1      31.199  25.074  70.022  1.00  0.00    -0.550 OA
ENDBRANCH   3   4
ENDBRANCH   2   3
ENDBRANCH   1   2
BRANCH   1   7
ATOM      7  C   UNL     1      36.305  24.087  69.624  1.00  0.00     0.000 C 
BRANCH   7   8
ATOM      8  C   UNL     1      37.781  24.140  70.051  1.00  0.00    -0.000 C 
BRANCH   8   9
ATOM      9  C   UNL     1      37.965  23.934  71.565  1.00  0.00    -0.000 C 
BRANCH   9  10
ATOM     10  C   UNL     1      39.403  24.218  72.026  1.00  0.00    -0.003 C 
ATOM     11  C   UNL     1      39.458  25.004  73.336  1.00  0.00     0.004 C 
ENDBRANCH   9  10
ENDBRANCH   8   9
ENDBRANCH   7   8
ENDBRANCH   1   7
TORSDOF 7
ENDMDL
MODEL 2
REMARK VINA RESULT:    -4.061     19.654     20.136
REMARK INTER + INTRA:          -5.963
REMARK INTER:                  -5.100
REMARK INTRA:                  -0.862
REMARK UNBOUND:                -0.240
REMARK SMILES CCCCCCCCC(=O)[O-]
REMARK SMILES IDX 6 1 7 2 8 3 9 4 10 5 11 6 5 7 4 8 3 9 2 10 1 11
REMARK H PARENT
REMARK Flexibility Score: inf
ROOT
ATOM      1  C   UNL     1      40.115  43.367  61.910  1.00  0.00     0.000 C 
ENDROOT
BRANCH   1   2
ATOM      2  C   UNL     1      39.017  42.646  62.701  1.00  0.00     0.006 C 
BRANCH   2   3
ATOM      3  C   UNL     1      39.165  41.126  62.589  1.00  0.00     0.053 C 
BRANCH   3   4
ATOM      4  C   UNL     1      37.978  40.534  61.897  1.00  0.00     0.041 C 
ATOM      5  O   UNL     1      36.944  41.227  61.709  1.00  0.00    -0.550 OA
ATOM      6  O   UNL     1      38.032  39.232  61.415  1.00  0.00    -0.550 OA
ENDBRANCH   3   4
ENDBRANCH   2   3
ENDBRANCH   1   2
BRANCH   1   7
ATOM      7  C   UNL     1      39.748  43.464  60.422  1.00  0.00     0.000 C 
BRANCH   7   8
ATOM      8  C   UNL     1      40.688  42.640  59.526  1.00  0.00    -0.000 C 
BRANCH   8   9
ATOM      9  C   UNL     1      39.952  41.515  58.775  1.00  0.00    -0.000 C 
BRANCH   9  10
ATOM     10  C   UNL     1      40.564  40.132  59.044  1.00  0.00    -0.003 C 
ATOM     11  C   UNL     1      41.646  40.165  60.124  1.00  0.00     0.004 C 
ENDBRANCH   9  10
ENDBRANCH   8   9
ENDBRANCH   7   8
ENDBRANCH   1   7
TORSDOF 7
ENDMDL
MODEL 3
REMARK VINA RESULT:    -4.024      3.810      6.177
REMARK INTER + INTRA:          -5.911
REMARK INTER:                  -5.590
REMARK INTRA:                  -0.321
REMARK UNBOUND:                -0.240
REMARK SMILES CCCCCCCCC(=O)[O-]
REMARK SMILES IDX 6 1 7 2 8 3 9 4 10 5 11 6 5 7 4 8 3 9 2 10 1 11
REMARK H PARENT
REMARK Flexibility Score: inf
ROOT
ATOM      1  C   UNL     1      35.826  24.126  70.044  1.00  0.00     0.000 C 
ENDROOT
BRANCH   1   2
ATOM      2  C   UNL     1      37.346  24.089  70.238  1.00  0.00     0.006 C 
BRANCH   2   3
ATOM      3  C   UNL     1      37.708  23.875  71.711  1.00  0.00     0.053 C 
BRANCH   3   4
ATOM      4  C   UNL     1      39.119  24.301  71.970  1.00  0.00     0.041 C 
ATOM      5  O   UNL     1      40.002  24.137  71.088  1.00  0.00    -0.550 OA
ATOM      6  O   UNL     1      39.448  24.924  73.167  1.00  0.00    -0.550 OA
ENDBRANCH   3   4
ENDBRANCH   2   3
ENDBRANCH   1   2
BRANCH   1   7
ATOM      7  C   UNL     1      35.381  25.464  69.436  1.00  0.00     0.000 C 
BRANCH   7   8
ATOM      8  C   UNL     1      34.774  26.416  70.480  1.00  0.00    -0.000 C 
BRANCH   8   9
ATOM      9  C   UNL     1      33.684  25.741  71.332  1.00  0.00    -0.000 C 
BRANCH   9  10
ATOM     10  C   UNL     1      32.293  25.832  70.686  1.00  0.00    -0.003 C 
ATOM     11  C   UNL     1      31.226  26.346  71.652  1.00  0.00     0.004 C 
ENDBRANCH   9  10
ENDBRANCH   8   9
ENDBRANCH   7   8
ENDBRANCH   1   7
TORSDOF 7
ENDMDL
MODEL 4
REMARK VINA RESULT:    -3.990     19.578     20.307
REMARK INTER + INTRA:          -5.863
REMARK INTER:                  -5.127
REMARK INTRA:                  -0.736
REMARK UNBOUND:                -0.240
REMARK SMILES CCCCCCCCC(=O)[O-]
REMARK SMILES IDX 6 1 7 2 8 3 9 4 10 5 11 6 5 7 4 8 3 9 2 10 1 11
REMARK H PARENT
REMARK Flexibility Score: inf
ROOT
ATOM      1  C   UNL     1      41.243  41.554  62.182  1.00  0.00     0.000 C 
ENDROOT
BRANCH   1   2
ATOM      2  C   UNL     1      42.015  41.168  60.915  1.00  0.00     0.006 C 
BRANCH   2   3
ATOM      3  C   UNL     1      41.544  39.814  60.374  1.00  0.00     0.053 C 
BRANCH   3   4
ATOM      4  C   UNL     1      40.974  39.969  59.000  1.00  0.00     0.041 C 
ATOM      5  O   UNL     1      39.988  40.728  58.806  1.00  0.00    -0.550 OA
ATOM      6  O   UNL     1      41.561  39.313  57.925  1.00  0.00    -0.550 OA
ENDBRANCH   3   4
ENDBRANCH   2   3
ENDBRANCH   1   2
BRANCH   1   7
ATOM      7  C   UNL     1      40.472  42.867  61.978  1.00  0.00     0.000 C 
BRANCH   7   8
ATOM      8  C   UNL     1      39.006  42.768  62.428  1.00  0.00    -0.000 C 
BRANCH   8   9
ATOM      9  C   UNL     1      38.118  42.053  61.394  1.00  0.00    -0.000 C 
BRANCH   9  10
ATOM     10  C   UNL     1      37.448  40.794  61.966  1.00  0.00    -0.003 C 
ATOM     11  C   UNL     1      38.101  39.502  61.471  1.00  0.00     0.004 C 
ENDBRANCH   9  10
ENDBRANCH   8   9
ENDBRANCH   7   8
ENDBRANCH   1   7
TORSDOF 7
ENDMDL
MODEL 5
REMARK VINA RESULT:    -3.928      9.685     12.600
REMARK INTER + INTRA:          -5.775
REMARK INTER:                  -5.546
REMARK INTRA:                  -0.229
REMARK UNBOUND:                -0.240
REMARK SMILES CCCCCCCCC(=O)[O-]
REMARK SMILES IDX 6 1 7 2 8 3 9 4 10 5 11 6 5 7 4 8 3 9 2 10 1 11
REMARK H PARENT
REMARK Flexibility Score: inf
ROOT
ATOM      1  C   UNL     1      27.848  25.831  62.421  1.00  0.00     0.000 C 
ENDROOT
BRANCH   1   2
ATOM      2  C   UNL     1      29.161  26.009  63.192  1.00  0.00     0.006 C 
BRANCH   2   3
ATOM      3  C   UNL     1      29.905  27.266  62.731  1.00  0.00     0.053 C 
BRANCH   3   4
ATOM      4  C   UNL     1      31.374  27.126  62.978  1.00  0.00     0.041 C 
ATOM      5  O   UNL     1      31.810  26.172  63.675  1.00  0.00    -0.550 OA
ATOM      6  O   UNL     1      32.265  28.020  62.399  1.00  0.00    -0.550 OA
ENDBRANCH   3   4
ENDBRANCH   2   3
ENDBRANCH   1   2
BRANCH   1   7
ATOM      7  C   UNL     1      27.637  24.362  62.026  1.00  0.00     0.000 C 
BRANCH   7   8
ATOM      8  C   UNL     1      26.173  24.047  61.678  1.00  0.00    -0.000 C 
BRANCH   8   9
ATOM      9  C   UNL     1      25.183  24.999  62.374  1.00  0.00    -0.000 C 
BRANCH   9  10
ATOM     10  C   UNL     1      23.920  24.275  62.867  1.00  0.00    -0.003 C 
ATOM     11  C   UNL     1      23.229  25.010  64.016  1.00  0.00     0.004 C 
ENDBRANCH   9  10
ENDBRANCH   8   9
ENDBRANCH   7   8
ENDBRANCH   1   7
TORSDOF 7
ENDMDL
MODEL 6
REMARK VINA RESULT:    -3.924      2.148      3.563
REMARK INTER + INTRA:          -5.769
REMARK INTER:                  -5.146
REMARK INTRA:                  -0.624
REMARK UNBOUND:                -0.240
REMARK SMILES CCCCCCCCC(=O)[O-]
REMARK SMILES IDX 6 1 7 2 8 3 9 4 10 5 11 6 5 7 4 8 3 9 2 10 1 11
REMARK H PARENT
REMARK Flexibility Score: inf
ROOT
ATOM      1  C   UNL     1      32.097  26.421  70.999  1.00  0.00     0.000 C 
ENDROOT
BRANCH   1   2
ATOM      2  C   UNL     1      31.167  25.226  70.759  1.00  0.00     0.006 C 
BRANCH   2   3
ATOM      3  C   UNL     1      31.886  24.115  69.989  1.00  0.00     0.053 C 
BRANCH   3   4
ATOM      4  C   UNL     1      31.671  24.274  68.517  1.00  0.00     0.041 C 
ATOM      5  O   UNL     1      30.504  24.318  68.049  1.00  0.00    -0.550 OA
ATOM      6  O   UNL     1      32.761  24.423  67.668  1.00  0.00    -0.550 OA
ENDBRANCH   3   4
ENDBRANCH   2   3
ENDBRANCH   1   2
BRANCH   1   7
ATOM      7  C   UNL     1      33.463  25.958  71.527  1.00  0.00     0.000 C 
BRANCH   7   8
ATOM      8  C   UNL     1      34.638  26.568  70.746  1.00  0.00    -0.000 C 
BRANCH   8   9
ATOM      9  C   UNL     1      35.256  25.580  69.741  1.00  0.00    -0.000 C 
BRANCH   9  10
ATOM     10  C   UNL     1      35.632  24.239  70.391  1.00  0.00    -0.003 C 
ATOM     11  C   UNL     1      37.064  24.224  70.926  1.00  0.00     0.004 C 
ENDBRANCH   9  10
ENDBRANCH   8   9
ENDBRANCH   7   8
ENDBRANCH   1   7
TORSDOF 7
ENDMDL
MODEL 7
REMARK VINA RESULT:    -3.855     20.138     20.714
REMARK INTER + INTRA:          -5.672
REMARK INTER:                  -4.976
REMARK INTRA:                  -0.696
REMARK UNBOUND:                -0.240
REMARK SMILES CCCCCCCCC(=O)[O-]
REMARK SMILES IDX 6 1 7 2 8 3 9 4 10 5 11 6 5 7 4 8 3 9 2 10 1 11
REMARK H PARENT
REMARK Flexibility Score: inf
ROOT
ATOM      1  C   UNL     1      38.386  39.960  61.250  1.00  0.00     0.000 C 
ENDROOT
BRANCH   1   2
ATOM      2  C   UNL     1      39.826  40.142  60.758  1.00  0.00     0.006 C 
BRANCH   2   3
ATOM      3  C   UNL     1      39.870  40.327  59.238  1.00  0.00     0.053 C 
BRANCH   3   4
ATOM      4  C   UNL     1      41.279  40.253  58.742  1.00  0.00     0.041 C 
ATOM      5  O   UNL     1      42.114  41.134  59.074  1.00  0.00    -0.550 OA
ATOM      6  O   UNL     1      41.683  39.184  57.952  1.00  0.00    -0.550 OA
ENDBRANCH   3   4
ENDBRANCH   2   3
ENDBRANCH   1   2
BRANCH   1   7
ATOM      7  C   UNL     1      37.871  41.237  61.930  1.00  0.00     0.000 C 
BRANCH   7   8
ATOM      8  C   UNL     1      38.969  41.975  62.714  1.00  0.00    -0.000 C 
BRANCH   8   9
ATOM      9  C   UNL     1      39.020  43.478  62.386  1.00  0.00    -0.000 C 
BRANCH   9  10
ATOM     10  C   UNL     1      40.304  43.873  61.640  1.00  0.00    -0.003 C 
ATOM     11  C   UNL     1      40.111  43.933  60.124  1.00  0.00     0.004 C 
ENDBRANCH   9  10
ENDBRANCH   8   9
ENDBRANCH   7   8
ENDBRANCH   1   7
TORSDOF 7
ENDMDL
MODEL 8
REMARK VINA RESULT:    -3.757      3.116      4.558
REMARK INTER + INTRA:          -5.535
REMARK INTER:                  -4.962
REMARK INTRA:                  -0.573
REMARK UNBOUND:                -0.240
REMARK SMILES CCCCCCCCC(=O)[O-]
REMARK SMILES IDX 6 1 7 2 8 3 9 4 10 5 11 6 5 7 4 8 3 9 2 10 1 11
REMARK H PARENT
REMARK Flexibility Score: inf
ROOT
ATOM      1  C   UNL     1      32.063  24.491  70.094  1.00  0.00     0.000 C 
ENDROOT
BRANCH   1   2
ATOM      2  C   UNL     1      31.443  24.578  68.695  1.00  0.00     0.006 C 
BRANCH   2   3
ATOM      3  C   UNL     1      32.492  24.318  67.610  1.00  0.00     0.053 C 
BRANCH   3   4
ATOM      4  C   UNL     1      31.920  24.582  66.254  1.00  0.00     0.041 C 
ATOM      5  O   UNL     1      30.675  24.532  66.071  1.00  0.00    -0.550 OA
ATOM      6  O   UNL     1      32.757  24.931  65.201  1.00  0.00    -0.550 OA
ENDBRANCH   3   4
ENDBRANCH   2   3
ENDBRANCH   1   2
BRANCH   1   7
ATOM      7  C   UNL     1      32.171  25.882  70.736  1.00  0.00     0.000 C 
BRANCH   7   8
ATOM      8  C   UNL     1      33.539  26.127  71.392  1.00  0.00    -0.000 C 
BRANCH   8   9
ATOM      9  C   UNL     1      34.691  26.134  70.371  1.00  0.00    -0.000 C 
BRANCH   9  10
ATOM     10  C   UNL     1      35.664  24.963  70.577  1.00  0.00    -0.003 C 
ATOM     11  C   UNL     1      36.037  24.269  69.266  1.00  0.00     0.004 C 
ENDBRANCH   9  10
ENDBRANCH   8   9
ENDBRANCH   7   8
ENDBRANCH   1   7
TORSDOF 7
ENDMDL
MODEL 9
REMARK VINA RESULT:    -3.685      3.980      5.639
REMARK INTER + INTRA:          -5.434
REMARK INTER:                  -5.101
REMARK INTRA:                  -0.333
REMARK UNBOUND:                -0.240
REMARK SMILES CCCCCCCCC(=O)[O-]
REMARK SMILES IDX 6 1 7 2 8 3 9 4 10 5 11 6 5 7 4 8 3 9 2 10 1 11
REMARK H PARENT
REMARK Flexibility Score: inf
ROOT
ATOM      1  C   UNL     1      32.406  24.276  68.107  1.00  0.00     0.000 C 
ENDROOT
BRANCH   1   2
ATOM      2  C   UNL     1      31.614  24.648  66.848  1.00  0.00     0.006 C 
BRANCH   2   3
ATOM      3  C   UNL     1      32.517  24.654  65.611  1.00  0.00     0.053 C 
BRANCH   3   4
ATOM      4  C   UNL     1      31.800  25.250  64.442  1.00  0.00     0.041 C 
ATOM      5  O   UNL     1      30.567  25.046  64.284  1.00  0.00    -0.550 OA
ATOM      6  O   UNL     1      32.481  26.071  63.552  1.00  0.00    -0.550 OA
ENDBRANCH   3   4
ENDBRANCH   2   3
ENDBRANCH   1   2
BRANCH   1   7
ATOM      7  C   UNL     1      31.625  24.643  69.377  1.00  0.00     0.000 C 
BRANCH   7   8
ATOM      8  C   UNL     1      32.529  24.767  70.614  1.00  0.00    -0.000 C 
BRANCH   8   9
ATOM      9  C   UNL     1      32.851  26.230  70.967  1.00  0.00    -0.000 C 
BRANCH   9  10
ATOM     10  C   UNL     1      34.362  26.502  71.027  1.00  0.00    -0.003 C 
ATOM     11  C   UNL     1      35.197  25.283  70.632  1.00  0.00     0.004 C 
ENDBRANCH   9  10
ENDBRANCH   8   9
ENDBRANCH   7   8
ENDBRANCH   1   7
TORSDOF 7
ENDMDL
