MODEL 1
REMARK VINA RESULT:    -4.018      0.000      0.000
REMARK INTER + INTRA:         -12.602
REMARK INTER:                  -9.185
REMARK INTRA:                  -3.417
REMARK UNBOUND:                -3.417
REMARK SMILES CCCCCCCCCCCCCCCCCCCCCCCC(=O)[O-]
REMARK SMILES IDX 13 1 14 2 15 3 16 4 17 5 18 6 19 7 20 8 21 9 22 10 23 11
REMARK SMILES IDX 24 12 25 13 26 14 12 15 11 16 10 17 9 18 8 19 7 20 6 21 5 22
REMARK SMILES IDX 4 23 3 24 2 25 1 26
REMARK H PARENT
REMARK Flexibility Score: inf
ROOT
ATOM      1  C   UNL     1      36.286 -48.934   3.428  1.00  0.00     0.000 C 
ENDROOT
BRANCH   1   2
ATOM      2  C   UNL     1      35.549 -47.645   3.829  1.00  0.00     0.000 C 
BRANCH   2   3
ATOM      3  C   UNL     1      35.564 -46.567   2.725  1.00  0.00     0.000 C 
BRANCH   3   4
ATOM      4  C   UNL     1      34.540 -45.422   2.897  1.00  0.00     0.000 C 
BRANCH   4   5
ATOM      5  C   UNL     1      34.279 -44.586   1.623  1.00  0.00     0.000 C 
BRANCH   5   6
ATOM      6  C   UNL     1      32.827 -44.656   1.122  1.00  0.00     0.000 C 
BRANCH   6   7
ATOM      7  C   UNL     1      32.591 -43.814  -0.143  1.00  0.00     0.000 C 
BRANCH   7   8
ATOM      8  C   UNL     1      32.558 -44.664  -1.427  1.00  0.00     0.000 C 
BRANCH   8   9
ATOM      9  C   UNL     1      33.720 -44.403  -2.403  1.00  0.00     0.000 C 
BRANCH   9  10
ATOM     10  C   UNL     1      33.285 -43.628  -3.659  1.00  0.00     0.006 C 
BRANCH  10  11
ATOM     11  C   UNL     1      32.002 -44.200  -4.276  1.00  0.00     0.053 C 
BRANCH  11  12
ATOM     12  C   UNL     1      31.566 -43.413  -5.474  1.00  0.00     0.041 C 
ATOM     13  O   UNL     1      32.285 -43.381  -6.509  1.00  0.00    -0.550 OA
ATOM     14  O   UNL     1      30.348 -42.745  -5.461  1.00  0.00    -0.550 OA
ENDBRANCH  11  12
ENDBRANCH  10  11
ENDBRANCH   9  10
ENDBRANCH   8   9
ENDBRANCH   7   8
ENDBRANCH   6   7
ENDBRANCH   5   6
ENDBRANCH   4   5
ENDBRANCH   3   4
ENDBRANCH   2   3
ENDBRANCH   1   2
BRANCH   1  15
ATOM     15  C   UNL     1      35.729 -49.585   2.144  1.00  0.00     0.000 C 
BRANCH  15  16
ATOM     16  C   UNL     1      34.385 -50.331   2.302  1.00  0.00     0.000 C 
BRANCH  16  17
ATOM     17  C   UNL     1      33.329 -49.996   1.224  1.00  0.00     0.000 C 
BRANCH  17  18
ATOM     18  C   UNL     1      33.192 -48.493   0.932  1.00  0.00    -0.000 C 
BRANCH  18  19
ATOM     19  C   UNL     1      33.383 -48.151  -0.554  1.00  0.00    -0.000 C 
BRANCH  19  20
ATOM     20  C   UNL     1      34.786 -47.576  -0.863  1.00  0.00    -0.000 C 
BRANCH  20  21
ATOM     21  C   UNL     1      35.553 -48.355  -1.950  1.00  0.00    -0.000 C 
BRANCH  21  22
ATOM     22  C   UNL     1      35.424 -47.766  -3.364  1.00  0.00    -0.000 C 
BRANCH  22  23
ATOM     23  C   UNL     1      34.217 -48.323  -4.154  1.00  0.00    -0.000 C 
BRANCH  23  24
ATOM     24  C   UNL     1      34.326 -49.837  -4.390  1.00  0.00    -0.000 C 
BRANCH  24  25
ATOM     25  C   UNL     1      32.966 -50.551  -4.348  1.00  0.00    -0.003 C 
ATOM     26  C   UNL     1      31.946 -49.843  -3.454  1.00  0.00     0.004 C 
ENDBRANCH  24  25
ENDBRANCH  23  24
ENDBRANCH  22  23
ENDBRANCH  21  22
ENDBRANCH  20  21
ENDBRANCH  19  20
ENDBRANCH  18  19
ENDBRANCH  17  18
ENDBRANCH  16  17
ENDBRANCH  15  16
ENDBRANCH   1  15
TORSDOF 22
ENDMDL
MODEL 2
REMARK VINA RESULT:    -4.000      4.312      7.312
REMARK INTER + INTRA:         -12.562
REMARK INTER:                  -7.961
REMARK INTRA:                  -4.601
REMARK UNBOUND:                -3.417
REMARK SMILES CCCCCCCCCCCCCCCCCCCCCCCC(=O)[O-]
REMARK SMILES IDX 13 1 14 2 15 3 16 4 17 5 18 6 19 7 20 8 21 9 22 10 23 11
REMARK SMILES IDX 24 12 25 13 26 14 12 15 11 16 10 17 9 18 8 19 7 20 6 21 5 22
REMARK SMILES IDX 4 23 3 24 2 25 1 26
REMARK H PARENT
REMARK Flexibility Score: inf
ROOT
ATOM      1  C   UNL     1      34.785 -43.521  -1.240  1.00  0.00     0.000 C 
ENDROOT
BRANCH   1   2
ATOM      2  C   UNL     1      33.910 -44.053  -2.388  1.00  0.00     0.000 C 
BRANCH   2   3
ATOM      3  C   UNL     1      34.201 -45.526  -2.744  1.00  0.00     0.000 C 
BRANCH   3   4
ATOM      4  C   UNL     1      32.962 -46.389  -3.074  1.00  0.00     0.000 C 
BRANCH   4   5
ATOM      5  C   UNL     1      32.889 -47.736  -2.319  1.00  0.00     0.000 C 
BRANCH   5   6
ATOM      6  C   UNL     1      33.296 -47.642  -0.839  1.00  0.00     0.000 C 
BRANCH   6   7
ATOM      7  C   UNL     1      33.209 -48.992  -0.109  1.00  0.00     0.000 C 
BRANCH   7   8
ATOM      8  C   UNL     1      33.674 -48.908   1.357  1.00  0.00     0.000 C 
BRANCH   8   9
ATOM      9  C   UNL     1      34.077 -50.255   1.983  1.00  0.00     0.000 C 
BRANCH   9  10
ATOM     10  C   UNL     1      35.550 -50.291   2.429  1.00  0.00     0.006 C 
BRANCH  10  11
ATOM     11  C   UNL     1      35.798 -49.427   3.673  1.00  0.00     0.053 C 
BRANCH  11  12
ATOM     12  C   UNL     1      36.689 -50.120   4.659  1.00  0.00     0.041 C 
ATOM     13  O   UNL     1      36.499 -49.978   5.896  1.00  0.00    -0.550 OA
ATOM     14  O   UNL     1      37.708 -50.952   4.208  1.00  0.00    -0.550 OA
ENDBRANCH  11  12
ENDBRANCH  10  11
ENDBRANCH   9  10
ENDBRANCH   8   9
ENDBRANCH   7   8
ENDBRANCH   6   7
ENDBRANCH   5   6
ENDBRANCH   4   5
ENDBRANCH   3   4
ENDBRANCH   2   3
ENDBRANCH   1   2
BRANCH   1  15
ATOM     15  C   UNL     1      33.991 -43.218   0.047  1.00  0.00     0.000 C 
BRANCH  15  16
ATOM     16  C   UNL     1      32.764 -44.121   0.304  1.00  0.00     0.000 C 
BRANCH  16  17
ATOM     17  C   UNL     1      32.835 -44.953   1.604  1.00  0.00     0.000 C 
BRANCH  17  18
ATOM     18  C   UNL     1      34.047 -44.623   2.491  1.00  0.00    -0.000 C 
BRANCH  18  19
ATOM     19  C   UNL     1      34.884 -45.861   2.848  1.00  0.00    -0.000 C 
BRANCH  19  20
ATOM     20  C   UNL     1      36.274 -45.863   2.170  1.00  0.00    -0.000 C 
BRANCH  20  21
ATOM     21  C   UNL     1      36.260 -46.387   0.720  1.00  0.00    -0.000 C 
BRANCH  21  22
ATOM     22  C   UNL     1      37.385 -47.385   0.395  1.00  0.00    -0.000 C 
BRANCH  22  23
ATOM     23  C   UNL     1      36.920 -48.570  -0.483  1.00  0.00    -0.000 C 
BRANCH  23  24
ATOM     24  C   UNL     1      36.867 -48.202  -1.975  1.00  0.00    -0.000 C 
BRANCH  24  25
ATOM     25  C   UNL     1      36.197 -49.284  -2.836  1.00  0.00    -0.003 C 
ATOM     26  C   UNL     1      35.768 -48.772  -4.212  1.00  0.00     0.004 C 
ENDBRANCH  24  25
ENDBRANCH  23  24
ENDBRANCH  22  23
ENDBRANCH  21  22
ENDBRANCH  20  21
ENDBRANCH  19  20
ENDBRANCH  18  19
ENDBRANCH  17  18
ENDBRANCH  16  17
ENDBRANCH  15  16
ENDBRANCH   1  15
TORSDOF 22
ENDMDL
MODEL 3
REMARK VINA RESULT:    -3.980      4.002      6.893
REMARK INTER + INTRA:         -12.517
REMARK INTER:                  -8.412
REMARK INTRA:                  -4.105
REMARK UNBOUND:                -3.417
REMARK SMILES CCCCCCCCCCCCCCCCCCCCCCCC(=O)[O-]
REMARK SMILES IDX 13 1 14 2 15 3 16 4 17 5 18 6 19 7 20 8 21 9 22 10 23 11
REMARK SMILES IDX 24 12 25 13 26 14 12 15 11 16 10 17 9 18 8 19 7 20 6 21 5 22
REMARK SMILES IDX 4 23 3 24 2 25 1 26
REMARK H PARENT
REMARK Flexibility Score: inf
ROOT
ATOM      1  C   UNL     1      36.384 -45.618   2.083  1.00  0.00     0.000 C 
ENDROOT
BRANCH   1   2
ATOM      2  C   UNL     1      36.667 -46.479   0.839  1.00  0.00     0.000 C 
BRANCH   2   3
ATOM      3  C   UNL     1      36.223 -45.810  -0.478  1.00  0.00     0.000 C 
BRANCH   3   4
ATOM      4  C   UNL     1      35.457 -46.721  -1.463  1.00  0.00     0.000 C 
BRANCH   4   5
ATOM      5  C   UNL     1      35.267 -48.179  -0.987  1.00  0.00     0.000 C 
BRANCH   5   6
ATOM      6  C   UNL     1      33.795 -48.606  -0.867  1.00  0.00     0.000 C 
BRANCH   6   7
ATOM      7  C   UNL     1      33.223 -48.386   0.543  1.00  0.00     0.000 C 
BRANCH   7   8
ATOM      8  C   UNL     1      33.463 -49.586   1.478  1.00  0.00     0.000 C 
BRANCH   8   9
ATOM      9  C   UNL     1      34.570 -49.374   2.527  1.00  0.00     0.000 C 
BRANCH   9  10
ATOM     10  C   UNL     1      35.554 -50.554   2.606  1.00  0.00     0.006 C 
BRANCH  10  11
ATOM     11  C   UNL     1      36.963 -50.106   3.017  1.00  0.00     0.053 C 
BRANCH  11  12
ATOM     12  C   UNL     1      36.944 -49.324   4.295  1.00  0.00     0.041 C 
ATOM     13  O   UNL     1      37.322 -48.123   4.311  1.00  0.00    -0.550 OA
ATOM     14  O   UNL     1      36.473 -49.914   5.463  1.00  0.00    -0.550 OA
ENDBRANCH  11  12
ENDBRANCH  10  11
ENDBRANCH   9  10
ENDBRANCH   8   9
ENDBRANCH   7   8
ENDBRANCH   6   7
ENDBRANCH   5   6
ENDBRANCH   4   5
ENDBRANCH   3   4
ENDBRANCH   2   3
ENDBRANCH   1   2
BRANCH   1  15
ATOM     15  C   UNL     1      34.965 -45.815   2.656  1.00  0.00     0.000 C 
BRANCH  15  16
ATOM     16  C   UNL     1      34.018 -44.601   2.524  1.00  0.00     0.000 C 
BRANCH  16  17
ATOM     17  C   UNL     1      32.821 -44.816   1.569  1.00  0.00     0.000 C 
BRANCH  17  18
ATOM     18  C   UNL     1      32.821 -43.879   0.349  1.00  0.00    -0.000 C 
BRANCH  18  19
ATOM     19  C   UNL     1      32.618 -44.624  -0.979  1.00  0.00    -0.000 C 
BRANCH  19  20
ATOM     20  C   UNL     1      31.320 -44.207  -1.711  1.00  0.00    -0.000 C 
BRANCH  20  21
ATOM     21  C   UNL     1      30.913 -45.159  -2.852  1.00  0.00    -0.000 C 
BRANCH  21  22
ATOM     22  C   UNL     1      31.758 -46.442  -2.940  1.00  0.00    -0.000 C 
BRANCH  22  23
ATOM     23  C   UNL     1      32.763 -46.435  -4.116  1.00  0.00    -0.000 C 
BRANCH  23  24
ATOM     24  C   UNL     1      32.392 -45.402  -5.191  1.00  0.00    -0.000 C 
BRANCH  24  25
ATOM     25  C   UNL     1      33.552 -44.455  -5.539  1.00  0.00    -0.003 C 
ATOM     26  C   UNL     1      34.052 -43.655  -4.335  1.00  0.00     0.004 C 
ENDBRANCH  24  25
ENDBRANCH  23  24
ENDBRANCH  22  23
ENDBRANCH  21  22
ENDBRANCH  20  21
ENDBRANCH  19  20
ENDBRANCH  18  19
ENDBRANCH  17  18
ENDBRANCH  16  17
ENDBRANCH  15  16
ENDBRANCH   1  15
TORSDOF 22
ENDMDL
MODEL 4
REMARK VINA RESULT:    -3.960      3.711      7.300
REMARK INTER + INTRA:         -12.470
REMARK INTER:                  -8.571
REMARK INTRA:                  -3.899
REMARK UNBOUND:                -3.417
REMARK SMILES CCCCCCCCCCCCCCCCCCCCCCCC(=O)[O-]
REMARK SMILES IDX 13 1 14 2 15 3 16 4 17 5 18 6 19 7 20 8 21 9 22 10 23 11
REMARK SMILES IDX 24 12 25 13 26 14 12 15 11 16 10 17 9 18 8 19 7 20 6 21 5 22
REMARK SMILES IDX 4 23 3 24 2 25 1 26
REMARK H PARENT
REMARK Flexibility Score: inf
ROOT
ATOM      1  C   UNL     1      34.158 -44.173  -5.082  1.00  0.00     0.000 C 
ENDROOT
BRANCH   1   2
ATOM      2  C   UNL     1      33.981 -43.551  -3.686  1.00  0.00     0.000 C 
BRANCH   2   3
ATOM      3  C   UNL     1      34.880 -44.200  -2.612  1.00  0.00     0.000 C 
BRANCH   3   4
ATOM      4  C   UNL     1      34.655 -43.703  -1.167  1.00  0.00     0.000 C 
BRANCH   4   5
ATOM      5  C   UNL     1      33.184 -43.393  -0.807  1.00  0.00     0.000 C 
BRANCH   5   6
ATOM      6  C   UNL     1      32.687 -44.118   0.455  1.00  0.00     0.000 C 
BRANCH   6   7
ATOM      7  C   UNL     1      33.681 -45.171   0.969  1.00  0.00     0.000 C 
BRANCH   7   8
ATOM      8  C   UNL     1      33.239 -46.613   0.655  1.00  0.00     0.000 C 
BRANCH   8   9
ATOM      9  C   UNL     1      34.364 -47.537   0.155  1.00  0.00     0.000 C 
BRANCH   9  10
ATOM     10  C   UNL     1      35.274 -48.042   1.289  1.00  0.00     0.006 C 
BRANCH  10  11
ATOM     11  C   UNL     1      34.519 -48.937   2.281  1.00  0.00     0.053 C 
BRANCH  11  12
ATOM     12  C   UNL     1      35.209 -50.252   2.475  1.00  0.00     0.041 C 
ATOM     13  O   UNL     1      36.463 -50.331   2.381  1.00  0.00    -0.550 OA
ATOM     14  O   UNL     1      34.469 -51.384   2.796  1.00  0.00    -0.550 OA
ENDBRANCH  11  12
ENDBRANCH  10  11
ENDBRANCH   9  10
ENDBRANCH   8   9
ENDBRANCH   7   8
ENDBRANCH   6   7
ENDBRANCH   5   6
ENDBRANCH   4   5
ENDBRANCH   3   4
ENDBRANCH   2   3
ENDBRANCH   1   2
BRANCH   1  15
ATOM     15  C   UNL     1      32.842 -44.272  -5.881  1.00  0.00     0.000 C 
BRANCH  15  16
ATOM     16  C   UNL     1      32.314 -42.943  -6.466  1.00  0.00     0.000 C 
BRANCH  16  17
ATOM     17  C   UNL     1      31.156 -42.301  -5.669  1.00  0.00     0.000 C 
BRANCH  17  18
ATOM     18  C   UNL     1      30.271 -43.317  -4.928  1.00  0.00    -0.000 C 
BRANCH  18  19
ATOM     19  C   UNL     1      30.193 -43.055  -3.416  1.00  0.00    -0.000 C 
BRANCH  19  20
ATOM     20  C   UNL     1      30.079 -44.355  -2.585  1.00  0.00    -0.000 C 
BRANCH  20  21
ATOM     21  C   UNL     1      30.601 -45.609  -3.313  1.00  0.00    -0.000 C 
BRANCH  21  22
ATOM     22  C   UNL     1      31.845 -46.245  -2.669  1.00  0.00    -0.000 C 
BRANCH  22  23
ATOM     23  C   UNL     1      32.231 -47.607  -3.292  1.00  0.00    -0.000 C 
BRANCH  23  24
ATOM     24  C   UNL     1      33.746 -47.734  -3.518  1.00  0.00    -0.000 C 
BRANCH  24  25
ATOM     25  C   UNL     1      34.284 -49.139  -3.203  1.00  0.00    -0.003 C 
ATOM     26  C   UNL     1      34.384 -50.032  -4.441  1.00  0.00     0.004 C 
ENDBRANCH  24  25
ENDBRANCH  23  24
ENDBRANCH  22  23
ENDBRANCH  21  22
ENDBRANCH  20  21
ENDBRANCH  19  20
ENDBRANCH  18  19
ENDBRANCH  17  18
ENDBRANCH  16  17
ENDBRANCH  15  16
ENDBRANCH   1  15
TORSDOF 22
ENDMDL
MODEL 5
REMARK VINA RESULT:    -3.946      1.704      4.057
REMARK INTER + INTRA:         -12.438
REMARK INTER:                  -7.919
REMARK INTRA:                  -4.519
REMARK UNBOUND:                -3.417
REMARK SMILES CCCCCCCCCCCCCCCCCCCCCCCC(=O)[O-]
REMARK SMILES IDX 13 1 14 2 15 3 16 4 17 5 18 6 19 7 20 8 21 9 22 10 23 11
REMARK SMILES IDX 24 12 25 13 26 14 12 15 11 16 10 17 9 18 8 19 7 20 6 21 5 22
REMARK SMILES IDX 4 23 3 24 2 25 1 26
REMARK H PARENT
REMARK Flexibility Score: inf
ROOT
ATOM      1  C   UNL     1      35.363 -46.400   2.178  1.00  0.00     0.000 C 
ENDROOT
BRANCH   1   2
ATOM      2  C   UNL     1      34.623 -45.172   2.738  1.00  0.00     0.000 C 
BRANCH   2   3
ATOM      3  C   UNL     1      33.199 -45.008   2.166  1.00  0.00     0.000 C 
BRANCH   3   4
ATOM      4  C   UNL     1      33.098 -44.988   0.624  1.00  0.00     0.000 C 
BRANCH   4   5
ATOM      5  C   UNL     1      32.658 -43.636   0.019  1.00  0.00     0.000 C 
BRANCH   5   6
ATOM      6  C   UNL     1      31.671 -43.772  -1.152  1.00  0.00     0.000 C 
BRANCH   6   7
ATOM      7  C   UNL     1      31.865 -45.071  -1.950  1.00  0.00     0.000 C 
BRANCH   7   8
ATOM      8  C   UNL     1      31.356 -44.963  -3.399  1.00  0.00     0.000 C 
BRANCH   8   9
ATOM      9  C   UNL     1      32.190 -45.739  -4.435  1.00  0.00     0.000 C 
BRANCH   9  10
ATOM     10  C   UNL     1      33.075 -44.822  -5.299  1.00  0.00     0.006 C 
BRANCH  10  11
ATOM     11  C   UNL     1      33.241 -43.428  -4.680  1.00  0.00     0.053 C 
BRANCH  11  12
ATOM     12  C   UNL     1      32.727 -42.355  -5.590  1.00  0.00     0.041 C 
ATOM     13  O   UNL     1      33.233 -41.201  -5.562  1.00  0.00    -0.550 OA
ATOM     14  O   UNL     1      31.711 -42.639  -6.495  1.00  0.00    -0.550 OA
ENDBRANCH  11  12
ENDBRANCH  10  11
ENDBRANCH   9  10
ENDBRANCH   8   9
ENDBRANCH   7   8
ENDBRANCH   6   7
ENDBRANCH   5   6
ENDBRANCH   4   5
ENDBRANCH   3   4
ENDBRANCH   2   3
ENDBRANCH   1   2
BRANCH   1  15
ATOM     15  C   UNL     1      34.728 -47.742   2.595  1.00  0.00     0.000 C 
BRANCH  15  16
ATOM     16  C   UNL     1      34.567 -48.784   1.466  1.00  0.00     0.000 C 
BRANCH  16  17
ATOM     17  C   UNL     1      33.225 -48.709   0.703  1.00  0.00     0.000 C 
BRANCH  17  18
ATOM     18  C   UNL     1      33.367 -48.282  -0.768  1.00  0.00    -0.000 C 
BRANCH  18  19
ATOM     19  C   UNL     1      34.817 -47.962  -1.162  1.00  0.00    -0.000 C 
BRANCH  19  20
ATOM     20  C   UNL     1      34.941 -47.407  -2.600  1.00  0.00    -0.000 C 
BRANCH  20  21
ATOM     21  C   UNL     1      35.461 -45.957  -2.668  1.00  0.00    -0.000 C 
BRANCH  21  22
ATOM     22  C   UNL     1      35.961 -45.400  -1.325  1.00  0.00    -0.000 C 
BRANCH  22  23
ATOM     23  C   UNL     1      36.131 -43.862  -1.323  1.00  0.00    -0.000 C 
BRANCH  23  24
ATOM     24  C   UNL     1      36.546 -43.325   0.056  1.00  0.00    -0.000 C 
BRANCH  24  25
ATOM     25  C   UNL     1      35.909 -41.966   0.387  1.00  0.00    -0.003 C 
ATOM     26  C   UNL     1      35.587 -41.803   1.873  1.00  0.00     0.004 C 
ENDBRANCH  24  25
ENDBRANCH  23  24
ENDBRANCH  22  23
ENDBRANCH  21  22
ENDBRANCH  20  21
ENDBRANCH  19  20
ENDBRANCH  18  19
ENDBRANCH  17  18
ENDBRANCH  16  17
ENDBRANCH  15  16
ENDBRANCH   1  15
TORSDOF 22
ENDMDL
MODEL 6
REMARK VINA RESULT:    -3.906      2.996      6.880
REMARK INTER + INTRA:         -12.347
REMARK INTER:                  -8.417
REMARK INTRA:                  -3.931
REMARK UNBOUND:                -3.417
REMARK SMILES CCCCCCCCCCCCCCCCCCCCCCCC(=O)[O-]
REMARK SMILES IDX 13 1 14 2 15 3 16 4 17 5 18 6 19 7 20 8 21 9 22 10 23 11
REMARK SMILES IDX 24 12 25 13 26 14 12 15 11 16 10 17 9 18 8 19 7 20 6 21 5 22
REMARK SMILES IDX 4 23 3 24 2 25 1 26
REMARK H PARENT
REMARK Flexibility Score: inf
ROOT
ATOM      1  C   UNL     1      32.989 -44.244  -2.639  1.00  0.00     0.000 C 
ENDROOT
BRANCH   1   2
ATOM      2  C   UNL     1      34.215 -43.707  -1.880  1.00  0.00     0.000 C 
BRANCH   2   3
ATOM      3  C   UNL     1      33.866 -43.131  -0.492  1.00  0.00     0.000 C 
BRANCH   3   4
ATOM      4  C   UNL     1      32.874 -43.967   0.347  1.00  0.00     0.000 C 
BRANCH   4   5
ATOM      5  C   UNL     1      33.528 -44.876   1.413  1.00  0.00     0.000 C 
BRANCH   5   6
ATOM      6  C   UNL     1      33.539 -46.367   1.036  1.00  0.00     0.000 C 
BRANCH   6   7
ATOM      7  C   UNL     1      34.806 -46.780   0.270  1.00  0.00     0.000 C 
BRANCH   7   8
ATOM      8  C   UNL     1      34.505 -47.284  -1.154  1.00  0.00     0.000 C 
BRANCH   8   9
ATOM      9  C   UNL     1      33.166 -48.027  -1.304  1.00  0.00     0.000 C 
BRANCH   9  10
ATOM     10  C   UNL     1      32.881 -48.460  -2.754  1.00  0.00     0.006 C 
BRANCH  10  11
ATOM     11  C   UNL     1      34.170 -48.656  -3.563  1.00  0.00     0.053 C 
BRANCH  11  12
ATOM     12  C   UNL     1      34.185 -49.979  -4.266  1.00  0.00     0.041 C 
ATOM     13  O   UNL     1      35.279 -50.512  -4.593  1.00  0.00    -0.550 OA
ATOM     14  O   UNL     1      32.991 -50.641  -4.527  1.00  0.00    -0.550 OA
ENDBRANCH  11  12
ENDBRANCH  10  11
ENDBRANCH   9  10
ENDBRANCH   8   9
ENDBRANCH   7   8
ENDBRANCH   6   7
ENDBRANCH   5   6
ENDBRANCH   4   5
ENDBRANCH   3   4
ENDBRANCH   2   3
ENDBRANCH   1   2
BRANCH   1  15
ATOM     15  C   UNL     1      33.335 -44.840  -4.020  1.00  0.00     0.000 C 
BRANCH  15  16
ATOM     16  C   UNL     1      32.137 -45.380  -4.833  1.00  0.00     0.000 C 
BRANCH  16  17
ATOM     17  C   UNL     1      30.903 -45.767  -3.986  1.00  0.00     0.000 C 
BRANCH  17  18
ATOM     18  C   UNL     1      29.561 -45.373  -4.625  1.00  0.00    -0.000 C 
BRANCH  18  19
ATOM     19  C   UNL     1      28.609 -44.677  -3.639  1.00  0.00    -0.000 C 
BRANCH  19  20
ATOM     20  C   UNL     1      29.356 -43.901  -2.529  1.00  0.00    -0.000 C 
BRANCH  20  21
ATOM     21  C   UNL     1      29.471 -42.387  -2.794  1.00  0.00    -0.000 C 
BRANCH  21  22
ATOM     22  C   UNL     1      28.687 -41.897  -4.023  1.00  0.00    -0.000 C 
BRANCH  22  23
ATOM     23  C   UNL     1      29.542 -41.059  -5.003  1.00  0.00    -0.000 C 
BRANCH  23  24
ATOM     24  C   UNL     1      30.133 -41.914  -6.135  1.00  0.00    -0.000 C 
BRANCH  24  25
ATOM     25  C   UNL     1      31.667 -42.004  -6.081  1.00  0.00    -0.003 C 
ATOM     26  C   UNL     1      32.264 -42.749  -7.276  1.00  0.00     0.004 C 
ENDBRANCH  24  25
ENDBRANCH  23  24
ENDBRANCH  22  23
ENDBRANCH  21  22
ENDBRANCH  20  21
ENDBRANCH  19  20
ENDBRANCH  18  19
ENDBRANCH  17  18
ENDBRANCH  16  17
ENDBRANCH  15  16
ENDBRANCH   1  15
TORSDOF 22
ENDMDL
MODEL 7
REMARK VINA RESULT:    -3.891      3.770      7.008
REMARK INTER + INTRA:         -12.312
REMARK INTER:                  -8.424
REMARK INTRA:                  -3.888
REMARK UNBOUND:                -3.417
REMARK SMILES CCCCCCCCCCCCCCCCCCCCCCCC(=O)[O-]
REMARK SMILES IDX 13 1 14 2 15 3 16 4 17 5 18 6 19 7 20 8 21 9 22 10 23 11
REMARK SMILES IDX 24 12 25 13 26 14 12 15 11 16 10 17 9 18 8 19 7 20 6 21 5 22
REMARK SMILES IDX 4 23 3 24 2 25 1 26
REMARK H PARENT
REMARK Flexibility Score: inf
ROOT
ATOM      1  C   UNL     1      35.689 -45.829  -1.758  1.00  0.00     0.000 C 
ENDROOT
BRANCH   1   2
ATOM      2  C   UNL     1      35.046 -44.527  -2.266  1.00  0.00     0.000 C 
BRANCH   2   3
ATOM      3  C   UNL     1      34.765 -43.508  -1.141  1.00  0.00     0.000 C 
BRANCH   3   4
ATOM      4  C   UNL     1      33.302 -43.446  -0.649  1.00  0.00     0.000 C 
BRANCH   4   5
ATOM      5  C   UNL     1      32.814 -44.706   0.102  1.00  0.00     0.000 C 
BRANCH   5   6
ATOM      6  C   UNL     1      32.811 -44.554   1.633  1.00  0.00     0.000 C 
BRANCH   6   7
ATOM      7  C   UNL     1      34.214 -44.682   2.248  1.00  0.00     0.000 C 
BRANCH   7   8
ATOM      8  C   UNL     1      34.928 -45.985   1.841  1.00  0.00     0.000 C 
BRANCH   8   9
ATOM      9  C   UNL     1      34.223 -47.275   2.295  1.00  0.00     0.000 C 
BRANCH   9  10
ATOM     10  C   UNL     1      33.722 -48.131   1.118  1.00  0.00     0.006 C 
BRANCH  10  11
ATOM     11  C   UNL     1      34.520 -49.433   0.969  1.00  0.00     0.053 C 
BRANCH  11  12
ATOM     12  C   UNL     1      34.076 -50.471   1.953  1.00  0.00     0.041 C 
ATOM     13  O   UNL     1      34.871 -50.892   2.835  1.00  0.00    -0.550 OA
ATOM     14  O   UNL     1      32.770 -50.945   1.920  1.00  0.00    -0.550 OA
ENDBRANCH  11  12
ENDBRANCH  10  11
ENDBRANCH   9  10
ENDBRANCH   8   9
ENDBRANCH   7   8
ENDBRANCH   6   7
ENDBRANCH   5   6
ENDBRANCH   4   5
ENDBRANCH   3   4
ENDBRANCH   2   3
ENDBRANCH   1   2
BRANCH   1  15
ATOM     15  C   UNL     1      34.920 -47.098  -2.180  1.00  0.00     0.000 C 
BRANCH  15  16
ATOM     16  C   UNL     1      33.801 -46.885  -3.224  1.00  0.00     0.000 C 
BRANCH  16  17
ATOM     17  C   UNL     1      32.367 -46.896  -2.647  1.00  0.00     0.000 C 
BRANCH  17  18
ATOM     18  C   UNL     1      31.357 -46.081  -3.472  1.00  0.00    -0.000 C 
BRANCH  18  19
ATOM     19  C   UNL     1      32.028 -45.173  -4.515  1.00  0.00    -0.000 C 
BRANCH  19  20
ATOM     20  C   UNL     1      31.932 -43.672  -4.155  1.00  0.00    -0.000 C 
BRANCH  20  21
ATOM     21  C   UNL     1      31.191 -42.824  -5.208  1.00  0.00    -0.000 C 
BRANCH  21  22
ATOM     22  C   UNL     1      29.693 -43.143  -5.340  1.00  0.00    -0.000 C 
BRANCH  22  23
ATOM     23  C   UNL     1      28.777 -42.055  -4.732  1.00  0.00    -0.000 C 
BRANCH  23  24
ATOM     24  C   UNL     1      29.012 -41.876  -3.224  1.00  0.00    -0.000 C 
BRANCH  24  25
ATOM     25  C   UNL     1      28.607 -43.110  -2.402  1.00  0.00    -0.003 C 
ATOM     26  C   UNL     1      29.569 -43.403  -1.249  1.00  0.00     0.004 C 
ENDBRANCH  24  25
ENDBRANCH  23  24
ENDBRANCH  22  23
ENDBRANCH  21  22
ENDBRANCH  20  21
ENDBRANCH  19  20
ENDBRANCH  18  19
ENDBRANCH  17  18
ENDBRANCH  16  17
ENDBRANCH  15  16
ENDBRANCH   1  15
TORSDOF 22
ENDMDL
MODEL 8
REMARK VINA RESULT:    -3.890      3.328      6.688
REMARK INTER + INTRA:         -12.309
REMARK INTER:                  -8.063
REMARK INTRA:                  -4.246
REMARK UNBOUND:                -3.417
REMARK SMILES CCCCCCCCCCCCCCCCCCCCCCCC(=O)[O-]
REMARK SMILES IDX 13 1 14 2 15 3 16 4 17 5 18 6 19 7 20 8 21 9 22 10 23 11
REMARK SMILES IDX 24 12 25 13 26 14 12 15 11 16 10 17 9 18 8 19 7 20 6 21 5 22
REMARK SMILES IDX 4 23 3 24 2 25 1 26
REMARK H PARENT
REMARK Flexibility Score: inf
ROOT
ATOM      1  C   UNL     1      32.930 -45.166  -5.297  1.00  0.00     0.000 C 
ENDROOT
BRANCH   1   2
ATOM      2  C   UNL     1      33.863 -43.943  -5.270  1.00  0.00     0.000 C 
BRANCH   2   3
ATOM      3  C   UNL     1      33.122 -42.618  -4.995  1.00  0.00     0.000 C 
BRANCH   3   4
ATOM      4  C   UNL     1      33.290 -41.524  -6.074  1.00  0.00     0.000 C 
BRANCH   4   5
ATOM      5  C   UNL     1      33.550 -42.055  -7.503  1.00  0.00     0.000 C 
BRANCH   5   6
ATOM      6  C   UNL     1      32.275 -42.492  -8.244  1.00  0.00     0.000 C 
BRANCH   6   7
ATOM      7  C   UNL     1      31.053 -41.630  -7.890  1.00  0.00     0.000 C 
BRANCH   7   8
ATOM      8  C   UNL     1      29.896 -42.452  -7.290  1.00  0.00     0.000 C 
BRANCH   8   9
ATOM      9  C   UNL     1      29.392 -41.953  -5.924  1.00  0.00     0.000 C 
BRANCH   9  10
ATOM     10  C   UNL     1      27.877 -42.147  -5.737  1.00  0.00     0.006 C 
BRANCH  10  11
ATOM     11  C   UNL     1      27.460 -43.617  -5.883  1.00  0.00     0.053 C 
BRANCH  11  12
ATOM     12  C   UNL     1      27.078 -44.217  -4.565  1.00  0.00     0.041 C 
ATOM     13  O   UNL     1      26.971 -45.466  -4.442  1.00  0.00    -0.550 OA
ATOM     14  O   UNL     1      26.875 -43.397  -3.461  1.00  0.00    -0.550 OA
ENDBRANCH  11  12
ENDBRANCH  10  11
ENDBRANCH   9  10
ENDBRANCH   8   9
ENDBRANCH   7   8
ENDBRANCH   6   7
ENDBRANCH   5   6
ENDBRANCH   4   5
ENDBRANCH   3   4
ENDBRANCH   2   3
ENDBRANCH   1   2
BRANCH   1  15
ATOM     15  C   UNL     1      31.454 -44.817  -5.014  1.00  0.00     0.000 C 
BRANCH  15  16
ATOM     16  C   UNL     1      30.775 -45.641  -3.897  1.00  0.00     0.000 C 
BRANCH  16  17
ATOM     17  C   UNL     1      30.085 -44.798  -2.801  1.00  0.00     0.000 C 
BRANCH  17  18
ATOM     18  C   UNL     1      30.986 -43.712  -2.190  1.00  0.00    -0.000 C 
BRANCH  18  19
ATOM     19  C   UNL     1      31.980 -44.268  -1.158  1.00  0.00    -0.000 C 
BRANCH  19  20
ATOM     20  C   UNL     1      33.445 -44.235  -1.655  1.00  0.00    -0.000 C 
BRANCH  20  21
ATOM     21  C   UNL     1      34.238 -45.521  -1.346  1.00  0.00    -0.000 C 
BRANCH  21  22
ATOM     22  C   UNL     1      33.520 -46.821  -1.745  1.00  0.00    -0.000 C 
BRANCH  22  23
ATOM     23  C   UNL     1      34.423 -47.808  -2.522  1.00  0.00    -0.000 C 
BRANCH  23  24
ATOM     24  C   UNL     1      33.673 -48.503  -3.669  1.00  0.00    -0.000 C 
BRANCH  24  25
ATOM     25  C   UNL     1      32.190 -48.752  -3.351  1.00  0.00    -0.003 C 
ATOM     26  C   UNL     1      31.799 -50.229  -3.442  1.00  0.00     0.004 C 
ENDBRANCH  24  25
ENDBRANCH  23  24
ENDBRANCH  22  23
ENDBRANCH  21  22
ENDBRANCH  20  21
ENDBRANCH  19  20
ENDBRANCH  18  19
ENDBRANCH  17  18
ENDBRANCH  16  17
ENDBRANCH  15  16
ENDBRANCH   1  15
TORSDOF 22
ENDMDL
MODEL 9
REMARK VINA RESULT:    -3.874      3.515      7.756
REMARK INTER + INTRA:         -12.273
REMARK INTER:                  -8.002
REMARK INTRA:                  -4.271
REMARK UNBOUND:                -3.417
REMARK SMILES CCCCCCCCCCCCCCCCCCCCCCCC(=O)[O-]
REMARK SMILES IDX 13 1 14 2 15 3 16 4 17 5 18 6 19 7 20 8 21 9 22 10 23 11
REMARK SMILES IDX 24 12 25 13 26 14 12 15 11 16 10 17 9 18 8 19 7 20 6 21 5 22
REMARK SMILES IDX 4 23 3 24 2 25 1 26
REMARK H PARENT
REMARK Flexibility Score: inf
ROOT
ATOM      1  C   UNL     1      31.905 -44.895  -4.556  1.00  0.00     0.000 C 
ENDROOT
BRANCH   1   2
ATOM      2  C   UNL     1      32.063 -43.884  -3.407  1.00  0.00     0.000 C 
BRANCH   2   3
ATOM      3  C   UNL     1      31.497 -44.395  -2.065  1.00  0.00     0.000 C 
BRANCH   3   4
ATOM      4  C   UNL     1      31.830 -43.529  -0.829  1.00  0.00     0.000 C 
BRANCH   4   5
ATOM      5  C   UNL     1      32.591 -44.267   0.296  1.00  0.00     0.000 C 
BRANCH   5   6
ATOM      6  C   UNL     1      33.930 -43.612   0.673  1.00  0.00     0.000 C 
BRANCH   6   7
ATOM      7  C   UNL     1      34.642 -42.973  -0.530  1.00  0.00     0.000 C 
BRANCH   7   8
ATOM      8  C   UNL     1      35.715 -43.891  -1.146  1.00  0.00     0.000 C 
BRANCH   8   9
ATOM      9  C   UNL     1      35.484 -44.250  -2.625  1.00  0.00     0.000 C 
BRANCH   9  10
ATOM     10  C   UNL     1      35.506 -45.767  -2.883  1.00  0.00     0.006 C 
BRANCH  10  11
ATOM     11  C   UNL     1      34.499 -46.519  -2.003  1.00  0.00     0.053 C 
BRANCH  11  12
ATOM     12  C   UNL     1      33.782 -47.587  -2.771  1.00  0.00     0.041 C 
ATOM     13  O   UNL     1      32.541 -47.749  -2.627  1.00  0.00    -0.550 OA
ATOM     14  O   UNL     1      34.480 -48.379  -3.676  1.00  0.00    -0.550 OA
ENDBRANCH  11  12
ENDBRANCH  10  11
ENDBRANCH   9  10
ENDBRANCH   8   9
ENDBRANCH   7   8
ENDBRANCH   6   7
ENDBRANCH   5   6
ENDBRANCH   4   5
ENDBRANCH   3   4
ENDBRANCH   2   3
ENDBRANCH   1   2
BRANCH   1  15
ATOM     15  C   UNL     1      32.848 -44.623  -5.746  1.00  0.00     0.000 C 
BRANCH  15  16
ATOM     16  C   UNL     1      33.691 -43.333  -5.649  1.00  0.00     0.000 C 
BRANCH  16  17
ATOM     17  C   UNL     1      33.174 -42.156  -6.508  1.00  0.00     0.000 C 
BRANCH  17  18
ATOM     18  C   UNL     1      32.356 -42.593  -7.735  1.00  0.00    -0.000 C 
BRANCH  18  19
ATOM     19  C   UNL     1      31.032 -41.826  -7.878  1.00  0.00    -0.000 C 
BRANCH  19  20
ATOM     20  C   UNL     1      29.900 -42.412  -7.002  1.00  0.00    -0.000 C 
BRANCH  20  21
ATOM     21  C   UNL     1      29.580 -41.572  -5.750  1.00  0.00    -0.000 C 
BRANCH  21  22
ATOM     22  C   UNL     1      28.961 -42.371  -4.591  1.00  0.00    -0.000 C 
BRANCH  22  23
ATOM     23  C   UNL     1      29.168 -41.707  -3.209  1.00  0.00    -0.000 C 
BRANCH  23  24
ATOM     24  C   UNL     1      28.199 -42.256  -2.150  1.00  0.00    -0.000 C 
BRANCH  24  25
ATOM     25  C   UNL     1      28.574 -41.839  -0.719  1.00  0.00    -0.003 C 
ATOM     26  C   UNL     1      28.405 -42.970   0.297  1.00  0.00     0.004 C 
ENDBRANCH  24  25
ENDBRANCH  23  24
ENDBRANCH  22  23
ENDBRANCH  21  22
ENDBRANCH  20  21
ENDBRANCH  19  20
ENDBRANCH  18  19
ENDBRANCH  17  18
ENDBRANCH  16  17
ENDBRANCH  15  16
ENDBRANCH   1  15
TORSDOF 22
ENDMDL
