MODEL 1
REMARK VINA RESULT:    -6.958      0.000      0.000
REMARK INTER + INTRA:         -12.171
REMARK INTER:                 -10.822
REMARK INTRA:                  -1.349
REMARK UNBOUND:                -1.349
REMARK SMILES COc1cc(CNC(=O)CCCCC=CC(C)C)ccc1O
REMARK SMILES IDX 11 1 12 2 13 3 14 4 15 5 16 6 17 7 18 8 10 9 8 10 9 11 7 12
REMARK SMILES IDX 6 14 5 15 4 16 19 17 3 18 20 19 21 20 2 21 1 22 22 23
REMARK H PARENT 7 13 22 24
REMARK Flexibility Score: inf
ROOT
ATOM      1  C   UNL     1     169.835 144.938 148.173  1.00  0.00     0.010 C 
ENDROOT
BRANCH   1   2
ATOM      2  C   UNL     1     169.033 146.232 148.374  1.00  0.00     0.005 C 
BRANCH   2   3
ATOM      3  C   UNL     1     168.264 146.248 149.705  1.00  0.00     0.027 C 
BRANCH   3   4
ATOM      4  C   UNL     1     168.019 147.659 150.172  1.00  0.00    -0.031 C 
ATOM      5  C   UNL     1     166.843 148.123 150.639  1.00  0.00    -0.028 C 
BRANCH   5   6
ATOM      6  C   UNL     1     165.561 147.320 150.725  1.00  0.00     0.005 C 
ATOM      7  C   UNL     1     164.400 148.142 150.160  1.00  0.00     0.012 C 
ATOM      8  C   UNL     1     165.291 146.933 152.181  1.00  0.00     0.012 C 
ENDBRANCH   5   6
ENDBRANCH   3   4
ENDBRANCH   2   3
ENDBRANCH   1   2
BRANCH   1   9
ATOM      9  C   UNL     1     171.279 145.055 148.677  1.00  0.00     0.100 C 
BRANCH   9  10
ATOM     10  C   UNL     1     171.429 144.356 149.995  1.00  0.00     0.220 C 
ATOM     11  O   UNL     1     171.664 143.118 150.018  1.00  0.00    -0.275 OA
ATOM     12  N   UNL     1     171.349 145.102 151.218  1.00  0.00    -0.352 N 
ATOM     13  H   UNL     1     171.206 146.136 151.172  1.00  0.00     0.163 HD
BRANCH  12  14
ATOM     14  C   UNL     1     171.478 144.474 152.530  1.00  0.00     0.151 C 
BRANCH  14  15
ATOM     15  C   UNL     1     170.513 145.095 153.503  1.00  0.00    -0.025 A 
ATOM     16  C   UNL     1     170.979 145.613 154.721  1.00  0.00     0.056 A 
ATOM     17  C   UNL     1     169.147 145.184 153.194  1.00  0.00     0.009 A 
ATOM     18  C   UNL     1     170.089 146.212 155.635  1.00  0.00     0.160 A 
ATOM     19  C   UNL     1     168.260 145.776 154.094  1.00  0.00     0.050 A 
ATOM     20  C   UNL     1     168.721 146.289 155.310  1.00  0.00     0.157 A 
BRANCH  18  21
ATOM     21  O   UNL     1     170.524 146.739 156.861  1.00  0.00    -0.493 OA
ATOM     22  C   UNL     1     171.853 146.629 157.361  1.00  0.00     0.278 C 
ENDBRANCH  18  21
BRANCH  20  23
ATOM     23  O   UNL     1     167.805 146.872 156.184  1.00  0.00    -0.504 OA
ATOM     24  H   UNL     1     167.162 146.320 156.741  1.00  0.00     0.293 HD
ENDBRANCH  20  23
ENDBRANCH  14  15
ENDBRANCH  12  14
ENDBRANCH   9  10
ENDBRANCH   1   9
TORSDOF 10
ENDMDL
MODEL 2
REMARK VINA RESULT:    -6.917      1.839      2.478
REMARK INTER + INTRA:         -12.108
REMARK INTER:                 -11.214
REMARK INTRA:                  -0.894
REMARK UNBOUND:                -1.349
REMARK SMILES COc1cc(CNC(=O)CCCCC=CC(C)C)ccc1O
REMARK SMILES IDX 11 1 12 2 13 3 14 4 15 5 16 6 17 7 18 8 10 9 8 10 9 11 7 12
REMARK SMILES IDX 6 14 5 15 4 16 19 17 3 18 20 19 21 20 2 21 1 22 22 23
REMARK H PARENT 7 13 22 24
REMARK Flexibility Score: inf
ROOT
ATOM      1  C   UNL     1     169.257 145.269 151.104  1.00  0.00     0.010 C 
ENDROOT
BRANCH   1   2
ATOM      2  C   UNL     1     169.848 146.607 150.634  1.00  0.00     0.005 C 
BRANCH   2   3
ATOM      3  C   UNL     1     168.769 147.674 150.390  1.00  0.00     0.027 C 
BRANCH   3   4
ATOM      4  C   UNL     1     167.730 147.182 149.416  1.00  0.00    -0.031 C 
ATOM      5  C   UNL     1     166.399 147.316 149.577  1.00  0.00    -0.028 C 
BRANCH   5   6
ATOM      6  C   UNL     1     165.725 147.936 150.783  1.00  0.00     0.005 C 
ATOM      7  C   UNL     1     165.773 146.958 151.960  1.00  0.00     0.012 C 
ATOM      8  C   UNL     1     164.277 148.295 150.437  1.00  0.00     0.012 C 
ENDBRANCH   5   6
ENDBRANCH   3   4
ENDBRANCH   2   3
ENDBRANCH   1   2
BRANCH   1   9
ATOM      9  C   UNL     1     170.229 144.097 150.915  1.00  0.00     0.100 C 
BRANCH   9  10
ATOM     10  C   UNL     1     171.172 144.010 152.077  1.00  0.00     0.220 C 
ATOM     11  O   UNL     1     172.274 143.415 151.939  1.00  0.00    -0.275 OA
ATOM     12  N   UNL     1     170.839 144.640 153.322  1.00  0.00    -0.352 N 
ATOM     13  H   UNL     1     169.943 145.174 153.396  1.00  0.00     0.163 HD
BRANCH  12  14
ATOM     14  C   UNL     1     171.713 144.582 154.491  1.00  0.00     0.151 C 
BRANCH  14  15
ATOM     15  C   UNL     1     171.436 145.742 155.408  1.00  0.00    -0.025 A 
ATOM     16  C   UNL     1     172.301 146.012 156.480  1.00  0.00     0.056 A 
ATOM     17  C   UNL     1     170.329 146.576 155.189  1.00  0.00     0.009 A 
ATOM     18  C   UNL     1     172.063 147.104 157.338  1.00  0.00     0.160 A 
ATOM     19  C   UNL     1     170.087 147.659 156.035  1.00  0.00     0.050 A 
ATOM     20  C   UNL     1     170.945 147.927 157.106  1.00  0.00     0.157 A 
BRANCH  18  21
ATOM     21  O   UNL     1     172.909 147.399 158.419  1.00  0.00    -0.493 OA
ATOM     22  C   UNL     1     173.401 146.436 159.346  1.00  0.00     0.278 C 
ENDBRANCH  18  21
BRANCH  20  23
ATOM     23  O   UNL     1     170.670 149.018 157.930  1.00  0.00    -0.504 OA
ATOM     24  H   UNL     1     171.243 149.854 157.929  1.00  0.00     0.293 HD
ENDBRANCH  20  23
ENDBRANCH  14  15
ENDBRANCH  12  14
ENDBRANCH   9  10
ENDBRANCH   1   9
TORSDOF 10
ENDMDL
MODEL 3
REMARK VINA RESULT:    -6.806      1.663      1.986
REMARK INTER + INTRA:         -11.935
REMARK INTER:                 -11.004
REMARK INTRA:                  -0.931
REMARK UNBOUND:                -1.349
REMARK SMILES COc1cc(CNC(=O)CCCCC=CC(C)C)ccc1O
REMARK SMILES IDX 11 1 12 2 13 3 14 4 15 5 16 6 17 7 18 8 10 9 8 10 9 11 7 12
REMARK SMILES IDX 6 14 5 15 4 16 19 17 3 18 20 19 21 20 2 21 1 22 22 23
REMARK H PARENT 7 13 22 24
REMARK Flexibility Score: inf
ROOT
ATOM      1  C   UNL     1     169.854 144.786 149.897  1.00  0.00     0.010 C 
ENDROOT
BRANCH   1   2
ATOM      2  C   UNL     1     169.156 145.704 150.912  1.00  0.00     0.005 C 
BRANCH   2   3
ATOM      3  C   UNL     1     168.790 147.072 150.314  1.00  0.00     0.027 C 
BRANCH   3   4
ATOM      4  C   UNL     1     167.669 146.945 149.316  1.00  0.00    -0.031 C 
ATOM      5  C   UNL     1     166.399 147.341 149.530  1.00  0.00    -0.028 C 
BRANCH   5   6
ATOM      6  C   UNL     1     165.876 147.933 150.823  1.00  0.00     0.005 C 
ATOM      7  C   UNL     1     165.908 146.871 151.925  1.00  0.00     0.012 C 
ATOM      8  C   UNL     1     164.451 148.451 150.613  1.00  0.00     0.012 C 
ENDBRANCH   5   6
ENDBRANCH   3   4
ENDBRANCH   2   3
ENDBRANCH   1   2
BRANCH   1   9
ATOM      9  C   UNL     1     171.369 144.702 150.122  1.00  0.00     0.100 C 
BRANCH   9  10
ATOM     10  C   UNL     1     171.664 144.255 151.522  1.00  0.00     0.220 C 
ATOM     11  O   UNL     1     171.551 143.036 151.821  1.00  0.00    -0.275 OA
ATOM     12  N   UNL     1     172.115 145.203 152.500  1.00  0.00    -0.352 N 
ATOM     13  H   UNL     1     172.251 146.199 152.215  1.00  0.00     0.163 HD
BRANCH  12  14
ATOM     14  C   UNL     1     172.408 144.827 153.880  1.00  0.00     0.151 C 
BRANCH  14  15
ATOM     15  C   UNL     1     171.180 144.980 154.735  1.00  0.00    -0.025 A 
ATOM     16  C   UNL     1     171.026 144.197 155.890  1.00  0.00     0.056 A 
ATOM     17  C   UNL     1     170.191 145.918 154.402  1.00  0.00     0.009 A 
ATOM     18  C   UNL     1     169.888 144.341 156.709  1.00  0.00     0.160 A 
ATOM     19  C   UNL     1     169.061 146.065 155.208  1.00  0.00     0.050 A 
ATOM     20  C   UNL     1     168.904 145.284 156.357  1.00  0.00     0.157 A 
BRANCH  18  21
ATOM     21  O   UNL     1     169.706 143.572 157.870  1.00  0.00    -0.493 OA
ATOM     22  C   UNL     1     170.727 143.292 158.822  1.00  0.00     0.278 C 
ENDBRANCH  18  21
BRANCH  20  23
ATOM     23  O   UNL     1     167.762 145.458 157.138  1.00  0.00    -0.504 OA
ATOM     24  H   UNL     1     167.782 145.953 158.022  1.00  0.00     0.293 HD
ENDBRANCH  20  23
ENDBRANCH  14  15
ENDBRANCH  12  14
ENDBRANCH   9  10
ENDBRANCH   1   9
TORSDOF 10
ENDMDL
MODEL 4
REMARK VINA RESULT:    -6.736      2.267      4.289
REMARK INTER + INTRA:         -11.827
REMARK INTER:                 -11.086
REMARK INTRA:                  -0.741
REMARK UNBOUND:                -1.349
REMARK SMILES COc1cc(CNC(=O)CCCCC=CC(C)C)ccc1O
REMARK SMILES IDX 11 1 12 2 13 3 14 4 15 5 16 6 17 7 18 8 10 9 8 10 9 11 7 12
REMARK SMILES IDX 6 14 5 15 4 16 19 17 3 18 20 19 21 20 2 21 1 22 22 23
REMARK H PARENT 7 13 22 24
REMARK Flexibility Score: inf
ROOT
ATOM      1  C   UNL     1     169.063 145.482 151.825  1.00  0.00     0.010 C 
ENDROOT
BRANCH   1   2
ATOM      2  C   UNL     1     169.656 146.409 150.754  1.00  0.00     0.005 C 
BRANCH   2   3
ATOM      3  C   UNL     1     168.729 147.587 150.416  1.00  0.00     0.027 C 
BRANCH   3   4
ATOM      4  C   UNL     1     167.682 147.182 149.410  1.00  0.00    -0.031 C 
ATOM      5  C   UNL     1     166.356 147.360 149.565  1.00  0.00    -0.028 C 
BRANCH   5   6
ATOM      6  C   UNL     1     165.692 147.950 150.793  1.00  0.00     0.005 C 
ATOM      7  C   UNL     1     165.745 146.940 151.942  1.00  0.00     0.012 C 
ATOM      8  C   UNL     1     164.244 148.323 150.468  1.00  0.00     0.012 C 
ENDBRANCH   5   6
ENDBRANCH   3   4
ENDBRANCH   2   3
ENDBRANCH   1   2
BRANCH   1   9
ATOM      9  C   UNL     1     170.103 145.041 152.864  1.00  0.00     0.100 C 
BRANCH   9  10
ATOM     10  C   UNL     1     169.747 145.579 154.217  1.00  0.00     0.220 C 
ATOM     11  O   UNL     1     168.795 145.062 154.860  1.00  0.00    -0.275 OA
ATOM     12  N   UNL     1     170.517 146.645 154.792  1.00  0.00    -0.352 N 
ATOM     13  H   UNL     1     171.335 147.022 154.262  1.00  0.00     0.163 HD
BRANCH  12  14
ATOM     14  C   UNL     1     170.212 147.215 156.102  1.00  0.00     0.151 C 
BRANCH  14  15
ATOM     15  C   UNL     1     171.388 147.053 157.027  1.00  0.00    -0.025 A 
ATOM     16  C   UNL     1     172.247 145.952 156.885  1.00  0.00     0.056 A 
ATOM     17  C   UNL     1     171.650 148.008 158.021  1.00  0.00     0.009 A 
ATOM     18  C   UNL     1     173.361 145.796 157.734  1.00  0.00     0.160 A 
ATOM     19  C   UNL     1     172.750 147.859 158.866  1.00  0.00     0.050 A 
ATOM     20  C   UNL     1     173.605 146.762 158.729  1.00  0.00     0.157 A 
BRANCH  18  21
ATOM     21  O   UNL     1     174.238 144.706 157.617  1.00  0.00    -0.493 OA
ATOM     22  C   UNL     1     173.849 143.341 157.728  1.00  0.00     0.278 C 
ENDBRANCH  18  21
BRANCH  20  23
ATOM     23  O   UNL     1     174.695 146.647 159.592  1.00  0.00    -0.504 OA
ATOM     24  H   UNL     1     174.608 146.779 160.593  1.00  0.00     0.293 HD
ENDBRANCH  20  23
ENDBRANCH  14  15
ENDBRANCH  12  14
ENDBRANCH   9  10
ENDBRANCH   1   9
TORSDOF 10
ENDMDL
MODEL 5
REMARK VINA RESULT:    -6.690      2.507      4.559
REMARK INTER + INTRA:         -11.755
REMARK INTER:                 -11.075
REMARK INTRA:                  -0.680
REMARK UNBOUND:                -1.349
REMARK SMILES COc1cc(CNC(=O)CCCCC=CC(C)C)ccc1O
REMARK SMILES IDX 11 1 12 2 13 3 14 4 15 5 16 6 17 7 18 8 10 9 8 10 9 11 7 12
REMARK SMILES IDX 6 14 5 15 4 16 19 17 3 18 20 19 21 20 2 21 1 22 22 23
REMARK H PARENT 7 13 22 24
REMARK Flexibility Score: inf
ROOT
ATOM      1  C   UNL     1     169.802 145.998 152.976  1.00  0.00     0.010 C 
ENDROOT
BRANCH   1   2
ATOM      2  C   UNL     1     169.100 145.791 151.626  1.00  0.00     0.005 C 
BRANCH   2   3
ATOM      3  C   UNL     1     168.800 147.116 150.907  1.00  0.00     0.027 C 
BRANCH   3   4
ATOM      4  C   UNL     1     167.853 146.906 149.755  1.00  0.00    -0.031 C 
ATOM      5  C   UNL     1     166.554 147.265 149.751  1.00  0.00    -0.028 C 
BRANCH   5   6
ATOM      6  C   UNL     1     165.819 147.894 150.916  1.00  0.00     0.005 C 
ATOM      7  C   UNL     1     165.690 146.877 152.052  1.00  0.00     0.012 C 
ATOM      8  C   UNL     1     164.439 148.372 150.459  1.00  0.00     0.012 C 
ENDBRANCH   5   6
ENDBRANCH   3   4
ENDBRANCH   2   3
ENDBRANCH   1   2
BRANCH   1   9
ATOM      9  C   UNL     1     168.814 146.101 154.145  1.00  0.00     0.100 C 
BRANCH   9  10
ATOM     10  C   UNL     1     169.282 145.265 155.297  1.00  0.00     0.220 C 
ATOM     11  O   UNL     1     168.518 145.081 156.282  1.00  0.00    -0.275 OA
ATOM     12  N   UNL     1     170.575 144.644 155.257  1.00  0.00    -0.352 N 
ATOM     13  H   UNL     1     171.170 144.768 154.407  1.00  0.00     0.163 HD
BRANCH  12  14
ATOM     14  C   UNL     1     171.088 143.827 156.353  1.00  0.00     0.151 C 
BRANCH  14  15
ATOM     15  C   UNL     1     172.113 144.595 157.142  1.00  0.00    -0.025 A 
ATOM     16  C   UNL     1     171.738 145.753 157.841  1.00  0.00     0.056 A 
ATOM     17  C   UNL     1     173.443 144.152 157.206  1.00  0.00     0.009 A 
ATOM     18  C   UNL     1     172.684 146.475 158.596  1.00  0.00     0.160 A 
ATOM     19  C   UNL     1     174.385 144.862 157.952  1.00  0.00     0.050 A 
ATOM     20  C   UNL     1     174.015 146.017 158.645  1.00  0.00     0.157 A 
BRANCH  18  21
ATOM     21  O   UNL     1     172.340 147.636 159.305  1.00  0.00    -0.493 OA
ATOM     22  C   UNL     1     171.703 148.774 158.732  1.00  0.00     0.278 C 
ENDBRANCH  18  21
BRANCH  20  23
ATOM     23  O   UNL     1     174.984 146.700 159.380  1.00  0.00    -0.504 OA
ATOM     24  H   UNL     1     175.812 147.094 158.947  1.00  0.00     0.293 HD
ENDBRANCH  20  23
ENDBRANCH  14  15
ENDBRANCH  12  14
ENDBRANCH   9  10
ENDBRANCH   1   9
TORSDOF 10
ENDMDL
MODEL 6
REMARK VINA RESULT:    -6.600      1.666      2.259
REMARK INTER + INTRA:         -11.614
REMARK INTER:                 -10.786
REMARK INTRA:                  -0.828
REMARK UNBOUND:                -1.349
REMARK SMILES COc1cc(CNC(=O)CCCCC=CC(C)C)ccc1O
REMARK SMILES IDX 11 1 12 2 13 3 14 4 15 5 16 6 17 7 18 8 10 9 8 10 9 11 7 12
REMARK SMILES IDX 6 14 5 15 4 16 19 17 3 18 20 19 21 20 2 21 1 22 22 23
REMARK H PARENT 7 13 22 24
REMARK Flexibility Score: inf
ROOT
ATOM      1  C   UNL     1     170.136 145.808 150.543  1.00  0.00     0.010 C 
ENDROOT
BRANCH   1   2
ATOM      2  C   UNL     1     169.308 145.421 149.309  1.00  0.00     0.005 C 
BRANCH   2   3
ATOM      3  C   UNL     1     168.298 146.510 148.913  1.00  0.00     0.027 C 
BRANCH   3   4
ATOM      4  C   UNL     1     168.284 147.629 149.921  1.00  0.00    -0.031 C 
ATOM      5  C   UNL     1     167.259 147.906 150.750  1.00  0.00    -0.028 C 
BRANCH   5   6
ATOM      6  C   UNL     1     165.933 147.173 150.774  1.00  0.00     0.005 C 
ATOM      7  C   UNL     1     164.860 148.027 150.093  1.00  0.00     0.012 C 
ATOM      8  C   UNL     1     165.541 146.865 152.221  1.00  0.00     0.012 C 
ENDBRANCH   5   6
ENDBRANCH   3   4
ENDBRANCH   2   3
ENDBRANCH   1   2
BRANCH   1   9
ATOM      9  C   UNL     1     171.448 145.018 150.643  1.00  0.00     0.100 C 
BRANCH   9  10
ATOM     10  C   UNL     1     171.634 144.491 152.034  1.00  0.00     0.220 C 
ATOM     11  O   UNL     1     172.333 143.458 152.218  1.00  0.00    -0.275 OA
ATOM     12  N   UNL     1     171.055 145.183 153.149  1.00  0.00    -0.352 N 
ATOM     13  H   UNL     1     170.524 146.067 152.976  1.00  0.00     0.163 HD
BRANCH  12  14
ATOM     14  C   UNL     1     171.194 144.712 154.524  1.00  0.00     0.151 C 
BRANCH  14  15
ATOM     15  C   UNL     1     171.090 145.866 155.485  1.00  0.00    -0.025 A 
ATOM     16  C   UNL     1     172.022 146.000 156.525  1.00  0.00     0.056 A 
ATOM     17  C   UNL     1     170.080 146.829 155.336  1.00  0.00     0.009 A 
ATOM     18  C   UNL     1     171.946 147.084 157.423  1.00  0.00     0.160 A 
ATOM     19  C   UNL     1     169.999 147.905 156.221  1.00  0.00     0.050 A 
ATOM     20  C   UNL     1     170.924 148.038 157.261  1.00  0.00     0.157 A 
BRANCH  18  21
ATOM     21  O   UNL     1     172.863 147.245 158.474  1.00  0.00    -0.493 OA
ATOM     22  C   UNL     1     173.781 146.245 158.905  1.00  0.00     0.278 C 
ENDBRANCH  18  21
BRANCH  20  23
ATOM     23  O   UNL     1     170.810 149.126 158.125  1.00  0.00    -0.504 OA
ATOM     24  H   UNL     1     170.112 149.849 157.995  1.00  0.00     0.293 HD
ENDBRANCH  20  23
ENDBRANCH  14  15
ENDBRANCH  12  14
ENDBRANCH   9  10
ENDBRANCH   1   9
TORSDOF 10
ENDMDL
MODEL 7
REMARK VINA RESULT:    -6.498      1.954      3.024
REMARK INTER + INTRA:         -11.456
REMARK INTER:                  -9.712
REMARK INTRA:                  -1.743
REMARK UNBOUND:                -1.349
REMARK SMILES COc1cc(CNC(=O)CCCCC=CC(C)C)ccc1O
REMARK SMILES IDX 11 1 12 2 13 3 14 4 15 5 16 6 17 7 18 8 10 9 8 10 9 11 7 12
REMARK SMILES IDX 6 14 5 15 4 16 19 17 3 18 20 19 21 20 2 21 1 22 22 23
REMARK H PARENT 7 13 22 24
REMARK Flexibility Score: inf
ROOT
ATOM      1  C   UNL     1     171.234 142.777 151.102  1.00  0.00     0.010 C 
ENDROOT
BRANCH   1   2
ATOM      2  C   UNL     1     170.417 144.022 150.722  1.00  0.00     0.005 C 
BRANCH   2   3
ATOM      3  C   UNL     1     169.355 144.373 151.775  1.00  0.00     0.027 C 
BRANCH   3   4
ATOM      4  C   UNL     1     169.393 145.841 152.115  1.00  0.00    -0.031 C 
ATOM      5  C   UNL     1     168.629 146.786 151.533  1.00  0.00    -0.028 C 
BRANCH   5   6
ATOM      6  C   UNL     1     167.641 146.541 150.411  1.00  0.00     0.005 C 
ATOM      7  C   UNL     1     168.283 146.911 149.071  1.00  0.00     0.012 C 
ATOM      8  C   UNL     1     166.374 147.366 150.649  1.00  0.00     0.012 C 
ENDBRANCH   5   6
ENDBRANCH   3   4
ENDBRANCH   2   3
ENDBRANCH   1   2
BRANCH   1   9
ATOM      9  C   UNL     1     172.673 143.118 151.509  1.00  0.00     0.100 C 
BRANCH   9  10
ATOM     10  C   UNL     1     172.733 143.471 152.964  1.00  0.00     0.220 C 
ATOM     11  O   UNL     1     172.857 142.554 153.821  1.00  0.00    -0.275 OA
ATOM     12  N   UNL     1     172.695 144.845 153.374  1.00  0.00    -0.352 N 
ATOM     13  H   UNL     1     172.645 145.591 152.643  1.00  0.00     0.163 HD
BRANCH  12  14
ATOM     14  C   UNL     1     172.741 145.248 154.777  1.00  0.00     0.151 C 
BRANCH  14  15
ATOM     15  C   UNL     1     171.357 145.571 155.273  1.00  0.00    -0.025 A 
ATOM     16  C   UNL     1     170.474 144.534 155.612  1.00  0.00     0.056 A 
ATOM     17  C   UNL     1     170.946 146.904 155.423  1.00  0.00     0.009 A 
ATOM     18  C   UNL     1     169.180 144.821 156.092  1.00  0.00     0.160 A 
ATOM     19  C   UNL     1     169.666 147.194 155.898  1.00  0.00     0.050 A 
ATOM     20  C   UNL     1     168.783 146.164 156.233  1.00  0.00     0.157 A 
BRANCH  18  21
ATOM     21  O   UNL     1     168.274 143.806 156.439  1.00  0.00    -0.493 OA
ATOM     22  C   UNL     1     168.487 142.853 157.475  1.00  0.00     0.278 C 
ENDBRANCH  18  21
BRANCH  20  23
ATOM     23  O   UNL     1     167.513 146.494 156.704  1.00  0.00    -0.504 OA
ATOM     24  H   UNL     1     166.851 147.025 156.149  1.00  0.00     0.293 HD
ENDBRANCH  20  23
ENDBRANCH  14  15
ENDBRANCH  12  14
ENDBRANCH   9  10
ENDBRANCH   1   9
TORSDOF 10
ENDMDL
MODEL 8
REMARK VINA RESULT:    -6.342      1.514      1.978
REMARK INTER + INTRA:         -11.213
REMARK INTER:                 -10.154
REMARK INTRA:                  -1.058
REMARK UNBOUND:                -1.349
REMARK SMILES COc1cc(CNC(=O)CCCCC=CC(C)C)ccc1O
REMARK SMILES IDX 11 1 12 2 13 3 14 4 15 5 16 6 17 7 18 8 10 9 8 10 9 11 7 12
REMARK SMILES IDX 6 14 5 15 4 16 19 17 3 18 20 19 21 20 2 21 1 22 22 23
REMARK H PARENT 7 13 22 24
REMARK Flexibility Score: inf
ROOT
ATOM      1  C   UNL     1     171.239 144.949 149.707  1.00  0.00     0.010 C 
ENDROOT
BRANCH   1   2
ATOM      2  C   UNL     1     169.736 144.960 150.022  1.00  0.00     0.005 C 
BRANCH   2   3
ATOM      3  C   UNL     1     169.309 146.206 150.815  1.00  0.00     0.027 C 
BRANCH   3   4
ATOM      4  C   UNL     1     168.080 145.927 151.641  1.00  0.00    -0.031 C 
ATOM      5  C   UNL     1     166.918 146.603 151.544  1.00  0.00    -0.028 C 
BRANCH   5   6
ATOM      6  C   UNL     1     166.669 147.783 150.627  1.00  0.00     0.005 C 
ATOM      7  C   UNL     1     165.371 148.485 151.034  1.00  0.00     0.012 C 
ATOM      8  C   UNL     1     166.591 147.302 149.176  1.00  0.00     0.012 C 
ENDBRANCH   5   6
ENDBRANCH   3   4
ENDBRANCH   2   3
ENDBRANCH   1   2
BRANCH   1   9
ATOM      9  C   UNL     1     171.859 143.552 149.844  1.00  0.00     0.100 C 
BRANCH   9  10
ATOM     10  C   UNL     1     171.950 143.162 151.288  1.00  0.00     0.220 C 
ATOM     11  O   UNL     1     171.804 141.954 151.615  1.00  0.00    -0.275 OA
ATOM     12  N   UNL     1     172.245 144.152 152.284  1.00  0.00    -0.352 N 
ATOM     13  H   UNL     1     172.414 145.139 151.983  1.00  0.00     0.163 HD
BRANCH  12  14
ATOM     14  C   UNL     1     172.337 143.833 153.706  1.00  0.00     0.151 C 
BRANCH  14  15
ATOM     15  C   UNL     1     171.737 144.940 154.529  1.00  0.00    -0.025 A 
ATOM     16  C   UNL     1     172.424 145.436 155.648  1.00  0.00     0.056 A 
ATOM     17  C   UNL     1     170.501 145.503 154.175  1.00  0.00     0.009 A 
ATOM     18  C   UNL     1     171.882 146.483 156.419  1.00  0.00     0.160 A 
ATOM     19  C   UNL     1     169.958 146.541 154.934  1.00  0.00     0.050 A 
ATOM     20  C   UNL     1     170.639 147.033 156.051  1.00  0.00     0.157 A 
BRANCH  18  21
ATOM     21  O   UNL     1     172.545 146.999 157.543  1.00  0.00    -0.493 OA
ATOM     22  C   UNL     1     172.538 146.396 158.833  1.00  0.00     0.278 C 
ENDBRANCH  18  21
BRANCH  20  23
ATOM     23  O   UNL     1     170.065 148.070 156.786  1.00  0.00    -0.504 OA
ATOM     24  H   UNL     1     170.100 149.035 156.477  1.00  0.00     0.293 HD
ENDBRANCH  20  23
ENDBRANCH  14  15
ENDBRANCH  12  14
ENDBRANCH   9  10
ENDBRANCH   1   9
TORSDOF 10
ENDMDL
MODEL 9
REMARK VINA RESULT:    -6.320      2.742      4.631
REMARK INTER + INTRA:         -11.179
REMARK INTER:                 -10.456
REMARK INTRA:                  -0.723
REMARK UNBOUND:                -1.349
REMARK SMILES COc1cc(CNC(=O)CCCCC=CC(C)C)ccc1O
REMARK SMILES IDX 11 1 12 2 13 3 14 4 15 5 16 6 17 7 18 8 10 9 8 10 9 11 7 12
REMARK SMILES IDX 6 14 5 15 4 16 19 17 3 18 20 19 21 20 2 21 1 22 22 23
REMARK H PARENT 7 13 22 24
REMARK Flexibility Score: inf
ROOT
ATOM      1  C   UNL     1     169.366 146.267 153.016  1.00  0.00     0.010 C 
ENDROOT
BRANCH   1   2
ATOM      2  C   UNL     1     169.181 146.014 151.513  1.00  0.00     0.005 C 
BRANCH   2   3
ATOM      3  C   UNL     1     168.778 147.284 150.746  1.00  0.00     0.027 C 
BRANCH   3   4
ATOM      4  C   UNL     1     167.809 146.964 149.638  1.00  0.00    -0.031 C 
ATOM      5  C   UNL     1     166.494 147.258 149.657  1.00  0.00    -0.028 C 
BRANCH   5   6
ATOM      6  C   UNL     1     165.763 147.913 150.810  1.00  0.00     0.005 C 
ATOM      7  C   UNL     1     165.634 146.919 151.968  1.00  0.00     0.012 C 
ATOM      8  C   UNL     1     164.382 148.383 150.346  1.00  0.00     0.012 C 
ENDBRANCH   5   6
ENDBRANCH   3   4
ENDBRANCH   2   3
ENDBRANCH   1   2
BRANCH   1   9
ATOM      9  C   UNL     1     168.240 145.653 153.860  1.00  0.00     0.100 C 
BRANCH   9  10
ATOM     10  C   UNL     1     168.640 145.602 155.303  1.00  0.00     0.220 C 
ATOM     11  O   UNL     1     168.924 146.671 155.908  1.00  0.00    -0.275 OA
ATOM     12  N   UNL     1     168.656 144.348 156.001  1.00  0.00    -0.352 N 
ATOM     13  H   UNL     1     168.366 143.482 155.493  1.00  0.00     0.163 HD
BRANCH  12  14
ATOM     14  C   UNL     1     169.045 144.235 157.404  1.00  0.00     0.151 C 
BRANCH  14  15
ATOM     15  C   UNL     1     170.517 143.943 157.515  1.00  0.00    -0.025 A 
ATOM     16  C   UNL     1     171.440 144.998 157.577  1.00  0.00     0.056 A 
ATOM     17  C   UNL     1     170.979 142.619 157.581  1.00  0.00     0.009 A 
ATOM     18  C   UNL     1     172.821 144.739 157.697  1.00  0.00     0.160 A 
ATOM     19  C   UNL     1     172.344 142.356 157.699  1.00  0.00     0.050 A 
ATOM     20  C   UNL     1     173.265 143.405 157.757  1.00  0.00     0.157 A 
BRANCH  18  21
ATOM     21  O   UNL     1     173.768 145.773 157.761  1.00  0.00    -0.493 OA
ATOM     22  C   UNL     1     174.155 146.442 158.957  1.00  0.00     0.278 C 
ENDBRANCH  18  21
BRANCH  20  23
ATOM     23  O   UNL     1     174.622 143.103 157.875  1.00  0.00    -0.504 OA
ATOM     24  H   UNL     1     175.200 142.890 157.070  1.00  0.00     0.293 HD
ENDBRANCH  20  23
ENDBRANCH  14  15
ENDBRANCH  12  14
ENDBRANCH   9  10
ENDBRANCH   1   9
TORSDOF 10
ENDMDL
