MODEL 1
REMARK VINA RESULT:    19.590      0.000      0.000
REMARK INTER + INTRA:          21.810
REMARK INTER:                  21.880
REMARK INTRA:                  -0.070
REMARK UNBOUND:                -0.070
REMARK SMILES O=C([O-])c1ccccc1C(=O)[O-]
REMARK SMILES IDX 4 1 9 2 5 3 8 4 6 5 7 6 2 7 1 8 3 9 10 10 11 11 12 12
REMARK H PARENT
REMARK Flexibility Score: inf
ROOT
ATOM      1  C   UNL     1      -1.168  -8.762  24.804  1.00  0.00     0.006 A 
ATOM      2  C   UNL     1      -0.730  -7.681  23.989  1.00  0.00     0.006 A 
ATOM      3  C   UNL     1      -0.485  -9.037  26.003  1.00  0.00     0.010 A 
ATOM      4  C   UNL     1       0.335  -6.875  24.436  1.00  0.00     0.010 A 
ATOM      5  C   UNL     1       0.582  -8.238  26.415  1.00  0.00     0.001 A 
ATOM      6  C   UNL     1       0.983  -7.152  25.640  1.00  0.00     0.001 A 
ENDROOT
BRANCH   1   7
ATOM      7  C   UNL     1      -2.363  -9.578  24.485  1.00  0.00     0.072 C 
ATOM      8  O   UNL     1      -2.258 -10.641  23.819  1.00  0.00    -0.545 OA
ATOM      9  O   UNL     1      -3.627  -9.139  24.861  1.00  0.00    -0.545 OA
ENDBRANCH   1   7
BRANCH   2  10
ATOM     10  C   UNL     1      -1.299  -7.406  22.649  1.00  0.00     0.072 C 
ATOM     11  O   UNL     1      -0.584  -7.533  21.619  1.00  0.00    -0.545 OA
ATOM     12  O   UNL     1      -2.640  -7.071  22.503  1.00  0.00    -0.545 OA
ENDBRANCH   2  10
TORSDOF 2
ENDMDL
MODEL 2
REMARK VINA RESULT:    19.715      0.199      3.002
REMARK INTER + INTRA:          21.950
REMARK INTER:                  22.059
REMARK INTRA:                  -0.110
REMARK UNBOUND:                -0.070
REMARK SMILES O=C([O-])c1ccccc1C(=O)[O-]
REMARK SMILES IDX 4 1 9 2 5 3 8 4 6 5 7 6 2 7 1 8 3 9 10 10 11 11 12 12
REMARK H PARENT
REMARK Flexibility Score: inf
ROOT
ATOM      1  C   UNL     1      -0.696  -7.760  23.956  1.00  0.00     0.006 A 
ATOM      2  C   UNL     1      -1.085  -8.853  24.780  1.00  0.00     0.006 A 
ATOM      3  C   UNL     1       0.296  -6.875  24.417  1.00  0.00     0.010 A 
ATOM      4  C   UNL     1      -0.421  -9.057  26.005  1.00  0.00     0.010 A 
ATOM      5  C   UNL     1       0.925  -7.084  25.644  1.00  0.00     0.001 A 
ATOM      6  C   UNL     1       0.576  -8.179  26.431  1.00  0.00     0.001 A 
ENDROOT
BRANCH   1   7
ATOM      7  C   UNL     1      -1.240  -7.545  22.595  1.00  0.00     0.072 C 
ATOM      8  O   UNL     1      -0.492  -7.609  21.585  1.00  0.00    -0.545 OA
ATOM      9  O   UNL     1      -2.576  -7.202  22.425  1.00  0.00    -0.545 OA
ENDBRANCH   1   7
BRANCH   2  10
ATOM     10  C   UNL     1      -2.214  -9.751  24.439  1.00  0.00     0.072 C 
ATOM     11  O   UNL     1      -3.393  -9.431  24.748  1.00  0.00    -0.545 OA
ATOM     12  O   UNL     1      -1.997 -10.920  23.720  1.00  0.00    -0.545 OA
ENDBRANCH   2  10
TORSDOF 2
ENDMDL
MODEL 3
REMARK VINA RESULT:    20.552     16.929     17.799
REMARK INTER + INTRA:          22.885
REMARK INTER:                  22.847
REMARK INTRA:                   0.039
REMARK UNBOUND:                -0.070
REMARK SMILES O=C([O-])c1ccccc1C(=O)[O-]
REMARK SMILES IDX 4 1 9 2 5 3 8 4 6 5 7 6 2 7 1 8 3 9 10 10 11 11 12 12
REMARK H PARENT
REMARK Flexibility Score: inf
ROOT
ATOM      1  C   UNL     1       2.783 -20.314  11.574  1.00  0.00     0.006 A 
ATOM      2  C   UNL     1       3.971 -19.939  12.262  1.00  0.00     0.006 A 
ATOM      3  C   UNL     1       2.811 -21.430  10.718  1.00  0.00     0.010 A 
ATOM      4  C   UNL     1       5.125 -20.734  12.118  1.00  0.00     0.010 A 
ATOM      5  C   UNL     1       3.972 -22.189  10.573  1.00  0.00     0.001 A 
ATOM      6  C   UNL     1       5.123 -21.849  11.280  1.00  0.00     0.001 A 
ENDROOT
BRANCH   1   7
ATOM      7  C   UNL     1       1.488 -19.623  11.770  1.00  0.00     0.072 C 
ATOM      8  O   UNL     1       0.457 -20.266  12.098  1.00  0.00    -0.545 OA
ATOM      9  O   UNL     1       1.383 -18.259  11.526  1.00  0.00    -0.545 OA
ENDBRANCH   1   7
BRANCH   2  10
ATOM     10  C   UNL     1       4.071 -18.703  13.072  1.00  0.00     0.072 C 
ATOM     11  O   UNL     1       4.006 -18.763  14.330  1.00  0.00    -0.545 OA
ATOM     12  O   UNL     1       4.303 -17.475  12.466  1.00  0.00    -0.545 OA
ENDBRANCH   2  10
TORSDOF 2
ENDMDL
MODEL 4
REMARK VINA RESULT:    20.668     16.870     17.799
REMARK INTER + INTRA:          23.015
REMARK INTER:                  22.688
REMARK INTRA:                   0.327
REMARK UNBOUND:                -0.070
REMARK SMILES O=C([O-])c1ccccc1C(=O)[O-]
REMARK SMILES IDX 4 1 9 2 5 3 8 4 6 5 7 6 2 7 1 8 3 9 10 10 11 11 12 12
REMARK H PARENT
REMARK Flexibility Score: inf
ROOT
ATOM      1  C   UNL     1       3.942 -19.843  12.233  1.00  0.00     0.006 A 
ATOM      2  C   UNL     1       2.745 -20.300  11.614  1.00  0.00     0.006 A 
ATOM      3  C   UNL     1       5.116 -20.608  12.100  1.00  0.00     0.010 A 
ATOM      4  C   UNL     1       2.783 -21.469  10.830  1.00  0.00     0.010 A 
ATOM      5  C   UNL     1       5.125 -21.775  11.337  1.00  0.00     0.001 A 
ATOM      6  C   UNL     1       3.964 -22.199  10.694  1.00  0.00     0.001 A 
ENDROOT
BRANCH   1   7
ATOM      7  C   UNL     1       4.032 -18.556  12.960  1.00  0.00     0.072 C 
ATOM      8  O   UNL     1       4.129 -17.468  12.335  1.00  0.00    -0.545 OA
ATOM      9  O   UNL     1       4.078 -18.543  14.350  1.00  0.00    -0.545 OA
ENDBRANCH   1   7
BRANCH   2  10
ATOM     10  C   UNL     1       1.436 -19.635  11.815  1.00  0.00     0.072 C 
ATOM     11  O   UNL     1       0.416 -20.319  12.098  1.00  0.00    -0.545 OA
ATOM     12  O   UNL     1       1.327 -18.251  11.760  1.00  0.00    -0.545 OA
ENDBRANCH   2  10
TORSDOF 2
ENDMDL
MODEL 5
REMARK VINA RESULT:    21.935      2.300      3.801
REMARK INTER + INTRA:          24.430
REMARK INTER:                  24.063
REMARK INTRA:                   0.367
REMARK UNBOUND:                -0.070
REMARK SMILES O=C([O-])c1ccccc1C(=O)[O-]
REMARK SMILES IDX 4 1 9 2 5 3 8 4 6 5 7 6 2 7 1 8 3 9 10 10 11 11 12 12
REMARK H PARENT
REMARK Flexibility Score: inf
ROOT
ATOM      1  C   UNL     1      -3.393  -8.036  23.384  1.00  0.00     0.006 A 
ATOM      2  C   UNL     1      -2.011  -8.349  23.254  1.00  0.00     0.006 A 
ATOM      3  C   UNL     1      -4.021  -7.280  22.377  1.00  0.00     0.010 A 
ATOM      4  C   UNL     1      -1.325  -7.950  22.091  1.00  0.00     0.010 A 
ATOM      5  C   UNL     1      -3.316  -6.876  21.244  1.00  0.00     0.001 A 
ATOM      6  C   UNL     1      -1.974  -7.220  21.095  1.00  0.00     0.001 A 
ENDROOT
BRANCH   1   7
ATOM      7  C   UNL     1      -4.228  -8.530  24.503  1.00  0.00     0.072 C 
ATOM      8  O   UNL     1      -3.724  -8.755  25.634  1.00  0.00    -0.545 OA
ATOM      9  O   UNL     1      -5.573  -8.816  24.295  1.00  0.00    -0.545 OA
ENDBRANCH   1   7
BRANCH   2  10
ATOM     10  C   UNL     1      -1.238  -9.018  24.326  1.00  0.00     0.072 C 
ATOM     11  O   UNL     1      -1.133 -10.274  24.342  1.00  0.00    -0.545 OA
ATOM     12  O   UNL     1      -0.565  -8.273  25.286  1.00  0.00    -0.545 OA
ENDBRANCH   2  10
TORSDOF 2
ENDMDL
MODEL 6
REMARK VINA RESULT:    22.227      8.623     10.022
REMARK INTER + INTRA:          24.755
REMARK INTER:                  24.162
REMARK INTRA:                   0.593
REMARK UNBOUND:                -0.070
REMARK SMILES O=C([O-])c1ccccc1C(=O)[O-]
REMARK SMILES IDX 4 1 9 2 5 3 8 4 6 5 7 6 2 7 1 8 3 9 10 10 11 11 12 12
REMARK H PARENT
REMARK Flexibility Score: inf
ROOT
ATOM      1  C   UNL     1      -5.166 -17.405  25.917  1.00  0.00     0.006 A 
ATOM      2  C   UNL     1      -4.986 -16.708  24.690  1.00  0.00     0.006 A 
ATOM      3  C   UNL     1      -5.135 -16.684  27.125  1.00  0.00     0.010 A 
ATOM      4  C   UNL     1      -4.847 -15.307  24.713  1.00  0.00     0.010 A 
ATOM      5  C   UNL     1      -4.974 -15.299  27.125  1.00  0.00     0.001 A 
ATOM      6  C   UNL     1      -4.842 -14.610  25.921  1.00  0.00     0.001 A 
ENDROOT
BRANCH   1   7
ATOM      7  C   UNL     1      -5.456 -18.856  25.983  1.00  0.00     0.072 C 
ATOM      8  O   UNL     1      -5.255 -19.506  27.042  1.00  0.00    -0.545 OA
ATOM      9  O   UNL     1      -5.893 -19.531  24.849  1.00  0.00    -0.545 OA
ENDBRANCH   1   7
BRANCH   2  10
ATOM     10  C   UNL     1      -4.866 -17.401  23.386  1.00  0.00     0.072 C 
ATOM     11  O   UNL     1      -3.742 -17.809  22.986  1.00  0.00    -0.545 OA
ATOM     12  O   UNL     1      -5.993 -17.668  22.618  1.00  0.00    -0.545 OA
ENDBRANCH   2  10
TORSDOF 2
ENDMDL
