MODEL 1
REMARK VINA RESULT:    -4.435      0.000      0.000
REMARK INTER + INTRA:          -9.230
REMARK INTER:                  -6.769
REMARK INTRA:                  -2.462
REMARK UNBOUND:                -2.462
REMARK SMILES CC(=O)CCC=C(C)CCC=C(C)CCC=C(C)C
REMARK SMILES IDX 10 1 11 2 12 3 13 4 14 5 15 6 16 7 18 8 17 9 19 10 9 11 7 12
REMARK SMILES IDX 6 13 8 14 5 15 4 16 2 17 3 18 1 19
REMARK H PARENT
REMARK Flexibility Score: inf
ROOT
ATOM      1  C   UNL     1      14.123  10.863  27.631  1.00  0.00     0.032 C 
ENDROOT
BRANCH   1   2
ATOM      2  C   UNL     1      15.267  11.048  26.662  1.00  0.00    -0.028 C 
ATOM      3  C   UNL     1      15.216  11.738  25.498  1.00  0.00    -0.077 C 
ATOM      4  C   UNL     1      16.442  11.732  24.620  1.00  0.00     0.039 C 
BRANCH   3   5
ATOM      5  C   UNL     1      13.997  12.518  25.037  1.00  0.00     0.034 C 
BRANCH   5   6
ATOM      6  C   UNL     1      14.264  14.034  25.008  1.00  0.00     0.032 C 
BRANCH   6   7
ATOM      7  C   UNL     1      14.065  14.674  26.362  1.00  0.00    -0.028 C 
ATOM      8  C   UNL     1      14.751  15.620  28.542  1.00  0.00     0.039 C 
ATOM      9  C   UNL     1      15.070  15.004  27.205  1.00  0.00    -0.080 C 
ATOM     10  C   UNL     1      16.521  14.841  26.827  1.00  0.00     0.039 C 
ENDBRANCH   6   7
ENDBRANCH   5   6
ENDBRANCH   3   5
ENDBRANCH   1   2
BRANCH   1  11
ATOM     11  C   UNL     1      13.567   9.433  27.605  1.00  0.00     0.034 C 
BRANCH  11  12
ATOM     12  C   UNL     1      12.694   9.214  26.386  1.00  0.00    -0.077 C 
ATOM     13  C   UNL     1      12.979   8.302  25.428  1.00  0.00    -0.028 C 
ATOM     14  C   UNL     1      11.457  10.060  26.217  1.00  0.00     0.039 C 
BRANCH  13  15
ATOM     15  C   UNL     1      14.143   7.337  25.457  1.00  0.00     0.035 C 
BRANCH  15  16
ATOM     16  C   UNL     1      15.368   7.929  24.751  1.00  0.00     0.079 C 
BRANCH  16  17
ATOM     17  C   UNL     1      16.632   7.683  25.532  1.00  0.00     0.130 C 
ATOM     18  O   UNL     1      17.510   8.531  25.539  1.00  0.00    -0.300 OA
ATOM     19  C   UNL     1      16.832   6.415  26.308  1.00  0.00     0.087 C 
ENDBRANCH  16  17
ENDBRANCH  15  16
ENDBRANCH  13  15
ENDBRANCH  11  12
ENDBRANCH   1  11
TORSDOF 9
ENDMDL
MODEL 2
REMARK VINA RESULT:    -4.383      1.761      4.409
REMARK INTER + INTRA:          -9.150
REMARK INTER:                  -6.584
REMARK INTRA:                  -2.566
REMARK UNBOUND:                -2.462
REMARK SMILES CC(=O)CCC=C(C)CCC=C(C)CCC=C(C)C
REMARK SMILES IDX 10 1 11 2 12 3 13 4 14 5 15 6 16 7 18 8 17 9 19 10 9 11 7 12
REMARK SMILES IDX 6 13 8 14 5 15 4 16 2 17 3 18 1 19
REMARK H PARENT
REMARK Flexibility Score: inf
ROOT
ATOM      1  C   UNL     1      13.716   7.505  24.856  1.00  0.00     0.032 C 
ENDROOT
BRANCH   1   2
ATOM      2  C   UNL     1      12.990   8.826  24.958  1.00  0.00    -0.028 C 
ATOM      3  C   UNL     1      12.901   9.597  26.068  1.00  0.00    -0.077 C 
ATOM      4  C   UNL     1      12.053  10.842  25.996  1.00  0.00     0.039 C 
BRANCH   3   5
ATOM      5  C   UNL     1      13.614   9.278  27.371  1.00  0.00     0.034 C 
BRANCH   5   6
ATOM      6  C   UNL     1      13.361  10.356  28.441  1.00  0.00     0.032 C 
BRANCH   6   7
ATOM      7  C   UNL     1      14.627  11.080  28.832  1.00  0.00    -0.028 C 
ATOM      8  C   UNL     1      16.154  13.015  29.048  1.00  0.00     0.039 C 
ATOM      9  C   UNL     1      14.841  12.402  28.636  1.00  0.00    -0.080 C 
ATOM     10  C   UNL     1      13.777  13.313  28.078  1.00  0.00     0.039 C 
ENDBRANCH   6   7
ENDBRANCH   5   6
ENDBRANCH   3   5
ENDBRANCH   1   2
BRANCH   1  11
ATOM     11  C   UNL     1      15.098   7.652  24.205  1.00  0.00     0.034 C 
BRANCH  11  12
ATOM     12  C   UNL     1      16.183   7.750  25.258  1.00  0.00    -0.077 C 
ATOM     13  C   UNL     1      16.956   8.849  25.421  1.00  0.00    -0.028 C 
ATOM     14  C   UNL     1      16.432   6.567  26.158  1.00  0.00     0.039 C 
BRANCH  13  15
ATOM     15  C   UNL     1      16.816  10.140  24.647  1.00  0.00     0.035 C 
BRANCH  15  16
ATOM     16  C   UNL     1      16.188  11.237  25.513  1.00  0.00     0.079 C 
BRANCH  16  17
ATOM     17  C   UNL     1      16.175  12.566  24.804  1.00  0.00     0.130 C 
ATOM     18  O   UNL     1      17.230  13.076  24.462  1.00  0.00    -0.300 OA
ATOM     19  C   UNL     1      14.887  13.274  24.502  1.00  0.00     0.087 C 
ENDBRANCH  16  17
ENDBRANCH  15  16
ENDBRANCH  13  15
ENDBRANCH  11  12
ENDBRANCH   1  11
TORSDOF 9
ENDMDL
MODEL 3
REMARK VINA RESULT:    -4.353      2.013      5.940
REMARK INTER + INTRA:          -9.105
REMARK INTER:                  -6.799
REMARK INTRA:                  -2.306
REMARK UNBOUND:                -2.462
REMARK SMILES CC(=O)CCC=C(C)CCC=C(C)CCC=C(C)C
REMARK SMILES IDX 10 1 11 2 12 3 13 4 14 5 15 6 16 7 18 8 17 9 19 10 9 11 7 12
REMARK SMILES IDX 6 13 8 14 5 15 4 16 2 17 3 18 1 19
REMARK H PARENT
REMARK Flexibility Score: inf
ROOT
ATOM      1  C   UNL     1      12.286  11.543  26.280  1.00  0.00     0.032 C 
ENDROOT
BRANCH   1   2
ATOM      2  C   UNL     1      11.827  10.847  25.021  1.00  0.00    -0.028 C 
ATOM      3  C   UNL     1      12.041   9.546  24.712  1.00  0.00    -0.077 C 
ATOM      4  C   UNL     1      11.582   9.057  23.361  1.00  0.00     0.039 C 
BRANCH   3   5
ATOM      5  C   UNL     1      12.709   8.558  25.652  1.00  0.00     0.034 C 
BRANCH   5   6
ATOM      6  C   UNL     1      13.666   7.612  24.905  1.00  0.00     0.032 C 
BRANCH   6   7
ATOM      7  C   UNL     1      15.067   8.170  24.818  1.00  0.00    -0.028 C 
ATOM      8  C   UNL     1      17.481   8.321  25.340  1.00  0.00     0.039 C 
ATOM      9  C   UNL     1      16.131   7.668  25.487  1.00  0.00    -0.080 C 
ATOM     10  C   UNL     1      16.032   6.423  26.333  1.00  0.00     0.039 C 
ENDBRANCH   6   7
ENDBRANCH   5   6
ENDBRANCH   3   5
ENDBRANCH   1   2
BRANCH   1  11
ATOM     11  C   UNL     1      13.559  12.369  26.055  1.00  0.00     0.034 C 
BRANCH  11  12
ATOM     12  C   UNL     1      14.787  11.604  26.505  1.00  0.00    -0.077 C 
ATOM     13  C   UNL     1      15.958  11.621  25.825  1.00  0.00    -0.028 C 
ATOM     14  C   UNL     1      14.705  10.768  27.757  1.00  0.00     0.039 C 
BRANCH  13  15
ATOM     15  C   UNL     1      16.237  12.438  24.584  1.00  0.00     0.035 C 
BRANCH  15  16
ATOM     16  C   UNL     1      17.179  13.607  24.894  1.00  0.00     0.079 C 
BRANCH  16  17
ATOM     17  C   UNL     1      16.516  14.637  25.770  1.00  0.00     0.130 C 
ATOM     18  O   UNL     1      16.859  14.746  26.937  1.00  0.00    -0.300 OA
ATOM     19  C   UNL     1      15.443  15.539  25.234  1.00  0.00     0.087 C 
ENDBRANCH  16  17
ENDBRANCH  15  16
ENDBRANCH  13  15
ENDBRANCH  11  12
ENDBRANCH   1  11
TORSDOF 9
ENDMDL
MODEL 4
REMARK VINA RESULT:    -4.304      1.554      2.938
REMARK INTER + INTRA:          -9.030
REMARK INTER:                  -6.757
REMARK INTRA:                  -2.273
REMARK UNBOUND:                -2.462
REMARK SMILES CC(=O)CCC=C(C)CCC=C(C)CCC=C(C)C
REMARK SMILES IDX 10 1 11 2 12 3 13 4 14 5 15 6 16 7 18 8 17 9 19 10 9 11 7 12
REMARK SMILES IDX 6 13 8 14 5 15 4 16 2 17 3 18 1 19
REMARK H PARENT
REMARK Flexibility Score: inf
ROOT
ATOM      1  C   UNL     1      14.376  11.660  28.208  1.00  0.00     0.032 C 
ENDROOT
BRANCH   1   2
ATOM      2  C   UNL     1      15.599  12.116  28.967  1.00  0.00    -0.028 C 
ATOM      3  C   UNL     1      16.218  13.313  28.827  1.00  0.00    -0.077 C 
ATOM      4  C   UNL     1      17.484  13.548  29.612  1.00  0.00     0.039 C 
BRANCH   3   5
ATOM      5  C   UNL     1      15.702  14.426  27.931  1.00  0.00     0.034 C 
BRANCH   5   6
ATOM      6  C   UNL     1      16.647  14.692  26.746  1.00  0.00     0.032 C 
BRANCH   6   7
ATOM      7  C   UNL     1      16.966  13.433  25.976  1.00  0.00    -0.028 C 
ATOM      8  C   UNL     1      16.622  11.671  24.273  1.00  0.00     0.039 C 
ATOM      9  C   UNL     1      16.218  12.952  24.957  1.00  0.00    -0.080 C 
ATOM     10  C   UNL     1      15.017  13.692  24.424  1.00  0.00     0.039 C 
ENDBRANCH   6   7
ENDBRANCH   5   6
ENDBRANCH   3   5
ENDBRANCH   1   2
BRANCH   1  11
ATOM     11  C   UNL     1      14.701  10.557  27.192  1.00  0.00     0.034 C 
BRANCH  11  12
ATOM     12  C   UNL     1      13.543  10.340  26.239  1.00  0.00    -0.077 C 
ATOM     13  C   UNL     1      13.270   9.144  25.670  1.00  0.00    -0.028 C 
ATOM     14  C   UNL     1      12.660  11.511  25.890  1.00  0.00     0.039 C 
BRANCH  13  15
ATOM     15  C   UNL     1      14.014   7.855  25.942  1.00  0.00     0.035 C 
BRANCH  15  16
ATOM     16  C   UNL     1      15.142   7.645  24.926  1.00  0.00     0.079 C 
BRANCH  16  17
ATOM     17  C   UNL     1      16.453   7.347  25.606  1.00  0.00     0.130 C 
ATOM     18  O   UNL     1      16.584   6.305  26.229  1.00  0.00    -0.300 OA
ATOM     19  C   UNL     1      17.605   8.304  25.527  1.00  0.00     0.087 C 
ENDBRANCH  16  17
ENDBRANCH  15  16
ENDBRANCH  13  15
ENDBRANCH  11  12
ENDBRANCH   1  11
TORSDOF 9
ENDMDL
MODEL 5
REMARK VINA RESULT:    -4.281      1.844      3.240
REMARK INTER + INTRA:          -8.995
REMARK INTER:                  -6.724
REMARK INTRA:                  -2.272
REMARK UNBOUND:                -2.462
REMARK SMILES CC(=O)CCC=C(C)CCC=C(C)CCC=C(C)C
REMARK SMILES IDX 10 1 11 2 12 3 13 4 14 5 15 6 16 7 18 8 17 9 19 10 9 11 7 12
REMARK SMILES IDX 6 13 8 14 5 15 4 16 2 17 3 18 1 19
REMARK H PARENT
REMARK Flexibility Score: inf
ROOT
ATOM      1  C   UNL     1      12.893  12.324  25.598  1.00  0.00     0.032 C 
ENDROOT
BRANCH   1   2
ATOM      2  C   UNL     1      12.474  13.466  24.702  1.00  0.00    -0.028 C 
ATOM      3  C   UNL     1      12.575  14.784  24.999  1.00  0.00    -0.077 C 
ATOM      4  C   UNL     1      12.018  15.775  24.008  1.00  0.00     0.039 C 
BRANCH   3   5
ATOM      5  C   UNL     1      13.224  15.312  26.267  1.00  0.00     0.034 C 
BRANCH   5   6
ATOM      6  C   UNL     1      14.496  16.124  25.963  1.00  0.00     0.032 C 
BRANCH   6   7
ATOM      7  C   UNL     1      15.536  15.306  25.235  1.00  0.00    -0.028 C 
ATOM      8  C   UNL     1      17.512  13.835  25.012  1.00  0.00     0.039 C 
ATOM      9  C   UNL     1      16.515  14.599  25.844  1.00  0.00    -0.080 C 
ATOM     10  C   UNL     1      16.609  14.488  27.345  1.00  0.00     0.039 C 
ENDBRANCH   6   7
ENDBRANCH   5   6
ENDBRANCH   3   5
ENDBRANCH   1   2
BRANCH   1  11
ATOM     11  C   UNL     1      14.323  11.852  25.305  1.00  0.00     0.034 C 
BRANCH  11  12
ATOM     12  C   UNL     1      14.943  11.212  26.530  1.00  0.00    -0.077 C 
ATOM     13  C   UNL     1      15.997  10.366  26.468  1.00  0.00    -0.028 C 
ATOM     14  C   UNL     1      14.353  11.514  27.885  1.00  0.00     0.039 C 
BRANCH  13  15
ATOM     15  C   UNL     1      16.745   9.992  25.208  1.00  0.00     0.035 C 
BRANCH  15  16
ATOM     16  C   UNL     1      17.277   8.557  25.289  1.00  0.00     0.079 C 
BRANCH  16  17
ATOM     17  C   UNL     1      16.157   7.550  25.324  1.00  0.00     0.130 C 
ATOM     18  O   UNL     1      15.268   7.611  24.490  1.00  0.00    -0.300 OA
ATOM     19  C   UNL     1      16.116   6.468  26.363  1.00  0.00     0.087 C 
ENDBRANCH  16  17
ENDBRANCH  15  16
ENDBRANCH  13  15
ENDBRANCH  11  12
ENDBRANCH   1  11
TORSDOF 9
ENDMDL
MODEL 6
REMARK VINA RESULT:    -4.240      1.562      3.980
REMARK INTER + INTRA:          -8.933
REMARK INTER:                  -6.541
REMARK INTRA:                  -2.392
REMARK UNBOUND:                -2.462
REMARK SMILES CC(=O)CCC=C(C)CCC=C(C)CCC=C(C)C
REMARK SMILES IDX 10 1 11 2 12 3 13 4 14 5 15 6 16 7 18 8 17 9 19 10 9 11 7 12
REMARK SMILES IDX 6 13 8 14 5 15 4 16 2 17 3 18 1 19
REMARK H PARENT
REMARK Flexibility Score: inf
ROOT
ATOM      1  C   UNL     1      17.051  13.593  25.441  1.00  0.00     0.032 C 
ENDROOT
BRANCH   1   2
ATOM      2  C   UNL     1      16.184  14.549  26.226  1.00  0.00    -0.028 C 
ATOM      3  C   UNL     1      15.993  14.526  27.567  1.00  0.00    -0.077 C 
ATOM      4  C   UNL     1      15.015  15.511  28.156  1.00  0.00     0.039 C 
BRANCH   3   5
ATOM      5  C   UNL     1      16.714  13.570  28.502  1.00  0.00     0.034 C 
BRANCH   5   6
ATOM      6  C   UNL     1      15.777  13.019  29.592  1.00  0.00     0.032 C 
BRANCH   6   7
ATOM      7  C   UNL     1      15.170  11.692  29.205  1.00  0.00    -0.028 C 
ATOM      8  C   UNL     1      13.357  10.119  28.605  1.00  0.00     0.039 C 
ATOM      9  C   UNL     1      13.854  11.496  28.964  1.00  0.00    -0.080 C 
ATOM     10  C   UNL     1      12.859  12.630  28.971  1.00  0.00     0.039 C 
ENDBRANCH   6   7
ENDBRANCH   5   6
ENDBRANCH   3   5
ENDBRANCH   1   2
BRANCH   1  11
ATOM     11  C   UNL     1      16.236  12.746  24.456  1.00  0.00     0.034 C 
BRANCH  11  12
ATOM     12  C   UNL     1      15.200  11.915  25.186  1.00  0.00    -0.077 C 
ATOM     13  C   UNL     1      15.466  10.693  25.703  1.00  0.00    -0.028 C 
ATOM     14  C   UNL     1      13.802  12.460  25.333  1.00  0.00     0.039 C 
BRANCH  13  15
ATOM     15  C   UNL     1      16.817  10.014  25.695  1.00  0.00     0.035 C 
BRANCH  15  16
ATOM     16  C   UNL     1      16.777   8.717  24.878  1.00  0.00     0.079 C 
BRANCH  16  17
ATOM     17  C   UNL     1      16.546   7.515  25.756  1.00  0.00     0.130 C 
ATOM     18  O   UNL     1      17.502   6.941  26.255  1.00  0.00    -0.300 OA
ATOM     19  C   UNL     1      15.161   7.011  26.036  1.00  0.00     0.087 C 
ENDBRANCH  16  17
ENDBRANCH  15  16
ENDBRANCH  13  15
ENDBRANCH  11  12
ENDBRANCH   1  11
TORSDOF 9
ENDMDL
MODEL 7
REMARK VINA RESULT:    -4.226      2.033      6.315
REMARK INTER + INTRA:          -8.911
REMARK INTER:                  -6.458
REMARK INTRA:                  -2.453
REMARK UNBOUND:                -2.462
REMARK SMILES CC(=O)CCC=C(C)CCC=C(C)CCC=C(C)C
REMARK SMILES IDX 10 1 11 2 12 3 13 4 14 5 15 6 16 7 18 8 17 9 19 10 9 11 7 12
REMARK SMILES IDX 6 13 8 14 5 15 4 16 2 17 3 18 1 19
REMARK H PARENT
REMARK Flexibility Score: inf
ROOT
ATOM      1  C   UNL     1      14.314  13.471  25.191  1.00  0.00     0.032 C 
ENDROOT
BRANCH   1   2
ATOM      2  C   UNL     1      13.620  12.295  25.836  1.00  0.00    -0.028 C 
ATOM      3  C   UNL     1      14.230  11.204  26.358  1.00  0.00    -0.077 C 
ATOM      4  C   UNL     1      13.358  10.089  26.879  1.00  0.00     0.039 C 
BRANCH   3   5
ATOM      5  C   UNL     1      15.739  11.050  26.452  1.00  0.00     0.034 C 
BRANCH   5   6
ATOM      6  C   UNL     1      16.294  10.153  25.331  1.00  0.00     0.032 C 
BRANCH   6   7
ATOM      7  C   UNL     1      16.773   8.819  25.852  1.00  0.00    -0.028 C 
ATOM      8  C   UNL     1      16.689   6.376  26.239  1.00  0.00     0.039 C 
ATOM      9  C   UNL     1      16.128   7.646  25.653  1.00  0.00    -0.080 C 
ATOM     10  C   UNL     1      14.891   7.546  24.796  1.00  0.00     0.039 C 
ENDBRANCH   6   7
ENDBRANCH   5   6
ENDBRANCH   3   5
ENDBRANCH   1   2
BRANCH   1  11
ATOM     11  C   UNL     1      14.695  14.551  26.212  1.00  0.00     0.034 C 
BRANCH  11  12
ATOM     12  C   UNL     1      16.163  14.458  26.575  1.00  0.00    -0.077 C 
ATOM     13  C   UNL     1      16.605  14.389  27.852  1.00  0.00    -0.028 C 
ATOM     14  C   UNL     1      17.187  14.460  25.468  1.00  0.00     0.039 C 
BRANCH  13  15
ATOM     15  C   UNL     1      15.725  14.325  29.080  1.00  0.00     0.035 C 
BRANCH  15  16
ATOM     16  C   UNL     1      15.853  12.967  29.780  1.00  0.00     0.079 C 
BRANCH  16  17
ATOM     17  C   UNL     1      14.531  12.249  29.846  1.00  0.00     0.130 C 
ATOM     18  O   UNL     1      14.502  11.068  30.153  1.00  0.00    -0.300 OA
ATOM     19  C   UNL     1      13.244  12.960  29.547  1.00  0.00     0.087 C 
ENDBRANCH  16  17
ENDBRANCH  15  16
ENDBRANCH  13  15
ENDBRANCH  11  12
ENDBRANCH   1  11
TORSDOF 9
ENDMDL
MODEL 8
REMARK VINA RESULT:    -4.211      2.802      6.540
REMARK INTER + INTRA:          -8.888
REMARK INTER:                  -6.613
REMARK INTRA:                  -2.275
REMARK UNBOUND:                -2.462
REMARK SMILES CC(=O)CCC=C(C)CCC=C(C)CCC=C(C)C
REMARK SMILES IDX 10 1 11 2 12 3 13 4 14 5 15 6 16 7 18 8 17 9 19 10 9 11 7 12
REMARK SMILES IDX 6 13 8 14 5 15 4 16 2 17 3 18 1 19
REMARK H PARENT
REMARK Flexibility Score: inf
ROOT
ATOM      1  C   UNL     1      16.233  14.249  27.488  1.00  0.00     0.032 C 
ENDROOT
BRANCH   1   2
ATOM      2  C   UNL     1      14.869  13.897  28.031  1.00  0.00    -0.028 C 
ATOM      3  C   UNL     1      14.413  12.646  28.279  1.00  0.00    -0.077 C 
ATOM      4  C   UNL     1      12.984  12.494  28.737  1.00  0.00     0.039 C 
BRANCH   3   5
ATOM      5  C   UNL     1      15.264  11.397  28.130  1.00  0.00     0.034 C 
BRANCH   5   6
ATOM      6  C   UNL     1      14.882  10.590  26.876  1.00  0.00     0.032 C 
BRANCH   6   7
ATOM      7  C   UNL     1      16.093  10.041  26.160  1.00  0.00    -0.028 C 
ATOM      8  C   UNL     1      17.526   8.299  25.143  1.00  0.00     0.039 C 
ATOM      9  C   UNL     1      16.265   8.737  25.841  1.00  0.00    -0.080 C 
ATOM     10  C   UNL     1      15.199   7.701  26.098  1.00  0.00     0.039 C 
ENDBRANCH   6   7
ENDBRANCH   5   6
ENDBRANCH   3   5
ENDBRANCH   1   2
BRANCH   1  11
ATOM     11  C   UNL     1      16.155  14.908  26.105  1.00  0.00     0.034 C 
BRANCH  11  12
ATOM     12  C   UNL     1      16.449  13.904  25.009  1.00  0.00    -0.077 C 
ATOM     13  C   UNL     1      15.482  13.223  24.353  1.00  0.00    -0.028 C 
ATOM     14  C   UNL     1      17.885  13.633  24.639  1.00  0.00     0.039 C 
BRANCH  13  15
ATOM     15  C   UNL     1      13.994  13.402  24.556  1.00  0.00     0.035 C 
BRANCH  15  16
ATOM     16  C   UNL     1      13.405  14.351  23.506  1.00  0.00     0.079 C 
BRANCH  16  17
ATOM     17  C   UNL     1      12.920  15.634  24.128  1.00  0.00     0.130 C 
ATOM     18  O   UNL     1      12.922  16.661  23.468  1.00  0.00    -0.300 OA
ATOM     19  C   UNL     1      12.426  15.674  25.544  1.00  0.00     0.087 C 
ENDBRANCH  16  17
ENDBRANCH  15  16
ENDBRANCH  13  15
ENDBRANCH  11  12
ENDBRANCH   1  11
TORSDOF 9
ENDMDL
MODEL 9
REMARK VINA RESULT:    -4.178      9.007     12.524
REMARK INTER + INTRA:          -8.837
REMARK INTER:                  -5.952
REMARK INTRA:                  -2.885
REMARK UNBOUND:                -2.462
REMARK SMILES CC(=O)CCC=C(C)CCC=C(C)CCC=C(C)C
REMARK SMILES IDX 10 1 11 2 12 3 13 4 14 5 15 6 16 7 18 8 17 9 19 10 9 11 7 12
REMARK SMILES IDX 6 13 8 14 5 15 4 16 2 17 3 18 1 19
REMARK H PARENT
REMARK Flexibility Score: inf
ROOT
ATOM      1  C   UNL     1      17.390   1.331  18.949  1.00  0.00     0.032 C 
ENDROOT
BRANCH   1   2
ATOM      2  C   UNL     1      17.088   0.658  20.267  1.00  0.00    -0.028 C 
ATOM      3  C   UNL     1      16.121  -0.267  20.481  1.00  0.00    -0.077 C 
ATOM      4  C   UNL     1      15.914  -0.757  21.892  1.00  0.00     0.039 C 
BRANCH   3   5
ATOM      5  C   UNL     1      15.246  -0.838  19.378  1.00  0.00     0.034 C 
BRANCH   5   6
ATOM      6  C   UNL     1      13.751  -0.593  19.649  1.00  0.00     0.032 C 
BRANCH   6   7
ATOM      7  C   UNL     1      13.182   0.495  18.770  1.00  0.00    -0.028 C 
ATOM      8  C   UNL     1      12.403   2.774  18.206  1.00  0.00     0.039 C 
ATOM      9  C   UNL     1      13.000   1.776  19.164  1.00  0.00    -0.080 C 
ATOM     10  C   UNL     1      13.441   2.270  20.519  1.00  0.00     0.039 C 
ENDBRANCH   6   7
ENDBRANCH   5   6
ENDBRANCH   3   5
ENDBRANCH   1   2
BRANCH   1  11
ATOM     11  C   UNL     1      16.789   2.740  18.866  1.00  0.00     0.034 C 
BRANCH  11  12
ATOM     12  C   UNL     1      16.111   2.961  17.529  1.00  0.00    -0.077 C 
ATOM     13  C   UNL     1      15.678   4.173  17.112  1.00  0.00    -0.028 C 
ATOM     14  C   UNL     1      15.888   1.776  16.623  1.00  0.00     0.039 C 
BRANCH  13  15
ATOM     15  C   UNL     1      15.861   5.473  17.863  1.00  0.00     0.035 C 
BRANCH  15  16
ATOM     16  C   UNL     1      14.840   6.521  17.407  1.00  0.00     0.079 C 
BRANCH  16  17
ATOM     17  C   UNL     1      13.512   6.340  18.096  1.00  0.00     0.130 C 
ATOM     18  O   UNL     1      12.484   6.370  17.438  1.00  0.00    -0.300 OA
ATOM     19  C   UNL     1      13.429   6.117  19.577  1.00  0.00     0.087 C 
ENDBRANCH  16  17
ENDBRANCH  15  16
ENDBRANCH  13  15
ENDBRANCH  11  12
ENDBRANCH   1  11
TORSDOF 9
ENDMDL
