MODEL 1
REMARK VINA RESULT:    16.796      0.000      0.000
REMARK INTER + INTRA:          22.693
REMARK INTER:                  22.688
REMARK INTRA:                   0.005
REMARK UNBOUND:                 0.005
REMARK SMILES O=c1c(-c2ccc(O)cc2)coc2c([C@H]3O[C@@H](CO)[C@H](O)[C@@H](O)[C@@H]3O)c(O)ccc12
REMARK SMILES IDX 3 1 11 2 12 3 13 4 30 5 2 6 1 7 29 8 28 9 26 10 14 11 4 12
REMARK SMILES IDX 5 13 6 14 7 15 10 16 9 17 8 18 15 20 24 21 16 22 22 23 17 24
REMARK SMILES IDX 20 25 25 26 23 28 18 30 19 31 21 33 27 35
REMARK H PARENT 8 19 25 27 23 29 19 32 21 34 27 36
REMARK Flexibility Score: inf
ROOT
ATOM      1  C   UNL     1      31.871  40.532  28.398  1.00  0.00     0.065 A 
ATOM      2  C   UNL     1      30.495  40.290  28.518  1.00  0.00     0.208 A 
ATOM      3  O   UNL     1      29.934  39.237  27.937  1.00  0.00    -0.463 OA
ATOM      4  C   UNL     1      30.614  38.352  27.211  1.00  0.00     0.147 A 
ATOM      5  C   UNL     1      32.008  38.520  27.038  1.00  0.00     0.066 A 
ATOM      6  C   UNL     1      32.634  39.632  27.631  1.00  0.00     0.200 A 
ATOM      7  O   UNL     1      33.870  39.833  27.463  1.00  0.00    -0.288 OA
ATOM      8  C   UNL     1      32.731  37.586  26.283  1.00  0.00     0.020 A 
ATOM      9  C   UNL     1      32.082  36.488  25.724  1.00  0.00     0.047 A 
ATOM     10  C   UNL     1      30.708  36.297  25.900  1.00  0.00     0.125 A 
ATOM     11  C   UNL     1      29.941  37.252  26.625  1.00  0.00     0.069 A 
ENDROOT
BRANCH   1  12
ATOM     12  C   UNL     1      32.477  41.708  29.070  1.00  0.00    -0.011 A 
ATOM     13  C   UNL     1      31.833  42.957  29.037  1.00  0.00     0.013 A 
ATOM     14  C   UNL     1      32.393  44.059  29.692  1.00  0.00     0.047 A 
ATOM     15  C   UNL     1      33.600  43.927  30.386  1.00  0.00     0.115 A 
ATOM     16  C   UNL     1      33.688  41.581  29.774  1.00  0.00     0.013 A 
ATOM     17  C   UNL     1      34.247  42.686  30.424  1.00  0.00     0.047 A 
BRANCH  15  18
ATOM     18  O   UNL     1      34.149  45.032  31.032  1.00  0.00    -0.508 OA
ATOM     19  H   UNL     1      35.036  45.429  30.750  1.00  0.00     0.293 HD
ENDBRANCH  15  18
ENDBRANCH   1  12
BRANCH  11  20
ATOM     20  C   UNL     1      28.433  37.101  26.820  1.00  0.00     0.188 C 
ATOM     21  C   UNL     1      27.652  37.868  25.726  1.00  0.00     0.179 C 
ATOM     22  O   UNL     1      28.052  37.542  28.111  1.00  0.00    -0.362 OA
ATOM     23  C   UNL     1      26.230  38.277  26.206  1.00  0.00     0.177 C 
ATOM     24  C   UNL     1      26.764  37.044  28.440  1.00  0.00     0.176 C 
ATOM     25  C   UNL     1      25.683  37.388  27.361  1.00  0.00     0.177 C 
BRANCH  21  26
ATOM     26  O   UNL     1      27.562  37.053  24.583  1.00  0.00    -0.387 OA
ATOM     27  H   UNL     1      28.008  37.546  23.842  1.00  0.00     0.211 HD
ENDBRANCH  21  26
BRANCH  23  28
ATOM     28  O   UNL     1      26.205  39.638  26.565  1.00  0.00    -0.387 OA
ATOM     29  H   UNL     1      26.249  40.176  25.735  1.00  0.00     0.211 HD
ENDBRANCH  23  28
BRANCH  24  30
ATOM     30  C   UNL     1      26.372  37.572  29.830  1.00  0.00     0.191 C 
BRANCH  30  31
ATOM     31  O   UNL     1      27.016  36.856  30.850  1.00  0.00    -0.394 OA
ATOM     32  H   UNL     1      27.267  37.519  31.545  1.00  0.00     0.210 HD
ENDBRANCH  30  31
ENDBRANCH  24  30
BRANCH  25  33
ATOM     33  O   UNL     1      25.117  36.204  26.849  1.00  0.00    -0.388 OA
ATOM     34  H   UNL     1      25.512  35.438  27.344  1.00  0.00     0.211 HD
ENDBRANCH  25  33
ENDBRANCH  11  20
BRANCH  10  35
ATOM     35  O   UNL     1      30.158  35.140  25.345  1.00  0.00    -0.507 OA
ATOM     36  H   UNL     1      29.308  35.125  24.802  1.00  0.00     0.293 HD
ENDBRANCH  10  35
TORSDOF 9
ENDMDL
MODEL 2
REMARK VINA RESULT:    19.394      3.579      6.256
REMARK INTER + INTRA:          26.202
REMARK INTER:                  26.160
REMARK INTRA:                   0.042
REMARK UNBOUND:                 0.005
REMARK SMILES O=c1c(-c2ccc(O)cc2)coc2c([C@H]3O[C@@H](CO)[C@H](O)[C@@H](O)[C@@H]3O)c(O)ccc12
REMARK SMILES IDX 3 1 11 2 12 3 13 4 30 5 2 6 1 7 29 8 28 9 26 10 14 11 4 12
REMARK SMILES IDX 5 13 6 14 7 15 10 16 9 17 8 18 15 20 24 21 16 22 22 23 17 24
REMARK SMILES IDX 20 25 25 26 23 28 18 30 19 31 21 33 27 35
REMARK H PARENT 8 19 25 27 23 29 19 32 21 34 27 36
REMARK Flexibility Score: inf
ROOT
ATOM      1  C   UNL     1      31.756  37.457  23.555  1.00  0.00     0.065 A 
ATOM      2  C   UNL     1      30.392  37.706  23.768  1.00  0.00     0.208 A 
ATOM      3  O   UNL     1      29.889  37.745  24.995  1.00  0.00    -0.463 OA
ATOM      4  C   UNL     1      30.618  37.553  26.092  1.00  0.00     0.147 A 
ATOM      5  C   UNL     1      32.004  37.296  25.970  1.00  0.00     0.066 A 
ATOM      6  C   UNL     1      32.569  37.236  24.682  1.00  0.00     0.200 A 
ATOM      7  O   UNL     1      33.795  36.969  24.535  1.00  0.00    -0.288 OA
ATOM      8  C   UNL     1      32.779  37.103  27.122  1.00  0.00     0.020 A 
ATOM      9  C   UNL     1      32.190  37.186  28.381  1.00  0.00     0.047 A 
ATOM     10  C   UNL     1      30.825  37.457  28.521  1.00  0.00     0.125 A 
ATOM     11  C   UNL     1      30.006  37.614  27.368  1.00  0.00     0.069 A 
ENDROOT
BRANCH   1  12
ATOM     12  C   UNL     1      32.296  37.434  22.174  1.00  0.00    -0.011 A 
ATOM     13  C   UNL     1      31.540  36.890  21.121  1.00  0.00     0.013 A 
ATOM     14  C   UNL     1      32.041  36.891  19.815  1.00  0.00     0.047 A 
ATOM     15  C   UNL     1      33.301  37.434  19.545  1.00  0.00     0.115 A 
ATOM     16  C   UNL     1      33.561  37.983  21.894  1.00  0.00     0.013 A 
ATOM     17  C   UNL     1      34.061  37.979  20.588  1.00  0.00     0.047 A 
BRANCH  15  18
ATOM     18  O   UNL     1      33.790  37.427  18.241  1.00  0.00    -0.508 OA
ATOM     19  H   UNL     1      34.535  38.046  17.947  1.00  0.00     0.293 HD
ENDBRANCH  15  18
ENDBRANCH   1  12
BRANCH  11  20
ATOM     20  C   UNL     1      28.505  37.883  27.471  1.00  0.00     0.188 C 
ATOM     21  C   UNL     1      27.696  36.568  27.359  1.00  0.00     0.179 C 
ATOM     22  O   UNL     1      28.098  38.809  26.480  1.00  0.00    -0.362 OA
ATOM     23  C   UNL     1      26.254  36.818  26.831  1.00  0.00     0.177 C 
ATOM     24  C   UNL     1      26.832  39.360  26.812  1.00  0.00     0.176 C 
ATOM     25  C   UNL     1      25.742  38.267  27.077  1.00  0.00     0.177 C 
BRANCH  21  26
ATOM     26  O   UNL     1      27.649  35.960  28.627  1.00  0.00    -0.387 OA
ATOM     27  H   UNL     1      26.740  35.569  28.726  1.00  0.00     0.211 HD
ENDBRANCH  21  26
BRANCH  23  28
ATOM     28  O   UNL     1      26.164  36.478  25.468  1.00  0.00    -0.387 OA
ATOM     29  H   UNL     1      27.073  36.527  25.078  1.00  0.00     0.211 HD
ENDBRANCH  23  28
BRANCH  24  30
ATOM     30  C   UNL     1      26.408  40.330  25.698  1.00  0.00     0.191 C 
BRANCH  30  31
ATOM     31  O   UNL     1      27.486  40.645  24.856  1.00  0.00    -0.394 OA
ATOM     32  H   UNL     1      28.252  40.092  25.159  1.00  0.00     0.210 HD
ENDBRANCH  30  31
ENDBRANCH  24  30
BRANCH  25  33
ATOM     33  O   UNL     1      25.234  38.398  28.384  1.00  0.00    -0.388 OA
ATOM     34  H   UNL     1      24.577  37.668  28.531  1.00  0.00     0.211 HD
ENDBRANCH  25  33
ENDBRANCH  11  20
BRANCH  10  35
ATOM     35  O   UNL     1      30.338  37.570  29.824  1.00  0.00    -0.507 OA
ATOM     36  H   UNL     1      30.005  36.790  30.372  1.00  0.00     0.293 HD
ENDBRANCH  10  35
TORSDOF 9
ENDMDL
MODEL 3
REMARK VINA RESULT:    19.702      1.165      1.978
REMARK INTER + INTRA:          26.618
REMARK INTER:                  26.203
REMARK INTRA:                   0.415
REMARK UNBOUND:                 0.005
REMARK SMILES O=c1c(-c2ccc(O)cc2)coc2c([C@H]3O[C@@H](CO)[C@H](O)[C@@H](O)[C@@H]3O)c(O)ccc12
REMARK SMILES IDX 3 1 11 2 12 3 13 4 30 5 2 6 1 7 29 8 28 9 26 10 14 11 4 12
REMARK SMILES IDX 5 13 6 14 7 15 10 16 9 17 8 18 15 20 24 21 16 22 22 23 17 24
REMARK SMILES IDX 20 25 25 26 23 28 18 30 19 31 21 33 27 35
REMARK H PARENT 8 19 25 27 23 29 19 32 21 34 27 36
REMARK Flexibility Score: inf
ROOT
ATOM      1  C   UNL     1      32.002  40.735  28.511  1.00  0.00     0.065 A 
ATOM      2  C   UNL     1      30.622  40.512  28.636  1.00  0.00     0.208 A 
ATOM      3  O   UNL     1      30.048  39.461  28.065  1.00  0.00    -0.463 OA
ATOM      4  C   UNL     1      30.714  38.562  27.346  1.00  0.00     0.147 A 
ATOM      5  C   UNL     1      32.110  38.710  27.169  1.00  0.00     0.066 A 
ATOM      6  C   UNL     1      32.752  39.820  27.750  1.00  0.00     0.200 A 
ATOM      7  O   UNL     1      33.989  40.003  27.579  1.00  0.00    -0.288 OA
ATOM      8  C   UNL     1      32.821  37.760  26.421  1.00  0.00     0.020 A 
ATOM      9  C   UNL     1      32.156  36.666  25.873  1.00  0.00     0.047 A 
ATOM     10  C   UNL     1      30.780  36.494  26.053  1.00  0.00     0.125 A 
ATOM     11  C   UNL     1      30.027  37.464  26.771  1.00  0.00     0.069 A 
ENDROOT
BRANCH   1  12
ATOM     12  C   UNL     1      32.623  41.909  29.171  1.00  0.00    -0.011 A 
ATOM     13  C   UNL     1      31.987  43.163  29.142  1.00  0.00     0.013 A 
ATOM     14  C   UNL     1      32.563  44.263  29.787  1.00  0.00     0.047 A 
ATOM     15  C   UNL     1      33.778  44.125  30.466  1.00  0.00     0.115 A 
ATOM     16  C   UNL     1      33.842  41.778  29.860  1.00  0.00     0.013 A 
ATOM     17  C   UNL     1      34.417  42.880  30.500  1.00  0.00     0.047 A 
BRANCH  15  18
ATOM     18  O   UNL     1      34.341  45.229  31.101  1.00  0.00    -0.508 OA
ATOM     19  H   UNL     1      35.097  45.133  31.768  1.00  0.00     0.293 HD
ENDBRANCH  15  18
ENDBRANCH   1  12
BRANCH  11  20
ATOM     20  C   UNL     1      28.518  37.335  26.970  1.00  0.00     0.188 C 
ATOM     21  C   UNL     1      28.027  35.915  26.597  1.00  0.00     0.179 C 
ATOM     22  O   UNL     1      27.831  38.317  26.215  1.00  0.00    -0.362 OA
ATOM     23  C   UNL     1      26.530  35.910  26.175  1.00  0.00     0.177 C 
ATOM     24  C   UNL     1      26.502  38.465  26.694  1.00  0.00     0.176 C 
ATOM     25  C   UNL     1      25.718  37.110  26.744  1.00  0.00     0.177 C 
BRANCH  21  26
ATOM     26  O   UNL     1      28.222  35.067  27.703  1.00  0.00    -0.387 OA
ATOM     27  H   UNL     1      29.071  35.351  28.138  1.00  0.00     0.211 HD
ENDBRANCH  21  26
BRANCH  23  28
ATOM     28  O   UNL     1      26.415  35.845  24.773  1.00  0.00    -0.387 OA
ATOM     29  H   UNL     1      25.638  35.272  24.554  1.00  0.00     0.211 HD
ENDBRANCH  23  28
BRANCH  24  30
ATOM     30  C   UNL     1      25.780  39.510  25.829  1.00  0.00     0.191 C 
BRANCH  30  31
ATOM     31  O   UNL     1      26.584  40.640  25.614  1.00  0.00    -0.394 OA
ATOM     32  H   UNL     1      27.134  40.756  26.432  1.00  0.00     0.210 HD
ENDBRANCH  30  31
ENDBRANCH  24  30
BRANCH  25  33
ATOM     33  O   UNL     1      25.298  36.843  28.061  1.00  0.00    -0.388 OA
ATOM     34  H   UNL     1      24.687  37.575  28.341  1.00  0.00     0.211 HD
ENDBRANCH  25  33
ENDBRANCH  11  20
BRANCH  10  35
ATOM     35  O   UNL     1      30.215  35.339  25.509  1.00  0.00    -0.507 OA
ATOM     36  H   UNL     1      29.272  35.287  25.153  1.00  0.00     0.293 HD
ENDBRANCH  10  35
TORSDOF 9
ENDMDL
MODEL 4
REMARK VINA RESULT:    19.747      1.201      2.119
REMARK INTER + INTRA:          26.678
REMARK INTER:                  24.768
REMARK INTRA:                   1.910
REMARK UNBOUND:                 0.005
REMARK SMILES O=c1c(-c2ccc(O)cc2)coc2c([C@H]3O[C@@H](CO)[C@H](O)[C@@H](O)[C@@H]3O)c(O)ccc12
REMARK SMILES IDX 3 1 11 2 12 3 13 4 30 5 2 6 1 7 29 8 28 9 26 10 14 11 4 12
REMARK SMILES IDX 5 13 6 14 7 15 10 16 9 17 8 18 15 20 24 21 16 22 22 23 17 24
REMARK SMILES IDX 20 25 25 26 23 28 18 30 19 31 21 33 27 35
REMARK H PARENT 8 19 25 27 23 29 19 32 21 34 27 36
REMARK Flexibility Score: inf
ROOT
ATOM      1  C   UNL     1      32.021  40.816  28.390  1.00  0.00     0.065 A 
ATOM      2  C   UNL     1      30.632  40.622  28.388  1.00  0.00     0.208 A 
ATOM      3  O   UNL     1      30.085  39.612  27.724  1.00  0.00    -0.463 OA
ATOM      4  C   UNL     1      30.792  38.728  27.022  1.00  0.00     0.147 A 
ATOM      5  C   UNL     1      32.201  38.849  26.971  1.00  0.00     0.066 A 
ATOM      6  C   UNL     1      32.813  39.916  27.654  1.00  0.00     0.200 A 
ATOM      7  O   UNL     1      34.065  40.076  27.596  1.00  0.00    -0.288 OA
ATOM      8  C   UNL     1      32.952  37.916  26.242  1.00  0.00     0.020 A 
ATOM      9  C   UNL     1      32.314  36.863  25.591  1.00  0.00     0.047 A 
ATOM     10  C   UNL     1      30.924  36.718  25.646  1.00  0.00     0.125 A 
ATOM     11  C   UNL     1      30.133  37.675  26.342  1.00  0.00     0.069 A 
ENDROOT
BRANCH   1  12
ATOM     12  C   UNL     1      32.609  41.944  29.154  1.00  0.00    -0.011 A 
ATOM     13  C   UNL     1      32.002  43.212  29.132  1.00  0.00     0.013 A 
ATOM     14  C   UNL     1      32.544  44.268  29.873  1.00  0.00     0.047 A 
ATOM     15  C   UNL     1      33.695  44.072  30.641  1.00  0.00     0.115 A 
ATOM     16  C   UNL     1      33.764  41.753  29.933  1.00  0.00     0.013 A 
ATOM     17  C   UNL     1      34.305  42.812  30.668  1.00  0.00     0.047 A 
BRANCH  15  18
ATOM     18  O   UNL     1      34.226  45.132  31.372  1.00  0.00    -0.508 OA
ATOM     19  H   UNL     1      33.670  45.940  31.620  1.00  0.00     0.293 HD
ENDBRANCH  15  18
ENDBRANCH   1  12
BRANCH  11  20
ATOM     20  C   UNL     1      28.610  37.575  26.407  1.00  0.00     0.188 C 
ATOM     21  C   UNL     1      28.072  38.129  27.748  1.00  0.00     0.179 C 
ATOM     22  O   UNL     1      28.191  36.236  26.214  1.00  0.00    -0.362 OA
ATOM     23  C   UNL     1      26.701  37.501  28.128  1.00  0.00     0.177 C 
ATOM     24  C   UNL     1      26.813  36.195  25.875  1.00  0.00     0.176 C 
ATOM     25  C   UNL     1      25.909  36.948  26.908  1.00  0.00     0.177 C 
BRANCH  21  26
ATOM     26  O   UNL     1      27.952  39.527  27.641  1.00  0.00    -0.387 OA
ATOM     27  H   UNL     1      28.866  39.882  27.470  1.00  0.00     0.211 HD
ENDBRANCH  21  26
BRANCH  23  28
ATOM     28  O   UNL     1      26.872  36.505  29.109  1.00  0.00    -0.387 OA
ATOM     29  H   UNL     1      27.827  36.247  29.122  1.00  0.00     0.211 HD
ENDBRANCH  23  28
BRANCH  24  30
ATOM     30  C   UNL     1      26.389  34.727  25.709  1.00  0.00     0.191 C 
BRANCH  30  31
ATOM     31  O   UNL     1      26.654  34.261  24.412  1.00  0.00    -0.394 OA
ATOM     32  H   UNL     1      26.678  35.060  23.824  1.00  0.00     0.210 HD
ENDBRANCH  30  31
ENDBRANCH  24  30
BRANCH  25  33
ATOM     33  O   UNL     1      25.202  37.984  26.266  1.00  0.00    -0.388 OA
ATOM     34  H   UNL     1      24.241  37.735  26.252  1.00  0.00     0.211 HD
ENDBRANCH  25  33
ENDBRANCH  11  20
BRANCH  10  35
ATOM     35  O   UNL     1      30.383  35.603  25.005  1.00  0.00    -0.507 OA
ATOM     36  H   UNL     1      30.928  34.814  24.691  1.00  0.00     0.293 HD
ENDBRANCH  10  35
TORSDOF 9
ENDMDL
