MODEL 1
REMARK VINA RESULT:    -3.818      0.000      0.000
REMARK INTER + INTRA:         -15.504
REMARK INTER:                 -10.068
REMARK INTRA:                  -5.436
REMARK UNBOUND:                -5.436
REMARK SMILES CCCCCCCCCCCCCCCCCCCCCCCCCCCCCC(=O)[O-]
REMARK SMILES IDX 16 1 17 2 18 3 19 4 20 5 21 6 22 7 23 8 24 9 25 10 26 11
REMARK SMILES IDX 27 12 28 13 29 14 30 15 31 16 32 17 15 18 14 19 13 20 12 21
REMARK SMILES IDX 11 22 10 23 9 24 8 25 7 26 6 27 5 28 4 29 3 30 2 31 1 32
REMARK H PARENT
REMARK Flexibility Score: inf
ROOT
ATOM      1  C   UNL     1      26.711   9.888  25.251  1.00  0.00     0.000 C 
ENDROOT
BRANCH   1   2
ATOM      2  C   UNL     1      27.035  11.128  24.389  1.00  0.00     0.000 C 
BRANCH   2   3
ATOM      3  C   UNL     1      27.600  10.754  23.009  1.00  0.00     0.000 C 
BRANCH   3   4
ATOM      4  C   UNL     1      28.516  11.861  22.472  1.00  0.00     0.000 C 
BRANCH   4   5
ATOM      5  C   UNL     1      29.997  11.505  22.669  1.00  0.00     0.000 C 
BRANCH   5   6
ATOM      6  C   UNL     1      30.755  12.528  23.534  1.00  0.00     0.000 C 
BRANCH   6   7
ATOM      7  C   UNL     1      31.739  11.900  24.544  1.00  0.00     0.000 C 
BRANCH   7   8
ATOM      8  C   UNL     1      31.020  11.231  25.728  1.00  0.00     0.000 C 
BRANCH   8   9
ATOM      9  C   UNL     1      31.267   9.717  25.746  1.00  0.00     0.000 C 
BRANCH   9  10
ATOM     10  C   UNL     1      29.941   8.946  25.808  1.00  0.00     0.000 C 
BRANCH  10  11
ATOM     11  C   UNL     1      29.760   8.169  27.122  1.00  0.00     0.000 C 
BRANCH  11  12
ATOM     12  C   UNL     1      28.788   8.847  28.112  1.00  0.00     0.000 C 
BRANCH  12  13
ATOM     13  C   UNL     1      29.409  10.093  28.768  1.00  0.00     0.006 C 
BRANCH  13  14
ATOM     14  C   UNL     1      28.577  11.359  28.521  1.00  0.00     0.053 C 
BRANCH  14  15
ATOM     15  C   UNL     1      28.892  12.436  29.513  1.00  0.00     0.041 C 
ATOM     16  O   UNL     1      29.797  12.261  30.370  1.00  0.00    -0.550 OA
ATOM     17  O   UNL     1      28.210  13.646  29.466  1.00  0.00    -0.550 OA
ENDBRANCH  14  15
ENDBRANCH  13  14
ENDBRANCH  12  13
ENDBRANCH  11  12
ENDBRANCH  10  11
ENDBRANCH   9  10
ENDBRANCH   8   9
ENDBRANCH   7   8
ENDBRANCH   6   7
ENDBRANCH   5   6
ENDBRANCH   4   5
ENDBRANCH   3   4
ENDBRANCH   2   3
ENDBRANCH   1   2
BRANCH   1  18
ATOM     18  C   UNL     1      25.480  10.062  26.157  1.00  0.00     0.000 C 
BRANCH  18  19
ATOM     19  C   UNL     1      25.025   8.742  26.800  1.00  0.00     0.000 C 
BRANCH  19  20
ATOM     20  C   UNL     1      25.187   8.723  28.333  1.00  0.00     0.000 C 
BRANCH  20  21
ATOM     21  C   UNL     1      25.387   7.332  28.966  1.00  0.00     0.000 C 
BRANCH  21  22
ATOM     22  C   UNL     1      25.484   6.200  27.927  1.00  0.00     0.000 C 
BRANCH  22  23
ATOM     23  C   UNL     1      25.489   4.807  28.578  1.00  0.00     0.000 C 
BRANCH  23  24
ATOM     24  C   UNL     1      26.880   4.157  28.588  1.00  0.00    -0.000 C 
BRANCH  24  25
ATOM     25  C   UNL     1      27.774   4.759  27.492  1.00  0.00    -0.000 C 
BRANCH  25  26
ATOM     26  C   UNL     1      28.081   3.770  26.358  1.00  0.00    -0.000 C 
BRANCH  26  27
ATOM     27  C   UNL     1      27.901   4.389  24.959  1.00  0.00    -0.000 C 
BRANCH  27  28
ATOM     28  C   UNL     1      27.850   5.931  24.992  1.00  0.00    -0.000 C 
BRANCH  28  29
ATOM     29  C   UNL     1      26.930   6.556  23.924  1.00  0.00    -0.000 C 
BRANCH  29  30
ATOM     30  C   UNL     1      25.428   6.288  24.115  1.00  0.00    -0.000 C 
BRANCH  30  31
ATOM     31  C   UNL     1      24.581   6.757  22.923  1.00  0.00    -0.003 C 
ATOM     32  C   UNL     1      24.632   8.277  22.773  1.00  0.00     0.004 C 
ENDBRANCH  30  31
ENDBRANCH  29  30
ENDBRANCH  28  29
ENDBRANCH  27  28
ENDBRANCH  26  27
ENDBRANCH  25  26
ENDBRANCH  24  25
ENDBRANCH  23  24
ENDBRANCH  22  23
ENDBRANCH  21  22
ENDBRANCH  20  21
ENDBRANCH  19  20
ENDBRANCH  18  19
ENDBRANCH   1  18
TORSDOF 28
ENDMDL
MODEL 2
REMARK VINA RESULT:    -3.745      1.798      4.413
REMARK INTER + INTRA:         -15.310
REMARK INTER:                  -8.708
REMARK INTRA:                  -6.602
REMARK UNBOUND:                -5.436
REMARK SMILES CCCCCCCCCCCCCCCCCCCCCCCCCCCCCC(=O)[O-]
REMARK SMILES IDX 16 1 17 2 18 3 19 4 20 5 21 6 22 7 23 8 24 9 25 10 26 11
REMARK SMILES IDX 27 12 28 13 29 14 30 15 31 16 32 17 15 18 14 19 13 20 12 21
REMARK SMILES IDX 11 22 10 23 9 24 8 25 7 26 6 27 5 28 4 29 3 30 2 31 1 32
REMARK H PARENT
REMARK Flexibility Score: inf
ROOT
ATOM      1  C   UNL     1      30.093   8.827  25.944  1.00  0.00     0.000 C 
ENDROOT
BRANCH   1   2
ATOM      2  C   UNL     1      31.331   9.543  25.361  1.00  0.00     0.000 C 
BRANCH   2   3
ATOM      3  C   UNL     1      31.404  11.023  25.773  1.00  0.00     0.000 C 
BRANCH   3   4
ATOM      4  C   UNL     1      31.631  11.922  24.552  1.00  0.00     0.000 C 
BRANCH   4   5
ATOM      5  C   UNL     1      31.211  11.218  23.254  1.00  0.00     0.000 C 
BRANCH   5   6
ATOM      6  C   UNL     1      30.752  12.196  22.157  1.00  0.00     0.000 C 
BRANCH   6   7
ATOM      7  C   UNL     1      29.266  12.055  21.762  1.00  0.00     0.000 C 
BRANCH   7   8
ATOM      8  C   UNL     1      28.480  13.363  21.953  1.00  0.00     0.000 C 
BRANCH   8   9
ATOM      9  C   UNL     1      27.537  13.274  23.160  1.00  0.00     0.000 C 
BRANCH   9  10
ATOM     10  C   UNL     1      28.228  13.780  24.434  1.00  0.00     0.000 C 
BRANCH  10  11
ATOM     11  C   UNL     1      27.575  13.252  25.721  1.00  0.00     0.000 C 
BRANCH  11  12
ATOM     12  C   UNL     1      28.323  12.055  26.347  1.00  0.00     0.000 C 
BRANCH  12  13
ATOM     13  C   UNL     1      27.652  11.568  27.643  1.00  0.00     0.006 C 
BRANCH  13  14
ATOM     14  C   UNL     1      28.643  10.880  28.591  1.00  0.00     0.053 C 
BRANCH  14  15
ATOM     15  C   UNL     1      29.579  11.860  29.228  1.00  0.00     0.041 C 
ATOM     16  O   UNL     1      29.135  12.926  29.728  1.00  0.00    -0.550 OA
ATOM     17  O   UNL     1      30.938  11.577  29.301  1.00  0.00    -0.550 OA
ENDBRANCH  14  15
ENDBRANCH  13  14
ENDBRANCH  12  13
ENDBRANCH  11  12
ENDBRANCH  10  11
ENDBRANCH   9  10
ENDBRANCH   8   9
ENDBRANCH   7   8
ENDBRANCH   6   7
ENDBRANCH   5   6
ENDBRANCH   4   5
ENDBRANCH   3   4
ENDBRANCH   2   3
ENDBRANCH   1   2
BRANCH   1  18
ATOM     18  C   UNL     1      29.510   7.741  25.024  1.00  0.00     0.000 C 
BRANCH  18  19
ATOM     19  C   UNL     1      29.033   8.300  23.673  1.00  0.00     0.000 C 
BRANCH  19  20
ATOM     20  C   UNL     1      27.864   9.296  23.805  1.00  0.00     0.000 C 
BRANCH  20  21
ATOM     21  C   UNL     1      26.944   9.412  22.574  1.00  0.00     0.000 C 
BRANCH  21  22
ATOM     22  C   UNL     1      26.344   8.064  22.135  1.00  0.00     0.000 C 
BRANCH  22  23
ATOM     23  C   UNL     1      24.925   7.847  22.685  1.00  0.00     0.000 C 
BRANCH  23  24
ATOM     24  C   UNL     1      24.759   6.497  23.397  1.00  0.00    -0.000 C 
BRANCH  24  25
ATOM     25  C   UNL     1      26.087   6.043  24.025  1.00  0.00    -0.000 C 
BRANCH  25  26
ATOM     26  C   UNL     1      26.176   6.349  25.527  1.00  0.00    -0.000 C 
BRANCH  26  27
ATOM     27  C   UNL     1      24.954   7.127  26.052  1.00  0.00    -0.000 C 
BRANCH  27  28
ATOM     28  C   UNL     1      25.303   8.571  26.470  1.00  0.00    -0.000 C 
BRANCH  28  29
ATOM     29  C   UNL     1      24.294   9.630  25.981  1.00  0.00    -0.000 C 
BRANCH  29  30
ATOM     30  C   UNL     1      24.917  10.890  25.358  1.00  0.00    -0.000 C 
BRANCH  30  31
ATOM     31  C   UNL     1      24.196  11.343  24.078  1.00  0.00    -0.003 C 
ATOM     32  C   UNL     1      22.816  10.698  23.964  1.00  0.00     0.004 C 
ENDBRANCH  30  31
ENDBRANCH  29  30
ENDBRANCH  28  29
ENDBRANCH  27  28
ENDBRANCH  26  27
ENDBRANCH  25  26
ENDBRANCH  24  25
ENDBRANCH  23  24
ENDBRANCH  22  23
ENDBRANCH  21  22
ENDBRANCH  20  21
ENDBRANCH  19  20
ENDBRANCH  18  19
ENDBRANCH   1  18
TORSDOF 28
ENDMDL
MODEL 3
REMARK VINA RESULT:    -3.692      2.961      5.262
REMARK INTER + INTRA:         -15.170
REMARK INTER:                  -8.717
REMARK INTRA:                  -6.453
REMARK UNBOUND:                -5.436
REMARK SMILES CCCCCCCCCCCCCCCCCCCCCCCCCCCCCC(=O)[O-]
REMARK SMILES IDX 16 1 17 2 18 3 19 4 20 5 21 6 22 7 23 8 24 9 25 10 26 11
REMARK SMILES IDX 27 12 28 13 29 14 30 15 31 16 32 17 15 18 14 19 13 20 12 21
REMARK SMILES IDX 11 22 10 23 9 24 8 25 7 26 6 27 5 28 4 29 3 30 2 31 1 32
REMARK H PARENT
REMARK Flexibility Score: inf
ROOT
ATOM      1  C   UNL     1      29.841  11.450  28.719  1.00  0.00     0.000 C 
ENDROOT
BRANCH   1   2
ATOM      2  C   UNL     1      28.617  12.279  29.169  1.00  0.00     0.000 C 
BRANCH   2   3
ATOM      3  C   UNL     1      27.456  12.207  28.162  1.00  0.00     0.000 C 
BRANCH   3   4
ATOM      4  C   UNL     1      27.922  11.608  26.829  1.00  0.00     0.000 C 
BRANCH   4   5
ATOM      5  C   UNL     1      27.857  12.646  25.699  1.00  0.00     0.000 C 
BRANCH   5   6
ATOM      6  C   UNL     1      27.639  12.015  24.311  1.00  0.00     0.000 C 
BRANCH   6   7
ATOM      7  C   UNL     1      28.699  12.410  23.261  1.00  0.00     0.000 C 
BRANCH   7   8
ATOM      8  C   UNL     1      29.962  13.015  23.898  1.00  0.00     0.000 C 
BRANCH   8   9
ATOM      9  C   UNL     1      31.206  12.177  23.573  1.00  0.00     0.000 C 
BRANCH   9  10
ATOM     10  C   UNL     1      31.989  11.842  24.850  1.00  0.00     0.000 C 
BRANCH  10  11
ATOM     11  C   UNL     1      31.337  10.724  25.678  1.00  0.00     0.000 C 
BRANCH  11  12
ATOM     12  C   UNL     1      31.147   9.406  24.896  1.00  0.00     0.000 C 
BRANCH  12  13
ATOM     13  C   UNL     1      29.671   8.976  24.839  1.00  0.00     0.006 C 
BRANCH  13  14
ATOM     14  C   UNL     1      29.212   8.652  23.411  1.00  0.00     0.053 C 
BRANCH  14  15
ATOM     15  C   UNL     1      29.294   7.186  23.116  1.00  0.00     0.041 C 
ATOM     16  O   UNL     1      28.424   6.400  23.572  1.00  0.00    -0.550 OA
ATOM     17  O   UNL     1      30.313   6.696  22.309  1.00  0.00    -0.550 OA
ENDBRANCH  14  15
ENDBRANCH  13  14
ENDBRANCH  12  13
ENDBRANCH  11  12
ENDBRANCH  10  11
ENDBRANCH   9  10
ENDBRANCH   8   9
ENDBRANCH   7   8
ENDBRANCH   6   7
ENDBRANCH   5   6
ENDBRANCH   4   5
ENDBRANCH   3   4
ENDBRANCH   2   3
ENDBRANCH   1   2
BRANCH   1  18
ATOM     18  C   UNL     1      29.954  10.081  29.411  1.00  0.00     0.000 C 
BRANCH  18  19
ATOM     19  C   UNL     1      29.590   8.913  28.478  1.00  0.00     0.000 C 
BRANCH  19  20
ATOM     20  C   UNL     1      28.107   8.501  28.568  1.00  0.00     0.000 C 
BRANCH  20  21
ATOM     21  C   UNL     1      27.625   7.506  27.495  1.00  0.00     0.000 C 
BRANCH  21  22
ATOM     22  C   UNL     1      26.543   8.089  26.567  1.00  0.00     0.000 C 
BRANCH  22  23
ATOM     23  C   UNL     1      25.371   8.705  27.350  1.00  0.00     0.000 C 
BRANCH  23  24
ATOM     24  C   UNL     1      24.258   9.239  26.438  1.00  0.00    -0.000 C 
BRANCH  24  25
ATOM     25  C   UNL     1      24.389  10.758  26.245  1.00  0.00    -0.000 C 
BRANCH  25  26
ATOM     26  C   UNL     1      23.475  11.303  25.137  1.00  0.00    -0.000 C 
BRANCH  26  27
ATOM     27  C   UNL     1      23.494  10.436  23.865  1.00  0.00    -0.000 C 
BRANCH  27  28
ATOM     28  C   UNL     1      24.503  10.945  22.813  1.00  0.00    -0.000 C 
BRANCH  28  29
ATOM     29  C   UNL     1      25.403   9.844  22.217  1.00  0.00    -0.000 C 
BRANCH  29  30
ATOM     30  C   UNL     1      25.610   8.611  23.111  1.00  0.00    -0.000 C 
BRANCH  30  31
ATOM     31  C   UNL     1      24.806   7.389  22.640  1.00  0.00    -0.003 C 
ATOM     32  C   UNL     1      24.876   6.256  23.662  1.00  0.00     0.004 C 
ENDBRANCH  30  31
ENDBRANCH  29  30
ENDBRANCH  28  29
ENDBRANCH  27  28
ENDBRANCH  26  27
ENDBRANCH  25  26
ENDBRANCH  24  25
ENDBRANCH  23  24
ENDBRANCH  22  23
ENDBRANCH  21  22
ENDBRANCH  20  21
ENDBRANCH  19  20
ENDBRANCH  18  19
ENDBRANCH   1  18
TORSDOF 28
ENDMDL
MODEL 4
REMARK VINA RESULT:    -3.687      2.946      6.147
REMARK INTER + INTRA:         -15.157
REMARK INTER:                  -8.604
REMARK INTRA:                  -6.553
REMARK UNBOUND:                -5.436
REMARK SMILES CCCCCCCCCCCCCCCCCCCCCCCCCCCCCC(=O)[O-]
REMARK SMILES IDX 16 1 17 2 18 3 19 4 20 5 21 6 22 7 23 8 24 9 25 10 26 11
REMARK SMILES IDX 27 12 28 13 29 14 30 15 31 16 32 17 15 18 14 19 13 20 12 21
REMARK SMILES IDX 11 22 10 23 9 24 8 25 7 26 6 27 5 28 4 29 3 30 2 31 1 32
REMARK H PARENT
REMARK Flexibility Score: inf
ROOT
ATOM      1  C   UNL     1      25.278   5.002  28.872  1.00  0.00     0.000 C 
ENDROOT
BRANCH   1   2
ATOM      2  C   UNL     1      25.031   5.871  27.619  1.00  0.00     0.000 C 
BRANCH   2   3
ATOM      3  C   UNL     1      25.016   7.374  27.940  1.00  0.00     0.000 C 
BRANCH   3   4
ATOM      4  C   UNL     1      26.328   7.806  28.607  1.00  0.00     0.000 C 
BRANCH   4   5
ATOM      5  C   UNL     1      27.455   7.956  27.575  1.00  0.00     0.000 C 
BRANCH   5   6
ATOM      6  C   UNL     1      28.847   8.099  28.218  1.00  0.00     0.000 C 
BRANCH   6   7
ATOM      7  C   UNL     1      29.354   9.554  28.317  1.00  0.00     0.000 C 
BRANCH   7   8
ATOM      8  C   UNL     1      30.336   9.914  27.190  1.00  0.00     0.000 C 
BRANCH   8   9
ATOM      9  C   UNL     1      30.007  11.283  26.581  1.00  0.00     0.000 C 
BRANCH   9  10
ATOM     10  C   UNL     1      29.767  11.167  25.069  1.00  0.00     0.000 C 
BRANCH  10  11
ATOM     11  C   UNL     1      28.489  10.384  24.723  1.00  0.00     0.000 C 
BRANCH  11  12
ATOM     12  C   UNL     1      28.756   9.082  23.937  1.00  0.00     0.000 C 
BRANCH  12  13
ATOM     13  C   UNL     1      30.259   8.774  23.824  1.00  0.00     0.006 C 
BRANCH  13  14
ATOM     14  C   UNL     1      30.630   7.430  24.465  1.00  0.00     0.053 C 
BRANCH  14  15
ATOM     15  C   UNL     1      30.706   6.330  23.450  1.00  0.00     0.041 C 
ATOM     16  O   UNL     1      31.617   5.465  23.524  1.00  0.00    -0.550 OA
ATOM     17  O   UNL     1      29.749   6.243  22.447  1.00  0.00    -0.550 OA
ENDBRANCH  14  15
ENDBRANCH  13  14
ENDBRANCH  12  13
ENDBRANCH  11  12
ENDBRANCH  10  11
ENDBRANCH   9  10
ENDBRANCH   8   9
ENDBRANCH   7   8
ENDBRANCH   6   7
ENDBRANCH   5   6
ENDBRANCH   4   5
ENDBRANCH   3   4
ENDBRANCH   2   3
ENDBRANCH   1   2
BRANCH   1  18
ATOM     18  C   UNL     1      26.232   3.819  28.632  1.00  0.00     0.000 C 
BRANCH  18  19
ATOM     19  C   UNL     1      27.610   4.263  28.114  1.00  0.00     0.000 C 
BRANCH  19  20
ATOM     20  C   UNL     1      27.956   3.684  26.727  1.00  0.00     0.000 C 
BRANCH  20  21
ATOM     21  C   UNL     1      28.242   4.720  25.623  1.00  0.00     0.000 C 
BRANCH  21  22
ATOM     22  C   UNL     1      27.115   4.820  24.578  1.00  0.00     0.000 C 
BRANCH  22  23
ATOM     23  C   UNL     1      26.661   6.271  24.345  1.00  0.00     0.000 C 
BRANCH  23  24
ATOM     24  C   UNL     1      25.243   6.368  23.764  1.00  0.00    -0.000 C 
BRANCH  24  25
ATOM     25  C   UNL     1      24.857   7.833  23.505  1.00  0.00    -0.000 C 
BRANCH  25  26
ATOM     26  C   UNL     1      25.214   8.763  24.674  1.00  0.00    -0.000 C 
BRANCH  26  27
ATOM     27  C   UNL     1      24.336  10.027  24.722  1.00  0.00    -0.000 C 
BRANCH  27  28
ATOM     28  C   UNL     1      23.529  10.141  26.033  1.00  0.00    -0.000 C 
BRANCH  28  29
ATOM     29  C   UNL     1      23.888  11.371  26.891  1.00  0.00    -0.000 C 
BRANCH  29  30
ATOM     30  C   UNL     1      24.645  11.063  28.193  1.00  0.00    -0.000 C 
BRANCH  30  31
ATOM     31  C   UNL     1      26.133  11.437  28.124  1.00  0.00    -0.003 C 
ATOM     32  C   UNL     1      26.418  12.349  26.932  1.00  0.00     0.004 C 
ENDBRANCH  30  31
ENDBRANCH  29  30
ENDBRANCH  28  29
ENDBRANCH  27  28
ENDBRANCH  26  27
ENDBRANCH  25  26
ENDBRANCH  24  25
ENDBRANCH  23  24
ENDBRANCH  22  23
ENDBRANCH  21  22
ENDBRANCH  20  21
ENDBRANCH  19  20
ENDBRANCH  18  19
ENDBRANCH   1  18
TORSDOF 28
ENDMDL
MODEL 5
REMARK VINA RESULT:    -3.684      1.429      3.857
REMARK INTER + INTRA:         -15.150
REMARK INTER:                  -9.011
REMARK INTRA:                  -6.139
REMARK UNBOUND:                -5.436
REMARK SMILES CCCCCCCCCCCCCCCCCCCCCCCCCCCCCC(=O)[O-]
REMARK SMILES IDX 16 1 17 2 18 3 19 4 20 5 21 6 22 7 23 8 24 9 25 10 26 11
REMARK SMILES IDX 27 12 28 13 29 14 30 15 31 16 32 17 15 18 14 19 13 20 12 21
REMARK SMILES IDX 11 22 10 23 9 24 8 25 7 26 6 27 5 28 4 29 3 30 2 31 1 32
REMARK H PARENT
REMARK Flexibility Score: inf
ROOT
ATOM      1  C   UNL     1      25.136   9.163  23.772  1.00  0.00     0.000 C 
ENDROOT
BRANCH   1   2
ATOM      2  C   UNL     1      26.401  10.018  23.541  1.00  0.00     0.000 C 
BRANCH   2   3
ATOM      3  C   UNL     1      27.623   9.479  24.305  1.00  0.00     0.000 C 
BRANCH   3   4
ATOM      4  C   UNL     1      28.514   8.633  23.387  1.00  0.00     0.000 C 
BRANCH   4   5
ATOM      5  C   UNL     1      28.864   9.390  22.097  1.00  0.00     0.000 C 
BRANCH   5   6
ATOM      6  C   UNL     1      30.229  10.100  22.165  1.00  0.00     0.000 C 
BRANCH   6   7
ATOM      7  C   UNL     1      30.139  11.631  22.338  1.00  0.00     0.000 C 
BRANCH   7   8
ATOM      8  C   UNL     1      30.214  12.062  23.813  1.00  0.00     0.000 C 
BRANCH   8   9
ATOM      9  C   UNL     1      31.669  12.169  24.288  1.00  0.00     0.000 C 
BRANCH   9  10
ATOM     10  C   UNL     1      31.873  11.404  25.603  1.00  0.00     0.000 C 
BRANCH  10  11
ATOM     11  C   UNL     1      31.126  10.061  25.638  1.00  0.00     0.000 C 
BRANCH  11  12
ATOM     12  C   UNL     1      30.383   9.802  26.966  1.00  0.00     0.000 C 
BRANCH  12  13
ATOM     13  C   UNL     1      30.467  11.007  27.919  1.00  0.00     0.006 C 
BRANCH  13  14
ATOM     14  C   UNL     1      29.099  11.663  28.153  1.00  0.00     0.053 C 
BRANCH  14  15
ATOM     15  C   UNL     1      29.077  12.472  29.413  1.00  0.00     0.041 C 
ATOM     16  O   UNL     1      29.998  12.346  30.262  1.00  0.00    -0.550 OA
ATOM     17  O   UNL     1      28.058  13.391  29.631  1.00  0.00    -0.550 OA
ENDBRANCH  14  15
ENDBRANCH  13  14
ENDBRANCH  12  13
ENDBRANCH  11  12
ENDBRANCH  10  11
ENDBRANCH   9  10
ENDBRANCH   8   9
ENDBRANCH   7   8
ENDBRANCH   6   7
ENDBRANCH   5   6
ENDBRANCH   4   5
ENDBRANCH   3   4
ENDBRANCH   2   3
ENDBRANCH   1   2
BRANCH   1  18
ATOM     18  C   UNL     1      24.824   8.189  22.623  1.00  0.00     0.000 C 
BRANCH  18  19
ATOM     19  C   UNL     1      24.850   6.717  23.069  1.00  0.00     0.000 C 
BRANCH  19  20
ATOM     20  C   UNL     1      25.323   6.530  24.524  1.00  0.00     0.000 C 
BRANCH  20  21
ATOM     21  C   UNL     1      26.655   5.775  24.702  1.00  0.00     0.000 C 
BRANCH  21  22
ATOM     22  C   UNL     1      27.071   5.617  26.175  1.00  0.00     0.000 C 
BRANCH  22  23
ATOM     23  C   UNL     1      28.018   6.736  26.639  1.00  0.00     0.000 C 
BRANCH  23  24
ATOM     24  C   UNL     1      27.341   7.738  27.585  1.00  0.00    -0.000 C 
BRANCH  24  25
ATOM     25  C   UNL     1      26.281   7.042  28.453  1.00  0.00    -0.000 C 
BRANCH  25  26
ATOM     26  C   UNL     1      24.849   7.491  28.124  1.00  0.00    -0.000 C 
BRANCH  26  27
ATOM     27  C   UNL     1      24.796   8.872  27.445  1.00  0.00    -0.000 C 
BRANCH  27  28
ATOM     28  C   UNL     1      24.534  10.017  28.446  1.00  0.00    -0.000 C 
BRANCH  28  29
ATOM     29  C   UNL     1      25.419  11.262  28.226  1.00  0.00    -0.000 C 
BRANCH  29  30
ATOM     30  C   UNL     1      25.760  11.573  26.760  1.00  0.00    -0.000 C 
BRANCH  30  31
ATOM     31  C   UNL     1      25.949  13.075  26.495  1.00  0.00    -0.003 C 
ATOM     32  C   UNL     1      27.138  13.327  25.570  1.00  0.00     0.004 C 
ENDBRANCH  30  31
ENDBRANCH  29  30
ENDBRANCH  28  29
ENDBRANCH  27  28
ENDBRANCH  26  27
ENDBRANCH  25  26
ENDBRANCH  24  25
ENDBRANCH  23  24
ENDBRANCH  22  23
ENDBRANCH  21  22
ENDBRANCH  20  21
ENDBRANCH  19  20
ENDBRANCH  18  19
ENDBRANCH   1  18
TORSDOF 28
ENDMDL
MODEL 6
REMARK VINA RESULT:    -3.640      3.160      7.406
REMARK INTER + INTRA:         -15.035
REMARK INTER:                  -8.563
REMARK INTRA:                  -6.472
REMARK UNBOUND:                -5.436
REMARK SMILES CCCCCCCCCCCCCCCCCCCCCCCCCCCCCC(=O)[O-]
REMARK SMILES IDX 16 1 17 2 18 3 19 4 20 5 21 6 22 7 23 8 24 9 25 10 26 11
REMARK SMILES IDX 27 12 28 13 29 14 30 15 31 16 32 17 15 18 14 19 13 20 12 21
REMARK SMILES IDX 11 22 10 23 9 24 8 25 7 26 6 27 5 28 4 29 3 30 2 31 1 32
REMARK H PARENT
REMARK Flexibility Score: inf
ROOT
ATOM      1  C   UNL     1      29.547   9.531  28.136  1.00  0.00     0.000 C 
ENDROOT
BRANCH   1   2
ATOM      2  C   UNL     1      28.601   8.321  28.295  1.00  0.00     0.000 C 
BRANCH   2   3
ATOM      3  C   UNL     1      28.323   7.612  26.959  1.00  0.00     0.000 C 
BRANCH   3   4
ATOM      4  C   UNL     1      27.910   6.153  27.187  1.00  0.00     0.000 C 
BRANCH   4   5
ATOM      5  C   UNL     1      26.618   5.814  26.429  1.00  0.00     0.000 C 
BRANCH   5   6
ATOM      6  C   UNL     1      25.554   6.922  26.523  1.00  0.00     0.000 C 
BRANCH   6   7
ATOM      7  C   UNL     1      24.990   7.377  25.160  1.00  0.00     0.000 C 
BRANCH   7   8
ATOM      8  C   UNL     1      25.450   6.475  24.001  1.00  0.00     0.000 C 
BRANCH   8   9
ATOM      9  C   UNL     1      25.547   7.262  22.688  1.00  0.00     0.000 C 
BRANCH   9  10
ATOM     10  C   UNL     1      26.998   7.315  22.187  1.00  0.00     0.000 C 
BRANCH  10  11
ATOM     11  C   UNL     1      27.955   6.459  23.032  1.00  0.00     0.000 C 
BRANCH  11  12
ATOM     12  C   UNL     1      29.254   7.194  23.429  1.00  0.00     0.000 C 
BRANCH  12  13
ATOM     13  C   UNL     1      30.284   6.244  24.063  1.00  0.00     0.006 C 
BRANCH  13  14
ATOM     14  C   UNL     1      29.749   4.813  24.206  1.00  0.00     0.053 C 
BRANCH  14  15
ATOM     15  C   UNL     1      30.856   3.813  24.337  1.00  0.00     0.041 C 
ATOM     16  O   UNL     1      30.591   2.597  24.529  1.00  0.00    -0.550 OA
ATOM     17  O   UNL     1      32.178   4.219  24.210  1.00  0.00    -0.550 OA
ENDBRANCH  14  15
ENDBRANCH  13  14
ENDBRANCH  12  13
ENDBRANCH  11  12
ENDBRANCH  10  11
ENDBRANCH   9  10
ENDBRANCH   8   9
ENDBRANCH   7   8
ENDBRANCH   6   7
ENDBRANCH   5   6
ENDBRANCH   4   5
ENDBRANCH   3   4
ENDBRANCH   2   3
ENDBRANCH   1   2
BRANCH   1  18
ATOM     18  C   UNL     1      30.223   9.617  26.757  1.00  0.00     0.000 C 
BRANCH  18  19
ATOM     19  C   UNL     1      30.719  11.035  26.426  1.00  0.00     0.000 C 
BRANCH  19  20
ATOM     20  C   UNL     1      31.662  11.081  25.207  1.00  0.00     0.000 C 
BRANCH  20  21
ATOM     21  C   UNL     1      31.372  12.194  24.181  1.00  0.00     0.000 C 
BRANCH  21  22
ATOM     22  C   UNL     1      30.034  12.915  24.428  1.00  0.00     0.000 C 
BRANCH  22  23
ATOM     23  C   UNL     1      29.065  12.772  23.242  1.00  0.00     0.000 C 
BRANCH  23  24
ATOM     24  C   UNL     1      28.935  11.325  22.746  1.00  0.00    -0.000 C 
BRANCH  24  25
ATOM     25  C   UNL     1      27.547  10.755  23.078  1.00  0.00    -0.000 C 
BRANCH  25  26
ATOM     26  C   UNL     1      27.473  10.133  24.480  1.00  0.00    -0.000 C 
BRANCH  26  27
ATOM     27  C   UNL     1      26.391  10.779  25.365  1.00  0.00    -0.000 C 
BRANCH  27  28
ATOM     28  C   UNL     1      26.985  11.679  26.470  1.00  0.00    -0.000 C 
BRANCH  28  29
ATOM     29  C   UNL     1      26.464  11.365  27.887  1.00  0.00    -0.000 C 
BRANCH  29  30
ATOM     30  C   UNL     1      24.943  11.490  28.069  1.00  0.00    -0.000 C 
BRANCH  30  31
ATOM     31  C   UNL     1      24.241  10.128  28.189  1.00  0.00    -0.003 C 
ATOM     32  C   UNL     1      23.148   9.976  27.133  1.00  0.00     0.004 C 
ENDBRANCH  30  31
ENDBRANCH  29  30
ENDBRANCH  28  29
ENDBRANCH  27  28
ENDBRANCH  26  27
ENDBRANCH  25  26
ENDBRANCH  24  25
ENDBRANCH  23  24
ENDBRANCH  22  23
ENDBRANCH  21  22
ENDBRANCH  20  21
ENDBRANCH  19  20
ENDBRANCH  18  19
ENDBRANCH   1  18
TORSDOF 28
ENDMDL
MODEL 7
REMARK VINA RESULT:    -3.623      1.604      5.885
REMARK INTER + INTRA:         -14.989
REMARK INTER:                  -9.010
REMARK INTRA:                  -5.979
REMARK UNBOUND:                -5.436
REMARK SMILES CCCCCCCCCCCCCCCCCCCCCCCCCCCCCC(=O)[O-]
REMARK SMILES IDX 16 1 17 2 18 3 19 4 20 5 21 6 22 7 23 8 24 9 25 10 26 11
REMARK SMILES IDX 27 12 28 13 29 14 30 15 31 16 32 17 15 18 14 19 13 20 12 21
REMARK SMILES IDX 11 22 10 23 9 24 8 25 7 26 6 27 5 28 4 29 3 30 2 31 1 32
REMARK H PARENT
REMARK Flexibility Score: inf
ROOT
ATOM      1  C   UNL     1      26.573   5.600  24.098  1.00  0.00     0.000 C 
ENDROOT
BRANCH   1   2
ATOM      2  C   UNL     1      27.424   5.631  25.386  1.00  0.00     0.000 C 
BRANCH   2   3
ATOM      3  C   UNL     1      27.573   7.051  25.958  1.00  0.00     0.000 C 
BRANCH   3   4
ATOM      4  C   UNL     1      28.042   7.008  27.418  1.00  0.00     0.000 C 
BRANCH   4   5
ATOM      5  C   UNL     1      27.377   8.115  28.250  1.00  0.00     0.000 C 
BRANCH   5   6
ATOM      6  C   UNL     1      25.931   7.779  28.657  1.00  0.00     0.000 C 
BRANCH   6   7
ATOM      7  C   UNL     1      24.903   8.877  28.311  1.00  0.00     0.000 C 
BRANCH   7   8
ATOM      8  C   UNL     1      24.672   9.012  26.797  1.00  0.00     0.000 C 
BRANCH   8   9
ATOM      9  C   UNL     1      24.352  10.462  26.410  1.00  0.00     0.000 C 
BRANCH   9  10
ATOM     10  C   UNL     1      25.536  11.107  25.676  1.00  0.00     0.000 C 
BRANCH  10  11
ATOM     11  C   UNL     1      26.002  12.420  26.327  1.00  0.00     0.000 C 
BRANCH  11  12
ATOM     12  C   UNL     1      26.126  12.337  27.864  1.00  0.00     0.000 C 
BRANCH  12  13
ATOM     13  C   UNL     1      27.444  11.675  28.301  1.00  0.00     0.006 C 
BRANCH  13  14
ATOM     14  C   UNL     1      28.399  12.668  28.978  1.00  0.00     0.053 C 
BRANCH  14  15
ATOM     15  C   UNL     1      29.578  11.978  29.592  1.00  0.00     0.041 C 
ATOM     16  O   UNL     1      29.868  10.801  29.254  1.00  0.00    -0.550 OA
ATOM     17  O   UNL     1      30.376  12.650  30.510  1.00  0.00    -0.550 OA
ENDBRANCH  14  15
ENDBRANCH  13  14
ENDBRANCH  12  13
ENDBRANCH  11  12
ENDBRANCH  10  11
ENDBRANCH   9  10
ENDBRANCH   8   9
ENDBRANCH   7   8
ENDBRANCH   6   7
ENDBRANCH   5   6
ENDBRANCH   4   5
ENDBRANCH   3   4
ENDBRANCH   2   3
ENDBRANCH   1   2
BRANCH   1  18
ATOM     18  C   UNL     1      25.198   6.276  24.243  1.00  0.00     0.000 C 
BRANCH  18  19
ATOM     19  C   UNL     1      24.750   6.991  22.957  1.00  0.00     0.000 C 
BRANCH  19  20
ATOM     20  C   UNL     1      24.749   8.528  23.083  1.00  0.00     0.000 C 
BRANCH  20  21
ATOM     21  C   UNL     1      25.691   9.277  22.121  1.00  0.00     0.000 C 
BRANCH  21  22
ATOM     22  C   UNL     1      26.917   8.446  21.700  1.00  0.00     0.000 C 
BRANCH  22  23
ATOM     23  C   UNL     1      28.243   9.154  22.025  1.00  0.00     0.000 C 
BRANCH  23  24
ATOM     24  C   UNL     1      29.467   8.245  21.841  1.00  0.00    -0.000 C 
BRANCH  24  25
ATOM     25  C   UNL     1      29.834   7.547  23.160  1.00  0.00    -0.000 C 
BRANCH  25  26
ATOM     26  C   UNL     1      31.060   8.168  23.845  1.00  0.00    -0.000 C 
BRANCH  26  27
ATOM     27  C   UNL     1      30.928   8.218  25.379  1.00  0.00    -0.000 C 
BRANCH  27  28
ATOM     28  C   UNL     1      30.716   9.651  25.912  1.00  0.00    -0.000 C 
BRANCH  28  29
ATOM     29  C   UNL     1      29.334  10.250  25.581  1.00  0.00    -0.000 C 
BRANCH  29  30
ATOM     30  C   UNL     1      29.363  11.625  24.895  1.00  0.00    -0.000 C 
BRANCH  30  31
ATOM     31  C   UNL     1      30.359  11.691  23.727  1.00  0.00    -0.003 C 
ATOM     32  C   UNL     1      31.662  12.365  24.150  1.00  0.00     0.004 C 
ENDBRANCH  30  31
ENDBRANCH  29  30
ENDBRANCH  28  29
ENDBRANCH  27  28
ENDBRANCH  26  27
ENDBRANCH  25  26
ENDBRANCH  24  25
ENDBRANCH  23  24
ENDBRANCH  22  23
ENDBRANCH  21  22
ENDBRANCH  20  21
ENDBRANCH  19  20
ENDBRANCH  18  19
ENDBRANCH   1  18
TORSDOF 28
ENDMDL
MODEL 8
REMARK VINA RESULT:    -3.613      2.796      5.135
REMARK INTER + INTRA:         -14.964
REMARK INTER:                  -9.167
REMARK INTRA:                  -5.797
REMARK UNBOUND:                -5.436
REMARK SMILES CCCCCCCCCCCCCCCCCCCCCCCCCCCCCC(=O)[O-]
REMARK SMILES IDX 16 1 17 2 18 3 19 4 20 5 21 6 22 7 23 8 24 9 25 10 26 11
REMARK SMILES IDX 27 12 28 13 29 14 30 15 31 16 32 17 15 18 14 19 13 20 12 21
REMARK SMILES IDX 11 22 10 23 9 24 8 25 7 26 6 27 5 28 4 29 3 30 2 31 1 32
REMARK H PARENT
REMARK Flexibility Score: inf
ROOT
ATOM      1  C   UNL     1      27.418  12.526  28.430  1.00  0.00     0.000 C 
ENDROOT
BRANCH   1   2
ATOM      2  C   UNL     1      28.598  12.588  29.425  1.00  0.00     0.000 C 
BRANCH   2   3
ATOM      3  C   UNL     1      29.835  11.826  28.919  1.00  0.00     0.000 C 
BRANCH   3   4
ATOM      4  C   UNL     1      30.057  10.542  29.727  1.00  0.00     0.000 C 
BRANCH   4   5
ATOM      5  C   UNL     1      29.675   9.297  28.912  1.00  0.00     0.000 C 
BRANCH   5   6
ATOM      6  C   UNL     1      29.471   9.593  27.415  1.00  0.00     0.000 C 
BRANCH   6   7
ATOM      7  C   UNL     1      30.060   8.524  26.471  1.00  0.00     0.000 C 
BRANCH   7   8
ATOM      8  C   UNL     1      31.169   9.085  25.565  1.00  0.00     0.000 C 
BRANCH   8   9
ATOM      9  C   UNL     1      31.591  10.492  26.007  1.00  0.00     0.000 C 
BRANCH   9  10
ATOM     10  C   UNL     1      31.370  11.510  24.880  1.00  0.00     0.000 C 
BRANCH  10  11
ATOM     11  C   UNL     1      29.933  12.056  24.837  1.00  0.00     0.000 C 
BRANCH  11  12
ATOM     12  C   UNL     1      29.166  11.674  23.553  1.00  0.00     0.000 C 
BRANCH  12  13
ATOM     13  C   UNL     1      27.854  10.932  23.863  1.00  0.00     0.006 C 
BRANCH  13  14
ATOM     14  C   UNL     1      27.980   9.415  23.667  1.00  0.00     0.053 C 
BRANCH  14  15
ATOM     15  C   UNL     1      27.720   9.012  22.248  1.00  0.00     0.041 C 
ATOM     16  O   UNL     1      27.948   7.832  21.874  1.00  0.00    -0.550 OA
ATOM     17  O   UNL     1      27.191   9.931  21.351  1.00  0.00    -0.550 OA
ENDBRANCH  14  15
ENDBRANCH  13  14
ENDBRANCH  12  13
ENDBRANCH  11  12
ENDBRANCH  10  11
ENDBRANCH   9  10
ENDBRANCH   8   9
ENDBRANCH   7   8
ENDBRANCH   6   7
ENDBRANCH   5   6
ENDBRANCH   4   5
ENDBRANCH   3   4
ENDBRANCH   2   3
ENDBRANCH   1   2
BRANCH   1  18
ATOM     18  C   UNL     1      26.105  13.105  28.983  1.00  0.00     0.000 C 
BRANCH  18  19
ATOM     19  C   UNL     1      24.985  13.148  27.931  1.00  0.00     0.000 C 
BRANCH  19  20
ATOM     20  C   UNL     1      23.746  12.320  28.326  1.00  0.00     0.000 C 
BRANCH  20  21
ATOM     21  C   UNL     1      22.996  11.643  27.163  1.00  0.00     0.000 C 
BRANCH  21  22
ATOM     22  C   UNL     1      23.406  10.174  26.948  1.00  0.00     0.000 C 
BRANCH  22  23
ATOM     23  C   UNL     1      24.645  10.038  26.046  1.00  0.00     0.000 C 
BRANCH  23  24
ATOM     24  C   UNL     1      25.914   9.667  26.826  1.00  0.00    -0.000 C 
BRANCH  24  25
ATOM     25  C   UNL     1      25.560   9.117  28.217  1.00  0.00    -0.000 C 
BRANCH  25  26
ATOM     26  C   UNL     1      26.348   7.849  28.578  1.00  0.00    -0.000 C 
BRANCH  26  27
ATOM     27  C   UNL     1      25.820   6.592  27.861  1.00  0.00    -0.000 C 
BRANCH  27  28
ATOM     28  C   UNL     1      26.942   5.784  27.173  1.00  0.00    -0.000 C 
BRANCH  28  29
ATOM     29  C   UNL     1      26.993   5.954  25.641  1.00  0.00    -0.000 C 
BRANCH  29  30
ATOM     30  C   UNL     1      25.794   6.690  25.022  1.00  0.00    -0.000 C 
BRANCH  30  31
ATOM     31  C   UNL     1      25.376   6.113  23.661  1.00  0.00    -0.003 C 
ATOM     32  C   UNL     1      24.594   7.140  22.843  1.00  0.00     0.004 C 
ENDBRANCH  30  31
ENDBRANCH  29  30
ENDBRANCH  28  29
ENDBRANCH  27  28
ENDBRANCH  26  27
ENDBRANCH  25  26
ENDBRANCH  24  25
ENDBRANCH  23  24
ENDBRANCH  22  23
ENDBRANCH  21  22
ENDBRANCH  20  21
ENDBRANCH  19  20
ENDBRANCH  18  19
ENDBRANCH   1  18
TORSDOF 28
ENDMDL
MODEL 9
REMARK VINA RESULT:    -3.587      3.105      6.213
REMARK INTER + INTRA:         -14.894
REMARK INTER:                  -8.274
REMARK INTRA:                  -6.621
REMARK UNBOUND:                -5.436
REMARK SMILES CCCCCCCCCCCCCCCCCCCCCCCCCCCCCC(=O)[O-]
REMARK SMILES IDX 16 1 17 2 18 3 19 4 20 5 21 6 22 7 23 8 24 9 25 10 26 11
REMARK SMILES IDX 27 12 28 13 29 14 30 15 31 16 32 17 15 18 14 19 13 20 12 21
REMARK SMILES IDX 11 22 10 23 9 24 8 25 7 26 6 27 5 28 4 29 3 30 2 31 1 32
REMARK H PARENT
REMARK Flexibility Score: inf
ROOT
ATOM      1  C   UNL     1      28.819   6.555  24.519  1.00  0.00     0.000 C 
ENDROOT
BRANCH   1   2
ATOM      2  C   UNL     1      28.819   7.145  23.091  1.00  0.00     0.000 C 
BRANCH   2   3
ATOM      3  C   UNL     1      28.948   8.677  23.089  1.00  0.00     0.000 C 
BRANCH   3   4
ATOM      4  C   UNL     1      30.120   9.132  23.968  1.00  0.00     0.000 C 
BRANCH   4   5
ATOM      5  C   UNL     1      29.779  10.420  24.731  1.00  0.00     0.000 C 
BRANCH   5   6
ATOM      6  C   UNL     1      30.307  10.424  26.177  1.00  0.00     0.000 C 
BRANCH   6   7
ATOM      7  C   UNL     1      29.250  10.055  27.239  1.00  0.00     0.000 C 
BRANCH   7   8
ATOM      8  C   UNL     1      29.364   8.592  27.701  1.00  0.00     0.000 C 
BRANCH   8   9
ATOM      9  C   UNL     1      28.044   8.094  28.303  1.00  0.00     0.000 C 
BRANCH   9  10
ATOM     10  C   UNL     1      26.856   8.904  27.766  1.00  0.00     0.000 C 
BRANCH  10  11
ATOM     11  C   UNL     1      25.506   8.443  28.340  1.00  0.00     0.000 C 
BRANCH  11  12
ATOM     12  C   UNL     1      24.734   7.484  27.408  1.00  0.00     0.000 C 
BRANCH  12  13
ATOM     13  C   UNL     1      24.407   6.148  28.098  1.00  0.00     0.006 C 
BRANCH  13  14
ATOM     14  C   UNL     1      25.664   5.312  28.378  1.00  0.00     0.053 C 
BRANCH  14  15
ATOM     15  C   UNL     1      25.335   4.024  29.067  1.00  0.00     0.041 C 
ATOM     16  O   UNL     1      26.258   3.270  29.471  1.00  0.00    -0.550 OA
ATOM     17  O   UNL     1      24.009   3.676  29.295  1.00  0.00    -0.550 OA
ENDBRANCH  14  15
ENDBRANCH  13  14
ENDBRANCH  12  13
ENDBRANCH  11  12
ENDBRANCH  10  11
ENDBRANCH   9  10
ENDBRANCH   8   9
ENDBRANCH   7   8
ENDBRANCH   6   7
ENDBRANCH   5   6
ENDBRANCH   4   5
ENDBRANCH   3   4
ENDBRANCH   2   3
ENDBRANCH   1   2
BRANCH   1  18
ATOM     18  C   UNL     1      27.414   6.362  25.113  1.00  0.00     0.000 C 
BRANCH  18  19
ATOM     19  C   UNL     1      26.464   5.616  24.162  1.00  0.00     0.000 C 
BRANCH  19  20
ATOM     20  C   UNL     1      25.117   6.338  23.955  1.00  0.00     0.000 C 
BRANCH  20  21
ATOM     21  C   UNL     1      25.064   7.327  22.775  1.00  0.00     0.000 C 
BRANCH  21  22
ATOM     22  C   UNL     1      24.652   8.751  23.193  1.00  0.00     0.000 C 
BRANCH  22  23
ATOM     23  C   UNL     1      25.539   9.309  24.319  1.00  0.00     0.000 C 
BRANCH  23  24
ATOM     24  C   UNL     1      26.006  10.748  24.054  1.00  0.00    -0.000 C 
BRANCH  24  25
ATOM     25  C   UNL     1      26.351  11.462  25.371  1.00  0.00    -0.000 C 
BRANCH  25  26
ATOM     26  C   UNL     1      25.789  12.890  25.444  1.00  0.00    -0.000 C 
BRANCH  26  27
ATOM     27  C   UNL     1      25.562  13.370  26.889  1.00  0.00    -0.000 C 
BRANCH  27  28
ATOM     28  C   UNL     1      25.702  12.233  27.924  1.00  0.00    -0.000 C 
BRANCH  28  29
ATOM     29  C   UNL     1      24.394  11.889  28.664  1.00  0.00    -0.000 C 
BRANCH  29  30
ATOM     30  C   UNL     1      23.117  11.971  27.812  1.00  0.00    -0.000 C 
BRANCH  30  31
ATOM     31  C   UNL     1      22.933  10.755  26.892  1.00  0.00    -0.003 C 
ATOM     32  C   UNL     1      22.544  11.186  25.479  1.00  0.00     0.004 C 
ENDBRANCH  30  31
ENDBRANCH  29  30
ENDBRANCH  28  29
ENDBRANCH  27  28
ENDBRANCH  26  27
ENDBRANCH  25  26
ENDBRANCH  24  25
ENDBRANCH  23  24
ENDBRANCH  22  23
ENDBRANCH  21  22
ENDBRANCH  20  21
ENDBRANCH  19  20
ENDBRANCH  18  19
ENDBRANCH   1  18
TORSDOF 28
ENDMDL
