MODEL 1
REMARK VINA RESULT:    -5.213      0.000      0.000
REMARK INTER + INTRA:         -11.511
REMARK INTER:                  -9.479
REMARK INTRA:                  -2.032
REMARK UNBOUND:                -2.032
REMARK SMILES CCCCCCCCCCCCCC[C@H](C)C(=O)[O-]
REMARK SMILES IDX 9 1 10 2 11 3 12 4 13 5 14 6 15 7 16 8 17 9 18 10 19 11 8 12
REMARK SMILES IDX 7 13 6 14 5 15 4 16 3 17 2 18 1 19
REMARK H PARENT
REMARK Flexibility Score: inf
ROOT
ATOM      1  C   UNL     1       2.532  47.368   8.537  1.00  0.00     0.000 C 
ENDROOT
BRANCH   1   2
ATOM      2  C   UNL     1       2.976  47.573   9.993  1.00  0.00     0.000 C 
BRANCH   2   3
ATOM      3  C   UNL     1       3.855  46.423  10.519  1.00  0.00     0.000 C 
BRANCH   3   4
ATOM      4  C   UNL     1       4.556  45.584   9.431  1.00  0.00     0.000 C 
BRANCH   4   5
ATOM      5  C   UNL     1       4.053  44.135   9.306  1.00  0.00     0.001 C 
BRANCH   5   6
ATOM      6  C   UNL     1       3.700  43.506  10.665  1.00  0.00     0.009 C 
BRANCH   6   7
ATOM      7  C   UNL     1       2.269  42.928  10.699  1.00  0.00     0.032 C 
ATOM      8  C   UNL     1       1.200  44.028  10.723  1.00  0.00     0.014 C 
BRANCH   7   9
ATOM      9  C   UNL     1       2.109  42.043  11.905  1.00  0.00     0.044 C 
ATOM     10  O   UNL     1       1.175  42.254  12.725  1.00  0.00    -0.550 OA
ATOM     11  O   UNL     1       2.987  40.988  12.124  1.00  0.00    -0.550 OA
ENDBRANCH   7   9
ENDBRANCH   6   7
ENDBRANCH   5   6
ENDBRANCH   4   5
ENDBRANCH   3   4
ENDBRANCH   2   3
ENDBRANCH   1   2
BRANCH   1  12
ATOM     12  C   UNL     1       3.192  48.401   7.613  1.00  0.00     0.000 C 
BRANCH  12  13
ATOM     13  C   UNL     1       2.350  49.678   7.459  1.00  0.00    -0.000 C 
BRANCH  13  14
ATOM     14  C   UNL     1       3.142  50.952   7.794  1.00  0.00    -0.000 C 
BRANCH  14  15
ATOM     15  C   UNL     1       4.606  50.664   8.171  1.00  0.00    -0.000 C 
BRANCH  15  16
ATOM     16  C   UNL     1       4.882  50.756   9.686  1.00  0.00    -0.000 C 
BRANCH  16  17
ATOM     17  C   UNL     1       6.053  49.857  10.119  1.00  0.00    -0.000 C 
BRANCH  17  18
ATOM     18  C   UNL     1       6.598  49.003   8.964  1.00  0.00    -0.003 C 
ATOM     19  C   UNL     1       7.294  47.731   9.450  1.00  0.00     0.004 C 
ENDBRANCH  17  18
ENDBRANCH  16  17
ENDBRANCH  15  16
ENDBRANCH  14  15
ENDBRANCH  13  14
ENDBRANCH  12  13
ENDBRANCH   1  12
TORSDOF 14
ENDMDL
MODEL 2
REMARK VINA RESULT:    -5.166      3.148      6.602
REMARK INTER + INTRA:         -11.427
REMARK INTER:                  -9.038
REMARK INTRA:                  -2.388
REMARK UNBOUND:                -2.032
REMARK SMILES CCCCCCCCCCCCCC[C@H](C)C(=O)[O-]
REMARK SMILES IDX 9 1 10 2 11 3 12 4 13 5 14 6 15 7 16 8 17 9 18 10 19 11 8 12
REMARK SMILES IDX 7 13 6 14 5 15 4 16 3 17 2 18 1 19
REMARK H PARENT
REMARK Flexibility Score: inf
ROOT
ATOM      1  C   UNL     1       4.028  46.179   9.198  1.00  0.00     0.000 C 
ENDROOT
BRANCH   1   2
ATOM      2  C   UNL     1       5.205  46.815   9.952  1.00  0.00     0.000 C 
BRANCH   2   3
ATOM      3  C   UNL     1       6.215  47.502   9.015  1.00  0.00     0.000 C 
BRANCH   3   4
ATOM      4  C   UNL     1       6.759  48.855   9.518  1.00  0.00     0.000 C 
BRANCH   4   5
ATOM      5  C   UNL     1       5.681  49.888   9.895  1.00  0.00     0.001 C 
BRANCH   5   6
ATOM      6  C   UNL     1       5.017  50.532   8.666  1.00  0.00     0.009 C 
BRANCH   6   7
ATOM      7  C   UNL     1       3.478  50.568   8.773  1.00  0.00     0.032 C 
ATOM      8  C   UNL     1       2.986  50.223  10.185  1.00  0.00     0.014 C 
BRANCH   7   9
ATOM      9  C   UNL     1       2.878  49.608   7.783  1.00  0.00     0.044 C 
ATOM     10  O   UNL     1       3.624  48.889   7.065  1.00  0.00    -0.550 OA
ATOM     11  O   UNL     1       1.498  49.505   7.651  1.00  0.00    -0.550 OA
ENDBRANCH   7   9
ENDBRANCH   6   7
ENDBRANCH   5   6
ENDBRANCH   4   5
ENDBRANCH   3   4
ENDBRANCH   2   3
ENDBRANCH   1   2
BRANCH   1  12
ATOM     12  C   UNL     1       2.689  46.586   9.830  1.00  0.00     0.000 C 
BRANCH  12  13
ATOM     13  C   UNL     1       1.482  46.172   8.973  1.00  0.00    -0.000 C 
BRANCH  13  14
ATOM     14  C   UNL     1       0.961  44.769   9.324  1.00  0.00    -0.000 C 
BRANCH  14  15
ATOM     15  C   UNL     1       0.410  44.678  10.758  1.00  0.00    -0.000 C 
BRANCH  15  16
ATOM     16  C   UNL     1       1.157  43.658  11.642  1.00  0.00    -0.000 C 
BRANCH  16  17
ATOM     17  C   UNL     1       2.320  42.983  10.894  1.00  0.00    -0.000 C 
BRANCH  17  18
ATOM     18  C   UNL     1       3.572  42.827  11.771  1.00  0.00    -0.003 C 
ATOM     19  C   UNL     1       4.072  44.161  12.326  1.00  0.00     0.004 C 
ENDBRANCH  17  18
ENDBRANCH  16  17
ENDBRANCH  15  16
ENDBRANCH  14  15
ENDBRANCH  13  14
ENDBRANCH  12  13
ENDBRANCH   1  12
TORSDOF 14
ENDMDL
MODEL 3
REMARK VINA RESULT:    -5.162      1.443      2.293
REMARK INTER + INTRA:         -11.418
REMARK INTER:                  -8.855
REMARK INTRA:                  -2.563
REMARK UNBOUND:                -2.032
REMARK SMILES CCCCCCCCCCCCCC[C@H](C)C(=O)[O-]
REMARK SMILES IDX 9 1 10 2 11 3 12 4 13 5 14 6 15 7 16 8 17 9 18 10 19 11 8 12
REMARK SMILES IDX 7 13 6 14 5 15 4 16 3 17 2 18 1 19
REMARK H PARENT
REMARK Flexibility Score: inf
ROOT
ATOM      1  C   UNL     1       2.418  47.987   7.502  1.00  0.00     0.000 C 
ENDROOT
BRANCH   1   2
ATOM      2  C   UNL     1       1.212  47.082   7.796  1.00  0.00     0.000 C 
BRANCH   2   3
ATOM      3  C   UNL     1       0.636  47.292   9.208  1.00  0.00     0.000 C 
BRANCH   3   4
ATOM      4  C   UNL     1       0.705  46.059  10.133  1.00  0.00     0.000 C 
BRANCH   4   5
ATOM      5  C   UNL     1       1.153  44.757   9.446  1.00  0.00     0.001 C 
BRANCH   5   6
ATOM      6  C   UNL     1       2.507  44.244   9.966  1.00  0.00     0.009 C 
BRANCH   6   7
ATOM      7  C   UNL     1       2.536  44.094  11.502  1.00  0.00     0.032 C 
ATOM      8  C   UNL     1       3.956  44.218  12.070  1.00  0.00     0.014 C 
BRANCH   7   9
ATOM      9  C   UNL     1       1.951  42.765  11.892  1.00  0.00     0.044 C 
ATOM     10  O   UNL     1       0.795  42.701  12.388  1.00  0.00    -0.550 OA
ATOM     11  O   UNL     1       2.682  41.595  11.709  1.00  0.00    -0.550 OA
ENDBRANCH   7   9
ENDBRANCH   6   7
ENDBRANCH   5   6
ENDBRANCH   4   5
ENDBRANCH   3   4
ENDBRANCH   2   3
ENDBRANCH   1   2
BRANCH   1  12
ATOM     12  C   UNL     1       2.047  49.467   7.677  1.00  0.00     0.000 C 
BRANCH  12  13
ATOM     13  C   UNL     1       3.264  50.344   8.009  1.00  0.00    -0.000 C 
BRANCH  13  14
ATOM     14  C   UNL     1       3.202  50.928   9.431  1.00  0.00    -0.000 C 
BRANCH  14  15
ATOM     15  C   UNL     1       3.069  49.845  10.515  1.00  0.00    -0.000 C 
BRANCH  15  16
ATOM     16  C   UNL     1       4.361  49.031  10.736  1.00  0.00    -0.000 C 
BRANCH  16  17
ATOM     17  C   UNL     1       4.134  47.520  10.562  1.00  0.00    -0.000 C 
BRANCH  17  18
ATOM     18  C   UNL     1       5.204  46.861   9.679  1.00  0.00    -0.003 C 
ATOM     19  C   UNL     1       6.166  47.878   9.063  1.00  0.00     0.004 C 
ENDBRANCH  17  18
ENDBRANCH  16  17
ENDBRANCH  15  16
ENDBRANCH  14  15
ENDBRANCH  13  14
ENDBRANCH  12  13
ENDBRANCH   1  12
TORSDOF 14
ENDMDL
MODEL 4
REMARK VINA RESULT:    -5.140      1.175      3.291
REMARK INTER + INTRA:         -11.379
REMARK INTER:                  -9.211
REMARK INTRA:                  -2.168
REMARK UNBOUND:                -2.032
REMARK SMILES CCCCCCCCCCCCCC[C@H](C)C(=O)[O-]
REMARK SMILES IDX 9 1 10 2 11 3 12 4 13 5 14 6 15 7 16 8 17 9 18 10 19 11 8 12
REMARK SMILES IDX 7 13 6 14 5 15 4 16 3 17 2 18 1 19
REMARK H PARENT
REMARK Flexibility Score: inf
ROOT
ATOM      1  C   UNL     1       6.494  48.866   9.011  1.00  0.00     0.000 C 
ENDROOT
BRANCH   1   2
ATOM      2  C   UNL     1       6.396  47.378   9.381  1.00  0.00     0.000 C 
BRANCH   2   3
ATOM      3  C   UNL     1       4.987  46.798   9.159  1.00  0.00     0.000 C 
BRANCH   3   4
ATOM      4  C   UNL     1       4.228  46.412  10.446  1.00  0.00     0.000 C 
BRANCH   4   5
ATOM      5  C   UNL     1       4.384  44.942  10.875  1.00  0.00     0.001 C 
BRANCH   5   6
ATOM      6  C   UNL     1       4.096  43.954   9.732  1.00  0.00     0.009 C 
BRANCH   6   7
ATOM      7  C   UNL     1       2.797  43.149   9.955  1.00  0.00     0.032 C 
ATOM      8  C   UNL     1       1.544  43.959   9.595  1.00  0.00     0.014 C 
BRANCH   7   9
ATOM      9  C   UNL     1       2.715  42.707  11.390  1.00  0.00     0.044 C 
ATOM     10  O   UNL     1       3.494  41.817  11.824  1.00  0.00    -0.550 OA
ATOM     11  O   UNL     1       1.782  43.277  12.249  1.00  0.00    -0.550 OA
ENDBRANCH   7   9
ENDBRANCH   6   7
ENDBRANCH   5   6
ENDBRANCH   4   5
ENDBRANCH   3   4
ENDBRANCH   2   3
ENDBRANCH   1   2
BRANCH   1  12
ATOM     12  C   UNL     1       5.911  49.747  10.125  1.00  0.00     0.000 C 
BRANCH  12  13
ATOM     13  C   UNL     1       4.749  50.625   9.634  1.00  0.00    -0.000 C 
BRANCH  13  14
ATOM     14  C   UNL     1       4.383  50.354   8.165  1.00  0.00    -0.000 C 
BRANCH  14  15
ATOM     15  C   UNL     1       2.945  49.834   7.995  1.00  0.00    -0.000 C 
BRANCH  15  16
ATOM     16  C   UNL     1       2.277  49.423   9.324  1.00  0.00    -0.000 C 
BRANCH  16  17
ATOM     17  C   UNL     1       1.326  48.226   9.152  1.00  0.00    -0.000 C 
BRANCH  17  18
ATOM     18  C   UNL     1       1.577  47.460   7.844  1.00  0.00    -0.003 C 
ATOM     19  C   UNL     1       0.350  46.676   7.376  1.00  0.00     0.004 C 
ENDBRANCH  17  18
ENDBRANCH  16  17
ENDBRANCH  15  16
ENDBRANCH  14  15
ENDBRANCH  13  14
ENDBRANCH  12  13
ENDBRANCH   1  12
TORSDOF 14
ENDMDL
MODEL 5
REMARK VINA RESULT:    -5.102      1.577      2.670
REMARK INTER + INTRA:         -11.310
REMARK INTER:                  -8.877
REMARK INTRA:                  -2.433
REMARK UNBOUND:                -2.032
REMARK SMILES CCCCCCCCCCCCCC[C@H](C)C(=O)[O-]
REMARK SMILES IDX 9 1 10 2 11 3 12 4 13 5 14 6 15 7 16 8 17 9 18 10 19 11 8 12
REMARK SMILES IDX 7 13 6 14 5 15 4 16 3 17 2 18 1 19
REMARK H PARENT
REMARK Flexibility Score: inf
ROOT
ATOM      1  C   UNL     1       2.892  48.702   7.376  1.00  0.00     0.000 C 
ENDROOT
BRANCH   1   2
ATOM      2  C   UNL     1       1.466  48.323   7.802  1.00  0.00     0.000 C 
BRANCH   2   3
ATOM      3  C   UNL     1       1.315  46.826   8.125  1.00  0.00     0.000 C 
BRANCH   3   4
ATOM      4  C   UNL     1       0.485  46.509   9.386  1.00  0.00     0.000 C 
BRANCH   4   5
ATOM      5  C   UNL     1       0.434  45.020   9.773  1.00  0.00     0.001 C 
BRANCH   5   6
ATOM      6  C   UNL     1       1.415  44.664  10.904  1.00  0.00     0.009 C 
BRANCH   6   7
ATOM      7  C   UNL     1       2.687  43.959  10.387  1.00  0.00     0.032 C 
ATOM      8  C   UNL     1       2.372  42.902   9.320  1.00  0.00     0.014 C 
BRANCH   7   9
ATOM      9  C   UNL     1       3.411  43.314  11.537  1.00  0.00     0.044 C 
ATOM     10  O   UNL     1       3.392  42.062  11.676  1.00  0.00    -0.550 OA
ATOM     11  O   UNL     1       4.108  44.093  12.454  1.00  0.00    -0.550 OA
ENDBRANCH   7   9
ENDBRANCH   6   7
ENDBRANCH   5   6
ENDBRANCH   4   5
ENDBRANCH   3   4
ENDBRANCH   2   3
ENDBRANCH   1   2
BRANCH   1  12
ATOM     12  C   UNL     1       3.093  50.224   7.430  1.00  0.00     0.000 C 
BRANCH  12  13
ATOM     13  C   UNL     1       3.969  50.661   8.614  1.00  0.00    -0.000 C 
BRANCH  13  14
ATOM     14  C   UNL     1       3.154  50.892   9.898  1.00  0.00    -0.000 C 
BRANCH  14  15
ATOM     15  C   UNL     1       3.131  49.660  10.820  1.00  0.00    -0.000 C 
BRANCH  15  16
ATOM     16  C   UNL     1       4.427  48.825  10.765  1.00  0.00    -0.000 C 
BRANCH  16  17
ATOM     17  C   UNL     1       4.145  47.326  10.565  1.00  0.00    -0.000 C 
BRANCH  17  18
ATOM     18  C   UNL     1       5.097  46.678   9.549  1.00  0.00    -0.003 C 
ATOM     19  C   UNL     1       6.208  47.626   9.096  1.00  0.00     0.004 C 
ENDBRANCH  17  18
ENDBRANCH  16  17
ENDBRANCH  15  16
ENDBRANCH  14  15
ENDBRANCH  13  14
ENDBRANCH  12  13
ENDBRANCH   1  12
TORSDOF 14
ENDMDL
MODEL 6
REMARK VINA RESULT:    -5.070      2.716      6.567
REMARK INTER + INTRA:         -11.252
REMARK INTER:                  -9.223
REMARK INTRA:                  -2.029
REMARK UNBOUND:                -2.032
REMARK SMILES CCCCCCCCCCCCCC[C@H](C)C(=O)[O-]
REMARK SMILES IDX 9 1 10 2 11 3 12 4 13 5 14 6 15 7 16 8 17 9 18 10 19 11 8 12
REMARK SMILES IDX 7 13 6 14 5 15 4 16 3 17 2 18 1 19
REMARK H PARENT
REMARK Flexibility Score: inf
ROOT
ATOM      1  C   UNL     1       5.004  47.095   8.778  1.00  0.00     0.000 C 
ENDROOT
BRANCH   1   2
ATOM      2  C   UNL     1       6.425  47.472   9.223  1.00  0.00     0.000 C 
BRANCH   2   3
ATOM      3  C   UNL     1       6.544  48.940   9.671  1.00  0.00     0.000 C 
BRANCH   3   4
ATOM      4  C   UNL     1       6.099  49.982   8.625  1.00  0.00     0.000 C 
BRANCH   4   5
ATOM      5  C   UNL     1       4.881  50.831   9.032  1.00  0.00     0.001 C 
BRANCH   5   6
ATOM      6  C   UNL     1       3.588  50.402   8.316  1.00  0.00     0.009 C 
BRANCH   6   7
ATOM      7  C   UNL     1       2.494  49.931   9.297  1.00  0.00     0.032 C 
ATOM      8  C   UNL     1       3.060  49.610  10.687  1.00  0.00     0.014 C 
BRANCH   7   9
ATOM      9  C   UNL     1       1.804  48.716   8.742  1.00  0.00     0.044 C 
ATOM     10  O   UNL     1       1.695  48.562   7.496  1.00  0.00    -0.550 OA
ATOM     11  O   UNL     1       1.281  47.752   9.597  1.00  0.00    -0.550 OA
ENDBRANCH   7   9
ENDBRANCH   6   7
ENDBRANCH   5   6
ENDBRANCH   4   5
ENDBRANCH   3   4
ENDBRANCH   2   3
ENDBRANCH   1   2
BRANCH   1  12
ATOM     12  C   UNL     1       4.549  45.790   9.447  1.00  0.00     0.000 C 
BRANCH  12  13
ATOM     13  C   UNL     1       4.061  46.006  10.889  1.00  0.00    -0.000 C 
BRANCH  13  14
ATOM     14  C   UNL     1       4.151  44.729  11.741  1.00  0.00    -0.000 C 
BRANCH  14  15
ATOM     15  C   UNL     1       2.826  43.949  11.788  1.00  0.00    -0.000 C 
BRANCH  15  16
ATOM     16  C   UNL     1       2.816  42.695  10.889  1.00  0.00    -0.000 C 
BRANCH  16  17
ATOM     17  C   UNL     1       2.143  42.958   9.531  1.00  0.00    -0.000 C 
BRANCH  17  18
ATOM     18  C   UNL     1       1.153  44.132   9.583  1.00  0.00    -0.003 C 
ATOM     19  C   UNL     1       0.531  44.438   8.220  1.00  0.00     0.004 C 
ENDBRANCH  17  18
ENDBRANCH  16  17
ENDBRANCH  15  16
ENDBRANCH  14  15
ENDBRANCH  13  14
ENDBRANCH  12  13
ENDBRANCH   1  12
TORSDOF 14
ENDMDL
MODEL 7
REMARK VINA RESULT:    -5.056      1.130      2.873
REMARK INTER + INTRA:         -11.225
REMARK INTER:                  -9.327
REMARK INTRA:                  -1.898
REMARK UNBOUND:                -2.032
REMARK SMILES CCCCCCCCCCCCCC[C@H](C)C(=O)[O-]
REMARK SMILES IDX 9 1 10 2 11 3 12 4 13 5 14 6 15 7 16 8 17 9 18 10 19 11 8 12
REMARK SMILES IDX 7 13 6 14 5 15 4 16 3 17 2 18 1 19
REMARK H PARENT
REMARK Flexibility Score: inf
ROOT
ATOM      1  C   UNL     1       6.039  47.330   9.389  1.00  0.00     0.000 C 
ENDROOT
BRANCH   1   2
ATOM      2  C   UNL     1       4.879  47.473  10.385  1.00  0.00     0.000 C 
BRANCH   2   3
ATOM      3  C   UNL     1       4.116  46.155  10.610  1.00  0.00     0.000 C 
BRANCH   3   4
ATOM      4  C   UNL     1       3.948  45.273   9.355  1.00  0.00     0.000 C 
BRANCH   4   5
ATOM      5  C   UNL     1       4.007  43.757   9.615  1.00  0.00     0.001 C 
BRANCH   5   6
ATOM      6  C   UNL     1       3.796  43.398  11.097  1.00  0.00     0.009 C 
BRANCH   6   7
ATOM      7  C   UNL     1       2.690  42.340  11.301  1.00  0.00     0.032 C 
ATOM      8  C   UNL     1       1.440  42.930  11.968  1.00  0.00     0.014 C 
BRANCH   7   9
ATOM      9  C   UNL     1       3.220  41.207  12.136  1.00  0.00     0.044 C 
ATOM     10  O   UNL     1       4.454  41.115  12.369  1.00  0.00    -0.550 OA
ATOM     11  O   UNL     1       2.352  40.254  12.657  1.00  0.00    -0.550 OA
ENDBRANCH   7   9
ENDBRANCH   6   7
ENDBRANCH   5   6
ENDBRANCH   4   5
ENDBRANCH   3   4
ENDBRANCH   2   3
ENDBRANCH   1   2
BRANCH   1  12
ATOM     12  C   UNL     1       6.606  48.705   9.008  1.00  0.00     0.000 C 
BRANCH  12  13
ATOM     13  C   UNL     1       5.987  49.846   9.831  1.00  0.00    -0.000 C 
BRANCH  13  14
ATOM     14  C   UNL     1       5.378  50.949   8.948  1.00  0.00    -0.000 C 
BRANCH  14  15
ATOM     15  C   UNL     1       4.027  50.545   8.335  1.00  0.00    -0.000 C 
BRANCH  15  16
ATOM     16  C   UNL     1       2.874  50.497   9.360  1.00  0.00    -0.000 C 
BRANCH  16  17
ATOM     17  C   UNL     1       2.037  49.213   9.233  1.00  0.00    -0.000 C 
BRANCH  17  18
ATOM     18  C   UNL     1       2.328  48.446   7.934  1.00  0.00    -0.003 C 
ATOM     19  C   UNL     1       1.289  47.363   7.644  1.00  0.00     0.004 C 
ENDBRANCH  17  18
ENDBRANCH  16  17
ENDBRANCH  15  16
ENDBRANCH  14  15
ENDBRANCH  13  14
ENDBRANCH  12  13
ENDBRANCH   1  12
TORSDOF 14
ENDMDL
MODEL 8
REMARK VINA RESULT:    -5.018      1.103      3.063
REMARK INTER + INTRA:         -11.158
REMARK INTER:                  -8.943
REMARK INTRA:                  -2.215
REMARK UNBOUND:                -2.032
REMARK SMILES CCCCCCCCCCCCCC[C@H](C)C(=O)[O-]
REMARK SMILES IDX 9 1 10 2 11 3 12 4 13 5 14 6 15 7 16 8 17 9 18 10 19 11 8 12
REMARK SMILES IDX 7 13 6 14 5 15 4 16 3 17 2 18 1 19
REMARK H PARENT
REMARK Flexibility Score: inf
ROOT
ATOM      1  C   UNL     1       3.693  46.970   9.033  1.00  0.00     0.000 C 
ENDROOT
BRANCH   1   2
ATOM      2  C   UNL     1       2.313  47.262   9.640  1.00  0.00     0.000 C 
BRANCH   2   3
ATOM      3  C   UNL     1       1.174  46.512   8.925  1.00  0.00     0.000 C 
BRANCH   3   4
ATOM      4  C   UNL     1       0.719  45.206   9.609  1.00  0.00     0.000 C 
BRANCH   4   5
ATOM      5  C   UNL     1       1.360  43.923   9.049  1.00  0.00     0.001 C 
BRANCH   5   6
ATOM      6  C   UNL     1       2.642  43.521   9.800  1.00  0.00     0.009 C 
BRANCH   6   7
ATOM      7  C   UNL     1       2.507  43.676  11.330  1.00  0.00     0.032 C 
ATOM      8  C   UNL     1       3.798  44.199  11.975  1.00  0.00     0.014 C 
BRANCH   7   9
ATOM      9  C   UNL     1       2.138  42.353  11.943  1.00  0.00     0.044 C 
ATOM     10  O   UNL     1       2.828  41.327  11.700  1.00  0.00    -0.550 OA
ATOM     11  O   UNL     1       1.034  42.251  12.781  1.00  0.00    -0.550 OA
ENDBRANCH   7   9
ENDBRANCH   6   7
ENDBRANCH   5   6
ENDBRANCH   4   5
ENDBRANCH   3   4
ENDBRANCH   2   3
ENDBRANCH   1   2
BRANCH   1  12
ATOM     12  C   UNL     1       4.811  47.316  10.028  1.00  0.00     0.000 C 
BRANCH  12  13
ATOM     13  C   UNL     1       6.203  47.314   9.375  1.00  0.00    -0.000 C 
BRANCH  13  14
ATOM     14  C   UNL     1       6.761  48.732   9.168  1.00  0.00    -0.000 C 
BRANCH  14  15
ATOM     15  C   UNL     1       5.950  49.807   9.912  1.00  0.00    -0.000 C 
BRANCH  15  16
ATOM     16  C   UNL     1       5.361  50.889   8.983  1.00  0.00    -0.000 C 
BRANCH  16  17
ATOM     17  C   UNL     1       3.827  50.811   8.899  1.00  0.00    -0.000 C 
BRANCH  17  18
ATOM     18  C   UNL     1       3.337  50.307   7.533  1.00  0.00    -0.003 C 
ATOM     19  C   UNL     1       1.812  50.234   7.445  1.00  0.00     0.004 C 
ENDBRANCH  17  18
ENDBRANCH  16  17
ENDBRANCH  15  16
ENDBRANCH  14  15
ENDBRANCH  13  14
ENDBRANCH  12  13
ENDBRANCH   1  12
TORSDOF 14
ENDMDL
MODEL 9
REMARK VINA RESULT:    -4.964      1.018      2.605
REMARK INTER + INTRA:         -11.059
REMARK INTER:                  -9.053
REMARK INTRA:                  -2.005
REMARK UNBOUND:                -2.032
REMARK SMILES CCCCCCCCCCCCCC[C@H](C)C(=O)[O-]
REMARK SMILES IDX 9 1 10 2 11 3 12 4 13 5 14 6 15 7 16 8 17 9 18 10 19 11 8 12
REMARK SMILES IDX 7 13 6 14 5 15 4 16 3 17 2 18 1 19
REMARK H PARENT
REMARK Flexibility Score: inf
ROOT
ATOM      1  C   UNL     1       2.213  49.141   8.833  1.00  0.00     0.000 C 
ENDROOT
BRANCH   1   2
ATOM      2  C   UNL     1       2.217  48.062   7.740  1.00  0.00     0.000 C 
BRANCH   2   3
ATOM      3  C   UNL     1       1.098  47.021   7.922  1.00  0.00     0.000 C 
BRANCH   3   4
ATOM      4  C   UNL     1       0.924  46.491   9.361  1.00  0.00     0.000 C 
BRANCH   4   5
ATOM      5  C   UNL     1       0.648  44.981   9.467  1.00  0.00     0.001 C 
BRANCH   5   6
ATOM      6  C   UNL     1       1.027  44.401  10.841  1.00  0.00     0.009 C 
BRANCH   6   7
ATOM      7  C   UNL     1       2.255  43.468  10.773  1.00  0.00     0.032 C 
ATOM      8  C   UNL     1       2.461  42.881   9.370  1.00  0.00     0.014 C 
BRANCH   7   9
ATOM      9  C   UNL     1       2.098  42.350  11.768  1.00  0.00     0.044 C 
ATOM     10  O   UNL     1       2.930  41.405  11.795  1.00  0.00    -0.550 OA
ATOM     11  O   UNL     1       1.035  42.352  12.664  1.00  0.00    -0.550 OA
ENDBRANCH   7   9
ENDBRANCH   6   7
ENDBRANCH   5   6
ENDBRANCH   4   5
ENDBRANCH   3   4
ENDBRANCH   2   3
ENDBRANCH   1   2
BRANCH   1  12
ATOM     12  C   UNL     1       2.633  50.503   8.260  1.00  0.00     0.000 C 
BRANCH  12  13
ATOM     13  C   UNL     1       4.090  50.859   8.595  1.00  0.00    -0.000 C 
BRANCH  13  14
ATOM     14  C   UNL     1       4.465  50.511  10.045  1.00  0.00    -0.000 C 
BRANCH  14  15
ATOM     15  C   UNL     1       5.849  49.848  10.161  1.00  0.00    -0.000 C 
BRANCH  15  16
ATOM     16  C   UNL     1       6.202  48.945   8.960  1.00  0.00    -0.000 C 
BRANCH  16  17
ATOM     17  C   UNL     1       6.427  47.482   9.380  1.00  0.00    -0.000 C 
BRANCH  17  18
ATOM     18  C   UNL     1       5.153  46.632   9.255  1.00  0.00    -0.003 C 
ATOM     19  C   UNL     1       4.356  46.572  10.559  1.00  0.00     0.004 C 
ENDBRANCH  17  18
ENDBRANCH  16  17
ENDBRANCH  15  16
ENDBRANCH  14  15
ENDBRANCH  13  14
ENDBRANCH  12  13
ENDBRANCH   1  12
TORSDOF 14
ENDMDL
