MODEL 1
REMARK VINA RESULT:    -2.759      0.000      0.000
REMARK INTER + INTRA:          -4.103
REMARK INTER:                  -3.888
REMARK INTRA:                  -0.215
REMARK UNBOUND:                -0.215
REMARK SMILES CCCCCCCCC(=O)[O-]
REMARK SMILES IDX 6 1 7 2 8 3 9 4 10 5 11 6 5 7 4 8 3 9 2 10 1 11
REMARK H PARENT
REMARK Flexibility Score: inf
ROOT
ATOM      1  C   UNL     1       8.112 -29.153 -16.202  1.00  0.00     0.000 C 
ENDROOT
BRANCH   1   2
ATOM      2  C   UNL     1       9.185 -30.117 -16.730  1.00  0.00     0.006 C 
BRANCH   2   3
ATOM      3  C   UNL     1       9.575 -31.142 -15.662  1.00  0.00     0.053 C 
BRANCH   3   4
ATOM      4  C   UNL     1       9.220 -32.525 -16.108  1.00  0.00     0.041 C 
ATOM      5  O   UNL     1       9.324 -32.845 -17.321  1.00  0.00    -0.550 OA
ATOM      6  O   UNL     1       8.820 -33.475 -15.177  1.00  0.00    -0.550 OA
ENDBRANCH   3   4
ENDBRANCH   2   3
ENDBRANCH   1   2
BRANCH   1   7
ATOM      7  C   UNL     1       7.048 -28.804 -17.259  1.00  0.00     0.000 C 
BRANCH   7   8
ATOM      8  C   UNL     1       7.459 -29.087 -18.719  1.00  0.00    -0.000 C 
BRANCH   8   9
ATOM      9  C   UNL     1       6.550 -28.453 -19.786  1.00  0.00    -0.000 C 
BRANCH   9  10
ATOM     10  C   UNL     1       6.801 -29.016 -21.193  1.00  0.00    -0.003 C 
ATOM     11  C   UNL     1       6.160 -28.134 -22.261  1.00  0.00     0.004 C 
ENDBRANCH   9  10
ENDBRANCH   8   9
ENDBRANCH   7   8
ENDBRANCH   1   7
TORSDOF 7
ENDMDL
MODEL 2
REMARK VINA RESULT:    -2.077      1.226      1.615
REMARK INTER + INTRA:          -3.143
REMARK INTER:                  -2.910
REMARK INTRA:                  -0.233
REMARK UNBOUND:                -0.215
REMARK SMILES CCCCCCCCC(=O)[O-]
REMARK SMILES IDX 6 1 7 2 8 3 9 4 10 5 11 6 5 7 4 8 3 9 2 10 1 11
REMARK H PARENT
REMARK Flexibility Score: inf
ROOT
ATOM      1  C   UNL     1       7.751 -29.051 -17.470  1.00  0.00     0.000 C 
ENDROOT
BRANCH   1   2
ATOM      2  C   UNL     1       8.901 -29.868 -18.076  1.00  0.00     0.006 C 
BRANCH   2   3
ATOM      3  C   UNL     1       9.982 -30.152 -17.030  1.00  0.00     0.053 C 
BRANCH   3   4
ATOM      4  C   UNL     1       9.457 -31.065 -15.968  1.00  0.00     0.041 C 
ATOM      5  O   UNL     1       9.388 -32.305 -16.174  1.00  0.00    -0.550 OA
ATOM      6  O   UNL     1       9.087 -30.552 -14.731  1.00  0.00    -0.550 OA
ENDBRANCH   3   4
ENDBRANCH   2   3
ENDBRANCH   1   2
BRANCH   1   7
ATOM      7  C   UNL     1       6.579 -28.849 -18.448  1.00  0.00     0.000 C 
BRANCH   7   8
ATOM      8  C   UNL     1       6.964 -28.241 -19.812  1.00  0.00    -0.000 C 
BRANCH   8   9
ATOM      9  C   UNL     1       6.641 -29.120 -21.033  1.00  0.00    -0.000 C 
BRANCH   9  10
ATOM     10  C   UNL     1       5.875 -28.362 -22.128  1.00  0.00    -0.003 C 
ATOM     11  C   UNL     1       6.835 -27.697 -23.110  1.00  0.00     0.004 C 
ENDBRANCH   9  10
ENDBRANCH   8   9
ENDBRANCH   7   8
ENDBRANCH   1   7
TORSDOF 7
ENDMDL
MODEL 3
REMARK VINA RESULT:    -1.639      2.757      5.804
REMARK INTER + INTRA:          -2.526
REMARK INTER:                  -2.245
REMARK INTRA:                  -0.280
REMARK UNBOUND:                -0.215
REMARK SMILES CCCCCCCCC(=O)[O-]
REMARK SMILES IDX 6 1 7 2 8 3 9 4 10 5 11 6 5 7 4 8 3 9 2 10 1 11
REMARK H PARENT
REMARK Flexibility Score: inf
ROOT
ATOM      1  C   UNL     1       7.049 -28.641 -17.085  1.00  0.00     0.000 C 
ENDROOT
BRANCH   1   2
ATOM      2  C   UNL     1       7.406 -29.023 -18.529  1.00  0.00     0.006 C 
BRANCH   2   3
ATOM      3  C   UNL     1       6.367 -28.477 -19.513  1.00  0.00     0.053 C 
BRANCH   3   4
ATOM      4  C   UNL     1       6.743 -28.825 -20.919  1.00  0.00     0.041 C 
ATOM      5  O   UNL     1       7.693 -29.620 -21.142  1.00  0.00    -0.550 OA
ATOM      6  O   UNL     1       6.012 -28.310 -21.982  1.00  0.00    -0.550 OA
ENDBRANCH   3   4
ENDBRANCH   2   3
ENDBRANCH   1   2
BRANCH   1   7
ATOM      7  C   UNL     1       8.075 -29.155 -16.059  1.00  0.00     0.000 C 
BRANCH   7   8
ATOM      8  C   UNL     1       9.177 -30.068 -16.637  1.00  0.00    -0.000 C 
BRANCH   8   9
ATOM      9  C   UNL     1       9.659 -31.185 -15.695  1.00  0.00    -0.000 C 
BRANCH   9  10
ATOM     10  C   UNL     1       9.208 -32.582 -16.146  1.00  0.00    -0.003 C 
ATOM     11  C   UNL     1       8.786 -33.435 -14.954  1.00  0.00     0.004 C 
ENDBRANCH   9  10
ENDBRANCH   8   9
ENDBRANCH   7   8
ENDBRANCH   1   7
TORSDOF 7
ENDMDL
MODEL 4
REMARK VINA RESULT:    -1.160      1.933      2.362
REMARK INTER + INTRA:          -1.850
REMARK INTER:                  -2.040
REMARK INTRA:                   0.190
REMARK UNBOUND:                -0.215
REMARK SMILES CCCCCCCCC(=O)[O-]
REMARK SMILES IDX 6 1 7 2 8 3 9 4 10 5 11 6 5 7 4 8 3 9 2 10 1 11
REMARK H PARENT
REMARK Flexibility Score: inf
ROOT
ATOM      1  C   UNL     1       9.547 -29.884 -17.921  1.00  0.00     0.000 C 
ENDROOT
BRANCH   1   2
ATOM      2  C   UNL     1       9.237 -31.149 -17.109  1.00  0.00     0.006 C 
BRANCH   2   3
ATOM      3  C   UNL     1       9.697 -30.996 -15.657  1.00  0.00     0.053 C 
BRANCH   3   4
ATOM      4  C   UNL     1       8.758 -30.110 -14.900  1.00  0.00     0.041 C 
ATOM      5  O   UNL     1       8.715 -30.160 -13.643  1.00  0.00    -0.550 OA
ATOM      6  O   UNL     1       7.966 -29.194 -15.580  1.00  0.00    -0.550 OA
ENDBRANCH   3   4
ENDBRANCH   2   3
ENDBRANCH   1   2
BRANCH   1   7
ATOM      7  C   UNL     1       8.577 -29.674 -19.098  1.00  0.00     0.000 C 
BRANCH   7   8
ATOM      8  C   UNL     1       7.253 -28.968 -18.736  1.00  0.00    -0.000 C 
BRANCH   8   9
ATOM      9  C   UNL     1       6.376 -28.573 -19.936  1.00  0.00    -0.000 C 
BRANCH   9  10
ATOM     10  C   UNL     1       7.014 -28.933 -21.286  1.00  0.00    -0.003 C 
ATOM     11  C   UNL     1       6.321 -28.204 -22.433  1.00  0.00     0.004 C 
ENDBRANCH   9  10
ENDBRANCH   8   9
ENDBRANCH   7   8
ENDBRANCH   1   7
TORSDOF 7
ENDMDL
MODEL 5
REMARK VINA RESULT:    -1.072      3.636      6.246
REMARK INTER + INTRA:          -1.726
REMARK INTER:                  -1.468
REMARK INTRA:                  -0.258
REMARK UNBOUND:                -0.215
REMARK SMILES CCCCCCCCC(=O)[O-]
REMARK SMILES IDX 6 1 7 2 8 3 9 4 10 5 11 6 5 7 4 8 3 9 2 10 1 11
REMARK H PARENT
REMARK Flexibility Score: inf
ROOT
ATOM      1  C   UNL     1       7.306 -29.270 -18.777  1.00  0.00     0.000 C 
ENDROOT
BRANCH   1   2
ATOM      2  C   UNL     1       6.645 -28.320 -19.787  1.00  0.00     0.006 C 
BRANCH   2   3
ATOM      3  C   UNL     1       6.460 -29.006 -21.143  1.00  0.00     0.053 C 
BRANCH   3   4
ATOM      4  C   UNL     1       6.753 -28.051 -22.257  1.00  0.00     0.041 C 
ATOM      5  O   UNL     1       5.876 -27.800 -23.125  1.00  0.00    -0.550 OA
ATOM      6  O   UNL     1       7.979 -27.401 -22.311  1.00  0.00    -0.550 OA
ENDBRANCH   3   4
ENDBRANCH   2   3
ENDBRANCH   1   2
BRANCH   1   7
ATOM      7  C   UNL     1       6.983 -28.908 -17.315  1.00  0.00     0.000 C 
BRANCH   7   8
ATOM      8  C   UNL     1       8.125 -29.168 -16.310  1.00  0.00    -0.000 C 
BRANCH   8   9
ATOM      9  C   UNL     1       9.229 -30.117 -16.808  1.00  0.00    -0.000 C 
BRANCH   9  10
ATOM     10  C   UNL     1       9.698 -31.104 -15.729  1.00  0.00    -0.003 C 
ATOM     11  C   UNL     1       9.244 -32.525 -16.050  1.00  0.00     0.004 C 
ENDBRANCH   9  10
ENDBRANCH   8   9
ENDBRANCH   7   8
ENDBRANCH   1   7
TORSDOF 7
ENDMDL
