MODEL 1
REMARK VINA RESULT:    -3.613      0.000      0.000
REMARK INTER + INTRA:          -5.589
REMARK INTER:                  -5.514
REMARK INTRA:                  -0.075
REMARK UNBOUND:                -0.075
REMARK SMILES CC1=CCC[C@H](C)C(=O)C[C@H](C(C)C)C(=O)C1
REMARK SMILES IDX 8 1 9 2 6 3 7 4 5 5 4 6 3 7 2 8 1 9 10 11 11 12 15 13 16 14
REMARK SMILES IDX 17 15 12 17 13 18 14 19
REMARK H PARENT
REMARK Flexibility Score: 70.00
ROOT
ATOM      1  C   UNL     1      -7.552  35.900  -0.188  1.00  0.00     0.136 C 
ATOM      2  O   UNL     1      -6.518  35.248  -0.189  1.00  0.00    -0.299 OA
ENDROOT
BRANCH   1   3
ATOM      3  C   UNL     1      -8.844  35.217   0.331  1.00  0.00     0.053 C 
ATOM      4  C   UNL     1      -9.386  35.925   1.580  1.00  0.00     0.016 C 
BRANCH   3   5
ATOM      5  C   UNL     1      -9.968  35.036  -0.755  1.00  0.00     0.015 C 
BRANCH   5   6
ATOM      6  C   UNL     1     -10.953  36.168  -0.597  1.00  0.00     0.028 C 
BRANCH   6   7
ATOM      7  C   UNL     1     -11.768  36.759  -1.679  1.00  0.00    -0.028 C 
ATOM      8  C   UNL     1     -11.387  37.975  -2.160  1.00  0.00    -0.070 CG0
ATOM      9  C   UNL     1     -12.292  38.657  -3.152  1.00  0.00     0.039 C 
ATOM     10  G   UNL     1     -10.012  38.613  -1.830  1.00  0.00     0.000 G0
ENDBRANCH   6   7
ENDBRANCH   5   6
ENDBRANCH   3   5
ENDBRANCH   1   3
BRANCH   1  11
ATOM     11  C   UNL     1      -7.495  37.339  -0.734  1.00  0.00     0.087 C 
BRANCH  11  12
ATOM     12  C   UNL     1      -7.627  37.462  -2.308  1.00  0.00     0.066 C 
BRANCH  12  13
ATOM     13  C   UNL     1      -8.838  38.309  -2.766  1.00  0.00     0.140 C 
ATOM     14  O   UNL     1      -8.867  38.752  -3.904  1.00  0.00    -0.299 OA
BRANCH  13  15
ATOM     15  C   UNL     1     -10.009  38.631  -1.832  1.00  0.00     0.106 CG0
ATOM     16  G   UNL     1     -11.363  37.962  -2.185  1.00  0.00     0.000 G0
ENDBRANCH  13  15
ENDBRANCH  12  13
BRANCH  12  17
ATOM     17  C   UNL     1      -6.327  37.972  -3.005  1.00  0.00    -0.006 C 
ATOM     18  C   UNL     1      -5.499  38.952  -2.152  1.00  0.00     0.008 C 
ATOM     19  C   UNL     1      -5.444  36.810  -3.490  1.00  0.00     0.008 C 
ENDBRANCH  12  17
ENDBRANCH  11  12
ENDBRANCH   1  11
TORSDOF 1
ENDMDL
MODEL 2
REMARK VINA RESULT:    -3.570      1.942      3.932
REMARK INTER + INTRA:          -5.524
REMARK INTER:                  -5.308
REMARK INTRA:                  -0.217
REMARK UNBOUND:                -0.075
REMARK SMILES CC1=CCC[C@H](C)C(=O)C[C@H](C(C)C)C(=O)C1
REMARK SMILES IDX 8 1 9 2 6 3 7 4 5 5 4 6 3 7 2 8 1 9 10 11 11 12 15 13 16 14
REMARK SMILES IDX 17 15 12 17 13 18 14 19
REMARK H PARENT
REMARK Flexibility Score: 70.00
ROOT
ATOM      1  C   UNL     1      -6.232  36.825  -1.743  1.00  0.00     0.136 C 
ATOM      2  O   UNL     1      -5.148  36.601  -2.260  1.00  0.00    -0.299 OA
ENDROOT
BRANCH   1   3
ATOM      3  C   UNL     1      -7.073  38.006  -2.293  1.00  0.00     0.053 C 
ATOM      4  C   UNL     1      -6.214  39.266  -2.471  1.00  0.00     0.016 C 
BRANCH   3   5
ATOM      5  C   UNL     1      -7.882  37.678  -3.602  1.00  0.00     0.015 C 
BRANCH   5   6
ATOM      6  C   UNL     1      -9.231  37.142  -3.191  1.00  0.00     0.028 C 
BRANCH   6   7
ATOM      7  C   UNL     1     -10.202  37.830  -2.313  1.00  0.00    -0.028 C 
ATOM      8  C   UNL     1     -10.618  37.168  -1.198  1.00  0.00    -0.070 CG0
ATOM      9  C   UNL     1     -11.718  37.790  -0.379  1.00  0.00     0.039 C 
ATOM     10  G   UNL     1      -9.922  35.885  -0.676  1.00  0.00     0.000 G0
ENDBRANCH   6   7
ENDBRANCH   5   6
ENDBRANCH   3   5
ENDBRANCH   1   3
BRANCH   1  11
ATOM     11  C   UNL     1      -6.663  35.934  -0.563  1.00  0.00     0.087 C 
BRANCH  11  12
ATOM     12  C   UNL     1      -7.604  36.641   0.498  1.00  0.00     0.066 C 
BRANCH  12  13
ATOM     13  C   UNL     1      -9.029  36.040   0.564  1.00  0.00     0.140 C 
ATOM     14  O   UNL     1      -9.477  35.668   1.637  1.00  0.00    -0.299 OA
BRANCH  13  15
ATOM     15  C   UNL     1      -9.904  35.876  -0.684  1.00  0.00     0.106 CG0
ATOM     16  G   UNL     1     -10.608  37.161  -1.192  1.00  0.00     0.000 G0
ENDBRANCH  13  15
ENDBRANCH  12  13
BRANCH  12  17
ATOM     17  C   UNL     1      -6.989  36.707   1.931  1.00  0.00    -0.006 C 
ATOM     18  C   UNL     1      -5.961  35.599   2.226  1.00  0.00     0.008 C 
ATOM     19  C   UNL     1      -6.384  38.089   2.230  1.00  0.00     0.008 C 
ENDBRANCH  12  17
ENDBRANCH  11  12
ENDBRANCH   1  11
TORSDOF 1
ENDMDL
MODEL 3
REMARK VINA RESULT:    -3.551      2.094      4.176
REMARK INTER + INTRA:          -5.494
REMARK INTER:                  -5.268
REMARK INTRA:                  -0.226
REMARK UNBOUND:                -0.075
REMARK SMILES CC1=CCC[C@H](C)C(=O)C[C@H](C(C)C)C(=O)C1
REMARK SMILES IDX 8 1 9 2 6 3 7 4 5 5 4 6 3 7 2 8 1 9 10 11 11 12 15 13 16 14
REMARK SMILES IDX 17 15 12 17 13 18 14 19
REMARK H PARENT
REMARK Flexibility Score: 70.00
ROOT
ATOM      1  C   UNL     1      -7.677  38.537  -1.503  1.00  0.00     0.136 C 
ATOM      2  O   UNL     1      -7.120  39.604  -1.292  1.00  0.00    -0.299 OA
ENDROOT
BRANCH   1   3
ATOM      3  C   UNL     1      -6.790  37.287  -1.738  1.00  0.00     0.053 C 
ATOM      4  C   UNL     1      -5.682  37.573  -2.761  1.00  0.00     0.016 C 
BRANCH   3   5
ATOM      5  C   UNL     1      -6.205  36.646  -0.426  1.00  0.00     0.015 C 
BRANCH   5   6
ATOM      6  C   UNL     1      -7.218  35.660   0.101  1.00  0.00     0.028 C 
BRANCH   6   7
ATOM      7  C   UNL     1      -8.241  35.942   1.131  1.00  0.00    -0.028 C 
ATOM      8  C   UNL     1      -9.545  35.924   0.741  1.00  0.00    -0.070 CG0
ATOM      9  C   UNL     1     -10.586  36.358   1.740  1.00  0.00     0.039 C 
ATOM     10  G   UNL     1     -10.004  35.356  -0.627  1.00  0.00     0.000 G0
ENDBRANCH   6   7
ENDBRANCH   5   6
ENDBRANCH   3   5
ENDBRANCH   1   3
BRANCH   1  11
ATOM     11  C   UNL     1      -9.216  38.526  -1.550  1.00  0.00     0.087 C 
BRANCH  11  12
ATOM     12  C   UNL     1      -9.848  37.366  -2.425  1.00  0.00     0.066 C 
BRANCH  12  13
ATOM     13  C   UNL     1     -10.675  36.348  -1.602  1.00  0.00     0.140 C 
ATOM     14  O   UNL     1     -11.891  36.329  -1.716  1.00  0.00    -0.299 OA
BRANCH  13  15
ATOM     15  C   UNL     1     -10.022  35.362  -0.629  1.00  0.00     0.106 CG0
ATOM     16  G   UNL     1      -9.578  35.949   0.737  1.00  0.00     0.000 G0
ENDBRANCH  13  15
ENDBRANCH  12  13
BRANCH  12  17
ATOM     17  C   UNL     1     -10.691  37.883  -3.632  1.00  0.00    -0.006 C 
ATOM     18  C   UNL     1     -10.708  39.416  -3.776  1.00  0.00     0.008 C 
ATOM     19  C   UNL     1     -10.258  37.228  -4.955  1.00  0.00     0.008 C 
ENDBRANCH  12  17
ENDBRANCH  11  12
ENDBRANCH   1  11
TORSDOF 1
ENDMDL
MODEL 4
REMARK VINA RESULT:    -3.524      1.811      4.169
REMARK INTER + INTRA:          -5.454
REMARK INTER:                  -5.274
REMARK INTRA:                  -0.180
REMARK UNBOUND:                -0.075
REMARK SMILES CC1=CCC[C@H](C)C(=O)C[C@H](C(C)C)C(=O)C1
REMARK SMILES IDX 8 1 9 2 6 3 7 4 5 5 4 6 3 7 2 8 1 9 10 11 11 12 15 13 16 14
REMARK SMILES IDX 17 15 12 17 13 18 14 19
REMARK H PARENT
REMARK Flexibility Score: 70.00
ROOT
ATOM      1  C   UNL     1      -9.588  35.441  -1.072  1.00  0.00     0.136 C 
ATOM      2  O   UNL     1     -10.146  34.380  -0.835  1.00  0.00    -0.299 OA
ENDROOT
BRANCH   1   3
ATOM      3  C   UNL     1      -8.647  36.028   0.012  1.00  0.00     0.053 C 
ATOM      4  C   UNL     1      -9.163  35.720   1.424  1.00  0.00     0.016 C 
BRANCH   3   5
ATOM      5  C   UNL     1      -7.136  35.618  -0.145  1.00  0.00     0.015 C 
BRANCH   5   6
ATOM      6  C   UNL     1      -6.547  36.437  -1.267  1.00  0.00     0.028 C 
BRANCH   6   7
ATOM      7  C   UNL     1      -6.285  37.891  -1.228  1.00  0.00    -0.028 C 
ATOM      8  C   UNL     1      -6.637  38.623  -2.321  1.00  0.00    -0.070 CG0
ATOM      9  C   UNL     1      -6.237  40.074  -2.358  1.00  0.00     0.039 C 
ATOM     10  G   UNL     1      -7.534  38.059  -3.453  1.00  0.00     0.000 G0
ENDBRANCH   6   7
ENDBRANCH   5   6
ENDBRANCH   3   5
ENDBRANCH   1   3
BRANCH   1  11
ATOM     11  C   UNL     1      -9.890  36.128  -2.417  1.00  0.00     0.087 C 
BRANCH  11  12
ATOM     12  C   UNL     1      -9.971  37.709  -2.355  1.00  0.00     0.066 C 
BRANCH  12  13
ATOM     13  C   UNL     1      -9.032  38.420  -3.360  1.00  0.00     0.140 C 
ATOM     14  O   UNL     1      -9.487  39.267  -4.113  1.00  0.00    -0.299 OA
BRANCH  13  15
ATOM     15  C   UNL     1      -7.540  38.086  -3.458  1.00  0.00     0.106 CG0
ATOM     16  G   UNL     1      -6.646  38.626  -2.311  1.00  0.00     0.000 G0
ENDBRANCH  13  15
ENDBRANCH  12  13
BRANCH  12  17
ATOM     17  C   UNL     1     -11.423  38.265  -2.500  1.00  0.00    -0.006 C 
ATOM     18  C   UNL     1     -12.438  37.240  -3.036  1.00  0.00     0.008 C 
ATOM     19  C   UNL     1     -11.931  38.884  -1.187  1.00  0.00     0.008 C 
ENDBRANCH  12  17
ENDBRANCH  11  12
ENDBRANCH   1  11
TORSDOF 1
ENDMDL
MODEL 5
REMARK VINA RESULT:    -3.455      2.103      4.057
REMARK INTER + INTRA:          -5.348
REMARK INTER:                  -5.227
REMARK INTRA:                  -0.122
REMARK UNBOUND:                -0.075
REMARK SMILES CC1=CCC[C@H](C)C(=O)C[C@H](C(C)C)C(=O)C1
REMARK SMILES IDX 8 1 9 2 6 3 7 4 5 5 4 6 3 7 2 8 1 9 10 11 11 12 15 13 16 14
REMARK SMILES IDX 17 15 12 17 13 18 14 19
REMARK H PARENT
REMARK Flexibility Score: 70.00
ROOT
ATOM      1  C   UNL     1     -10.672  36.643  -0.871  1.00  0.00     0.136 C 
ATOM      2  O   UNL     1     -11.298  37.631  -0.517  1.00  0.00    -0.299 OA
ENDROOT
BRANCH   1   3
ATOM      3  C   UNL     1     -10.364  35.555   0.191  1.00  0.00     0.053 C 
ATOM      4  C   UNL     1      -9.849  34.266  -0.464  1.00  0.00     0.016 C 
BRANCH   3   5
ATOM      5  C   UNL     1      -9.410  36.027   1.350  1.00  0.00     0.015 C 
BRANCH   5   6
ATOM      6  C   UNL     1      -8.056  36.314   0.749  1.00  0.00     0.028 C 
BRANCH   6   7
ATOM      7  C   UNL     1      -7.437  37.650   0.617  1.00  0.00    -0.028 C 
ATOM      8  C   UNL     1      -6.896  37.975  -0.590  1.00  0.00    -0.070 CG0
ATOM      9  C   UNL     1      -6.129  39.267  -0.695  1.00  0.00     0.039 C 
ATOM     10  G   UNL     1      -7.150  37.142  -1.874  1.00  0.00     0.000 G0
ENDBRANCH   6   7
ENDBRANCH   5   6
ENDBRANCH   3   5
ENDBRANCH   1   3
BRANCH   1  11
ATOM     11  C   UNL     1     -10.211  36.572  -2.339  1.00  0.00     0.087 C 
BRANCH  11  12
ATOM     12  C   UNL     1      -9.528  37.892  -2.888  1.00  0.00     0.066 C 
BRANCH  12  13
ATOM     13  C   UNL     1      -7.985  37.810  -2.961  1.00  0.00     0.140 C 
ATOM     14  O   UNL     1      -7.401  38.289  -3.921  1.00  0.00    -0.299 OA
BRANCH  13  15
ATOM     15  C   UNL     1      -7.151  37.130  -1.870  1.00  0.00     0.106 CG0
ATOM     16  G   UNL     1      -6.882  37.972  -0.596  1.00  0.00     0.000 G0
ENDBRANCH  13  15
ENDBRANCH  12  13
BRANCH  12  17
ATOM     17  C   UNL     1     -10.101  38.365  -4.261  1.00  0.00    -0.006 C 
ATOM     18  C   UNL     1     -11.033  37.344  -4.939  1.00  0.00     0.008 C 
ATOM     19  C   UNL     1     -10.797  39.732  -4.151  1.00  0.00     0.008 C 
ENDBRANCH  12  17
ENDBRANCH  11  12
ENDBRANCH   1  11
TORSDOF 1
ENDMDL
MODEL 6
REMARK VINA RESULT:    -3.420     10.053     11.876
REMARK INTER + INTRA:          -5.295
REMARK INTER:                  -5.478
REMARK INTRA:                   0.183
REMARK UNBOUND:                -0.075
REMARK SMILES CC1=CCC[C@H](C)C(=O)C[C@H](C(C)C)C(=O)C1
REMARK SMILES IDX 8 1 9 2 6 3 7 4 5 5 4 6 3 7 2 8 1 9 10 11 11 12 15 13 16 14
REMARK SMILES IDX 17 15 12 17 13 18 14 19
REMARK H PARENT
REMARK Flexibility Score: 70.00
ROOT
ATOM      1  C   UNL     1     -18.163  33.523   6.875  1.00  0.00     0.136 C 
ATOM      2  O   UNL     1     -18.120  32.626   7.703  1.00  0.00    -0.299 OA
ENDROOT
BRANCH   1   3
ATOM      3  C   UNL     1     -19.036  33.307   5.611  1.00  0.00     0.053 C 
ATOM      4  C   UNL     1     -18.864  31.889   5.050  1.00  0.00     0.016 C 
BRANCH   3   5
ATOM      5  C   UNL     1     -20.557  33.665   5.799  1.00  0.00     0.015 C 
BRANCH   5   6
ATOM      6  C   UNL     1     -20.914  34.721   4.782  1.00  0.00     0.028 C 
BRANCH   6   7
ATOM      7  C   UNL     1     -20.108  35.086   3.598  1.00  0.00    -0.028 C 
ATOM      8  C   UNL     1     -19.301  36.178   3.701  1.00  0.00    -0.070 CG0
ATOM      9  C   UNL     1     -18.592  36.651   2.459  1.00  0.00     0.039 C 
ATOM     10  G   UNL     1     -18.984  36.862   5.057  1.00  0.00     0.000 G0
ENDBRANCH   6   7
ENDBRANCH   5   6
ENDBRANCH   3   5
ENDBRANCH   1   3
BRANCH   1  11
ATOM     11  C   UNL     1     -17.321  34.785   7.137  1.00  0.00     0.087 C 
BRANCH  11  12
ATOM     12  C   UNL     1     -16.781  35.510   5.835  1.00  0.00     0.066 C 
BRANCH  12  13
ATOM     13  C   UNL     1     -17.508  36.838   5.517  1.00  0.00     0.140 C 
ATOM     14  O   UNL     1     -16.909  37.896   5.636  1.00  0.00    -0.299 OA
BRANCH  13  15
ATOM     15  C   UNL     1     -18.972  36.880   5.066  1.00  0.00     0.106 CG0
ATOM     16  G   UNL     1     -19.288  36.183   3.717  1.00  0.00     0.000 G0
ENDBRANCH  13  15
ENDBRANCH  12  13
BRANCH  12  17
ATOM     17  C   UNL     1     -15.237  35.737   5.844  1.00  0.00    -0.006 C 
ATOM     18  C   UNL     1     -14.683  36.240   7.189  1.00  0.00     0.008 C 
ATOM     19  C   UNL     1     -14.472  34.484   5.387  1.00  0.00     0.008 C 
ENDBRANCH  12  17
ENDBRANCH  11  12
ENDBRANCH   1  11
TORSDOF 1
ENDMDL
MODEL 7
REMARK VINA RESULT:    -3.362      8.607     11.204
REMARK INTER + INTRA:          -5.206
REMARK INTER:                  -5.090
REMARK INTRA:                  -0.116
REMARK UNBOUND:                -0.075
REMARK SMILES CC1=CCC[C@H](C)C(=O)C[C@H](C(C)C)C(=O)C1
REMARK SMILES IDX 8 1 9 2 6 3 7 4 5 5 4 6 3 7 2 8 1 9 10 11 11 12 15 13 16 14
REMARK SMILES IDX 17 15 12 17 13 18 14 19
REMARK H PARENT
REMARK Flexibility Score: 70.00
ROOT
ATOM      1  C   UNL     1     -13.813  35.333   5.259  1.00  0.00     0.136 C 
ATOM      2  O   UNL     1     -13.888  34.172   5.633  1.00  0.00    -0.299 OA
ENDROOT
BRANCH   1   3
ATOM      3  C   UNL     1     -12.411  35.901   4.919  1.00  0.00     0.053 C 
ATOM      4  C   UNL     1     -12.511  37.116   3.987  1.00  0.00     0.016 C 
BRANCH   3   5
ATOM      5  C   UNL     1     -11.513  36.216   6.172  1.00  0.00     0.015 C 
BRANCH   5   6
ATOM      6  C   UNL     1     -12.234  37.240   7.014  1.00  0.00     0.028 C 
BRANCH   6   7
ATOM      7  C   UNL     1     -12.741  37.026   8.386  1.00  0.00    -0.028 C 
ATOM      8  C   UNL     1     -13.951  37.567   8.700  1.00  0.00    -0.070 CG0
ATOM      9  C   UNL     1     -14.409  37.488  10.132  1.00  0.00     0.039 C 
ATOM     10  G   UNL     1     -14.918  38.135   7.629  1.00  0.00     0.000 G0
ENDBRANCH   6   7
ENDBRANCH   5   6
ENDBRANCH   3   5
ENDBRANCH   1   3
BRANCH   1  11
ATOM     11  C   UNL     1     -15.117  36.150   5.185  1.00  0.00     0.087 C 
BRANCH  11  12
ATOM     12  C   UNL     1     -16.080  35.984   6.433  1.00  0.00     0.066 C 
BRANCH  12  13
ATOM     13  C   UNL     1     -16.168  37.247   7.322  1.00  0.00     0.140 C 
ATOM     14  O   UNL     1     -17.244  37.576   7.797  1.00  0.00    -0.299 OA
BRANCH  13  15
ATOM     15  C   UNL     1     -14.946  38.122   7.622  1.00  0.00     0.106 CG0
ATOM     16  G   UNL     1     -13.962  37.572   8.688  1.00  0.00     0.000 G0
ENDBRANCH  13  15
ENDBRANCH  12  13
BRANCH  12  17
ATOM     17  C   UNL     1     -17.514  35.500   6.053  1.00  0.00    -0.006 C 
ATOM     18  C   UNL     1     -17.714  35.248   4.547  1.00  0.00     0.008 C 
ATOM     19  C   UNL     1     -17.932  34.261   6.862  1.00  0.00     0.008 C 
ENDBRANCH  12  17
ENDBRANCH  11  12
ENDBRANCH   1  11
TORSDOF 1
ENDMDL
MODEL 8
REMARK VINA RESULT:    -3.329      1.724      4.047
REMARK INTER + INTRA:          -5.156
REMARK INTER:                  -5.156
REMARK INTRA:                  -0.000
REMARK UNBOUND:                -0.075
REMARK SMILES CC1=CCC[C@H](C)C(=O)C[C@H](C(C)C)C(=O)C1
REMARK SMILES IDX 8 1 9 2 6 3 7 4 5 5 4 6 3 7 2 8 1 9 10 11 11 12 15 13 16 14
REMARK SMILES IDX 17 15 12 17 13 18 14 19
REMARK H PARENT
REMARK Flexibility Score: 70.00
ROOT
ATOM      1  C   UNL     1      -6.269  36.842  -0.635  1.00  0.00     0.136 C 
ATOM      2  O   UNL     1      -5.196  36.398  -1.016  1.00  0.00    -0.299 OA
ENDROOT
BRANCH   1   3
ATOM      3  C   UNL     1      -6.614  38.314  -0.981  1.00  0.00     0.053 C 
ATOM      4  C   UNL     1      -5.884  39.291  -0.050  1.00  0.00     0.016 C 
BRANCH   3   5
ATOM      5  C   UNL     1      -6.398  38.696  -2.492  1.00  0.00     0.015 C 
BRANCH   5   6
ATOM      6  C   UNL     1      -7.747  38.704  -3.166  1.00  0.00     0.028 C 
BRANCH   6   7
ATOM      7  C   UNL     1      -9.034  39.037  -2.518  1.00  0.00    -0.028 C 
ATOM      8  C   UNL     1      -9.910  38.018  -2.300  1.00  0.00    -0.070 CG0
ATOM      9  C   UNL     1     -11.281  38.364  -1.782  1.00  0.00     0.039 C 
ATOM     10  G   UNL     1      -9.509  36.526  -2.435  1.00  0.00     0.000 G0
ENDBRANCH   6   7
ENDBRANCH   5   6
ENDBRANCH   3   5
ENDBRANCH   1   3
BRANCH   1  11
ATOM     11  C   UNL     1      -7.181  35.912   0.187  1.00  0.00     0.087 C 
BRANCH  11  12
ATOM     12  C   UNL     1      -8.724  36.270   0.131  1.00  0.00     0.066 C 
BRANCH  12  13
ATOM     13  C   UNL     1      -9.444  35.723  -1.125  1.00  0.00     0.140 C 
ATOM     14  O   UNL     1      -9.964  34.618  -1.087  1.00  0.00    -0.299 OA
BRANCH  13  15
ATOM     15  C   UNL     1      -9.517  36.515  -2.435  1.00  0.00     0.106 CG0
ATOM     16  G   UNL     1      -9.910  38.009  -2.303  1.00  0.00     0.000 G0
ENDBRANCH  13  15
ENDBRANCH  12  13
BRANCH  12  17
ATOM     17  C   UNL     1      -9.507  35.856   1.416  1.00  0.00    -0.006 C 
ATOM     18  C   UNL     1      -8.687  35.967   2.715  1.00  0.00     0.008 C 
ATOM     19  C   UNL     1     -10.831  36.627   1.552  1.00  0.00     0.008 C 
ENDBRANCH  12  17
ENDBRANCH  11  12
ENDBRANCH   1  11
TORSDOF 1
ENDMDL
MODEL 9
REMARK VINA RESULT:    -3.275      2.416      5.436
REMARK INTER + INTRA:          -5.073
REMARK INTER:                  -5.417
REMARK INTRA:                   0.345
REMARK UNBOUND:                -0.075
REMARK SMILES CC1=CCC[C@H](C)C(=O)C[C@H](C(C)C)C(=O)C1
REMARK SMILES IDX 8 1 9 2 6 3 7 4 5 5 4 6 3 7 2 8 1 9 10 11 11 12 15 13 16 14
REMARK SMILES IDX 17 15 12 17 13 18 14 19
REMARK H PARENT
REMARK Flexibility Score: 70.00
ROOT
ATOM      1  C   UNL     1      -9.028  38.367  -2.430  1.00  0.00     0.136 C 
ATOM      2  O   UNL     1      -9.041  39.575  -2.613  1.00  0.00    -0.299 OA
ENDROOT
BRANCH   1   3
ATOM      3  C   UNL     1      -8.667  37.452  -3.629  1.00  0.00     0.053 C 
ATOM      4  C   UNL     1      -9.594  37.707  -4.824  1.00  0.00     0.016 C 
BRANCH   3   5
ATOM      5  C   UNL     1      -7.154  37.506  -4.058  1.00  0.00     0.015 C 
BRANCH   5   6
ATOM      6  C   UNL     1      -6.316  37.168  -2.850  1.00  0.00     0.028 C 
BRANCH   6   7
ATOM      7  C   UNL     1      -5.271  38.030  -2.257  1.00  0.00    -0.028 C 
ATOM      8  C   UNL     1      -5.139  38.014  -0.902  1.00  0.00    -0.070 CG0
ATOM      9  C   UNL     1      -4.187  38.998  -0.274  1.00  0.00     0.039 C 
ATOM     10  G   UNL     1      -5.823  36.949  -0.005  1.00  0.00     0.000 G0
ENDBRANCH   6   7
ENDBRANCH   5   6
ENDBRANCH   3   5
ENDBRANCH   1   3
BRANCH   1  11
ATOM     11  C   UNL     1      -9.403  37.848  -1.029  1.00  0.00     0.087 C 
BRANCH  11  12
ATOM     12  C   UNL     1      -8.471  36.692  -0.475  1.00  0.00     0.066 C 
BRANCH  12  13
ATOM     13  C   UNL     1      -7.286  37.204   0.379  1.00  0.00     0.140 C 
ATOM     14  O   UNL     1      -7.508  37.856   1.387  1.00  0.00    -0.299 OA
BRANCH  13  15
ATOM     15  C   UNL     1      -5.827  36.934  -0.005  1.00  0.00     0.106 CG0
ATOM     16  G   UNL     1      -5.145  38.014  -0.885  1.00  0.00     0.000 G0
ENDBRANCH  13  15
ENDBRANCH  12  13
BRANCH  12  17
ATOM     17  C   UNL     1      -9.248  35.585   0.304  1.00  0.00    -0.006 C 
ATOM     18  C   UNL     1     -10.431  36.114   1.137  1.00  0.00     0.008 C 
ATOM     19  C   UNL     1      -9.715  34.452  -0.625  1.00  0.00     0.008 C 
ENDBRANCH  12  17
ENDBRANCH  11  12
ENDBRANCH   1  11
TORSDOF 1
ENDMDL
