MODEL 1
REMARK VINA RESULT:    -4.689      0.000      0.000
REMARK INTER + INTRA:          -7.787
REMARK INTER:                  -7.156
REMARK INTRA:                  -0.632
REMARK UNBOUND:                -0.632
REMARK SMILES O=C([O-])CCCCCCCCC(=O)[O-]
REMARK SMILES IDX 7 1 6 2 5 3 4 4 2 5 1 6 3 7 8 8 9 9 10 10 11 11 12 12 13 13
REMARK SMILES IDX 14 14
REMARK H PARENT
REMARK Flexibility Score: inf
ROOT
ATOM      1  C   UNL     1      74.007  12.179  19.470  1.00  0.00     0.000 C 
ENDROOT
BRANCH   1   2
ATOM      2  C   UNL     1      73.627  13.202  18.385  1.00  0.00     0.000 C 
BRANCH   2   3
ATOM      3  C   UNL     1      74.725  13.372  17.318  1.00  0.00     0.006 C 
BRANCH   3   4
ATOM      4  C   UNL     1      75.174  14.825  17.094  1.00  0.00     0.053 C 
BRANCH   4   5
ATOM      5  C   UNL     1      75.094  15.223  15.653  1.00  0.00     0.041 C 
ATOM      6  O   UNL     1      75.558  14.467  14.759  1.00  0.00    -0.550 OA
ATOM      7  O   UNL     1      74.537  16.446  15.298  1.00  0.00    -0.550 OA
ENDBRANCH   4   5
ENDBRANCH   3   4
ENDBRANCH   2   3
ENDBRANCH   1   2
BRANCH   1   8
ATOM      8  C   UNL     1      75.364  11.509  19.198  1.00  0.00     0.000 C 
BRANCH   8   9
ATOM      9  C   UNL     1      76.341  11.647  20.375  1.00  0.00     0.000 C 
BRANCH   9  10
ATOM     10  C   UNL     1      77.788  11.754  19.878  1.00  0.00     0.006 C 
BRANCH  10  11
ATOM     11  C   UNL     1      78.140  13.200  19.514  1.00  0.00     0.053 C 
BRANCH  11  12
ATOM     12  C   UNL     1      79.560  13.500  19.874  1.00  0.00     0.041 C 
ATOM     13  O   UNL     1      80.497  12.834  19.361  1.00  0.00    -0.550 OA
ATOM     14  O   UNL     1      79.846  14.481  20.814  1.00  0.00    -0.550 OA
ENDBRANCH  11  12
ENDBRANCH  10  11
ENDBRANCH   9  10
ENDBRANCH   8   9
ENDBRANCH   1   8
TORSDOF 9
ENDMDL
MODEL 2
REMARK VINA RESULT:    -4.673      1.306      4.798
REMARK INTER + INTRA:          -7.763
REMARK INTER:                  -6.846
REMARK INTRA:                  -0.917
REMARK UNBOUND:                -0.632
REMARK SMILES O=C([O-])CCCCCCCCC(=O)[O-]
REMARK SMILES IDX 7 1 6 2 5 3 4 4 2 5 1 6 3 7 8 8 9 9 10 10 11 11 12 12 13 13
REMARK SMILES IDX 14 14
REMARK H PARENT
REMARK Flexibility Score: inf
ROOT
ATOM      1  C   UNL     1      75.460  11.208  18.835  1.00  0.00     0.000 C 
ENDROOT
BRANCH   1   2
ATOM      2  C   UNL     1      76.654  10.962  19.774  1.00  0.00     0.000 C 
BRANCH   2   3
ATOM      3  C   UNL     1      77.225  12.265  20.363  1.00  0.00     0.006 C 
BRANCH   3   4
ATOM      4  C   UNL     1      78.475  12.796  19.641  1.00  0.00     0.053 C 
BRANCH   4   5
ATOM      5  C   UNL     1      78.131  13.800  18.585  1.00  0.00     0.041 C 
ATOM      6  O   UNL     1      77.771  14.963  18.908  1.00  0.00    -0.550 OA
ATOM      7  O   UNL     1      78.175  13.441  17.243  1.00  0.00    -0.550 OA
ENDBRANCH   4   5
ENDBRANCH   3   4
ENDBRANCH   2   3
ENDBRANCH   1   2
BRANCH   1   8
ATOM      8  C   UNL     1      74.340  12.020  19.506  1.00  0.00     0.000 C 
BRANCH   8   9
ATOM      9  C   UNL     1      73.788  13.131  18.600  1.00  0.00     0.000 C 
BRANCH   9  10
ATOM     10  C   UNL     1      74.627  13.264  17.323  1.00  0.00     0.006 C 
BRANCH  10  11
ATOM     11  C   UNL     1      74.861  14.736  16.969  1.00  0.00     0.053 C 
BRANCH  11  12
ATOM     12  C   UNL     1      75.211  14.878  15.522  1.00  0.00     0.041 C 
ATOM     13  O   UNL     1      75.614  13.882  14.867  1.00  0.00    -0.550 OA
ATOM     14  O   UNL     1      75.139  16.122  14.909  1.00  0.00    -0.550 OA
ENDBRANCH  11  12
ENDBRANCH  10  11
ENDBRANCH   9  10
ENDBRANCH   8   9
ENDBRANCH   1   8
TORSDOF 9
ENDMDL
MODEL 3
REMARK VINA RESULT:    -4.663      1.382      2.535
REMARK INTER + INTRA:          -7.747
REMARK INTER:                  -6.996
REMARK INTRA:                  -0.751
REMARK UNBOUND:                -0.632
REMARK SMILES O=C([O-])CCCCCCCCC(=O)[O-]
REMARK SMILES IDX 7 1 6 2 5 3 4 4 2 5 1 6 3 7 8 8 9 9 10 10 11 11 12 12 13 13
REMARK SMILES IDX 14 14
REMARK H PARENT
REMARK Flexibility Score: inf
ROOT
ATOM      1  C   UNL     1      74.834  13.618  17.372  1.00  0.00     0.000 C 
ENDROOT
BRANCH   1   2
ATOM      2  C   UNL     1      75.372  14.914  18.004  1.00  0.00     0.000 C 
BRANCH   2   3
ATOM      3  C   UNL     1      76.443  15.600  17.135  1.00  0.00     0.006 C 
BRANCH   3   4
ATOM      4  C   UNL     1      76.119  15.629  15.632  1.00  0.00     0.053 C 
BRANCH   4   5
ATOM      5  C   UNL     1      75.246  16.790  15.266  1.00  0.00     0.041 C 
ATOM      6  O   UNL     1      73.992  16.679  15.310  1.00  0.00    -0.550 OA
ATOM      7  O   UNL     1      75.817  17.984  14.844  1.00  0.00    -0.550 OA
ENDBRANCH   4   5
ENDBRANCH   3   4
ENDBRANCH   2   3
ENDBRANCH   1   2
BRANCH   1   8
ATOM      8  C   UNL     1      73.692  12.993  18.190  1.00  0.00     0.000 C 
BRANCH   8   9
ATOM      9  C   UNL     1      74.185  12.319  19.479  1.00  0.00     0.000 C 
BRANCH   9  10
ATOM     10  C   UNL     1      75.372  11.392  19.193  1.00  0.00     0.006 C 
BRANCH  10  11
ATOM     11  C   UNL     1      76.497  11.609  20.210  1.00  0.00     0.053 C 
BRANCH  11  12
ATOM     12  C   UNL     1      77.652  12.312  19.571  1.00  0.00     0.041 C 
ATOM     13  O   UNL     1      78.374  13.089  20.248  1.00  0.00    -0.550 OA
ATOM     14  O   UNL     1      77.901  12.147  18.215  1.00  0.00    -0.550 OA
ENDBRANCH  11  12
ENDBRANCH  10  11
ENDBRANCH   9  10
ENDBRANCH   8   9
ENDBRANCH   1   8
TORSDOF 9
ENDMDL
MODEL 4
REMARK VINA RESULT:    -4.622      0.637      5.323
REMARK INTER + INTRA:          -7.686
REMARK INTER:                  -6.998
REMARK INTRA:                  -0.688
REMARK UNBOUND:                -0.632
REMARK SMILES O=C([O-])CCCCCCCCC(=O)[O-]
REMARK SMILES IDX 7 1 6 2 5 3 4 4 2 5 1 6 3 7 8 8 9 9 10 10 11 11 12 12 13 13
REMARK SMILES IDX 14 14
REMARK H PARENT
REMARK Flexibility Score: inf
ROOT
ATOM      1  C   UNL     1      75.465  11.481  19.194  1.00  0.00     0.000 C 
ENDROOT
BRANCH   1   2
ATOM      2  C   UNL     1      76.495  11.658  20.323  1.00  0.00     0.000 C 
BRANCH   2   3
ATOM      3  C   UNL     1      77.923  11.891  19.795  1.00  0.00     0.006 C 
BRANCH   3   4
ATOM      4  C   UNL     1      78.288  13.369  19.578  1.00  0.00     0.053 C 
BRANCH   4   5
ATOM      5  C   UNL     1      79.707  13.660  19.954  1.00  0.00     0.041 C 
ATOM      6  O   UNL     1      80.651  13.043  19.393  1.00  0.00    -0.550 OA
ATOM      7  O   UNL     1      79.988  14.589  20.948  1.00  0.00    -0.550 OA
ENDBRANCH   4   5
ENDBRANCH   3   4
ENDBRANCH   2   3
ENDBRANCH   1   2
BRANCH   1   8
ATOM      8  C   UNL     1      74.090  12.068  19.552  1.00  0.00     0.000 C 
BRANCH   8   9
ATOM      9  C   UNL     1      73.645  13.173  18.582  1.00  0.00     0.000 C 
BRANCH   9  10
ATOM     10  C   UNL     1      74.769  13.525  17.599  1.00  0.00     0.006 C 
BRANCH  10  11
ATOM     11  C   UNL     1      75.297  14.940  17.851  1.00  0.00     0.053 C 
BRANCH  11  12
ATOM     12  C   UNL     1      75.215  15.759  16.602  1.00  0.00     0.041 C 
ATOM     13  O   UNL     1      75.117  17.012  16.672  1.00  0.00    -0.550 OA
ATOM     14  O   UNL     1      75.198  15.135  15.362  1.00  0.00    -0.550 OA
ENDBRANCH  11  12
ENDBRANCH  10  11
ENDBRANCH   9  10
ENDBRANCH   8   9
ENDBRANCH   1   8
TORSDOF 9
ENDMDL
MODEL 5
REMARK VINA RESULT:    -4.593      1.189      1.451
REMARK INTER + INTRA:          -7.641
REMARK INTER:                  -6.777
REMARK INTRA:                  -0.864
REMARK UNBOUND:                -0.632
REMARK SMILES O=C([O-])CCCCCCCCC(=O)[O-]
REMARK SMILES IDX 7 1 6 2 5 3 4 4 2 5 1 6 3 7 8 8 9 9 10 10 11 11 12 12 13 13
REMARK SMILES IDX 14 14
REMARK H PARENT
REMARK Flexibility Score: inf
ROOT
ATOM      1  C   UNL     1      74.098  12.017  19.419  1.00  0.00     0.000 C 
ENDROOT
BRANCH   1   2
ATOM      2  C   UNL     1      73.685  13.246  18.590  1.00  0.00     0.000 C 
BRANCH   2   3
ATOM      3  C   UNL     1      74.542  13.423  17.322  1.00  0.00     0.006 C 
BRANCH   3   4
ATOM      4  C   UNL     1      75.072  14.850  17.106  1.00  0.00     0.053 C 
BRANCH   4   5
ATOM      5  C   UNL     1      75.172  15.199  15.654  1.00  0.00     0.041 C 
ATOM      6  O   UNL     1      75.814  14.455  14.865  1.00  0.00    -0.550 OA
ATOM      7  O   UNL     1      74.587  16.365  15.176  1.00  0.00    -0.550 OA
ENDBRANCH   4   5
ENDBRANCH   3   4
ENDBRANCH   2   3
ENDBRANCH   1   2
BRANCH   1   8
ATOM      8  C   UNL     1      75.554  11.594  19.160  1.00  0.00     0.000 C 
BRANCH   8   9
ATOM      9  C   UNL     1      76.430  11.684  20.418  1.00  0.00     0.000 C 
BRANCH   9  10
ATOM     10  C   UNL     1      77.734  12.437  20.125  1.00  0.00     0.006 C 
BRANCH  10  11
ATOM     11  C   UNL     1      77.922  12.645  18.619  1.00  0.00     0.053 C 
BRANCH  11  12
ATOM     12  C   UNL     1      78.407  14.032  18.339  1.00  0.00     0.041 C 
ATOM     13  O   UNL     1      78.590  14.842  19.285  1.00  0.00    -0.550 OA
ATOM     14  O   UNL     1      78.607  14.446  17.029  1.00  0.00    -0.550 OA
ENDBRANCH  11  12
ENDBRANCH  10  11
ENDBRANCH   9  10
ENDBRANCH   8   9
ENDBRANCH   1   8
TORSDOF 9
ENDMDL
MODEL 6
REMARK VINA RESULT:    -4.557      2.269      2.983
REMARK INTER + INTRA:          -7.587
REMARK INTER:                  -6.981
REMARK INTRA:                  -0.606
REMARK UNBOUND:                -0.632
REMARK SMILES O=C([O-])CCCCCCCCC(=O)[O-]
REMARK SMILES IDX 7 1 6 2 5 3 4 4 2 5 1 6 3 7 8 8 9 9 10 10 11 11 12 12 13 13
REMARK SMILES IDX 14 14
REMARK H PARENT
REMARK Flexibility Score: inf
ROOT
ATOM      1  C   UNL     1      74.793  13.893  17.750  1.00  0.00     0.000 C 
ENDROOT
BRANCH   1   2
ATOM      2  C   UNL     1      75.171  13.086  16.495  1.00  0.00     0.000 C 
BRANCH   2   3
ATOM      3  C   UNL     1      75.190  13.948  15.218  1.00  0.00     0.006 C 
BRANCH   3   4
ATOM      4  C   UNL     1      76.095  15.189  15.301  1.00  0.00     0.053 C 
BRANCH   4   5
ATOM      5  C   UNL     1      75.317  16.462  15.176  1.00  0.00     0.041 C 
ATOM      6  O   UNL     1      74.067  16.460  15.331  1.00  0.00    -0.550 OA
ATOM      7  O   UNL     1      75.969  17.646  14.854  1.00  0.00    -0.550 OA
ENDBRANCH   4   5
ENDBRANCH   3   4
ENDBRANCH   2   3
ENDBRANCH   1   2
BRANCH   1   8
ATOM      8  C   UNL     1      73.909  13.094  18.721  1.00  0.00     0.000 C 
BRANCH   8   9
ATOM      9  C   UNL     1      74.545  11.760  19.142  1.00  0.00     0.000 C 
BRANCH   9  10
ATOM     10  C   UNL     1      75.788  11.996  20.010  1.00  0.00     0.006 C 
BRANCH  10  11
ATOM     11  C   UNL     1      76.704  10.768  20.004  1.00  0.00     0.053 C 
BRANCH  11  12
ATOM     12  C   UNL     1      77.072  10.397  18.603  1.00  0.00     0.041 C 
ATOM     13  O   UNL     1      76.739   9.276  18.136  1.00  0.00    -0.550 OA
ATOM     14  O   UNL     1      77.828  11.267  17.829  1.00  0.00    -0.550 OA
ENDBRANCH  11  12
ENDBRANCH  10  11
ENDBRANCH   9  10
ENDBRANCH   8   9
ENDBRANCH   1   8
TORSDOF 9
ENDMDL
MODEL 7
REMARK VINA RESULT:    -4.542      1.549      5.536
REMARK INTER + INTRA:          -7.563
REMARK INTER:                  -6.954
REMARK INTRA:                  -0.610
REMARK UNBOUND:                -0.632
REMARK SMILES O=C([O-])CCCCCCCCC(=O)[O-]
REMARK SMILES IDX 7 1 6 2 5 3 4 4 2 5 1 6 3 7 8 8 9 9 10 10 11 11 12 12 13 13
REMARK SMILES IDX 14 14
REMARK H PARENT
REMARK Flexibility Score: inf
ROOT
ATOM      1  C   UNL     1      73.965  13.289  18.588  1.00  0.00     0.000 C 
ENDROOT
BRANCH   1   2
ATOM      2  C   UNL     1      74.344  11.911  19.160  1.00  0.00     0.000 C 
BRANCH   2   3
ATOM      3  C   UNL     1      75.515  11.985  20.159  1.00  0.00     0.006 C 
BRANCH   3   4
ATOM      4  C   UNL     1      76.649  10.984  19.884  1.00  0.00     0.053 C 
BRANCH   4   5
ATOM      5  C   UNL     1      77.932  11.670  19.531  1.00  0.00     0.041 C 
ATOM      6  O   UNL     1      78.847  11.039  18.938  1.00  0.00    -0.550 OA
ATOM      7  O   UNL     1      78.132  12.998  19.886  1.00  0.00    -0.550 OA
ENDBRANCH   4   5
ENDBRANCH   3   4
ENDBRANCH   2   3
ENDBRANCH   1   2
BRANCH   1   8
ATOM      8  C   UNL     1      75.102  13.921  17.769  1.00  0.00     0.000 C 
BRANCH   8   9
ATOM      9  C   UNL     1      75.391  13.158  16.467  1.00  0.00     0.000 C 
BRANCH   9  10
ATOM     10  C   UNL     1      75.513  14.124  15.282  1.00  0.00     0.006 C 
BRANCH  10  11
ATOM     11  C   UNL     1      76.112  15.463  15.723  1.00  0.00     0.053 C 
BRANCH  11  12
ATOM     12  C   UNL     1      75.263  16.599  15.248  1.00  0.00     0.041 C 
ATOM     13  O   UNL     1      75.797  17.669  14.857  1.00  0.00    -0.550 OA
ATOM     14  O   UNL     1      73.878  16.493  15.285  1.00  0.00    -0.550 OA
ENDBRANCH  11  12
ENDBRANCH  10  11
ENDBRANCH   9  10
ENDBRANCH   8   9
ENDBRANCH   1   8
TORSDOF 9
ENDMDL
MODEL 8
REMARK VINA RESULT:    -4.490      2.573      2.887
REMARK INTER + INTRA:          -7.485
REMARK INTER:                  -7.019
REMARK INTRA:                  -0.466
REMARK UNBOUND:                -0.632
REMARK SMILES O=C([O-])CCCCCCCCC(=O)[O-]
REMARK SMILES IDX 7 1 6 2 5 3 4 4 2 5 1 6 3 7 8 8 9 9 10 10 11 11 12 12 13 13
REMARK SMILES IDX 14 14
REMARK H PARENT
REMARK Flexibility Score: inf
ROOT
ATOM      1  C   UNL     1      74.473  12.145  19.335  1.00  0.00     0.000 C 
ENDROOT
BRANCH   1   2
ATOM      2  C   UNL     1      73.801  13.190  18.427  1.00  0.00     0.000 C 
BRANCH   2   3
ATOM      3  C   UNL     1      74.605  13.465  17.143  1.00  0.00     0.006 C 
BRANCH   3   4
ATOM      4  C   UNL     1      74.981  14.942  16.932  1.00  0.00     0.053 C 
BRANCH   4   5
ATOM      5  C   UNL     1      75.220  15.261  15.489  1.00  0.00     0.041 C 
ATOM      6  O   UNL     1      75.804  14.430  14.744  1.00  0.00    -0.550 OA
ATOM      7  O   UNL     1      74.830  16.491  14.974  1.00  0.00    -0.550 OA
ENDBRANCH   4   5
ENDBRANCH   3   4
ENDBRANCH   2   3
ENDBRANCH   1   2
BRANCH   1   8
ATOM      8  C   UNL     1      75.992  12.355  19.452  1.00  0.00     0.000 C 
BRANCH   8   9
ATOM      9  C   UNL     1      76.636  11.456  20.518  1.00  0.00     0.000 C 
BRANCH   9  10
ATOM     10  C   UNL     1      77.076  10.117  19.912  1.00  0.00     0.006 C 
BRANCH  10  11
ATOM     11  C   UNL     1      78.000  10.334  18.710  1.00  0.00     0.053 C 
BRANCH  11  12
ATOM     12  C   UNL     1      77.468   9.624  17.506  1.00  0.00     0.041 C 
ATOM     13  O   UNL     1      77.301   8.377  17.528  1.00  0.00    -0.550 OA
ATOM     14  O   UNL     1      77.205  10.334  16.341  1.00  0.00    -0.550 OA
ENDBRANCH  11  12
ENDBRANCH  10  11
ENDBRANCH   9  10
ENDBRANCH   8   9
ENDBRANCH   1   8
TORSDOF 9
ENDMDL
MODEL 9
REMARK VINA RESULT:    -4.344      2.328      5.471
REMARK INTER + INTRA:          -7.261
REMARK INTER:                  -6.689
REMARK INTRA:                  -0.571
REMARK UNBOUND:                -0.632
REMARK SMILES O=C([O-])CCCCCCCCC(=O)[O-]
REMARK SMILES IDX 7 1 6 2 5 3 4 4 2 5 1 6 3 7 8 8 9 9 10 10 11 11 12 12 13 13
REMARK SMILES IDX 14 14
REMARK H PARENT
REMARK Flexibility Score: inf
ROOT
ATOM      1  C   UNL     1      74.423  11.893  19.374  1.00  0.00     0.000 C 
ENDROOT
BRANCH   1   2
ATOM      2  C   UNL     1      75.743  12.011  20.157  1.00  0.00     0.000 C 
BRANCH   2   3
ATOM      3  C   UNL     1      76.670  10.799  19.946  1.00  0.00     0.006 C 
BRANCH   3   4
ATOM      4  C   UNL     1      76.404  10.013  18.652  1.00  0.00     0.053 C 
BRANCH   4   5
ATOM      5  C   UNL     1      77.671   9.547  18.005  1.00  0.00     0.041 C 
ATOM      6  O   UNL     1      78.767   9.638  18.620  1.00  0.00    -0.550 OA
ATOM      7  O   UNL     1      77.648   9.043  16.711  1.00  0.00    -0.550 OA
ENDBRANCH   4   5
ENDBRANCH   3   4
ENDBRANCH   2   3
ENDBRANCH   1   2
BRANCH   1   8
ATOM      8  C   UNL     1      74.044  13.200  18.658  1.00  0.00     0.000 C 
BRANCH   8   9
ATOM      9  C   UNL     1      74.962  13.513  17.467  1.00  0.00     0.000 C 
BRANCH   9  10
ATOM     10  C   UNL     1      75.860  14.719  17.770  1.00  0.00     0.006 C 
BRANCH  10  11
ATOM     11  C   UNL     1      75.280  16.002  17.166  1.00  0.00     0.053 C 
BRANCH  11  12
ATOM     12  C   UNL     1      75.580  16.074  15.703  1.00  0.00     0.041 C 
ATOM     13  O   UNL     1      74.724  16.534  14.902  1.00  0.00    -0.550 OA
ATOM     14  O   UNL     1      76.786  15.587  15.216  1.00  0.00    -0.550 OA
ENDBRANCH  11  12
ENDBRANCH  10  11
ENDBRANCH   9  10
ENDBRANCH   8   9
ENDBRANCH   1   8
TORSDOF 9
ENDMDL
