MODEL 1
REMARK VINA RESULT:    -5.350      0.000      0.000
REMARK INTER + INTRA:          -6.158
REMARK INTER:                  -5.975
REMARK INTRA:                  -0.183
REMARK UNBOUND:                -0.183
REMARK SMILES CC(C)c1ccc(C=O)cc1
REMARK SMILES IDX 4 1 5 2 6 3 7 4 10 5 11 6 2 7 1 8 3 9 8 10 9 11
REMARK H PARENT
REMARK Flexibility Score: inf
ROOT
ATOM      1  C   UNL     1       8.834   0.190  35.177  1.00  0.00    -0.045 A 
ATOM      2  C   UNL     1       9.523  -0.274  34.042  1.00  0.00     0.005 A 
ATOM      3  C   UNL     1      10.884  -0.003  33.876  1.00  0.00     0.012 A 
ATOM      4  C   UNL     1      11.584   0.737  34.840  1.00  0.00     0.014 A 
ATOM      5  C   UNL     1      10.901   1.203  35.975  1.00  0.00     0.012 A 
ATOM      6  C   UNL     1       9.540   0.932  36.142  1.00  0.00     0.005 A 
ENDROOT
BRANCH   1   7
ATOM      7  C   UNL     1       7.357  -0.112  35.344  1.00  0.00     0.013 C 
ATOM      8  C   UNL     1       7.128  -1.599  35.644  1.00  0.00     0.012 C 
ATOM      9  C   UNL     1       6.732   0.772  36.429  1.00  0.00     0.012 C 
ENDBRANCH   1   7
BRANCH   4  10
ATOM     10  C   UNL     1      13.018   1.013  34.647  1.00  0.00     0.260 C 
ATOM     11  O   UNL     1      13.409   1.882  33.823  1.00  0.00    -0.298 OA
ENDBRANCH   4  10
TORSDOF 2
ENDMDL
MODEL 2
REMARK VINA RESULT:    -5.349      2.563      4.803
REMARK INTER + INTRA:          -6.157
REMARK INTER:                  -5.965
REMARK INTRA:                  -0.192
REMARK UNBOUND:                -0.183
REMARK SMILES CC(C)c1ccc(C=O)cc1
REMARK SMILES IDX 4 1 5 2 6 3 7 4 10 5 11 6 2 7 1 8 3 9 8 10 9 11
REMARK H PARENT
REMARK Flexibility Score: inf
ROOT
ATOM      1  C   UNL     1      10.959   1.083  35.154  1.00  0.00    -0.045 A 
ATOM      2  C   UNL     1      10.152   0.270  34.339  1.00  0.00     0.005 A 
ATOM      3  C   UNL     1       8.803   0.069  34.648  1.00  0.00     0.012 A 
ATOM      4  C   UNL     1       8.235   0.678  35.777  1.00  0.00     0.014 A 
ATOM      5  C   UNL     1       9.037   1.491  36.594  1.00  0.00     0.012 A 
ATOM      6  C   UNL     1      10.386   1.692  36.286  1.00  0.00     0.005 A 
ENDROOT
BRANCH   1   7
ATOM      7  C   UNL     1      12.421   1.292  34.807  1.00  0.00     0.013 C 
ATOM      8  C   UNL     1      13.171   1.971  35.959  1.00  0.00     0.012 C 
ATOM      9  C   UNL     1      13.090  -0.032  34.417  1.00  0.00     0.012 C 
ENDBRANCH   1   7
BRANCH   4  10
ATOM     10  C   UNL     1       6.812   0.454  36.086  1.00  0.00     0.260 C 
ATOM     11  O   UNL     1       6.315  -0.703  36.067  1.00  0.00    -0.298 OA
ENDBRANCH   4  10
TORSDOF 2
ENDMDL
MODEL 3
REMARK VINA RESULT:    -5.339      0.673      1.606
REMARK INTER + INTRA:          -6.146
REMARK INTER:                  -5.957
REMARK INTRA:                  -0.189
REMARK UNBOUND:                -0.183
REMARK SMILES CC(C)c1ccc(C=O)cc1
REMARK SMILES IDX 4 1 5 2 6 3 7 4 10 5 11 6 2 7 1 8 3 9 8 10 9 11
REMARK H PARENT
REMARK Flexibility Score: inf
ROOT
ATOM      1  C   UNL     1       8.825   0.207  35.263  1.00  0.00    -0.045 A 
ATOM      2  C   UNL     1       9.428   0.970  36.279  1.00  0.00     0.005 A 
ATOM      3  C   UNL     1      10.782   1.310  36.204  1.00  0.00     0.012 A 
ATOM      4  C   UNL     1      11.559   0.895  35.113  1.00  0.00     0.014 A 
ATOM      5  C   UNL     1      10.963   0.133  34.096  1.00  0.00     0.012 A 
ATOM      6  C   UNL     1       9.609  -0.208  34.170  1.00  0.00     0.005 A 
ENDROOT
BRANCH   1   7
ATOM      7  C   UNL     1       7.355  -0.155  35.357  1.00  0.00     0.013 C 
ATOM      8  C   UNL     1       7.172  -1.646  35.663  1.00  0.00     0.012 C 
ATOM      9  C   UNL     1       6.638   0.715  36.397  1.00  0.00     0.012 C 
ENDBRANCH   1   7
BRANCH   4  10
ATOM     10  C   UNL     1      12.985   1.264  35.053  1.00  0.00     0.260 C 
ATOM     11  O   UNL     1      13.499   2.022  35.917  1.00  0.00    -0.298 OA
ENDBRANCH   4  10
TORSDOF 2
ENDMDL
MODEL 4
REMARK VINA RESULT:    -5.339      2.555      4.994
REMARK INTER + INTRA:          -6.146
REMARK INTER:                  -5.956
REMARK INTRA:                  -0.190
REMARK UNBOUND:                -0.183
REMARK SMILES CC(C)c1ccc(C=O)cc1
REMARK SMILES IDX 4 1 5 2 6 3 7 4 10 5 11 6 2 7 1 8 3 9 8 10 9 11
REMARK H PARENT
REMARK Flexibility Score: inf
ROOT
ATOM      1  C   UNL     1      10.788   0.816  34.869  1.00  0.00    -0.045 A 
ATOM      2  C   UNL     1      10.180   1.240  36.064  1.00  0.00     0.005 A 
ATOM      3  C   UNL     1       8.861   0.883  36.356  1.00  0.00     0.012 A 
ATOM      4  C   UNL     1       8.123   0.095  35.461  1.00  0.00     0.014 A 
ATOM      5  C   UNL     1       8.724  -0.330  34.265  1.00  0.00     0.012 A 
ATOM      6  C   UNL     1      10.044   0.026  33.972  1.00  0.00     0.005 A 
ENDROOT
BRANCH   1   7
ATOM      7  C   UNL     1      12.221   1.211  34.565  1.00  0.00     0.013 C 
ATOM      8  C   UNL     1      12.769   2.166  35.632  1.00  0.00     0.012 C 
ATOM      9  C   UNL     1      13.116  -0.026  34.419  1.00  0.00     0.012 C 
ENDBRANCH   1   7
BRANCH   4  10
ATOM     10  C   UNL     1       6.733  -0.270  35.786  1.00  0.00     0.260 C 
ATOM     11  O   UNL     1       5.974   0.530  36.395  1.00  0.00    -0.298 OA
ENDBRANCH   4  10
TORSDOF 2
ENDMDL
MODEL 5
REMARK VINA RESULT:    -5.264      2.507      4.952
REMARK INTER + INTRA:          -6.062
REMARK INTER:                  -5.868
REMARK INTRA:                  -0.194
REMARK UNBOUND:                -0.183
REMARK SMILES CC(C)c1ccc(C=O)cc1
REMARK SMILES IDX 4 1 5 2 6 3 7 4 10 5 11 6 2 7 1 8 3 9 8 10 9 11
REMARK H PARENT
REMARK Flexibility Score: inf
ROOT
ATOM      1  C   UNL     1      11.345   1.464  35.333  1.00  0.00    -0.045 A 
ATOM      2  C   UNL     1      10.468   1.778  36.387  1.00  0.00     0.005 A 
ATOM      3  C   UNL     1       9.196   1.201  36.449  1.00  0.00     0.012 A 
ATOM      4  C   UNL     1       8.776   0.300  35.460  1.00  0.00     0.014 A 
ATOM      5  C   UNL     1       9.647  -0.017  34.405  1.00  0.00     0.012 A 
ATOM      6  C   UNL     1      10.919   0.560  34.342  1.00  0.00     0.005 A 
ENDROOT
BRANCH   1   7
ATOM      7  C   UNL     1      12.722   2.098  35.279  1.00  0.00     0.013 C 
ATOM      8  C   UNL     1      13.372   1.889  33.906  1.00  0.00     0.012 C 
ATOM      9  C   UNL     1      12.659   3.588  35.639  1.00  0.00     0.012 C 
ENDBRANCH   1   7
BRANCH   4  10
ATOM     10  C   UNL     1       7.431  -0.298  35.543  1.00  0.00     0.260 C 
ATOM     11  O   UNL     1       6.489   0.297  36.131  1.00  0.00    -0.298 OA
ENDBRANCH   4  10
TORSDOF 2
ENDMDL
MODEL 6
REMARK VINA RESULT:    -5.212      4.011      6.337
REMARK INTER + INTRA:          -6.004
REMARK INTER:                  -5.822
REMARK INTRA:                  -0.182
REMARK UNBOUND:                -0.183
REMARK SMILES CC(C)c1ccc(C=O)cc1
REMARK SMILES IDX 4 1 5 2 6 3 7 4 10 5 11 6 2 7 1 8 3 9 8 10 9 11
REMARK H PARENT
REMARK Flexibility Score: inf
ROOT
ATOM      1  C   UNL     1       7.032  -0.205  35.771  1.00  0.00    -0.045 A 
ATOM      2  C   UNL     1       5.872   0.390  36.297  1.00  0.00     0.005 A 
ATOM      3  C   UNL     1       4.824  -0.399  36.780  1.00  0.00     0.012 A 
ATOM      4  C   UNL     1       4.915  -1.798  36.747  1.00  0.00     0.014 A 
ATOM      5  C   UNL     1       6.071  -2.398  36.222  1.00  0.00     0.012 A 
ATOM      6  C   UNL     1       7.119  -1.610  35.738  1.00  0.00     0.005 A 
ENDROOT
BRANCH   1   7
ATOM      7  C   UNL     1       8.162   0.664  35.250  1.00  0.00     0.013 C 
ATOM      8  C   UNL     1       9.051   1.159  36.397  1.00  0.00     0.012 C 
ATOM      9  C   UNL     1       8.987  -0.079  34.192  1.00  0.00     0.012 C 
ENDBRANCH   1   7
BRANCH   4  10
ATOM     10  C   UNL     1       3.799  -2.613  37.260  1.00  0.00     0.260 C 
ATOM     11  O   UNL     1       3.270  -2.362  38.375  1.00  0.00    -0.298 OA
ENDBRANCH   4  10
TORSDOF 2
ENDMDL
MODEL 7
REMARK VINA RESULT:    -5.177      3.004      4.768
REMARK INTER + INTRA:          -5.965
REMARK INTER:                  -5.771
REMARK INTRA:                  -0.194
REMARK UNBOUND:                -0.183
REMARK SMILES CC(C)c1ccc(C=O)cc1
REMARK SMILES IDX 4 1 5 2 6 3 7 4 10 5 11 6 2 7 1 8 3 9 8 10 9 11
REMARK H PARENT
REMARK Flexibility Score: inf
ROOT
ATOM      1  C   UNL     1       4.876  -1.695  36.779  1.00  0.00    -0.045 A 
ATOM      2  C   UNL     1       5.962  -2.420  36.258  1.00  0.00     0.005 A 
ATOM      3  C   UNL     1       7.064  -1.756  35.711  1.00  0.00     0.012 A 
ATOM      4  C   UNL     1       7.102  -0.355  35.675  1.00  0.00     0.014 A 
ATOM      5  C   UNL     1       6.020   0.375  36.194  1.00  0.00     0.012 A 
ATOM      6  C   UNL     1       4.917  -0.289  36.740  1.00  0.00     0.005 A 
ENDROOT
BRANCH   1   7
ATOM      7  C   UNL     1       3.686  -2.429  37.368  1.00  0.00     0.013 C 
ATOM      8  C   UNL     1       4.119  -3.747  38.022  1.00  0.00     0.012 C 
ATOM      9  C   UNL     1       2.928  -1.542  38.363  1.00  0.00     0.012 C 
ENDBRANCH   1   7
BRANCH   4  10
ATOM     10  C   UNL     1       8.273   0.327  35.095  1.00  0.00     0.260 C 
ATOM     11  O   UNL     1       8.543   1.521  35.391  1.00  0.00    -0.298 OA
ENDBRANCH   4  10
TORSDOF 2
ENDMDL
MODEL 8
REMARK VINA RESULT:    -5.000      6.815      9.157
REMARK INTER + INTRA:          -5.768
REMARK INTER:                  -5.585
REMARK INTRA:                  -0.183
REMARK UNBOUND:                -0.183
REMARK SMILES CC(C)c1ccc(C=O)cc1
REMARK SMILES IDX 4 1 5 2 6 3 7 4 10 5 11 6 2 7 1 8 3 9 8 10 9 11
REMARK H PARENT
REMARK Flexibility Score: inf
ROOT
ATOM      1  C   UNL     1       3.884  -2.707  37.620  1.00  0.00    -0.045 A 
ATOM      2  C   UNL     1       3.690  -3.671  38.626  1.00  0.00     0.005 A 
ATOM      3  C   UNL     1       3.036  -3.335  39.815  1.00  0.00     0.012 A 
ATOM      4  C   UNL     1       2.564  -2.031  40.023  1.00  0.00     0.014 A 
ATOM      5  C   UNL     1       2.755  -1.065  39.022  1.00  0.00     0.012 A 
ATOM      6  C   UNL     1       3.409  -1.400  37.832  1.00  0.00     0.005 A 
ENDROOT
BRANCH   1   7
ATOM      7  C   UNL     1       4.595  -3.086  36.334  1.00  0.00     0.013 C 
ATOM      8  C   UNL     1       6.072  -2.676  36.379  1.00  0.00     0.012 C 
ATOM      9  C   UNL     1       4.446  -4.583  36.041  1.00  0.00     0.012 C 
ENDBRANCH   1   7
BRANCH   4  10
ATOM     10  C   UNL     1       1.877  -1.697  41.283  1.00  0.00     0.260 C 
ATOM     11  O   UNL     1       0.741  -2.169  41.551  1.00  0.00    -0.298 OA
ENDBRANCH   4  10
TORSDOF 2
ENDMDL
MODEL 9
REMARK VINA RESULT:    -4.942      1.644      2.751
REMARK INTER + INTRA:          -5.703
REMARK INTER:                  -5.522
REMARK INTRA:                  -0.181
REMARK UNBOUND:                -0.183
REMARK SMILES CC(C)c1ccc(C=O)cc1
REMARK SMILES IDX 4 1 5 2 6 3 7 4 10 5 11 6 2 7 1 8 3 9 8 10 9 11
REMARK H PARENT
REMARK Flexibility Score: inf
ROOT
ATOM      1  C   UNL     1      10.797   1.480  35.544  1.00  0.00    -0.045 A 
ATOM      2  C   UNL     1      10.502   2.247  34.403  1.00  0.00     0.005 A 
ATOM      3  C   UNL     1      11.528   2.806  33.637  1.00  0.00     0.012 A 
ATOM      4  C   UNL     1      12.870   2.609  33.995  1.00  0.00     0.014 A 
ATOM      5  C   UNL     1      13.171   1.845  35.134  1.00  0.00     0.012 A 
ATOM      6  C   UNL     1      12.145   1.286  35.901  1.00  0.00     0.005 A 
ENDROOT
BRANCH   1   7
ATOM      7  C   UNL     1       9.673   0.880  36.367  1.00  0.00     0.013 C 
ATOM      8  C   UNL     1       9.149   1.883  37.402  1.00  0.00     0.012 C 
ATOM      9  C   UNL     1       8.540   0.373  35.467  1.00  0.00     0.012 C 
ENDBRANCH   1   7
BRANCH   4  10
ATOM     10  C   UNL     1      13.938   3.207  33.174  1.00  0.00     0.260 C 
ATOM     11  O   UNL     1      14.745   2.485  32.529  1.00  0.00    -0.298 OA
ENDBRANCH   4  10
TORSDOF 2
ENDMDL
