MODEL 1
REMARK VINA RESULT:    -4.588      0.000      0.000
REMARK INTER + INTRA:          -7.754
REMARK INTER:                  -7.002
REMARK INTRA:                  -0.751
REMARK UNBOUND:                -0.751
REMARK SMILES CCCCCCCCCCC(=O)[O-]
REMARK SMILES IDX 7 1 8 2 9 3 10 4 11 5 12 6 13 7 6 8 5 9 4 10 3 11 2 12 1 13
REMARK H PARENT
REMARK Flexibility Score: inf
ROOT
ATOM      1  C   UNL     1     -22.185 -28.129  38.198  1.00  0.00     0.000 C 
ENDROOT
BRANCH   1   2
ATOM      2  C   UNL     1     -21.157 -27.017  38.455  1.00  0.00     0.000 C 
BRANCH   2   3
ATOM      3  C   UNL     1     -21.184 -26.574  39.925  1.00  0.00     0.006 C 
BRANCH   3   4
ATOM      4  C   UNL     1     -20.677 -25.137  40.108  1.00  0.00     0.053 C 
BRANCH   4   5
ATOM      5  C   UNL     1     -21.775 -24.208  40.525  1.00  0.00     0.041 C 
ATOM      6  O   UNL     1     -22.126 -23.263  39.770  1.00  0.00    -0.550 OA
ATOM      7  O   UNL     1     -22.388 -24.364  41.762  1.00  0.00    -0.550 OA
ENDBRANCH   4   5
ENDBRANCH   3   4
ENDBRANCH   2   3
ENDBRANCH   1   2
BRANCH   1   8
ATOM      8  C   UNL     1     -22.729 -28.745  39.496  1.00  0.00     0.000 C 
BRANCH   8   9
ATOM      9  C   UNL     1     -24.163 -29.283  39.344  1.00  0.00    -0.000 C 
BRANCH   9  10
ATOM     10  C   UNL     1     -25.138 -28.631  40.348  1.00  0.00    -0.000 C 
BRANCH  10  11
ATOM     11  C   UNL     1     -24.439 -27.767  41.412  1.00  0.00    -0.000 C 
BRANCH  11  12
ATOM     12  C   UNL     1     -25.255 -26.529  41.806  1.00  0.00    -0.003 C 
ATOM     13  C   UNL     1     -26.680 -26.616  41.269  1.00  0.00     0.004 C 
ENDBRANCH  11  12
ENDBRANCH  10  11
ENDBRANCH   9  10
ENDBRANCH   8   9
ENDBRANCH   1   8
TORSDOF 9
ENDMDL
MODEL 2
REMARK VINA RESULT:    -4.536      0.746      1.463
REMARK INTER + INTRA:          -7.674
REMARK INTER:                  -6.814
REMARK INTRA:                  -0.860
REMARK UNBOUND:                -0.751
REMARK SMILES CCCCCCCCCCC(=O)[O-]
REMARK SMILES IDX 7 1 8 2 9 3 10 4 11 5 12 6 13 7 6 8 5 9 4 10 3 11 2 12 1 13
REMARK H PARENT
REMARK Flexibility Score: inf
ROOT
ATOM      1  C   UNL     1     -21.120 -26.977  38.389  1.00  0.00     0.000 C 
ENDROOT
BRANCH   1   2
ATOM      2  C   UNL     1     -21.108 -26.510  39.852  1.00  0.00     0.000 C 
BRANCH   2   3
ATOM      3  C   UNL     1     -20.446 -25.131  39.982  1.00  0.00     0.006 C 
BRANCH   3   4
ATOM      4  C   UNL     1     -21.334 -24.006  39.431  1.00  0.00     0.053 C 
BRANCH   4   5
ATOM      5  C   UNL     1     -22.375 -23.582  40.421  1.00  0.00     0.041 C 
ATOM      6  O   UNL     1     -23.403 -22.966  40.034  1.00  0.00    -0.550 OA
ATOM      7  O   UNL     1     -22.194 -23.837  41.775  1.00  0.00    -0.550 OA
ENDBRANCH   4   5
ENDBRANCH   3   4
ENDBRANCH   2   3
ENDBRANCH   1   2
BRANCH   1   8
ATOM      8  C   UNL     1     -22.081 -28.152  38.149  1.00  0.00     0.000 C 
BRANCH   8   9
ATOM      9  C   UNL     1     -22.745 -28.651  39.445  1.00  0.00    -0.000 C 
BRANCH   9  10
ATOM     10  C   UNL     1     -24.237 -28.990  39.240  1.00  0.00    -0.000 C 
BRANCH  10  11
ATOM     11  C   UNL     1     -25.140 -28.515  40.392  1.00  0.00    -0.000 C 
BRANCH  11  12
ATOM     12  C   UNL     1     -24.368 -27.762  41.484  1.00  0.00    -0.003 C 
ATOM     13  C   UNL     1     -24.783 -26.295  41.538  1.00  0.00     0.004 C 
ENDBRANCH  11  12
ENDBRANCH  10  11
ENDBRANCH   9  10
ENDBRANCH   8   9
ENDBRANCH   1   8
TORSDOF 9
ENDMDL
MODEL 3
REMARK VINA RESULT:    -4.532      2.895      4.644
REMARK INTER + INTRA:          -7.668
REMARK INTER:                  -6.818
REMARK INTRA:                  -0.850
REMARK UNBOUND:                -0.751
REMARK SMILES CCCCCCCCCCC(=O)[O-]
REMARK SMILES IDX 7 1 8 2 9 3 10 4 11 5 12 6 13 7 6 8 5 9 4 10 3 11 2 12 1 13
REMARK H PARENT
REMARK Flexibility Score: inf
ROOT
ATOM      1  C   UNL     1     -21.152 -26.864  38.494  1.00  0.00     0.000 C 
ENDROOT
BRANCH   1   2
ATOM      2  C   UNL     1     -21.875 -28.184  38.191  1.00  0.00     0.000 C 
BRANCH   2   3
ATOM      3  C   UNL     1     -22.953 -28.473  39.245  1.00  0.00     0.006 C 
BRANCH   3   4
ATOM      4  C   UNL     1     -24.278 -28.924  38.614  1.00  0.00     0.053 C 
BRANCH   4   5
ATOM      5  C   UNL     1     -24.993 -29.921  39.472  1.00  0.00     0.041 C 
ATOM      6  O   UNL     1     -24.885 -29.871  40.726  1.00  0.00    -0.550 OA
ATOM      7  O   UNL     1     -25.753 -30.927  38.888  1.00  0.00    -0.550 OA
ENDBRANCH   4   5
ENDBRANCH   3   4
ENDBRANCH   2   3
ENDBRANCH   1   2
BRANCH   1   8
ATOM      8  C   UNL     1     -21.167 -26.508  39.988  1.00  0.00     0.000 C 
BRANCH   8   9
ATOM      9  C   UNL     1     -20.979 -25.002  40.243  1.00  0.00    -0.000 C 
BRANCH   9  10
ATOM     10  C   UNL     1     -22.313 -24.297  40.567  1.00  0.00    -0.000 C 
BRANCH  10  11
ATOM     11  C   UNL     1     -23.066 -24.919  41.756  1.00  0.00    -0.000 C 
BRANCH  11  12
ATOM     12  C   UNL     1     -24.505 -25.322  41.407  1.00  0.00    -0.003 C 
ATOM     13  C   UNL     1     -24.895 -26.625  42.099  1.00  0.00     0.004 C 
ENDBRANCH  11  12
ENDBRANCH  10  11
ENDBRANCH   9  10
ENDBRANCH   8   9
ENDBRANCH   1   8
TORSDOF 9
ENDMDL
MODEL 4
REMARK VINA RESULT:    -4.527      2.616      5.449
REMARK INTER + INTRA:          -7.660
REMARK INTER:                  -6.877
REMARK INTRA:                  -0.782
REMARK UNBOUND:                -0.751
REMARK SMILES CCCCCCCCCCC(=O)[O-]
REMARK SMILES IDX 7 1 8 2 9 3 10 4 11 5 12 6 13 7 6 8 5 9 4 10 3 11 2 12 1 13
REMARK H PARENT
REMARK Flexibility Score: inf
ROOT
ATOM      1  C   UNL     1     -23.245 -25.684  41.416  1.00  0.00     0.000 C 
ENDROOT
BRANCH   1   2
ATOM      2  C   UNL     1     -24.774 -25.579  41.524  1.00  0.00     0.000 C 
BRANCH   2   3
ATOM      3  C   UNL     1     -25.396 -26.948  41.833  1.00  0.00     0.006 C 
BRANCH   3   4
ATOM      4  C   UNL     1     -26.008 -27.604  40.587  1.00  0.00     0.053 C 
BRANCH   4   5
ATOM      5  C   UNL     1     -25.463 -28.979  40.356  1.00  0.00     0.041 C 
ATOM      6  O   UNL     1     -26.001 -29.740  39.509  1.00  0.00    -0.550 OA
ATOM      7  O   UNL     1     -24.382 -29.435  41.101  1.00  0.00    -0.550 OA
ENDBRANCH   4   5
ENDBRANCH   3   4
ENDBRANCH   2   3
ENDBRANCH   1   2
BRANCH   1   8
ATOM      8  C   UNL     1     -22.606 -24.427  40.806  1.00  0.00     0.000 C 
BRANCH   8   9
ATOM      9  C   UNL     1     -21.180 -24.679  40.282  1.00  0.00    -0.000 C 
BRANCH   9  10
ATOM     10  C   UNL     1     -20.906 -26.180  40.046  1.00  0.00    -0.000 C 
BRANCH  10  11
ATOM     11  C   UNL     1     -20.291 -26.484  38.669  1.00  0.00    -0.000 C 
BRANCH  11  12
ATOM     12  C   UNL     1     -21.215 -27.321  37.774  1.00  0.00    -0.003 C 
ATOM     13  C   UNL     1     -22.217 -28.113  38.608  1.00  0.00     0.004 C 
ENDBRANCH  11  12
ENDBRANCH  10  11
ENDBRANCH   9  10
ENDBRANCH   8   9
ENDBRANCH   1   8
TORSDOF 9
ENDMDL
MODEL 5
REMARK VINA RESULT:    -4.497      2.484      4.802
REMARK INTER + INTRA:          -7.614
REMARK INTER:                  -6.852
REMARK INTRA:                  -0.762
REMARK UNBOUND:                -0.751
REMARK SMILES CCCCCCCCCCC(=O)[O-]
REMARK SMILES IDX 7 1 8 2 9 3 10 4 11 5 12 6 13 7 6 8 5 9 4 10 3 11 2 12 1 13
REMARK H PARENT
REMARK Flexibility Score: inf
ROOT
ATOM      1  C   UNL     1     -21.874 -27.841  38.475  1.00  0.00     0.000 C 
ENDROOT
BRANCH   1   2
ATOM      2  C   UNL     1     -22.454 -27.865  39.897  1.00  0.00     0.000 C 
BRANCH   2   3
ATOM      3  C   UNL     1     -22.964 -29.268  40.257  1.00  0.00     0.006 C 
BRANCH   3   4
ATOM      4  C   UNL     1     -24.142 -29.224  41.241  1.00  0.00     0.053 C 
BRANCH   4   5
ATOM      5  C   UNL     1     -25.398 -28.741  40.585  1.00  0.00     0.041 C 
ATOM      6  O   UNL     1     -25.913 -29.397  39.641  1.00  0.00    -0.550 OA
ATOM      7  O   UNL     1     -25.983 -27.548  40.992  1.00  0.00    -0.550 OA
ENDBRANCH   4   5
ENDBRANCH   3   4
ENDBRANCH   2   3
ENDBRANCH   1   2
BRANCH   1   8
ATOM      8  C   UNL     1     -20.822 -26.737  38.283  1.00  0.00     0.000 C 
BRANCH   8   9
ATOM      9  C   UNL     1     -20.189 -26.281  39.610  1.00  0.00    -0.000 C 
BRANCH   9  10
ATOM     10  C   UNL     1     -20.215 -24.746  39.768  1.00  0.00    -0.000 C 
BRANCH  10  11
ATOM     11  C   UNL     1     -21.458 -24.084  39.149  1.00  0.00    -0.000 C 
BRANCH  11  12
ATOM     12  C   UNL     1     -22.365 -23.421  40.195  1.00  0.00    -0.003 C 
ATOM     13  C   UNL     1     -22.467 -24.276  41.454  1.00  0.00     0.004 C 
ENDBRANCH  11  12
ENDBRANCH  10  11
ENDBRANCH   9  10
ENDBRANCH   8   9
ENDBRANCH   1   8
TORSDOF 9
ENDMDL
MODEL 6
REMARK VINA RESULT:    -4.491      1.150      3.758
REMARK INTER + INTRA:          -7.605
REMARK INTER:                  -6.795
REMARK INTRA:                  -0.810
REMARK UNBOUND:                -0.751
REMARK SMILES CCCCCCCCCCC(=O)[O-]
REMARK SMILES IDX 7 1 8 2 9 3 10 4 11 5 12 6 13 7 6 8 5 9 4 10 3 11 2 12 1 13
REMARK H PARENT
REMARK Flexibility Score: inf
ROOT
ATOM      1  C   UNL     1     -25.201 -27.703  41.228  1.00  0.00     0.000 C 
ENDROOT
BRANCH   1   2
ATOM      2  C   UNL     1     -26.278 -26.609  41.275  1.00  0.00     0.000 C 
BRANCH   2   3
ATOM      3  C   UNL     1     -25.647 -25.228  41.508  1.00  0.00     0.006 C 
BRANCH   3   4
ATOM      4  C   UNL     1     -24.125 -25.307  41.686  1.00  0.00     0.053 C 
BRANCH   4   5
ATOM      5  C   UNL     1     -23.446 -24.046  41.250  1.00  0.00     0.041 C 
ATOM      6  O   UNL     1     -24.107 -23.135  40.683  1.00  0.00    -0.550 OA
ATOM      7  O   UNL     1     -22.079 -23.889  41.437  1.00  0.00    -0.550 OA
ENDBRANCH   4   5
ENDBRANCH   3   4
ENDBRANCH   2   3
ENDBRANCH   1   2
BRANCH   1   8
ATOM      8  C   UNL     1     -25.620 -28.911  40.377  1.00  0.00     0.000 C 
BRANCH   8   9
ATOM      9  C   UNL     1     -24.592 -29.253  39.283  1.00  0.00    -0.000 C 
BRANCH   9  10
ATOM     10  C   UNL     1     -23.140 -29.158  39.801  1.00  0.00    -0.000 C 
BRANCH  10  11
ATOM     11  C   UNL     1     -22.269 -28.168  39.010  1.00  0.00    -0.000 C 
BRANCH  11  12
ATOM     12  C   UNL     1     -21.614 -27.104  39.901  1.00  0.00    -0.003 C 
ATOM     13  C   UNL     1     -20.586 -26.290  39.122  1.00  0.00     0.004 C 
ENDBRANCH  11  12
ENDBRANCH  10  11
ENDBRANCH   9  10
ENDBRANCH   8   9
ENDBRANCH   1   8
TORSDOF 9
ENDMDL
MODEL 7
REMARK VINA RESULT:    -4.490      2.502      4.278
REMARK INTER + INTRA:          -7.604
REMARK INTER:                  -6.692
REMARK INTRA:                  -0.912
REMARK UNBOUND:                -0.751
REMARK SMILES CCCCCCCCCCC(=O)[O-]
REMARK SMILES IDX 7 1 8 2 9 3 10 4 11 5 12 6 13 7 6 8 5 9 4 10 3 11 2 12 1 13
REMARK H PARENT
REMARK Flexibility Score: inf
ROOT
ATOM      1  C   UNL     1     -20.489 -25.234  39.760  1.00  0.00     0.000 C 
ENDROOT
BRANCH   1   2
ATOM      2  C   UNL     1     -20.821 -26.597  39.135  1.00  0.00     0.000 C 
BRANCH   2   3
ATOM      3  C   UNL     1     -21.857 -27.351  39.982  1.00  0.00     0.006 C 
BRANCH   3   4
ATOM      4  C   UNL     1     -22.517 -28.500  39.207  1.00  0.00     0.053 C 
BRANCH   4   5
ATOM      5  C   UNL     1     -23.406 -29.326  40.084  1.00  0.00     0.041 C 
ATOM      6  O   UNL     1     -24.423 -29.891  39.602  1.00  0.00    -0.550 OA
ATOM      7  O   UNL     1     -23.132 -29.444  41.441  1.00  0.00    -0.550 OA
ENDBRANCH   4   5
ENDBRANCH   3   4
ENDBRANCH   2   3
ENDBRANCH   1   2
BRANCH   1   8
ATOM      8  C   UNL     1     -21.417 -24.113  39.268  1.00  0.00     0.000 C 
BRANCH   8   9
ATOM      9  C   UNL     1     -22.082 -23.342  40.422  1.00  0.00    -0.000 C 
BRANCH   9  10
ATOM     10  C   UNL     1     -22.648 -24.288  41.503  1.00  0.00    -0.000 C 
BRANCH  10  11
ATOM     11  C   UNL     1     -24.126 -24.657  41.284  1.00  0.00    -0.000 C 
BRANCH  11  12
ATOM     12  C   UNL     1     -24.542 -25.926  42.040  1.00  0.00    -0.003 C 
ATOM     13  C   UNL     1     -25.697 -26.631  41.336  1.00  0.00     0.004 C 
ENDBRANCH  11  12
ENDBRANCH  10  11
ENDBRANCH   9  10
ENDBRANCH   8   9
ENDBRANCH   1   8
TORSDOF 9
ENDMDL
MODEL 8
REMARK VINA RESULT:    -4.466      1.988      4.421
REMARK INTER + INTRA:          -7.567
REMARK INTER:                  -6.775
REMARK INTRA:                  -0.792
REMARK UNBOUND:                -0.751
REMARK SMILES CCCCCCCCCCC(=O)[O-]
REMARK SMILES IDX 7 1 8 2 9 3 10 4 11 5 12 6 13 7 6 8 5 9 4 10 3 11 2 12 1 13
REMARK H PARENT
REMARK Flexibility Score: inf
ROOT
ATOM      1  C   UNL     1     -22.665 -28.753  40.470  1.00  0.00     0.000 C 
ENDROOT
BRANCH   1   2
ATOM      2  C   UNL     1     -24.034 -29.262  40.945  1.00  0.00     0.000 C 
BRANCH   2   3
ATOM      3  C   UNL     1     -25.113 -28.184  40.762  1.00  0.00     0.006 C 
BRANCH   3   4
ATOM      4  C   UNL     1     -25.070 -27.124  41.871  1.00  0.00     0.053 C 
BRANCH   4   5
ATOM      5  C   UNL     1     -26.247 -26.201  41.806  1.00  0.00     0.041 C 
ATOM      6  O   UNL     1     -27.415 -26.655  41.936  1.00  0.00    -0.550 OA
ATOM      7  O   UNL     1     -26.058 -24.846  41.568  1.00  0.00    -0.550 OA
ENDBRANCH   4   5
ENDBRANCH   3   4
ENDBRANCH   2   3
ENDBRANCH   1   2
BRANCH   1   8
ATOM      8  C   UNL     1     -22.630 -28.467  38.960  1.00  0.00     0.000 C 
BRANCH   8   9
ATOM      9  C   UNL     1     -21.552 -27.437  38.576  1.00  0.00    -0.000 C 
BRANCH   9  10
ATOM     10  C   UNL     1     -21.142 -26.551  39.772  1.00  0.00    -0.000 C 
BRANCH  10  11
ATOM     11  C   UNL     1     -20.856 -25.090  39.385  1.00  0.00    -0.000 C 
BRANCH  11  12
ATOM     12  C   UNL     1     -21.347 -24.087  40.438  1.00  0.00    -0.003 C 
ATOM     13  C   UNL     1     -22.531 -24.647  41.221  1.00  0.00     0.004 C 
ENDBRANCH  11  12
ENDBRANCH  10  11
ENDBRANCH   9  10
ENDBRANCH   8   9
ENDBRANCH   1   8
TORSDOF 9
ENDMDL
MODEL 9
REMARK VINA RESULT:    -4.430      2.541      5.008
REMARK INTER + INTRA:          -7.513
REMARK INTER:                  -6.738
REMARK INTRA:                  -0.775
REMARK UNBOUND:                -0.751
REMARK SMILES CCCCCCCCCCC(=O)[O-]
REMARK SMILES IDX 7 1 8 2 9 3 10 4 11 5 12 6 13 7 6 8 5 9 4 10 3 11 2 12 1 13
REMARK H PARENT
REMARK Flexibility Score: inf
ROOT
ATOM      1  C   UNL     1     -25.089 -28.146  40.540  1.00  0.00     0.000 C 
ENDROOT
BRANCH   1   2
ATOM      2  C   UNL     1     -24.473 -27.167  41.551  1.00  0.00     0.000 C 
BRANCH   2   3
ATOM      3  C   UNL     1     -25.488 -26.090  41.959  1.00  0.00     0.006 C 
BRANCH   3   4
ATOM      4  C   UNL     1     -26.939 -26.566  41.796  1.00  0.00     0.053 C 
BRANCH   4   5
ATOM      5  C   UNL     1     -27.890 -25.740  42.606  1.00  0.00     0.041 C 
ATOM      6  O   UNL     1     -29.028 -26.193  42.900  1.00  0.00    -0.550 OA
ATOM      7  O   UNL     1     -27.535 -24.458  43.006  1.00  0.00    -0.550 OA
ENDBRANCH   4   5
ENDBRANCH   3   4
ENDBRANCH   2   3
ENDBRANCH   1   2
BRANCH   1   8
ATOM      8  C   UNL     1     -24.101 -29.232  40.088  1.00  0.00     0.000 C 
BRANCH   8   9
ATOM      9  C   UNL     1     -22.647 -28.730  40.038  1.00  0.00    -0.000 C 
BRANCH   9  10
ATOM     10  C   UNL     1     -22.265 -28.197  38.640  1.00  0.00    -0.000 C 
BRANCH  10  11
ATOM     11  C   UNL     1     -21.284 -27.012  38.681  1.00  0.00    -0.000 C 
BRANCH  11  12
ATOM     12  C   UNL     1     -21.147 -26.398  40.081  1.00  0.00    -0.003 C 
ATOM     13  C   UNL     1     -21.468 -24.907  40.062  1.00  0.00     0.004 C 
ENDBRANCH  11  12
ENDBRANCH  10  11
ENDBRANCH   9  10
ENDBRANCH   8   9
ENDBRANCH   1   8
TORSDOF 9
ENDMDL
