MODEL 1
REMARK VINA RESULT:    -4.561      0.000      0.000
REMARK INTER + INTRA:          -9.590
REMARK INTER:                  -8.028
REMARK INTRA:                  -1.562
REMARK UNBOUND:                -1.562
REMARK SMILES CCCCCCCCCCCCCCC(=O)[O-]
REMARK SMILES IDX 9 1 10 2 11 3 12 4 13 5 14 6 15 7 16 8 17 9 8 10 7 11 6 12
REMARK SMILES IDX 5 13 4 14 3 15 2 16 1 17
REMARK H PARENT
REMARK Flexibility Score: inf
ROOT
ATOM      1  C   UNL     1      16.273  51.559 158.489  1.00  0.00     0.000 C 
ENDROOT
BRANCH   1   2
ATOM      2  C   UNL     1      17.471  52.461 158.821  1.00  0.00     0.000 C 
BRANCH   2   3
ATOM      3  C   UNL     1      17.264  53.180 160.159  1.00  0.00     0.000 C 
BRANCH   3   4
ATOM      4  C   UNL     1      18.480  54.051 160.509  1.00  0.00     0.000 C 
BRANCH   4   5
ATOM      5  C   UNL     1      19.669  53.814 159.564  1.00  0.00     0.006 C 
BRANCH   5   6
ATOM      6  C   UNL     1      20.969  53.506 160.319  1.00  0.00     0.053 C 
BRANCH   6   7
ATOM      7  C   UNL     1      21.788  54.749 160.474  1.00  0.00     0.041 C 
ATOM      8  O   UNL     1      22.938  54.690 160.984  1.00  0.00    -0.550 OA
ATOM      9  O   UNL     1      21.262  55.980 160.102  1.00  0.00    -0.550 OA
ENDBRANCH   6   7
ENDBRANCH   5   6
ENDBRANCH   4   5
ENDBRANCH   3   4
ENDBRANCH   2   3
ENDBRANCH   1   2
BRANCH   1  10
ATOM     10  C   UNL     1      15.030  51.875 159.340  1.00  0.00     0.000 C 
BRANCH  10  11
ATOM     11  C   UNL     1      13.904  52.617 158.596  1.00  0.00    -0.000 C 
BRANCH  11  12
ATOM     12  C   UNL     1      14.214  52.839 157.108  1.00  0.00    -0.000 C 
BRANCH  12  13
ATOM     13  C   UNL     1      13.494  54.090 156.579  1.00  0.00    -0.000 C 
BRANCH  13  14
ATOM     14  C   UNL     1      14.466  55.209 156.165  1.00  0.00    -0.000 C 
BRANCH  14  15
ATOM     15  C   UNL     1      15.934  54.987 156.583  1.00  0.00    -0.000 C 
BRANCH  15  16
ATOM     16  C   UNL     1      16.411  55.852 157.763  1.00  0.00    -0.003 C 
ATOM     17  C   UNL     1      16.220  57.348 157.519  1.00  0.00     0.004 C 
ENDBRANCH  15  16
ENDBRANCH  14  15
ENDBRANCH  13  14
ENDBRANCH  12  13
ENDBRANCH  11  12
ENDBRANCH  10  11
ENDBRANCH   1  10
TORSDOF 13
ENDMDL
MODEL 2
REMARK VINA RESULT:    -4.409      1.292      3.462
REMARK INTER + INTRA:          -9.322
REMARK INTER:                  -7.289
REMARK INTRA:                  -2.033
REMARK UNBOUND:                -1.562
REMARK SMILES CCCCCCCCCCCCCCC(=O)[O-]
REMARK SMILES IDX 9 1 10 2 11 3 12 4 13 5 14 6 15 7 16 8 17 9 8 10 7 11 6 12
REMARK SMILES IDX 5 13 4 14 3 15 2 16 1 17
REMARK H PARENT
REMARK Flexibility Score: inf
ROOT
ATOM      1  C   UNL     1      18.705  55.503 157.914  1.00  0.00     0.000 C 
ENDROOT
BRANCH   1   2
ATOM      2  C   UNL     1      19.260  54.076 158.029  1.00  0.00     0.000 C 
BRANCH   2   3
ATOM      3  C   UNL     1      18.722  53.376 159.283  1.00  0.00     0.000 C 
BRANCH   3   4
ATOM      4  C   UNL     1      18.050  54.381 160.229  1.00  0.00     0.000 C 
BRANCH   4   5
ATOM      5  C   UNL     1      18.792  54.522 161.567  1.00  0.00     0.006 C 
BRANCH   5   6
ATOM      6  C   UNL     1      20.273  54.136 161.463  1.00  0.00     0.053 C 
BRANCH   6   7
ATOM      7  C   UNL     1      21.132  55.361 161.451  1.00  0.00     0.041 C 
ATOM      8  O   UNL     1      20.762  56.388 160.823  1.00  0.00    -0.550 OA
ATOM      9  O   UNL     1      22.365  55.353 162.090  1.00  0.00    -0.550 OA
ENDBRANCH   6   7
ENDBRANCH   5   6
ENDBRANCH   4   5
ENDBRANCH   3   4
ENDBRANCH   2   3
ENDBRANCH   1   2
BRANCH   1  10
ATOM     10  C   UNL     1      17.610  55.636 156.840  1.00  0.00     0.000 C 
BRANCH  10  11
ATOM     11  C   UNL     1      16.194  55.903 157.385  1.00  0.00    -0.000 C 
BRANCH  11  12
ATOM     12  C   UNL     1      15.189  54.805 157.008  1.00  0.00    -0.000 C 
BRANCH  12  13
ATOM     13  C   UNL     1      15.911  53.576 156.434  1.00  0.00    -0.000 C 
BRANCH  13  14
ATOM     14  C   UNL     1      15.671  52.300 157.262  1.00  0.00    -0.000 C 
BRANCH  14  15
ATOM     15  C   UNL     1      14.816  52.496 158.530  1.00  0.00    -0.000 C 
BRANCH  15  16
ATOM     16  C   UNL     1      15.214  51.613 159.725  1.00  0.00    -0.003 C 
ATOM     17  C   UNL     1      16.336  50.630 159.392  1.00  0.00     0.004 C 
ENDBRANCH  15  16
ENDBRANCH  14  15
ENDBRANCH  13  14
ENDBRANCH  12  13
ENDBRANCH  11  12
ENDBRANCH  10  11
ENDBRANCH   1  10
TORSDOF 13
ENDMDL
MODEL 3
REMARK VINA RESULT:    -4.406      1.603      3.600
REMARK INTER + INTRA:          -9.317
REMARK INTER:                  -7.574
REMARK INTRA:                  -1.743
REMARK UNBOUND:                -1.562
REMARK SMILES CCCCCCCCCCCCCCC(=O)[O-]
REMARK SMILES IDX 9 1 10 2 11 3 12 4 13 5 14 6 15 7 16 8 17 9 8 10 7 11 6 12
REMARK SMILES IDX 5 13 4 14 3 15 2 16 1 17
REMARK H PARENT
REMARK Flexibility Score: inf
ROOT
ATOM      1  C   UNL     1      17.245  55.729 157.792  1.00  0.00     0.000 C 
ENDROOT
BRANCH   1   2
ATOM      2  C   UNL     1      18.070  54.710 156.992  1.00  0.00     0.000 C 
BRANCH   2   3
ATOM      3  C   UNL     1      18.310  53.435 157.810  1.00  0.00     0.000 C 
BRANCH   3   4
ATOM      4  C   UNL     1      19.080  53.746 159.101  1.00  0.00     0.000 C 
BRANCH   4   5
ATOM      5  C   UNL     1      18.193  53.660 160.354  1.00  0.00     0.006 C 
BRANCH   5   6
ATOM      6  C   UNL     1      18.774  54.439 161.542  1.00  0.00     0.053 C 
BRANCH   6   7
ATOM      7  C   UNL     1      18.778  55.906 161.251  1.00  0.00     0.041 C 
ATOM      8  O   UNL     1      19.867  56.518 161.092  1.00  0.00    -0.550 OA
ATOM      9  O   UNL     1      17.581  56.610 161.205  1.00  0.00    -0.550 OA
ENDBRANCH   6   7
ENDBRANCH   5   6
ENDBRANCH   4   5
ENDBRANCH   3   4
ENDBRANCH   2   3
ENDBRANCH   1   2
BRANCH   1  10
ATOM     10  C   UNL     1      15.844  55.966 157.198  1.00  0.00     0.000 C 
BRANCH  10  11
ATOM     11  C   UNL     1      15.424  54.966 156.104  1.00  0.00    -0.000 C 
BRANCH  11  12
ATOM     12  C   UNL     1      13.968  54.499 156.246  1.00  0.00    -0.000 C 
BRANCH  12  13
ATOM     13  C   UNL     1      13.885  52.965 156.285  1.00  0.00    -0.000 C 
BRANCH  13  14
ATOM     14  C   UNL     1      14.915  52.335 157.239  1.00  0.00    -0.000 C 
BRANCH  14  15
ATOM     15  C   UNL     1      14.692  52.640 158.734  1.00  0.00    -0.000 C 
BRANCH  15  16
ATOM     16  C   UNL     1      14.973  51.464 159.686  1.00  0.00    -0.003 C 
ATOM     17  C   UNL     1      16.269  50.726 159.355  1.00  0.00     0.004 C 
ENDBRANCH  15  16
ENDBRANCH  14  15
ENDBRANCH  13  14
ENDBRANCH  12  13
ENDBRANCH  11  12
ENDBRANCH  10  11
ENDBRANCH   1  10
TORSDOF 13
ENDMDL
MODEL 4
REMARK VINA RESULT:    -4.405      2.729      4.486
REMARK INTER + INTRA:          -9.316
REMARK INTER:                  -7.412
REMARK INTRA:                  -1.904
REMARK UNBOUND:                -1.562
REMARK SMILES CCCCCCCCCCCCCCC(=O)[O-]
REMARK SMILES IDX 9 1 10 2 11 3 12 4 13 5 14 6 15 7 16 8 17 9 8 10 7 11 6 12
REMARK SMILES IDX 5 13 4 14 3 15 2 16 1 17
REMARK H PARENT
REMARK Flexibility Score: inf
ROOT
ATOM      1  C   UNL     1      19.353  53.718 159.264  1.00  0.00     0.000 C 
ENDROOT
BRANCH   1   2
ATOM      2  C   UNL     1      18.247  54.047 160.277  1.00  0.00     0.000 C 
BRANCH   2   3
ATOM      3  C   UNL     1      18.839  54.613 161.573  1.00  0.00     0.000 C 
BRANCH   3   4
ATOM      4  C   UNL     1      18.805  56.148 161.569  1.00  0.00     0.000 C 
BRANCH   4   5
ATOM      5  C   UNL     1      17.788  56.715 160.565  1.00  0.00     0.006 C 
BRANCH   5   6
ATOM      6  C   UNL     1      18.362  57.867 159.730  1.00  0.00     0.053 C 
BRANCH   6   7
ATOM      7  C   UNL     1      17.256  58.677 159.129  1.00  0.00     0.041 C 
ATOM      8  O   UNL     1      16.917  59.771 159.650  1.00  0.00    -0.550 OA
ATOM      9  O   UNL     1      16.567  58.198 158.022  1.00  0.00    -0.550 OA
ENDBRANCH   6   7
ENDBRANCH   5   6
ENDBRANCH   4   5
ENDBRANCH   3   4
ENDBRANCH   2   3
ENDBRANCH   1   2
BRANCH   1  10
ATOM     10  C   UNL     1      18.839  53.654 157.814  1.00  0.00     0.000 C 
BRANCH  10  11
ATOM     11  C   UNL     1      18.366  54.999 157.231  1.00  0.00    -0.000 C 
BRANCH  11  12
ATOM     12  C   UNL     1      16.985  54.911 156.566  1.00  0.00    -0.000 C 
BRANCH  12  13
ATOM     13  C   UNL     1      15.873  54.809 157.621  1.00  0.00    -0.000 C 
BRANCH  13  14
ATOM     14  C   UNL     1      14.713  53.898 157.181  1.00  0.00    -0.000 C 
BRANCH  14  15
ATOM     15  C   UNL     1      14.445  52.691 158.103  1.00  0.00    -0.000 C 
BRANCH  15  16
ATOM     16  C   UNL     1      15.687  51.849 158.448  1.00  0.00    -0.003 C 
ATOM     17  C   UNL     1      15.715  51.401 159.908  1.00  0.00     0.004 C 
ENDBRANCH  15  16
ENDBRANCH  14  15
ENDBRANCH  13  14
ENDBRANCH  12  13
ENDBRANCH  11  12
ENDBRANCH  10  11
ENDBRANCH   1  10
TORSDOF 13
ENDMDL
MODEL 5
REMARK VINA RESULT:    -4.376      2.259      4.571
REMARK INTER + INTRA:          -9.265
REMARK INTER:                  -7.776
REMARK INTRA:                  -1.489
REMARK UNBOUND:                -1.562
REMARK SMILES CCCCCCCCCCCCCCC(=O)[O-]
REMARK SMILES IDX 9 1 10 2 11 3 12 4 13 5 14 6 15 7 16 8 17 9 8 10 7 11 6 12
REMARK SMILES IDX 5 13 4 14 3 15 2 16 1 17
REMARK H PARENT
REMARK Flexibility Score: inf
ROOT
ATOM      1  C   UNL     1      14.000  54.615 156.020  1.00  0.00     0.000 C 
ENDROOT
BRANCH   1   2
ATOM      2  C   UNL     1      15.534  54.560 155.958  1.00  0.00     0.000 C 
BRANCH   2   3
ATOM      3  C   UNL     1      16.141  55.958 156.126  1.00  0.00     0.000 C 
BRANCH   3   4
ATOM      4  C   UNL     1      16.243  56.339 157.610  1.00  0.00     0.000 C 
BRANCH   4   5
ATOM      5  C   UNL     1      16.621  57.814 157.818  1.00  0.00     0.006 C 
BRANCH   5   6
ATOM      6  C   UNL     1      17.876  57.985 158.684  1.00  0.00     0.053 C 
BRANCH   6   7
ATOM      7  C   UNL     1      17.570  58.820 159.887  1.00  0.00     0.041 C 
ATOM      8  O   UNL     1      17.809  58.380 161.042  1.00  0.00    -0.550 OA
ATOM      9  O   UNL     1      16.975  60.066 159.735  1.00  0.00    -0.550 OA
ENDBRANCH   6   7
ENDBRANCH   5   6
ENDBRANCH   4   5
ENDBRANCH   3   4
ENDBRANCH   2   3
ENDBRANCH   1   2
BRANCH   1  10
ATOM     10  C   UNL     1      13.401  53.577 156.987  1.00  0.00     0.000 C 
BRANCH  10  11
ATOM     11  C   UNL     1      14.411  52.569 157.566  1.00  0.00    -0.000 C 
BRANCH  11  12
ATOM     12  C   UNL     1      14.145  52.235 159.041  1.00  0.00    -0.000 C 
BRANCH  12  13
ATOM     13  C   UNL     1      15.319  51.449 159.646  1.00  0.00    -0.000 C 
BRANCH  13  14
ATOM     14  C   UNL     1      16.622  51.607 158.842  1.00  0.00    -0.000 C 
BRANCH  14  15
ATOM     15  C   UNL     1      17.414  52.898 159.131  1.00  0.00    -0.000 C 
BRANCH  15  16
ATOM     16  C   UNL     1      18.426  53.297 158.042  1.00  0.00    -0.003 C 
ATOM     17  C   UNL     1      19.349  54.435 158.475  1.00  0.00     0.004 C 
ENDBRANCH  15  16
ENDBRANCH  14  15
ENDBRANCH  13  14
ENDBRANCH  12  13
ENDBRANCH  11  12
ENDBRANCH  10  11
ENDBRANCH   1  10
TORSDOF 13
ENDMDL
MODEL 6
REMARK VINA RESULT:    -4.372      1.661      4.466
REMARK INTER + INTRA:          -9.257
REMARK INTER:                  -7.162
REMARK INTRA:                  -2.095
REMARK UNBOUND:                -1.562
REMARK SMILES CCCCCCCCCCCCCCC(=O)[O-]
REMARK SMILES IDX 9 1 10 2 11 3 12 4 13 5 14 6 15 7 16 8 17 9 8 10 7 11 6 12
REMARK SMILES IDX 5 13 4 14 3 15 2 16 1 17
REMARK H PARENT
REMARK Flexibility Score: inf
ROOT
ATOM      1  C   UNL     1      14.342  53.231 156.378  1.00  0.00     0.000 C 
ENDROOT
BRANCH   1   2
ATOM      2  C   UNL     1      14.622  54.684 155.964  1.00  0.00     0.000 C 
BRANCH   2   3
ATOM      3  C   UNL     1      15.489  55.396 157.010  1.00  0.00     0.000 C 
BRANCH   3   4
ATOM      4  C   UNL     1      16.971  55.363 156.610  1.00  0.00     0.000 C 
BRANCH   4   5
ATOM      5  C   UNL     1      17.799  56.446 157.320  1.00  0.00     0.006 C 
BRANCH   5   6
ATOM      6  C   UNL     1      17.035  57.113 158.470  1.00  0.00     0.053 C 
BRANCH   6   7
ATOM      7  C   UNL     1      17.936  58.036 159.229  1.00  0.00     0.041 C 
ATOM      8  O   UNL     1      17.717  59.276 159.230  1.00  0.00    -0.550 OA
ATOM      9  O   UNL     1      19.047  57.533 159.893  1.00  0.00    -0.550 OA
ENDBRANCH   6   7
ENDBRANCH   5   6
ENDBRANCH   4   5
ENDBRANCH   3   4
ENDBRANCH   2   3
ENDBRANCH   1   2
BRANCH   1  10
ATOM     10  C   UNL     1      13.900  53.100 157.847  1.00  0.00     0.000 C 
BRANCH  10  11
ATOM     11  C   UNL     1      14.794  52.196 158.716  1.00  0.00    -0.000 C 
BRANCH  11  12
ATOM     12  C   UNL     1      16.053  51.714 157.982  1.00  0.00    -0.000 C 
BRANCH  12  13
ATOM     13  C   UNL     1      17.322  52.264 158.651  1.00  0.00    -0.000 C 
BRANCH  13  14
ATOM     14  C   UNL     1      17.019  53.159 159.866  1.00  0.00    -0.000 C 
BRANCH  14  15
ATOM     15  C   UNL     1      18.190  54.046 160.332  1.00  0.00    -0.000 C 
BRANCH  15  16
ATOM     16  C   UNL     1      19.473  53.924 159.490  1.00  0.00    -0.003 C 
ATOM     17  C   UNL     1      20.700  53.562 160.323  1.00  0.00     0.004 C 
ENDBRANCH  15  16
ENDBRANCH  14  15
ENDBRANCH  13  14
ENDBRANCH  12  13
ENDBRANCH  11  12
ENDBRANCH  10  11
ENDBRANCH   1  10
TORSDOF 13
ENDMDL
MODEL 7
REMARK VINA RESULT:    -4.295      2.115      4.676
REMARK INTER + INTRA:          -9.121
REMARK INTER:                  -7.202
REMARK INTRA:                  -1.919
REMARK UNBOUND:                -1.562
REMARK SMILES CCCCCCCCCCCCCCC(=O)[O-]
REMARK SMILES IDX 9 1 10 2 11 3 12 4 13 5 14 6 15 7 16 8 17 9 8 10 7 11 6 12
REMARK SMILES IDX 5 13 4 14 3 15 2 16 1 17
REMARK H PARENT
REMARK Flexibility Score: inf
ROOT
ATOM      1  C   UNL     1      13.769  52.999 158.120  1.00  0.00     0.000 C 
ENDROOT
BRANCH   1   2
ATOM      2  C   UNL     1      14.307  53.038 156.682  1.00  0.00     0.000 C 
BRANCH   2   3
ATOM      3  C   UNL     1      14.222  54.455 156.101  1.00  0.00     0.000 C 
BRANCH   3   4
ATOM      4  C   UNL     1      15.610  55.108 156.040  1.00  0.00     0.000 C 
BRANCH   4   5
ATOM      5  C   UNL     1      16.005  55.784 157.364  1.00  0.00     0.006 C 
BRANCH   5   6
ATOM      6  C   UNL     1      16.285  57.283 157.200  1.00  0.00     0.053 C 
BRANCH   6   7
ATOM      7  C   UNL     1      17.742  57.565 157.388  1.00  0.00     0.041 C 
ATOM      8  O   UNL     1      18.114  58.516 158.124  1.00  0.00    -0.550 OA
ATOM      9  O   UNL     1      18.690  56.808 156.710  1.00  0.00    -0.550 OA
ENDBRANCH   6   7
ENDBRANCH   5   6
ENDBRANCH   4   5
ENDBRANCH   3   4
ENDBRANCH   2   3
ENDBRANCH   1   2
BRANCH   1  10
ATOM     10  C   UNL     1      14.630  52.135 159.060  1.00  0.00     0.000 C 
BRANCH  10  11
ATOM     11  C   UNL     1      16.000  51.723 158.491  1.00  0.00    -0.000 C 
BRANCH  11  12
ATOM     12  C   UNL     1      17.150  52.604 158.999  1.00  0.00    -0.000 C 
BRANCH  12  13
ATOM     13  C   UNL     1      18.104  52.975 157.854  1.00  0.00    -0.000 C 
BRANCH  13  14
ATOM     14  C   UNL     1      19.330  53.774 158.331  1.00  0.00    -0.000 C 
BRANCH  14  15
ATOM     15  C   UNL     1      19.382  54.046 159.848  1.00  0.00    -0.000 C 
BRANCH  15  16
ATOM     16  C   UNL     1      19.279  55.529 160.246  1.00  0.00    -0.003 C 
ATOM     17  C   UNL     1      17.867  55.937 160.663  1.00  0.00     0.004 C 
ENDBRANCH  15  16
ENDBRANCH  14  15
ENDBRANCH  13  14
ENDBRANCH  12  13
ENDBRANCH  11  12
ENDBRANCH  10  11
ENDBRANCH   1  10
TORSDOF 13
ENDMDL
MODEL 8
REMARK VINA RESULT:    -4.234      3.213      5.730
REMARK INTER + INTRA:          -9.014
REMARK INTER:                  -7.116
REMARK INTRA:                  -1.898
REMARK UNBOUND:                -1.562
REMARK SMILES CCCCCCCCCCCCCCC(=O)[O-]
REMARK SMILES IDX 9 1 10 2 11 3 12 4 13 5 14 6 15 7 16 8 17 9 8 10 7 11 6 12
REMARK SMILES IDX 5 13 4 14 3 15 2 16 1 17
REMARK H PARENT
REMARK Flexibility Score: inf
ROOT
ATOM      1  C   UNL     1      17.554  55.568 156.759  1.00  0.00     0.000 C 
ENDROOT
BRANCH   1   2
ATOM      2  C   UNL     1      16.373  55.401 157.725  1.00  0.00     0.000 C 
BRANCH   2   3
ATOM      3  C   UNL     1      15.189  54.713 157.034  1.00  0.00     0.000 C 
BRANCH   3   4
ATOM      4  C   UNL     1      15.648  53.459 156.277  1.00  0.00     0.000 C 
BRANCH   4   5
ATOM      5  C   UNL     1      15.168  52.158 156.940  1.00  0.00     0.006 C 
BRANCH   5   6
ATOM      6  C   UNL     1      16.069  51.722 158.104  1.00  0.00     0.053 C 
BRANCH   6   7
ATOM      7  C   UNL     1      15.247  51.450 159.324  1.00  0.00     0.041 C 
ATOM      8  O   UNL     1      15.647  50.624 160.186  1.00  0.00    -0.550 OA
ATOM      9  O   UNL     1      14.015  52.070 159.486  1.00  0.00    -0.550 OA
ENDBRANCH   6   7
ENDBRANCH   5   6
ENDBRANCH   4   5
ENDBRANCH   3   4
ENDBRANCH   2   3
ENDBRANCH   1   2
BRANCH   1  10
ATOM     10  C   UNL     1      18.907  55.200 157.395  1.00  0.00     0.000 C 
BRANCH  10  11
ATOM     11  C   UNL     1      18.965  53.801 158.037  1.00  0.00    -0.000 C 
BRANCH  11  12
ATOM     12  C   UNL     1      19.721  53.785 159.373  1.00  0.00    -0.000 C 
BRANCH  12  13
ATOM     13  C   UNL     1      18.756  53.986 160.551  1.00  0.00    -0.000 C 
BRANCH  13  14
ATOM     14  C   UNL     1      18.894  55.372 161.207  1.00  0.00    -0.000 C 
BRANCH  14  15
ATOM     15  C   UNL     1      17.777  56.375 160.853  1.00  0.00    -0.000 C 
BRANCH  15  16
ATOM     16  C   UNL     1      18.248  57.828 160.658  1.00  0.00    -0.003 C 
ATOM     17  C   UNL     1      17.665  58.479 159.404  1.00  0.00     0.004 C 
ENDBRANCH  15  16
ENDBRANCH  14  15
ENDBRANCH  13  14
ENDBRANCH  12  13
ENDBRANCH  11  12
ENDBRANCH  10  11
ENDBRANCH   1  10
TORSDOF 13
ENDMDL
MODEL 9
REMARK VINA RESULT:    -4.220      2.839      6.206
REMARK INTER + INTRA:          -8.989
REMARK INTER:                  -7.339
REMARK INTRA:                  -1.650
REMARK UNBOUND:                -1.562
REMARK SMILES CCCCCCCCCCCCCCC(=O)[O-]
REMARK SMILES IDX 9 1 10 2 11 3 12 4 13 5 14 6 15 7 16 8 17 9 8 10 7 11 6 12
REMARK SMILES IDX 5 13 4 14 3 15 2 16 1 17
REMARK H PARENT
REMARK Flexibility Score: inf
ROOT
ATOM      1  C   UNL     1      16.746  55.925 158.170  1.00  0.00     0.000 C 
ENDROOT
BRANCH   1   2
ATOM      2  C   UNL     1      16.002  56.084 156.836  1.00  0.00     0.000 C 
BRANCH   2   3
ATOM      3  C   UNL     1      15.660  54.717 156.230  1.00  0.00     0.000 C 
BRANCH   3   4
ATOM      4  C   UNL     1      14.542  54.027 157.024  1.00  0.00     0.000 C 
BRANCH   4   5
ATOM      5  C   UNL     1      14.885  52.575 157.391  1.00  0.00     0.006 C 
BRANCH   5   6
ATOM      6  C   UNL     1      14.691  52.283 158.885  1.00  0.00     0.053 C 
BRANCH   6   7
ATOM      7  C   UNL     1      15.513  51.102 159.296  1.00  0.00     0.041 C 
ATOM      8  O   UNL     1      15.198  50.435 160.317  1.00  0.00    -0.550 OA
ATOM      9  O   UNL     1      16.655  50.766 158.581  1.00  0.00    -0.550 OA
ENDBRANCH   6   7
ENDBRANCH   5   6
ENDBRANCH   4   5
ENDBRANCH   3   4
ENDBRANCH   2   3
ENDBRANCH   1   2
BRANCH   1  10
ATOM     10  C   UNL     1      18.085  55.179 158.025  1.00  0.00     0.000 C 
BRANCH  10  11
ATOM     11  C   UNL     1      18.201  53.884 158.851  1.00  0.00    -0.000 C 
BRANCH  11  12
ATOM     12  C   UNL     1      17.606  54.017 160.261  1.00  0.00    -0.000 C 
BRANCH  12  13
ATOM     13  C   UNL     1      18.445  54.973 161.122  1.00  0.00    -0.000 C 
BRANCH  13  14
ATOM     14  C   UNL     1      19.689  54.298 161.728  1.00  0.00    -0.000 C 
BRANCH  14  15
ATOM     15  C   UNL     1      20.978  55.143 161.682  1.00  0.00    -0.000 C 
BRANCH  15  16
ATOM     16  C   UNL     1      22.022  54.679 160.650  1.00  0.00    -0.003 C 
ATOM     17  C   UNL     1      21.602  53.412 159.906  1.00  0.00     0.004 C 
ENDBRANCH  15  16
ENDBRANCH  14  15
ENDBRANCH  13  14
ENDBRANCH  12  13
ENDBRANCH  11  12
ENDBRANCH  10  11
ENDBRANCH   1  10
TORSDOF 13
ENDMDL
