MODEL 1
REMARK VINA RESULT:    -3.088      0.000      0.000
REMARK INTER + INTRA:          -3.639
REMARK INTER:                  -3.539
REMARK INTRA:                  -0.100
REMARK UNBOUND:                -0.100
REMARK SMILES COc1cc(C(=O)[O-])ccc1O
REMARK SMILES IDX 5 1 9 2 4 3 10 4 3 5 11 6 6 7 7 8 8 9 2 10 1 11 12 12
REMARK H PARENT 12 13
REMARK Flexibility Score: inf
ROOT
ATOM      1  C   UNL     1      12.613  43.063   7.048  1.00  0.00     0.001 A 
ATOM      2  C   UNL     1      12.242  41.875   7.699  1.00  0.00     0.014 A 
ATOM      3  C   UNL     1      12.544  44.279   7.752  1.00  0.00     0.060 A 
ATOM      4  C   UNL     1      11.810  41.902   9.026  1.00  0.00     0.051 A 
ATOM      5  C   UNL     1      12.108  44.311   9.092  1.00  0.00     0.161 A 
ATOM      6  C   UNL     1      11.741  43.110   9.724  1.00  0.00     0.157 A 
ENDROOT
BRANCH   1   7
ATOM      7  C   UNL     1      13.071  43.039   5.640  1.00  0.00     0.072 C 
ATOM      8  O   UNL     1      12.887  44.032   4.889  1.00  0.00    -0.545 OA
ATOM      9  O   UNL     1      13.710  41.916   5.127  1.00  0.00    -0.545 OA
ENDBRANCH   1   7
BRANCH   5  10
ATOM     10  O   UNL     1      12.029  45.510   9.819  1.00  0.00    -0.493 OA
ATOM     11  C   UNL     1      13.152  46.249  10.288  1.00  0.00     0.278 C 
ENDBRANCH   5  10
BRANCH   6  12
ATOM     12  O   UNL     1      11.305  43.096  11.050  1.00  0.00    -0.504 OA
ATOM     13  H   UNL     1      11.691  42.460  11.738  1.00  0.00     0.293 HD
ENDBRANCH   6  12
TORSDOF 3
ENDMDL
MODEL 2
REMARK VINA RESULT:    -3.027      0.308      0.979
REMARK INTER + INTRA:          -3.569
REMARK INTER:                  -3.478
REMARK INTRA:                  -0.091
REMARK UNBOUND:                -0.100
REMARK SMILES COc1cc(C(=O)[O-])ccc1O
REMARK SMILES IDX 5 1 9 2 4 3 10 4 3 5 11 6 6 7 7 8 8 9 2 10 1 11 12 12
REMARK H PARENT 12 13
REMARK Flexibility Score: inf
ROOT
ATOM      1  C   UNL     1      12.514  43.076   7.299  1.00  0.00     0.001 A 
ATOM      2  C   UNL     1      12.116  41.875   7.909  1.00  0.00     0.014 A 
ATOM      3  C   UNL     1      12.410  44.277   8.022  1.00  0.00     0.060 A 
ATOM      4  C   UNL     1      11.624  41.875   9.216  1.00  0.00     0.051 A 
ATOM      5  C   UNL     1      11.914  44.283   9.342  1.00  0.00     0.161 A 
ATOM      6  C   UNL     1      11.521  43.069   9.933  1.00  0.00     0.157 A 
ENDROOT
BRANCH   1   7
ATOM      7  C   UNL     1      13.035  43.079   5.913  1.00  0.00     0.072 C 
ATOM      8  O   UNL     1      13.737  42.123   5.490  1.00  0.00    -0.545 OA
ATOM      9  O   UNL     1      12.758  44.140   5.058  1.00  0.00    -0.545 OA
ENDBRANCH   1   7
BRANCH   5  10
ATOM     10  O   UNL     1      11.799  45.468  10.087  1.00  0.00    -0.493 OA
ATOM     11  C   UNL     1      12.874  46.362  10.358  1.00  0.00     0.278 C 
ENDBRANCH   5  10
BRANCH   6  12
ATOM     12  O   UNL     1      11.026  43.029  11.237  1.00  0.00    -0.504 OA
ATOM     13  H   UNL     1      10.771  42.160  11.691  1.00  0.00     0.293 HD
ENDBRANCH   6  12
TORSDOF 3
ENDMDL
MODEL 3
REMARK VINA RESULT:    -2.588      1.728      2.045
REMARK INTER + INTRA:          -3.066
REMARK INTER:                  -2.982
REMARK INTRA:                  -0.084
REMARK UNBOUND:                -0.100
REMARK SMILES COc1cc(C(=O)[O-])ccc1O
REMARK SMILES IDX 5 1 9 2 4 3 10 4 3 5 11 6 6 7 7 8 8 9 2 10 1 11 12 12
REMARK H PARENT 12 13
REMARK Flexibility Score: inf
ROOT
ATOM      1  C   UNL     1      11.871  43.089   8.038  1.00  0.00     0.001 A 
ATOM      2  C   UNL     1      11.858  42.041   8.973  1.00  0.00     0.014 A 
ATOM      3  C   UNL     1      11.079  44.226   8.275  1.00  0.00     0.060 A 
ATOM      4  C   UNL     1      11.068  42.128  10.120  1.00  0.00     0.051 A 
ATOM      5  C   UNL     1      10.279  44.319   9.432  1.00  0.00     0.161 A 
ATOM      6  C   UNL     1      10.281  43.258  10.354  1.00  0.00     0.157 A 
ENDROOT
BRANCH   1   7
ATOM      7  C   UNL     1      12.708  43.000   6.820  1.00  0.00     0.072 C 
ATOM      8  O   UNL     1      13.091  41.881   6.386  1.00  0.00    -0.545 OA
ATOM      9  O   UNL     1      13.083  44.151   6.136  1.00  0.00    -0.545 OA
ENDBRANCH   1   7
BRANCH   5  10
ATOM     10  O   UNL     1       9.479  45.442   9.694  1.00  0.00    -0.493 OA
ATOM     11  C   UNL     1       9.869  46.790   9.451  1.00  0.00     0.278 C 
ENDBRANCH   5  10
BRANCH   6  12
ATOM     12  O   UNL     1       9.505  43.308  11.513  1.00  0.00    -0.504 OA
ATOM     13  H   UNL     1       9.190  44.184  11.914  1.00  0.00     0.293 HD
ENDBRANCH   6  12
TORSDOF 3
ENDMDL
MODEL 4
REMARK VINA RESULT:    -2.575      3.878      5.435
REMARK INTER + INTRA:          -3.051
REMARK INTER:                  -2.963
REMARK INTRA:                  -0.088
REMARK UNBOUND:                -0.100
REMARK SMILES COc1cc(C(=O)[O-])ccc1O
REMARK SMILES IDX 5 1 9 2 4 3 10 4 3 5 11 6 6 7 7 8 8 9 2 10 1 11 12 12
REMARK H PARENT 12 13
REMARK Flexibility Score: inf
ROOT
ATOM      1  C   UNL     1      16.191  47.518   8.074  1.00  0.00     0.001 A 
ATOM      2  C   UNL     1      17.105  47.512   9.140  1.00  0.00     0.014 A 
ATOM      3  C   UNL     1      14.900  46.999   8.279  1.00  0.00     0.060 A 
ATOM      4  C   UNL     1      16.737  46.997  10.385  1.00  0.00     0.051 A 
ATOM      5  C   UNL     1      14.523  46.478   9.533  1.00  0.00     0.161 A 
ATOM      6  C   UNL     1      15.455  46.482  10.586  1.00  0.00     0.157 A 
ENDROOT
BRANCH   1   7
ATOM      7  C   UNL     1      16.578  48.062   6.753  1.00  0.00     0.072 C 
ATOM      8  O   UNL     1      16.528  47.339   5.723  1.00  0.00    -0.545 OA
ATOM      9  O   UNL     1      17.006  49.379   6.631  1.00  0.00    -0.545 OA
ENDBRANCH   1   7
BRANCH   5  10
ATOM     10  O   UNL     1      13.241  45.954   9.766  1.00  0.00    -0.493 OA
ATOM     11  C   UNL     1      12.657  44.885   9.028  1.00  0.00     0.278 C 
ENDBRANCH   5  10
BRANCH   6  12
ATOM     12  O   UNL     1      15.124  45.978  11.845  1.00  0.00    -0.504 OA
ATOM     13  H   UNL     1      15.704  45.299  12.323  1.00  0.00     0.293 HD
ENDBRANCH   6  12
TORSDOF 3
ENDMDL
MODEL 5
REMARK VINA RESULT:    -2.528      4.835      5.571
REMARK INTER + INTRA:          -2.997
REMARK INTER:                  -2.911
REMARK INTRA:                  -0.086
REMARK UNBOUND:                -0.100
REMARK SMILES COc1cc(C(=O)[O-])ccc1O
REMARK SMILES IDX 5 1 9 2 4 3 10 4 3 5 11 6 6 7 7 8 8 9 2 10 1 11 12 12
REMARK H PARENT 12 13
REMARK Flexibility Score: inf
ROOT
ATOM      1  C   UNL     1      15.935  47.560   9.004  1.00  0.00     0.001 A 
ATOM      2  C   UNL     1      17.125  47.170   9.640  1.00  0.00     0.014 A 
ATOM      3  C   UNL     1      14.706  47.296   9.633  1.00  0.00     0.060 A 
ATOM      4  C   UNL     1      17.086  46.528  10.880  1.00  0.00     0.051 A 
ATOM      5  C   UNL     1      14.660  46.649  10.884  1.00  0.00     0.161 A 
ATOM      6  C   UNL     1      15.864  46.266  11.503  1.00  0.00     0.157 A 
ENDROOT
BRANCH   1   7
ATOM      7  C   UNL     1      15.973  48.240   7.690  1.00  0.00     0.072 C 
ATOM      8  O   UNL     1      15.954  49.497   7.618  1.00  0.00    -0.545 OA
ATOM      9  O   UNL     1      16.028  47.500   6.515  1.00  0.00    -0.545 OA
ENDBRANCH   1   7
BRANCH   5  10
ATOM     10  O   UNL     1      13.447  46.373  11.535  1.00  0.00    -0.493 OA
ATOM     11  C   UNL     1      12.791  47.259  12.435  1.00  0.00     0.278 C 
ENDBRANCH   5  10
BRANCH   6  12
ATOM     12  O   UNL     1      15.866  45.624  12.742  1.00  0.00    -0.504 OA
ATOM     13  H   UNL     1      15.409  44.732  12.888  1.00  0.00     0.293 HD
ENDBRANCH   6  12
TORSDOF 3
ENDMDL
MODEL 6
REMARK VINA RESULT:    -2.513      1.787      2.474
REMARK INTER + INTRA:          -2.979
REMARK INTER:                  -2.883
REMARK INTRA:                  -0.096
REMARK UNBOUND:                -0.100
REMARK SMILES COc1cc(C(=O)[O-])ccc1O
REMARK SMILES IDX 5 1 9 2 4 3 10 4 3 5 11 6 6 7 7 8 8 9 2 10 1 11 12 12
REMARK H PARENT 12 13
REMARK Flexibility Score: inf
ROOT
ATOM      1  C   UNL     1      12.546  44.491   8.296  1.00  0.00     0.001 A 
ATOM      2  C   UNL     1      12.535  43.106   8.066  1.00  0.00     0.014 A 
ATOM      3  C   UNL     1      11.857  45.005   9.408  1.00  0.00     0.060 A 
ATOM      4  C   UNL     1      11.849  42.251   8.931  1.00  0.00     0.051 A 
ATOM      5  C   UNL     1      11.163  44.147  10.285  1.00  0.00     0.161 A 
ATOM      6  C   UNL     1      11.165  42.763  10.036  1.00  0.00     0.157 A 
ENDROOT
BRANCH   1   7
ATOM      7  C   UNL     1      13.272  45.400   7.379  1.00  0.00     0.072 C 
ATOM      8  O   UNL     1      14.084  46.250   7.831  1.00  0.00    -0.545 OA
ATOM      9  O   UNL     1      13.067  45.327   6.006  1.00  0.00    -0.545 OA
ENDBRANCH   1   7
BRANCH   5  10
ATOM     10  O   UNL     1      10.467  44.633  11.404  1.00  0.00    -0.493 OA
ATOM     11  C   UNL     1       9.265  45.394  11.342  1.00  0.00     0.278 C 
ENDBRANCH   5  10
BRANCH   6  12
ATOM     12  O   UNL     1      10.491  41.878  10.879  1.00  0.00    -0.504 OA
ATOM     13  H   UNL     1      10.910  41.012  11.196  1.00  0.00     0.293 HD
ENDBRANCH   6  12
TORSDOF 3
ENDMDL
MODEL 7
REMARK VINA RESULT:    -2.489      2.396      3.820
REMARK INTER + INTRA:          -2.952
REMARK INTER:                  -2.854
REMARK INTRA:                  -0.098
REMARK UNBOUND:                -0.100
REMARK SMILES COc1cc(C(=O)[O-])ccc1O
REMARK SMILES IDX 5 1 9 2 4 3 10 4 3 5 11 6 6 7 7 8 8 9 2 10 1 11 12 12
REMARK H PARENT 12 13
REMARK Flexibility Score: inf
ROOT
ATOM      1  C   UNL     1      12.835  45.406   9.248  1.00  0.00     0.001 A 
ATOM      2  C   UNL     1      12.240  45.834  10.447  1.00  0.00     0.014 A 
ATOM      3  C   UNL     1      12.480  44.154   8.718  1.00  0.00     0.060 A 
ATOM      4  C   UNL     1      11.310  45.024  11.102  1.00  0.00     0.051 A 
ATOM      5  C   UNL     1      11.541  43.332   9.375  1.00  0.00     0.161 A 
ATOM      6  C   UNL     1      10.958  43.780  10.574  1.00  0.00     0.157 A 
ENDROOT
BRANCH   1   7
ATOM      7  C   UNL     1      13.822  46.262   8.552  1.00  0.00     0.072 C 
ATOM      8  O   UNL     1      13.682  46.539   7.332  1.00  0.00    -0.545 OA
ATOM      9  O   UNL     1      14.921  46.770   9.236  1.00  0.00    -0.545 OA
ENDBRANCH   1   7
BRANCH   5  10
ATOM     10  O   UNL     1      11.168  42.077   8.867  1.00  0.00    -0.493 OA
ATOM     11  C   UNL     1      10.235  41.875   7.812  1.00  0.00     0.278 C 
ENDBRANCH   5  10
BRANCH   6  12
ATOM     12  O   UNL     1      10.024  43.000  11.256  1.00  0.00    -0.504 OA
ATOM     13  H   UNL     1      10.285  42.154  11.750  1.00  0.00     0.293 HD
ENDBRANCH   6  12
TORSDOF 3
ENDMDL
MODEL 8
REMARK VINA RESULT:    -2.449      3.769      6.740
REMARK INTER + INTRA:          -2.907
REMARK INTER:                  -2.824
REMARK INTRA:                  -0.083
REMARK UNBOUND:                -0.100
REMARK SMILES COc1cc(C(=O)[O-])ccc1O
REMARK SMILES IDX 5 1 9 2 4 3 10 4 3 5 11 6 6 7 7 8 8 9 2 10 1 11 12 12
REMARK H PARENT 12 13
REMARK Flexibility Score: inf
ROOT
ATOM      1  C   UNL     1      15.906  46.756  11.106  1.00  0.00     0.001 A 
ATOM      2  C   UNL     1      17.020  47.415  10.561  1.00  0.00     0.014 A 
ATOM      3  C   UNL     1      14.828  46.425  10.265  1.00  0.00     0.060 A 
ATOM      4  C   UNL     1      17.055  47.739   9.203  1.00  0.00     0.051 A 
ATOM      5  C   UNL     1      14.859  46.749   8.893  1.00  0.00     0.161 A 
ATOM      6  C   UNL     1      15.984  47.410   8.369  1.00  0.00     0.157 A 
ENDROOT
BRANCH   1   7
ATOM      7  C   UNL     1      15.864  46.412  12.545  1.00  0.00     0.072 C 
ATOM      8  O   UNL     1      14.763  46.260  13.136  1.00  0.00    -0.545 OA
ATOM      9  O   UNL     1      17.043  46.255  13.266  1.00  0.00    -0.545 OA
ENDBRANCH   1   7
BRANCH   5  10
ATOM     10  O   UNL     1      13.797  46.431   8.031  1.00  0.00    -0.493 OA
ATOM     11  C   UNL     1      13.010  45.249   8.117  1.00  0.00     0.278 C 
ENDBRANCH   5  10
BRANCH   6  12
ATOM     12  O   UNL     1      16.057  47.749   7.017  1.00  0.00    -0.504 OA
ATOM     13  H   UNL     1      15.375  48.353   6.575  1.00  0.00     0.293 HD
ENDBRANCH   6  12
TORSDOF 3
ENDMDL
