MODEL 1
REMARK VINA RESULT:    -3.397      0.000      0.000
REMARK INTER + INTRA:          -3.799
REMARK INTER:                  -3.794
REMARK INTRA:                  -0.005
REMARK UNBOUND:                -0.005
REMARK SMILES CCCC(=O)[O-]
REMARK SMILES IDX 3 1 4 2 5 3 6 4 2 5 1 6
REMARK H PARENT
REMARK Flexibility Score: inf
ROOT
ATOM      1  C   UNL     1     218.015  -8.432  25.342  1.00  0.00     0.052 C 
ENDROOT
BRANCH   1   2
ATOM      2  C   UNL     1     218.077  -7.193  24.501  1.00  0.00     0.041 C 
ATOM      3  O   UNL     1     217.253  -7.019  23.565  1.00  0.00    -0.550 OA
ATOM      4  O   UNL     1     219.024  -6.215  24.775  1.00  0.00    -0.550 OA
ENDBRANCH   1   2
BRANCH   1   5
ATOM      5  C   UNL     1     217.816  -8.100  26.826  1.00  0.00     0.003 C 
ATOM      6  C   UNL     1     217.092  -9.216  27.580  1.00  0.00     0.004 C 
ENDBRANCH   1   5
TORSDOF 2
ENDMDL
MODEL 2
REMARK VINA RESULT:    -3.342      2.009      2.509
REMARK INTER + INTRA:          -3.739
REMARK INTER:                  -3.669
REMARK INTRA:                  -0.070
REMARK UNBOUND:                -0.005
REMARK SMILES CCCC(=O)[O-]
REMARK SMILES IDX 3 1 4 2 5 3 6 4 2 5 1 6
REMARK H PARENT
REMARK Flexibility Score: inf
ROOT
ATOM      1  C   UNL     1     217.778  -8.077  25.296  1.00  0.00     0.052 C 
ENDROOT
BRANCH   1   2
ATOM      2  C   UNL     1     218.501  -9.302  24.828  1.00  0.00     0.041 C 
ATOM      3  O   UNL     1     219.738  -9.425  25.030  1.00  0.00    -0.550 OA
ATOM      4  O   UNL     1     217.802 -10.324  24.198  1.00  0.00    -0.550 OA
ENDBRANCH   1   2
BRANCH   1   5
ATOM      5  C   UNL     1     217.753  -7.982  26.827  1.00  0.00     0.003 C 
ATOM      6  C   UNL     1     217.042  -9.171  27.473  1.00  0.00     0.004 C 
ENDBRANCH   1   5
TORSDOF 2
ENDMDL
MODEL 3
REMARK VINA RESULT:    -3.331      1.979      2.107
REMARK INTER + INTRA:          -3.726
REMARK INTER:                  -3.660
REMARK INTRA:                  -0.066
REMARK UNBOUND:                -0.005
REMARK SMILES CCCC(=O)[O-]
REMARK SMILES IDX 3 1 4 2 5 3 6 4 2 5 1 6
REMARK H PARENT
REMARK Flexibility Score: inf
ROOT
ATOM      1  C   UNL     1     217.759  -8.039  25.312  1.00  0.00     0.052 C 
ENDROOT
BRANCH   1   2
ATOM      2  C   UNL     1     218.489  -9.270  24.868  1.00  0.00     0.041 C 
ATOM      3  O   UNL     1     217.887 -10.165  24.220  1.00  0.00    -0.550 OA
ATOM      4  O   UNL     1     219.843  -9.411  25.143  1.00  0.00    -0.550 OA
ENDBRANCH   1   2
BRANCH   1   5
ATOM      5  C   UNL     1     217.713  -7.927  26.841  1.00  0.00     0.003 C 
ATOM      6  C   UNL     1     217.068  -9.149  27.495  1.00  0.00     0.004 C 
ENDBRANCH   1   5
TORSDOF 2
ENDMDL
MODEL 4
REMARK VINA RESULT:    -3.293      1.878      2.558
REMARK INTER + INTRA:          -3.683
REMARK INTER:                  -3.640
REMARK INTRA:                  -0.044
REMARK UNBOUND:                -0.005
REMARK SMILES CCCC(=O)[O-]
REMARK SMILES IDX 3 1 4 2 5 3 6 4 2 5 1 6
REMARK H PARENT
REMARK Flexibility Score: inf
ROOT
ATOM      1  C   UNL     1     217.476  -7.192  23.817  1.00  0.00     0.052 C 
ENDROOT
BRANCH   1   2
ATOM      2  C   UNL     1     218.039  -8.287  22.963  1.00  0.00     0.041 C 
ATOM      3  O   UNL     1     219.214  -8.205  22.519  1.00  0.00    -0.550 OA
ATOM      4  O   UNL     1     217.275  -9.414  22.687  1.00  0.00    -0.550 OA
ENDBRANCH   1   2
BRANCH   1   5
ATOM      5  C   UNL     1     218.206  -7.090  25.162  1.00  0.00     0.003 C 
ATOM      6  C   UNL     1     217.563  -7.959  26.242  1.00  0.00     0.004 C 
ENDBRANCH   1   5
TORSDOF 2
ENDMDL
MODEL 5
REMARK VINA RESULT:    -3.285      1.862      2.344
REMARK INTER + INTRA:          -3.675
REMARK INTER:                  -3.606
REMARK INTRA:                  -0.069
REMARK UNBOUND:                -0.005
REMARK SMILES CCCC(=O)[O-]
REMARK SMILES IDX 3 1 4 2 5 3 6 4 2 5 1 6
REMARK H PARENT
REMARK Flexibility Score: inf
ROOT
ATOM      1  C   UNL     1     217.225  -8.966  27.358  1.00  0.00     0.052 C 
ENDROOT
BRANCH   1   2
ATOM      2  C   UNL     1     217.913  -8.500  26.111  1.00  0.00     0.041 C 
ATOM      3  O   UNL     1     217.414  -7.574  25.420  1.00  0.00    -0.550 OA
ATOM      4  O   UNL     1     219.123  -9.067  25.732  1.00  0.00    -0.550 OA
ENDBRANCH   1   2
BRANCH   1   5
ATOM      5  C   UNL     1     218.100  -8.756  28.601  1.00  0.00     0.003 C 
ATOM      6  C   UNL     1     218.519  -7.297  28.778  1.00  0.00     0.004 C 
ENDBRANCH   1   5
TORSDOF 2
ENDMDL
MODEL 6
REMARK VINA RESULT:    -3.250      2.136      3.337
REMARK INTER + INTRA:          -3.635
REMARK INTER:                  -3.601
REMARK INTRA:                  -0.035
REMARK UNBOUND:                -0.005
REMARK SMILES CCCC(=O)[O-]
REMARK SMILES IDX 3 1 4 2 5 3 6 4 2 5 1 6
REMARK H PARENT
REMARK Flexibility Score: inf
ROOT
ATOM      1  C   UNL     1     218.202  -7.003  24.434  1.00  0.00     0.052 C 
ENDROOT
BRANCH   1   2
ATOM      2  C   UNL     1     217.851  -8.131  25.356  1.00  0.00     0.041 C 
ATOM      3  O   UNL     1     217.352  -7.895  26.487  1.00  0.00    -0.550 OA
ATOM      4  O   UNL     1     218.045  -9.446  24.950  1.00  0.00    -0.550 OA
ENDBRANCH   1   2
BRANCH   1   5
ATOM      5  C   UNL     1     219.521  -6.331  24.837  1.00  0.00     0.003 C 
ATOM      6  C   UNL     1     220.704  -6.827  24.007  1.00  0.00     0.004 C 
ENDBRANCH   1   5
TORSDOF 2
ENDMDL
MODEL 7
REMARK VINA RESULT:    -3.220      3.991      4.524
REMARK INTER + INTRA:          -3.602
REMARK INTER:                  -3.563
REMARK INTRA:                  -0.039
REMARK UNBOUND:                -0.005
REMARK SMILES CCCC(=O)[O-]
REMARK SMILES IDX 3 1 4 2 5 3 6 4 2 5 1 6
REMARK H PARENT
REMARK Flexibility Score: inf
ROOT
ATOM      1  C   UNL     1     220.551  -8.021  22.094  1.00  0.00     0.052 C 
ENDROOT
BRANCH   1   2
ATOM      2  C   UNL     1     219.729  -9.262  22.263  1.00  0.00     0.041 C 
ATOM      3  O   UNL     1     219.917 -10.018  23.251  1.00  0.00    -0.550 OA
ATOM      4  O   UNL     1     218.732  -9.565  21.344  1.00  0.00    -0.550 OA
ENDBRANCH   1   2
BRANCH   1   5
ATOM      5  C   UNL     1     221.302  -7.658  23.382  1.00  0.00     0.003 C 
ATOM      6  C   UNL     1     220.561  -6.612  24.214  1.00  0.00     0.004 C 
ENDBRANCH   1   5
TORSDOF 2
ENDMDL
MODEL 8
REMARK VINA RESULT:    -3.207      3.055      3.364
REMARK INTER + INTRA:          -3.587
REMARK INTER:                  -3.517
REMARK INTRA:                  -0.070
REMARK UNBOUND:                -0.005
REMARK SMILES CCCC(=O)[O-]
REMARK SMILES IDX 3 1 4 2 5 3 6 4 2 5 1 6
REMARK H PARENT
REMARK Flexibility Score: inf
ROOT
ATOM      1  C   UNL     1     218.129  -8.343  22.813  1.00  0.00     0.052 C 
ENDROOT
BRANCH   1   2
ATOM      2  C   UNL     1     218.644  -9.560  23.517  1.00  0.00     0.041 C 
ATOM      3  O   UNL     1     217.865 -10.277  24.198  1.00  0.00    -0.550 OA
ATOM      4  O   UNL     1     219.980  -9.921  23.393  1.00  0.00    -0.550 OA
ENDBRANCH   1   2
BRANCH   1   5
ATOM      5  C   UNL     1     217.554  -7.317  23.799  1.00  0.00     0.003 C 
ATOM      6  C   UNL     1     218.626  -6.724  24.712  1.00  0.00     0.004 C 
ENDBRANCH   1   5
TORSDOF 2
ENDMDL
MODEL 9
REMARK VINA RESULT:    -3.172      4.103      4.435
REMARK INTER + INTRA:          -3.548
REMARK INTER:                  -3.512
REMARK INTRA:                  -0.036
REMARK UNBOUND:                -0.005
REMARK SMILES CCCC(=O)[O-]
REMARK SMILES IDX 3 1 4 2 5 3 6 4 2 5 1 6
REMARK H PARENT
REMARK Flexibility Score: inf
ROOT
ATOM      1  C   UNL     1     220.048  -8.369  21.970  1.00  0.00     0.052 C 
ENDROOT
BRANCH   1   2
ATOM      2  C   UNL     1     219.348  -9.599  22.461  1.00  0.00     0.041 C 
ATOM      3  O   UNL     1     218.325 -10.028  21.866  1.00  0.00    -0.550 OA
ATOM      4  O   UNL     1     219.848 -10.292  23.556  1.00  0.00    -0.550 OA
ENDBRANCH   1   2
BRANCH   1   5
ATOM      5  C   UNL     1     221.190  -7.954  22.907  1.00  0.00     0.003 C 
ATOM      6  C   UNL     1     220.757  -6.889  23.915  1.00  0.00     0.004 C 
ENDBRANCH   1   5
TORSDOF 2
ENDMDL
