MODEL 1
REMARK VINA RESULT:    -2.921      0.000      0.000
REMARK INTER + INTRA:          -3.653
REMARK INTER:                  -3.604
REMARK INTRA:                  -0.049
REMARK UNBOUND:                -0.049
REMARK SMILES CCCCCC(=O)[O-]
REMARK SMILES IDX 4 1 5 2 6 3 7 4 8 5 3 6 2 7 1 8
REMARK H PARENT
REMARK Flexibility Score: inf
ROOT
ATOM      1  C   UNL     1       1.680  -3.182   2.556  1.00  0.00     0.006 C 
ENDROOT
BRANCH   1   2
ATOM      2  C   UNL     1       0.930  -3.250   1.219  1.00  0.00     0.053 C 
BRANCH   2   3
ATOM      3  C   UNL     1       1.871  -3.299   0.055  1.00  0.00     0.041 C 
ATOM      4  O   UNL     1       1.530  -3.874  -1.012  1.00  0.00    -0.550 OA
ATOM      5  O   UNL     1       3.138  -2.739   0.159  1.00  0.00    -0.550 OA
ENDBRANCH   2   3
ENDBRANCH   1   2
BRANCH   1   6
ATOM      6  C   UNL     1       0.726  -3.120   3.756  1.00  0.00     0.000 C 
BRANCH   6   7
ATOM      7  C   UNL     1       1.163  -2.037   4.750  1.00  0.00    -0.003 C 
ATOM      8  C   UNL     1       0.085  -1.784   5.800  1.00  0.00     0.004 C 
ENDBRANCH   6   7
ENDBRANCH   1   6
TORSDOF 4
ENDMDL
MODEL 2
REMARK VINA RESULT:    -2.826      2.462      3.688
REMARK INTER + INTRA:          -3.536
REMARK INTER:                  -3.370
REMARK INTRA:                  -0.166
REMARK UNBOUND:                -0.049
REMARK SMILES CCCCCC(=O)[O-]
REMARK SMILES IDX 4 1 5 2 6 3 7 4 8 5 3 6 2 7 1 8
REMARK H PARENT
REMARK Flexibility Score: inf
ROOT
ATOM      1  C   UNL     1       0.896  -3.167   1.556  1.00  0.00     0.006 C 
ENDROOT
BRANCH   1   2
ATOM      2  C   UNL     1       2.231  -3.546   2.208  1.00  0.00     0.053 C 
BRANCH   2   3
ATOM      3  C   UNL     1       3.308  -3.761   1.188  1.00  0.00     0.041 C 
ATOM      4  O   UNL     1       3.788  -4.910   1.005  1.00  0.00    -0.550 OA
ATOM      5  O   UNL     1       3.802  -2.685   0.461  1.00  0.00    -0.550 OA
ENDBRANCH   2   3
ENDBRANCH   1   2
BRANCH   1   6
ATOM      6  C   UNL     1      -0.050  -4.369   1.425  1.00  0.00     0.000 C 
BRANCH   6   7
ATOM      7  C   UNL     1      -0.188  -4.800  -0.040  1.00  0.00    -0.003 C 
ATOM      8  C   UNL     1       0.469  -3.790  -0.977  1.00  0.00     0.004 C 
ENDBRANCH   6   7
ENDBRANCH   1   6
TORSDOF 4
ENDMDL
MODEL 3
REMARK VINA RESULT:    -2.755     10.102     10.954
REMARK INTER + INTRA:          -3.448
REMARK INTER:                  -3.364
REMARK INTRA:                  -0.084
REMARK UNBOUND:                -0.049
REMARK SMILES CCCCCC(=O)[O-]
REMARK SMILES IDX 4 1 5 2 6 3 7 4 8 5 3 6 2 7 1 8
REMARK H PARENT
REMARK Flexibility Score: inf
ROOT
ATOM      1  C   UNL     1       7.213  -0.349  -6.535  1.00  0.00     0.006 C 
ENDROOT
BRANCH   1   2
ATOM      2  C   UNL     1       7.256   0.079  -5.063  1.00  0.00     0.053 C 
BRANCH   2   3
ATOM      3  C   UNL     1       7.668   1.512  -4.912  1.00  0.00     0.041 C 
ATOM      4  O   UNL     1       8.615   1.975  -5.600  1.00  0.00    -0.550 OA
ATOM      5  O   UNL     1       7.027   2.327  -3.987  1.00  0.00    -0.550 OA
ENDBRANCH   2   3
ENDBRANCH   1   2
BRANCH   1   6
ATOM      6  C   UNL     1       6.486  -1.686  -6.731  1.00  0.00     0.000 C 
BRANCH   6   7
ATOM      7  C   UNL     1       4.965  -1.493  -6.705  1.00  0.00    -0.003 C 
ATOM      8  C   UNL     1       4.439  -1.078  -8.077  1.00  0.00     0.004 C 
ENDBRANCH   6   7
ENDBRANCH   1   6
TORSDOF 4
ENDMDL
MODEL 4
REMARK VINA RESULT:    -2.701     12.286     12.897
REMARK INTER + INTRA:          -3.381
REMARK INTER:                  -3.174
REMARK INTRA:                  -0.207
REMARK UNBOUND:                -0.049
REMARK SMILES CCCCCC(=O)[O-]
REMARK SMILES IDX 4 1 5 2 6 3 7 4 8 5 3 6 2 7 1 8
REMARK H PARENT
REMARK Flexibility Score: inf
ROOT
ATOM      1  C   UNL     1       8.703   8.741   1.999  1.00  0.00     0.006 C 
ENDROOT
BRANCH   1   2
ATOM      2  C   UNL     1       8.959   7.244   2.215  1.00  0.00     0.053 C 
BRANCH   2   3
ATOM      3  C   UNL     1       8.954   6.486   0.922  1.00  0.00     0.041 C 
ATOM      4  O   UNL     1       8.833   7.100  -0.170  1.00  0.00    -0.550 OA
ATOM      5  O   UNL     1       9.052   5.101   0.927  1.00  0.00    -0.550 OA
ENDBRANCH   2   3
ENDBRANCH   1   2
BRANCH   1   6
ATOM      6  C   UNL     1       7.337   9.182   2.542  1.00  0.00     0.000 C 
BRANCH   6   7
ATOM      7  C   UNL     1       6.207   8.756   1.597  1.00  0.00    -0.003 C 
ATOM      8  C   UNL     1       6.253   9.547   0.293  1.00  0.00     0.004 C 
ENDBRANCH   6   7
ENDBRANCH   1   6
TORSDOF 4
ENDMDL
MODEL 5
REMARK VINA RESULT:    -2.654     12.178     12.709
REMARK INTER + INTRA:          -3.324
REMARK INTER:                  -3.104
REMARK INTRA:                  -0.221
REMARK UNBOUND:                -0.049
REMARK SMILES CCCCCC(=O)[O-]
REMARK SMILES IDX 4 1 5 2 6 3 7 4 8 5 3 6 2 7 1 8
REMARK H PARENT
REMARK Flexibility Score: inf
ROOT
ATOM      1  C   UNL     1       8.771   8.372   0.616  1.00  0.00     0.006 C 
ENDROOT
BRANCH   1   2
ATOM      2  C   UNL     1       9.035   6.975   0.041  1.00  0.00     0.053 C 
BRANCH   2   3
ATOM      3  C   UNL     1       9.156   5.943   1.120  1.00  0.00     0.041 C 
ATOM      4  O   UNL     1       9.223   6.293   2.327  1.00  0.00    -0.550 OA
ATOM      5  O   UNL     1       9.229   4.595   0.790  1.00  0.00    -0.550 OA
ENDBRANCH   2   3
ENDBRANCH   1   2
BRANCH   1   6
ATOM      6  C   UNL     1       7.310   8.808   0.439  1.00  0.00     0.000 C 
BRANCH   6   7
ATOM      7  C   UNL     1       6.527   8.652   1.748  1.00  0.00    -0.003 C 
ATOM      8  C   UNL     1       7.355   9.115   2.943  1.00  0.00     0.004 C 
ENDBRANCH   6   7
ENDBRANCH   1   6
TORSDOF 4
ENDMDL
MODEL 6
REMARK VINA RESULT:    -2.620     17.677     18.146
REMARK INTER + INTRA:          -3.282
REMARK INTER:                  -3.137
REMARK INTRA:                  -0.145
REMARK UNBOUND:                -0.049
REMARK SMILES CCCCCC(=O)[O-]
REMARK SMILES IDX 4 1 5 2 6 3 7 4 8 5 3 6 2 7 1 8
REMARK H PARENT
REMARK Flexibility Score: inf
ROOT
ATOM      1  C   UNL     1      -4.672  12.916  -1.288  1.00  0.00     0.006 C 
ENDROOT
BRANCH   1   2
ATOM      2  C   UNL     1      -3.463  12.517  -0.432  1.00  0.00     0.053 C 
BRANCH   2   3
ATOM      3  C   UNL     1      -2.602  13.698  -0.100  1.00  0.00     0.041 C 
ATOM      4  O   UNL     1      -2.356  13.985   1.101  1.00  0.00    -0.550 OA
ATOM      5  O   UNL     1      -2.099  14.500  -1.116  1.00  0.00    -0.550 OA
ENDBRANCH   2   3
ENDBRANCH   1   2
BRANCH   1   6
ATOM      6  C   UNL     1      -5.746  13.649  -0.472  1.00  0.00     0.000 C 
BRANCH   6   7
ATOM      7  C   UNL     1      -6.791  14.290  -1.392  1.00  0.00    -0.003 C 
ATOM      8  C   UNL     1      -6.491  13.994  -2.859  1.00  0.00     0.004 C 
ENDBRANCH   6   7
ENDBRANCH   1   6
TORSDOF 4
ENDMDL
MODEL 7
REMARK VINA RESULT:    -2.611     10.342     11.157
REMARK INTER + INTRA:          -3.271
REMARK INTER:                  -3.146
REMARK INTRA:                  -0.125
REMARK UNBOUND:                -0.049
REMARK SMILES CCCCCC(=O)[O-]
REMARK SMILES IDX 4 1 5 2 6 3 7 4 8 5 3 6 2 7 1 8
REMARK H PARENT
REMARK Flexibility Score: inf
ROOT
ATOM      1  C   UNL     1       7.717   2.347  -4.343  1.00  0.00     0.006 C 
ENDROOT
BRANCH   1   2
ATOM      2  C   UNL     1       9.021   3.039  -3.928  1.00  0.00     0.053 C 
BRANCH   2   3
ATOM      3  C   UNL     1       9.514   2.549  -2.601  1.00  0.00     0.041 C 
ATOM      4  O   UNL     1       9.890   1.355  -2.466  1.00  0.00    -0.550 OA
ATOM      5  O   UNL     1       9.528   3.403  -1.505  1.00  0.00    -0.550 OA
ENDBRANCH   2   3
ENDBRANCH   1   2
BRANCH   1   6
ATOM      6  C   UNL     1       7.943   1.272  -5.415  1.00  0.00     0.000 C 
BRANCH   6   7
ATOM      7  C   UNL     1       7.467  -0.100  -4.925  1.00  0.00    -0.003 C 
ATOM      8  C   UNL     1       6.399  -0.676  -5.851  1.00  0.00     0.004 C 
ENDBRANCH   6   7
ENDBRANCH   1   6
TORSDOF 4
ENDMDL
MODEL 8
REMARK VINA RESULT:    -2.602     13.193     14.084
REMARK INTER + INTRA:          -3.260
REMARK INTER:                  -3.154
REMARK INTRA:                  -0.106
REMARK UNBOUND:                -0.049
REMARK SMILES CCCCCC(=O)[O-]
REMARK SMILES IDX 4 1 5 2 6 3 7 4 8 5 3 6 2 7 1 8
REMARK H PARENT
REMARK Flexibility Score: inf
ROOT
ATOM      1  C   UNL     1       7.697   8.470  -0.689  1.00  0.00     0.006 C 
ENDROOT
BRANCH   1   2
ATOM      2  C   UNL     1       6.575   9.374  -0.163  1.00  0.00     0.053 C 
BRANCH   2   3
ATOM      3  C   UNL     1       6.483   9.334   1.332  1.00  0.00     0.041 C 
ATOM      4  O   UNL     1       5.969   8.339   1.908  1.00  0.00    -0.550 OA
ATOM      5  O   UNL     1       6.935  10.408   2.086  1.00  0.00    -0.550 OA
ENDBRANCH   2   3
ENDBRANCH   1   2
BRANCH   1   6
ATOM      6  C   UNL     1       7.770   8.465  -2.223  1.00  0.00     0.000 C 
BRANCH   6   7
ATOM      7  C   UNL     1       6.483   9.029  -2.835  1.00  0.00    -0.003 C 
ATOM      8  C   UNL     1       6.047   8.215  -4.050  1.00  0.00     0.004 C 
ENDBRANCH   6   7
ENDBRANCH   1   6
TORSDOF 4
ENDMDL
MODEL 9
REMARK VINA RESULT:    -2.591     16.578     16.781
REMARK INTER + INTRA:          -3.246
REMARK INTER:                  -3.114
REMARK INTRA:                  -0.132
REMARK UNBOUND:                -0.049
REMARK SMILES CCCCCC(=O)[O-]
REMARK SMILES IDX 4 1 5 2 6 3 7 4 8 5 3 6 2 7 1 8
REMARK H PARENT
REMARK Flexibility Score: inf
ROOT
ATOM      1  C   UNL     1      -4.125  12.913  -2.363  1.00  0.00     0.006 C 
ENDROOT
BRANCH   1   2
ATOM      2  C   UNL     1      -4.110  11.740  -3.352  1.00  0.00     0.053 C 
BRANCH   2   3
ATOM      3  C   UNL     1      -2.754  11.542  -3.959  1.00  0.00     0.041 C 
ATOM      4  O   UNL     1      -2.461  10.449  -4.511  1.00  0.00    -0.550 OA
ATOM      5  O   UNL     1      -1.804  12.552  -3.885  1.00  0.00    -0.550 OA
ENDBRANCH   2   3
ENDBRANCH   1   2
BRANCH   1   6
ATOM      6  C   UNL     1      -3.942  12.452  -0.910  1.00  0.00     0.000 C 
BRANCH   6   7
ATOM      7  C   UNL     1      -4.967  13.121   0.012  1.00  0.00    -0.003 C 
ATOM      8  C   UNL     1      -6.092  13.767  -0.792  1.00  0.00     0.004 C 
ENDBRANCH   6   7
ENDBRANCH   1   6
TORSDOF 4
ENDMDL
