MODEL 1
REMARK VINA RESULT:    -3.560      0.000      0.000
REMARK INTER + INTRA:          -4.251
REMARK INTER:                  -4.184
REMARK INTRA:                  -0.067
REMARK UNBOUND:                -0.067
REMARK SMILES O=C([O-])CCC(=O)[O-]
REMARK SMILES IDX 4 1 2 2 1 3 3 4 5 5 6 6 7 7 8 8
REMARK H PARENT
REMARK Flexibility Score: inf
ROOT
ATOM      1  C   UNL     1      32.575 144.720 107.813  1.00  0.00     0.059 C 
ENDROOT
BRANCH   1   2
ATOM      2  C   UNL     1      32.452 143.359 107.203  1.00  0.00     0.042 C 
ATOM      3  O   UNL     1      33.358 142.919 106.448  1.00  0.00    -0.550 OA
ATOM      4  O   UNL     1      31.359 142.557 107.507  1.00  0.00    -0.550 OA
ENDBRANCH   1   2
BRANCH   1   5
ATOM      5  C   UNL     1      32.826 144.610 109.317  1.00  0.00     0.059 C 
BRANCH   5   6
ATOM      6  C   UNL     1      34.280 144.795 109.620  1.00  0.00     0.042 C 
ATOM      7  O   UNL     1      34.646 145.643 110.475  1.00  0.00    -0.550 OA
ATOM      8  O   UNL     1      35.228 143.998 108.992  1.00  0.00    -0.550 OA
ENDBRANCH   5   6
ENDBRANCH   1   5
TORSDOF 3
ENDMDL
MODEL 2
REMARK VINA RESULT:    -3.545      0.042      3.811
REMARK INTER + INTRA:          -4.234
REMARK INTER:                  -4.168
REMARK INTRA:                  -0.065
REMARK UNBOUND:                -0.067
REMARK SMILES O=C([O-])CCC(=O)[O-]
REMARK SMILES IDX 4 1 2 2 1 3 3 4 5 5 6 6 7 7 8 8
REMARK H PARENT
REMARK Flexibility Score: inf
ROOT
ATOM      1  C   UNL     1      32.823 144.569 109.307  1.00  0.00     0.059 C 
ENDROOT
BRANCH   1   2
ATOM      2  C   UNL     1      34.279 144.767 109.589  1.00  0.00     0.042 C 
ATOM      3  O   UNL     1      34.650 145.626 110.432  1.00  0.00    -0.550 OA
ATOM      4  O   UNL     1      35.225 143.970 108.956  1.00  0.00    -0.550 OA
ENDBRANCH   1   2
BRANCH   1   5
ATOM      5  C   UNL     1      32.548 144.689 107.808  1.00  0.00     0.059 C 
BRANCH   5   6
ATOM      6  C   UNL     1      32.432 143.332 107.187  1.00  0.00     0.042 C 
ATOM      7  O   UNL     1      33.344 142.900 106.435  1.00  0.00    -0.550 OA
ATOM      8  O   UNL     1      31.339 142.526 107.477  1.00  0.00    -0.550 OA
ENDBRANCH   5   6
ENDBRANCH   1   5
TORSDOF 3
ENDMDL
MODEL 3
REMARK VINA RESULT:    -3.392      0.314      1.185
REMARK INTER + INTRA:          -4.054
REMARK INTER:                  -3.974
REMARK INTRA:                  -0.081
REMARK UNBOUND:                -0.067
REMARK SMILES O=C([O-])CCC(=O)[O-]
REMARK SMILES IDX 4 1 2 2 1 3 3 4 5 5 6 6 7 7 8 8
REMARK H PARENT
REMARK Flexibility Score: inf
ROOT
ATOM      1  C   UNL     1      32.649 144.449 107.529  1.00  0.00     0.059 C 
ENDROOT
BRANCH   1   2
ATOM      2  C   UNL     1      32.416 143.045 107.066  1.00  0.00     0.042 C 
ATOM      3  O   UNL     1      33.279 142.460 106.360  1.00  0.00    -0.550 OA
ATOM      4  O   UNL     1      31.269 142.366 107.455  1.00  0.00    -0.550 OA
ENDBRANCH   1   2
BRANCH   1   5
ATOM      5  C   UNL     1      32.836 144.487 109.046  1.00  0.00     0.059 C 
BRANCH   5   6
ATOM      6  C   UNL     1      34.280 144.672 109.391  1.00  0.00     0.042 C 
ATOM      7  O   UNL     1      35.154 143.923 108.883  1.00  0.00    -0.550 OA
ATOM      8  O   UNL     1      34.666 145.704 110.237  1.00  0.00    -0.550 OA
ENDBRANCH   5   6
ENDBRANCH   1   5
TORSDOF 3
ENDMDL
MODEL 4
REMARK VINA RESULT:    -3.124      1.837      2.193
REMARK INTER + INTRA:          -3.739
REMARK INTER:                  -3.707
REMARK INTRA:                  -0.032
REMARK UNBOUND:                -0.067
REMARK SMILES O=C([O-])CCC(=O)[O-]
REMARK SMILES IDX 4 1 2 2 1 3 3 4 5 5 6 6 7 7 8 8
REMARK H PARENT
REMARK Flexibility Score: inf
ROOT
ATOM      1  C   UNL     1      31.724 142.857 107.412  1.00  0.00     0.059 C 
ENDROOT
BRANCH   1   2
ATOM      2  C   UNL     1      31.556 142.301 106.032  1.00  0.00     0.042 C 
ATOM      3  O   UNL     1      32.564 141.963 105.359  1.00  0.00    -0.550 OA
ATOM      4  O   UNL     1      30.283 142.110 105.510  1.00  0.00    -0.550 OA
ENDBRANCH   1   2
BRANCH   1   5
ATOM      5  C   UNL     1      32.826 143.916 107.430  1.00  0.00     0.059 C 
BRANCH   5   6
ATOM      6  C   UNL     1      32.689 144.794 108.634  1.00  0.00     0.042 C 
ATOM      7  O   UNL     1      31.751 145.631 108.704  1.00  0.00    -0.550 OA
ATOM      8  O   UNL     1      33.567 144.655 109.701  1.00  0.00    -0.550 OA
ENDBRANCH   5   6
ENDBRANCH   1   5
TORSDOF 3
ENDMDL
MODEL 5
REMARK VINA RESULT:    -2.765     17.742     18.383
REMARK INTER + INTRA:          -3.317
REMARK INTER:                  -3.215
REMARK INTRA:                  -0.101
REMARK UNBOUND:                -0.067
REMARK SMILES O=C([O-])CCC(=O)[O-]
REMARK SMILES IDX 4 1 2 2 1 3 3 4 5 5 6 6 7 7 8 8
REMARK H PARENT
REMARK Flexibility Score: inf
ROOT
ATOM      1  C   UNL     1      26.121 158.138 119.085  1.00  0.00     0.059 C 
ENDROOT
BRANCH   1   2
ATOM      2  C   UNL     1      25.799 158.070 117.625  1.00  0.00     0.042 C 
ATOM      3  O   UNL     1      26.069 159.041 116.871  1.00  0.00    -0.550 OA
ATOM      4  O   UNL     1      25.247 156.914 117.089  1.00  0.00    -0.550 OA
ENDBRANCH   1   2
BRANCH   1   5
ATOM      5  C   UNL     1      25.290 157.119 119.864  1.00  0.00     0.059 C 
BRANCH   5   6
ATOM      6  C   UNL     1      26.146 155.974 120.307  1.00  0.00     0.042 C 
ATOM      7  O   UNL     1      26.718 156.007 121.428  1.00  0.00    -0.550 OA
ATOM      8  O   UNL     1      26.274 154.849 119.503  1.00  0.00    -0.550 OA
ENDBRANCH   5   6
ENDBRANCH   1   5
TORSDOF 3
ENDMDL
MODEL 6
REMARK VINA RESULT:    -2.757     17.764     18.546
REMARK INTER + INTRA:          -3.308
REMARK INTER:                  -3.204
REMARK INTRA:                  -0.104
REMARK UNBOUND:                -0.067
REMARK SMILES O=C([O-])CCC(=O)[O-]
REMARK SMILES IDX 4 1 2 2 1 3 3 4 5 5 6 6 7 7 8 8
REMARK H PARENT
REMARK Flexibility Score: inf
ROOT
ATOM      1  C   UNL     1      25.306 157.164 119.857  1.00  0.00     0.059 C 
ENDROOT
BRANCH   1   2
ATOM      2  C   UNL     1      26.151 156.012 120.304  1.00  0.00     0.042 C 
ATOM      3  O   UNL     1      26.718 156.041 121.428  1.00  0.00    -0.550 OA
ATOM      4  O   UNL     1      26.274 154.887 119.500  1.00  0.00    -0.550 OA
ENDBRANCH   1   2
BRANCH   1   5
ATOM      5  C   UNL     1      26.148 158.176 119.080  1.00  0.00     0.059 C 
BRANCH   5   6
ATOM      6  C   UNL     1      25.822 158.118 117.621  1.00  0.00     0.042 C 
ATOM      7  O   UNL     1      26.093 159.092 116.872  1.00  0.00    -0.550 OA
ATOM      8  O   UNL     1      25.263 156.968 117.079  1.00  0.00    -0.550 OA
ENDBRANCH   5   6
ENDBRANCH   1   5
TORSDOF 3
ENDMDL
MODEL 7
REMARK VINA RESULT:    -2.575     19.433     20.482
REMARK INTER + INTRA:          -3.093
REMARK INTER:                  -2.972
REMARK INTRA:                  -0.121
REMARK UNBOUND:                -0.067
REMARK SMILES O=C([O-])CCC(=O)[O-]
REMARK SMILES IDX 4 1 2 2 1 3 3 4 5 5 6 6 7 7 8 8
REMARK H PARENT
REMARK Flexibility Score: inf
ROOT
ATOM      1  C   UNL     1      42.316 159.623 116.056  1.00  0.00     0.059 C 
ENDROOT
BRANCH   1   2
ATOM      2  C   UNL     1      42.051 160.998 116.584  1.00  0.00     0.042 C 
ATOM      3  O   UNL     1      42.501 161.342 117.708  1.00  0.00    -0.550 OA
ATOM      4  O   UNL     1      41.349 161.915 115.813  1.00  0.00    -0.550 OA
ENDBRANCH   1   2
BRANCH   1   5
ATOM      5  C   UNL     1      43.736 159.529 115.497  1.00  0.00     0.059 C 
BRANCH   5   6
ATOM      6  C   UNL     1      44.558 158.582 116.314  1.00  0.00     0.042 C 
ATOM      7  O   UNL     1      44.947 157.492 115.819  1.00  0.00    -0.550 OA
ATOM      8  O   UNL     1      44.936 158.924 117.606  1.00  0.00    -0.550 OA
ENDBRANCH   5   6
ENDBRANCH   1   5
TORSDOF 3
ENDMDL
MODEL 8
REMARK VINA RESULT:    -2.482     17.965     18.630
REMARK INTER + INTRA:          -2.984
REMARK INTER:                  -2.903
REMARK INTRA:                  -0.081
REMARK UNBOUND:                -0.067
REMARK SMILES O=C([O-])CCC(=O)[O-]
REMARK SMILES IDX 4 1 2 2 1 3 3 4 5 5 6 6 7 7 8 8
REMARK H PARENT
REMARK Flexibility Score: inf
ROOT
ATOM      1  C   UNL     1      26.043 158.659 118.580  1.00  0.00     0.059 C 
ENDROOT
BRANCH   1   2
ATOM      2  C   UNL     1      25.615 157.239 118.380  1.00  0.00     0.042 C 
ATOM      3  O   UNL     1      25.285 156.833 117.234  1.00  0.00    -0.550 OA
ATOM      4  O   UNL     1      25.628 156.352 119.448  1.00  0.00    -0.550 OA
ENDBRANCH   1   2
BRANCH   1   5
ATOM      5  C   UNL     1      26.028 159.415 117.251  1.00  0.00     0.059 C 
BRANCH   5   6
ATOM      6  C   UNL     1      27.403 159.888 116.902  1.00  0.00     0.042 C 
ATOM      7  O   UNL     1      28.317 159.876 117.768  1.00  0.00    -0.550 OA
ATOM      8  O   UNL     1      27.690 160.296 115.605  1.00  0.00    -0.550 OA
ENDBRANCH   5   6
ENDBRANCH   1   5
TORSDOF 3
ENDMDL
MODEL 9
REMARK VINA RESULT:    -2.465     18.627     19.263
REMARK INTER + INTRA:          -2.964
REMARK INTER:                  -2.917
REMARK INTRA:                  -0.047
REMARK UNBOUND:                -0.067
REMARK SMILES O=C([O-])CCC(=O)[O-]
REMARK SMILES IDX 4 1 2 2 1 3 3 4 5 5 6 6 7 7 8 8
REMARK H PARENT
REMARK Flexibility Score: inf
ROOT
ATOM      1  C   UNL     1      28.617 160.554 117.595  1.00  0.00     0.059 C 
ENDROOT
BRANCH   1   2
ATOM      2  C   UNL     1      29.886 160.138 118.271  1.00  0.00     0.042 C 
ATOM      3  O   UNL     1      29.873 159.787 119.480  1.00  0.00    -0.550 OA
ATOM      4  O   UNL     1      31.074 160.093 117.553  1.00  0.00    -0.550 OA
ENDBRANCH   1   2
BRANCH   1   5
ATOM      5  C   UNL     1      27.433 159.757 118.144  1.00  0.00     0.059 C 
BRANCH   5   6
ATOM      6  C   UNL     1      26.550 159.295 117.028  1.00  0.00     0.042 C 
ATOM      7  O   UNL     1      25.571 158.541 117.265  1.00  0.00    -0.550 OA
ATOM      8  O   UNL     1      26.779 159.737 115.731  1.00  0.00    -0.550 OA
ENDBRANCH   5   6
ENDBRANCH   1   5
TORSDOF 3
ENDMDL
