MODEL 1
REMARK VINA RESULT:    -5.008      0.000      0.000
REMARK INTER + INTRA:          -6.042
REMARK INTER:                  -5.886
REMARK INTRA:                  -0.156
REMARK UNBOUND:                -0.156
REMARK SMILES COc1ccc(C=CC(=O)[O-])cc1
REMARK SMILES IDX 6 1 5 2 12 3 4 4 13 5 3 6 7 7 8 8 9 9 10 10 11 11 2 12 1 13
REMARK H PARENT
REMARK Flexibility Score: inf
ROOT
ATOM      1  C   UNL     1      39.941   2.687  -7.548  1.00  0.00    -0.025 A 
ATOM      2  C   UNL     1      39.312   3.943  -7.557  1.00  0.00     0.012 A 
ATOM      3  C   UNL     1      39.577   1.740  -8.524  1.00  0.00     0.012 A 
ATOM      4  C   UNL     1      38.325   4.238  -8.501  1.00  0.00     0.047 A 
ATOM      5  C   UNL     1      38.589   2.037  -9.469  1.00  0.00     0.047 A 
ATOM      6  C   UNL     1      37.953   3.292  -9.462  1.00  0.00     0.118 A 
ENDROOT
BRANCH   1   7
ATOM      7  C   UNL     1      40.990   2.426  -6.532  1.00  0.00     0.010 C 
ATOM      8  C   UNL     1      42.099   1.713  -6.772  1.00  0.00     0.025 C 
BRANCH   8   9
ATOM      9  C   UNL     1      43.108   1.469  -5.729  1.00  0.00     0.064 C 
ATOM     10  O   UNL     1      43.988   2.340  -5.500  1.00  0.00    -0.545 OA
ATOM     11  O   UNL     1      43.106   0.292  -4.990  1.00  0.00    -0.545 OA
ENDBRANCH   8   9
ENDBRANCH   1   7
BRANCH   6  12
ATOM     12  O   UNL     1      36.956   3.636 -10.386  1.00  0.00    -0.497 OA
ATOM     13  C   UNL     1      35.690   2.990 -10.482  1.00  0.00     0.278 C 
ENDBRANCH   6  12
TORSDOF 3
ENDMDL
MODEL 2
REMARK VINA RESULT:    -5.003      0.163      1.345
REMARK INTER + INTRA:          -6.037
REMARK INTER:                  -5.873
REMARK INTRA:                  -0.163
REMARK UNBOUND:                -0.156
REMARK SMILES COc1ccc(C=CC(=O)[O-])cc1
REMARK SMILES IDX 6 1 5 2 12 3 4 4 13 5 3 6 7 7 8 8 9 9 10 10 11 11 2 12 1 13
REMARK H PARENT
REMARK Flexibility Score: inf
ROOT
ATOM      1  C   UNL     1      39.966   2.804  -7.477  1.00  0.00    -0.025 A 
ATOM      2  C   UNL     1      39.460   1.809  -8.328  1.00  0.00     0.012 A 
ATOM      3  C   UNL     1      39.459   4.113  -7.586  1.00  0.00     0.012 A 
ATOM      4  C   UNL     1      38.487   2.117  -9.284  1.00  0.00     0.047 A 
ATOM      5  C   UNL     1      38.486   4.420  -8.543  1.00  0.00     0.047 A 
ATOM      6  C   UNL     1      37.995   3.421  -9.403  1.00  0.00     0.118 A 
ENDROOT
BRANCH   1   7
ATOM      7  C   UNL     1      40.990   2.424  -6.472  1.00  0.00     0.010 C 
ATOM      8  C   UNL     1      42.143   1.812  -6.777  1.00  0.00     0.025 C 
BRANCH   8   9
ATOM      9  C   UNL     1      43.125   1.444  -5.745  1.00  0.00     0.064 C 
ATOM     10  O   UNL     1      44.110   2.196  -5.528  1.00  0.00    -0.545 OA
ATOM     11  O   UNL     1      42.981   0.277  -5.002  1.00  0.00    -0.545 OA
ENDBRANCH   8   9
ENDBRANCH   1   7
BRANCH   6  12
ATOM     12  O   UNL     1      37.021   3.680 -10.380  1.00  0.00    -0.497 OA
ATOM     13  C   UNL     1      35.769   3.007 -10.464  1.00  0.00     0.278 C 
ENDBRANCH   6  12
TORSDOF 3
ENDMDL
MODEL 3
REMARK VINA RESULT:    -4.990     13.664     15.142
REMARK INTER + INTRA:          -6.022
REMARK INTER:                  -5.856
REMARK INTRA:                  -0.166
REMARK UNBOUND:                -0.156
REMARK SMILES COc1ccc(C=CC(=O)[O-])cc1
REMARK SMILES IDX 6 1 5 2 12 3 4 4 13 5 3 6 7 7 8 8 9 9 10 10 11 11 2 12 1 13
REMARK H PARENT
REMARK Flexibility Score: inf
ROOT
ATOM      1  C   UNL     1      35.068   7.689   3.858  1.00  0.00    -0.025 A 
ATOM      2  C   UNL     1      34.076   7.267   4.757  1.00  0.00     0.012 A 
ATOM      3  C   UNL     1      36.338   7.082   3.914  1.00  0.00     0.012 A 
ATOM      4  C   UNL     1      34.351   6.279   5.707  1.00  0.00     0.047 A 
ATOM      5  C   UNL     1      36.611   6.094   4.865  1.00  0.00     0.047 A 
ATOM      6  C   UNL     1      35.616   5.687   5.773  1.00  0.00     0.118 A 
ENDROOT
BRANCH   1   7
ATOM      7  C   UNL     1      34.725   8.733   2.861  1.00  0.00     0.010 C 
ATOM      8  C   UNL     1      34.021   9.837   3.150  1.00  0.00     0.025 C 
BRANCH   8   9
ATOM      9  C   UNL     1      33.694  10.841   2.125  1.00  0.00     0.064 C 
ATOM     10  O   UNL     1      34.544  11.718   1.820  1.00  0.00    -0.545 OA
ATOM     11  O   UNL     1      32.459  10.837   1.486  1.00  0.00    -0.545 OA
ENDBRANCH   8   9
ENDBRANCH   1   7
BRANCH   6  12
ATOM     12  O   UNL     1      35.842   4.702   6.746  1.00  0.00    -0.497 OA
ATOM     13  C   UNL     1      35.177   3.443   6.785  1.00  0.00     0.278 C 
ENDBRANCH   6  12
TORSDOF 3
ENDMDL
MODEL 4
REMARK VINA RESULT:    -4.698     14.043     15.526
REMARK INTER + INTRA:          -5.678
REMARK INTER:                  -5.520
REMARK INTRA:                  -0.159
REMARK UNBOUND:                -0.156
REMARK SMILES COc1ccc(C=CC(=O)[O-])cc1
REMARK SMILES IDX 6 1 5 2 12 3 4 4 13 5 3 6 7 7 8 8 9 9 10 10 11 11 2 12 1 13
REMARK H PARENT
REMARK Flexibility Score: inf
ROOT
ATOM      1  C   UNL     1      35.065   8.269   4.784  1.00  0.00    -0.025 A 
ATOM      2  C   UNL     1      34.820   8.267   6.166  1.00  0.00     0.012 A 
ATOM      3  C   UNL     1      35.658   7.134   4.198  1.00  0.00     0.012 A 
ATOM      4  C   UNL     1      35.180   7.168   6.952  1.00  0.00     0.047 A 
ATOM      5  C   UNL     1      36.017   6.035   4.985  1.00  0.00     0.047 A 
ATOM      6  C   UNL     1      35.782   6.047   6.372  1.00  0.00     0.118 A 
ENDROOT
BRANCH   1   7
ATOM      7  C   UNL     1      34.655   9.456   3.993  1.00  0.00     0.010 C 
ATOM      8  C   UNL     1      34.330   9.409   2.693  1.00  0.00     0.025 C 
BRANCH   8   9
ATOM      9  C   UNL     1      33.940  10.614   1.944  1.00  0.00     0.064 C 
ATOM     10  O   UNL     1      34.761  11.559   1.817  1.00  0.00    -0.545 OA
ATOM     11  O   UNL     1      32.677  10.725   1.373  1.00  0.00    -0.545 OA
ENDBRANCH   8   9
ENDBRANCH   1   7
BRANCH   6  12
ATOM     12  O   UNL     1      36.127   4.970   7.204  1.00  0.00    -0.497 OA
ATOM     13  C   UNL     1      35.503   3.691   7.162  1.00  0.00     0.278 C 
ENDBRANCH   6  12
TORSDOF 3
ENDMDL
MODEL 5
REMARK VINA RESULT:    -4.649      7.991      9.213
REMARK INTER + INTRA:          -5.620
REMARK INTER:                  -5.456
REMARK INTRA:                  -0.164
REMARK UNBOUND:                -0.156
REMARK SMILES COc1ccc(C=CC(=O)[O-])cc1
REMARK SMILES IDX 6 1 5 2 12 3 4 4 13 5 3 6 7 7 8 8 9 9 10 10 11 11 2 12 1 13
REMARK H PARENT
REMARK Flexibility Score: inf
ROOT
ATOM      1  C   UNL     1      41.604   8.775  -1.927  1.00  0.00    -0.025 A 
ATOM      2  C   UNL     1      42.986   8.744  -2.171  1.00  0.00     0.012 A 
ATOM      3  C   UNL     1      40.722   8.830  -3.024  1.00  0.00     0.012 A 
ATOM      4  C   UNL     1      43.480   8.792  -3.478  1.00  0.00     0.047 A 
ATOM      5  C   UNL     1      41.217   8.877  -4.331  1.00  0.00     0.047 A 
ATOM      6  C   UNL     1      42.604   8.861  -4.567  1.00  0.00     0.118 A 
ENDROOT
BRANCH   1   7
ATOM      7  C   UNL     1      41.129   8.711  -0.522  1.00  0.00     0.010 C 
ATOM      8  C   UNL     1      41.313   7.653   0.279  1.00  0.00     0.025 C 
BRANCH   8   9
ATOM      9  C   UNL     1      40.814   7.630   1.664  1.00  0.00     0.064 C 
ATOM     10  O   UNL     1      40.433   6.542   2.169  1.00  0.00    -0.545 OA
ATOM     11  O   UNL     1      40.759   8.792   2.425  1.00  0.00    -0.545 OA
ENDBRANCH   8   9
ENDBRANCH   1   7
BRANCH   6  12
ATOM     12  O   UNL     1      43.150   8.909  -5.859  1.00  0.00    -0.497 OA
ATOM     13  C   UNL     1      42.495   8.423  -7.026  1.00  0.00     0.278 C 
ENDBRANCH   6  12
TORSDOF 3
ENDMDL
MODEL 6
REMARK VINA RESULT:    -4.372      1.349      6.389
REMARK INTER + INTRA:          -5.295
REMARK INTER:                  -5.132
REMARK INTRA:                  -0.162
REMARK UNBOUND:                -0.156
REMARK SMILES COc1ccc(C=CC(=O)[O-])cc1
REMARK SMILES IDX 6 1 5 2 12 3 4 4 13 5 3 6 7 7 8 8 9 9 10 10 11 11 2 12 1 13
REMARK H PARENT
REMARK Flexibility Score: inf
ROOT
ATOM      1  C   UNL     1      40.039   2.886  -9.089  1.00  0.00    -0.025 A 
ATOM      2  C   UNL     1      41.333   2.942  -9.630  1.00  0.00     0.012 A 
ATOM      3  C   UNL     1      39.891   2.692  -7.702  1.00  0.00     0.012 A 
ATOM      4  C   UNL     1      42.455   2.783  -8.811  1.00  0.00     0.047 A 
ATOM      5  C   UNL     1      41.014   2.534  -6.884  1.00  0.00     0.047 A 
ATOM      6  C   UNL     1      42.308   2.576  -7.436  1.00  0.00     0.118 A 
ENDROOT
BRANCH   1   7
ATOM      7  C   UNL     1      38.881   3.070  -9.999  1.00  0.00     0.010 C 
ATOM      8  C   UNL     1      37.607   3.116  -9.584  1.00  0.00     0.025 C 
BRANCH   8   9
ATOM      9  C   UNL     1      36.489   3.289 -10.524  1.00  0.00     0.064 C 
ATOM     10  O   UNL     1      35.383   2.739 -10.282  1.00  0.00    -0.545 OA
ATOM     11  O   UNL     1      36.633   4.053 -11.677  1.00  0.00    -0.545 OA
ENDBRANCH   8   9
ENDBRANCH   1   7
BRANCH   6  12
ATOM     12  O   UNL     1      43.465   2.420  -6.657  1.00  0.00    -0.497 OA
ATOM     13  C   UNL     1      43.639   1.408  -5.671  1.00  0.00     0.278 C 
ENDBRANCH   6  12
TORSDOF 3
ENDMDL
MODEL 7
REMARK VINA RESULT:    -4.307     14.396     15.231
REMARK INTER + INTRA:          -5.219
REMARK INTER:                  -5.044
REMARK INTRA:                  -0.175
REMARK UNBOUND:                -0.156
REMARK SMILES COc1ccc(C=CC(=O)[O-])cc1
REMARK SMILES IDX 6 1 5 2 12 3 4 4 13 5 3 6 7 7 8 8 9 9 10 10 11 11 2 12 1 13
REMARK H PARENT
REMARK Flexibility Score: inf
ROOT
ATOM      1  C   UNL     1      35.205   7.804   5.558  1.00  0.00    -0.025 A 
ATOM      2  C   UNL     1      34.977   7.622   4.184  1.00  0.00     0.012 A 
ATOM      3  C   UNL     1      35.187   9.111   6.081  1.00  0.00     0.012 A 
ATOM      4  C   UNL     1      34.761   8.720   3.347  1.00  0.00     0.047 A 
ATOM      5  C   UNL     1      34.970  10.209   5.242  1.00  0.00     0.047 A 
ATOM      6  C   UNL     1      34.758  10.020   3.864  1.00  0.00     0.118 A 
ENDROOT
BRANCH   1   7
ATOM      7  C   UNL     1      35.419   6.606   6.406  1.00  0.00     0.010 C 
ATOM      8  C   UNL     1      35.276   5.347   5.968  1.00  0.00     0.025 C 
BRANCH   8   9
ATOM      9  C   UNL     1      35.488   4.188   6.849  1.00  0.00     0.064 C 
ATOM     10  O   UNL     1      34.973   3.078   6.552  1.00  0.00    -0.545 OA
ATOM     11  O   UNL     1      36.250   4.297   8.007  1.00  0.00    -0.545 OA
ENDBRANCH   8   9
ENDBRANCH   1   7
BRANCH   6  12
ATOM     12  O   UNL     1      34.538  11.088   2.982  1.00  0.00    -0.497 OA
ATOM     13  C   UNL     1      33.585  12.125   3.197  1.00  0.00     0.278 C 
ENDBRANCH   6  12
TORSDOF 3
ENDMDL
MODEL 8
REMARK VINA RESULT:    -4.199      9.359     11.312
REMARK INTER + INTRA:          -5.092
REMARK INTER:                  -4.935
REMARK INTRA:                  -0.158
REMARK UNBOUND:                -0.156
REMARK SMILES COc1ccc(C=CC(=O)[O-])cc1
REMARK SMILES IDX 6 1 5 2 12 3 4 4 13 5 3 6 7 7 8 8 9 9 10 10 11 11 2 12 1 13
REMARK H PARENT
REMARK Flexibility Score: inf
ROOT
ATOM      1  C   UNL     1      41.107   9.182  -0.992  1.00  0.00    -0.025 A 
ATOM      2  C   UNL     1      41.104   8.113  -0.082  1.00  0.00     0.012 A 
ATOM      3  C   UNL     1      41.139  10.498  -0.493  1.00  0.00     0.012 A 
ATOM      4  C   UNL     1      41.109   8.351   1.296  1.00  0.00     0.047 A 
ATOM      5  C   UNL     1      41.145  10.735   0.886  1.00  0.00     0.047 A 
ATOM      6  C   UNL     1      41.126   9.659   1.792  1.00  0.00     0.118 A 
ENDROOT
BRANCH   1   7
ATOM      7  C   UNL     1      41.112   8.877  -2.444  1.00  0.00     0.010 C 
ATOM      8  C   UNL     1      40.065   9.089  -3.254  1.00  0.00     0.025 C 
BRANCH   8   9
ATOM      9  C   UNL     1      40.112   8.761  -4.688  1.00  0.00     0.064 C 
ATOM     10  O   UNL     1      39.043   8.505  -5.302  1.00  0.00    -0.545 OA
ATOM     11  O   UNL     1      41.319   8.729  -5.377  1.00  0.00    -0.545 OA
ENDBRANCH   8   9
ENDBRANCH   1   7
BRANCH   6  12
ATOM     12  O   UNL     1      41.128   9.845   3.183  1.00  0.00    -0.497 OA
ATOM     13  C   UNL     1      41.107  11.116   3.823  1.00  0.00     0.278 C 
ENDBRANCH   6  12
TORSDOF 3
ENDMDL
MODEL 9
REMARK VINA RESULT:    -4.146      2.107      6.347
REMARK INTER + INTRA:          -5.029
REMARK INTER:                  -4.865
REMARK INTRA:                  -0.165
REMARK UNBOUND:                -0.156
REMARK SMILES COc1ccc(C=CC(=O)[O-])cc1
REMARK SMILES IDX 6 1 5 2 12 3 4 4 13 5 3 6 7 7 8 8 9 9 10 10 11 11 2 12 1 13
REMARK H PARENT
REMARK Flexibility Score: inf
ROOT
ATOM      1  C   UNL     1      40.540   3.834  -8.458  1.00  0.00    -0.025 A 
ATOM      2  C   UNL     1      40.089   3.055  -7.381  1.00  0.00     0.012 A 
ATOM      3  C   UNL     1      41.927   3.952  -8.677  1.00  0.00     0.012 A 
ATOM      4  C   UNL     1      41.000   2.427  -6.525  1.00  0.00     0.047 A 
ATOM      5  C   UNL     1      42.837   3.323  -7.820  1.00  0.00     0.047 A 
ATOM      6  C   UNL     1      42.377   2.556  -6.734  1.00  0.00     0.118 A 
ENDROOT
BRANCH   1   7
ATOM      7  C   UNL     1      39.534   4.471  -9.344  1.00  0.00     0.010 C 
ATOM      8  C   UNL     1      39.831   5.405 -10.258  1.00  0.00     0.025 C 
BRANCH   8   9
ATOM      9  C   UNL     1      38.798   6.018 -11.107  1.00  0.00     0.064 C 
ATOM     10  O   UNL     1      38.886   7.236 -11.411  1.00  0.00    -0.545 OA
ATOM     11  O   UNL     1      37.725   5.272 -11.582  1.00  0.00    -0.545 OA
ENDBRANCH   8   9
ENDBRANCH   1   7
BRANCH   6  12
ATOM     12  O   UNL     1      43.249   1.909  -5.846  1.00  0.00    -0.497 OA
ATOM     13  C   UNL     1      43.045   0.597  -5.332  1.00  0.00     0.278 C 
ENDBRANCH   6  12
TORSDOF 3
ENDMDL
