MODEL 1
REMARK VINA RESULT:    -4.309      0.000      0.000
REMARK INTER + INTRA:          -5.734
REMARK INTER:                  -5.569
REMARK INTRA:                  -0.165
REMARK UNBOUND:                -0.165
REMARK SMILES C=CC(=O)CCCCC
REMARK SMILES IDX 6 1 7 2 8 3 9 4 5 5 3 6 4 7 2 8 1 9
REMARK H PARENT
REMARK Flexibility Score: inf
ROOT
ATOM      1  C   UNL     1      95.600 118.504 118.254  1.00  0.00     0.008 C 
ENDROOT
BRANCH   1   2
ATOM      2  C   UNL     1      94.119 118.098 118.224  1.00  0.00     0.000 C 
BRANCH   2   3
ATOM      3  C   UNL     1      93.918 116.629 117.823  1.00  0.00    -0.003 C 
ATOM      4  C   UNL     1      92.727 115.981 118.529  1.00  0.00     0.004 C 
ENDBRANCH   2   3
ENDBRANCH   1   2
BRANCH   1   5
ATOM      5  C   UNL     1      95.815 119.736 119.147  1.00  0.00     0.080 C 
BRANCH   5   6
ATOM      6  C   UNL     1      97.176 119.763 119.803  1.00  0.00     0.155 C 
ATOM      7  O   UNL     1      97.457 120.665 120.639  1.00  0.00    -0.295 OA
BRANCH   6   8
ATOM      8  C   UNL     1      98.207 118.749 119.500  1.00  0.00     0.039 C 
ATOM      9  C   UNL     1      99.304 118.571 120.234  1.00  0.00     0.012 C 
ENDBRANCH   6   8
ENDBRANCH   5   6
ENDBRANCH   1   5
TORSDOF 5
ENDMDL
MODEL 2
REMARK VINA RESULT:    -4.003      7.025      9.260
REMARK INTER + INTRA:          -5.338
REMARK INTER:                  -4.926
REMARK INTRA:                  -0.412
REMARK UNBOUND:                -0.165
REMARK SMILES C=CC(=O)CCCCC
REMARK SMILES IDX 6 1 7 2 8 3 9 4 5 5 3 6 4 7 2 8 1 9
REMARK H PARENT
REMARK Flexibility Score: inf
ROOT
ATOM      1  C   UNL     1     103.036 115.458 125.376  1.00  0.00     0.008 C 
ENDROOT
BRANCH   1   2
ATOM      2  C   UNL     1     102.708 114.027 125.826  1.00  0.00     0.000 C 
BRANCH   2   3
ATOM      3  C   UNL     1     102.568 113.054 124.645  1.00  0.00    -0.003 C 
ATOM      4  C   UNL     1     101.268 113.251 123.867  1.00  0.00     0.004 C 
ENDBRANCH   2   3
ENDBRANCH   1   2
BRANCH   1   5
ATOM      5  C   UNL     1     102.462 116.490 126.359  1.00  0.00     0.080 C 
BRANCH   5   6
ATOM      6  C   UNL     1     101.415 117.384 125.735  1.00  0.00     0.155 C 
ATOM      7  O   UNL     1     100.704 118.128 126.464  1.00  0.00    -0.295 OA
BRANCH   6   8
ATOM      8  C   UNL     1     101.193 117.422 124.276  1.00  0.00     0.039 C 
ATOM      9  C   UNL     1     100.119 116.907 123.679  1.00  0.00     0.012 C 
ENDBRANCH   6   8
ENDBRANCH   5   6
ENDBRANCH   1   5
TORSDOF 5
ENDMDL
MODEL 3
REMARK VINA RESULT:    -3.966      7.366      9.602
REMARK INTER + INTRA:          -5.290
REMARK INTER:                  -4.835
REMARK INTRA:                  -0.455
REMARK UNBOUND:                -0.165
REMARK SMILES C=CC(=O)CCCCC
REMARK SMILES IDX 6 1 7 2 8 3 9 4 5 5 3 6 4 7 2 8 1 9
REMARK H PARENT
REMARK Flexibility Score: inf
ROOT
ATOM      1  C   UNL     1     102.553 116.355 126.115  1.00  0.00     0.008 C 
ENDROOT
BRANCH   1   2
ATOM      2  C   UNL     1     101.414 117.217 125.552  1.00  0.00     0.000 C 
BRANCH   2   3
ATOM      3  C   UNL     1     101.377 117.218 124.017  1.00  0.00    -0.003 C 
ATOM      4  C   UNL     1     100.029 116.766 123.457  1.00  0.00     0.004 C 
ENDBRANCH   2   3
ENDBRANCH   1   2
BRANCH   1   5
ATOM      5  C   UNL     1     103.080 115.377 125.053  1.00  0.00     0.080 C 
BRANCH   5   6
ATOM      6  C   UNL     1     102.731 113.937 125.347  1.00  0.00     0.155 C 
ATOM      7  O   UNL     1     102.788 113.502 126.530  1.00  0.00    -0.295 OA
BRANCH   6   8
ATOM      8  C   UNL     1     102.312 113.003 124.282  1.00  0.00     0.039 C 
ATOM      9  C   UNL     1     101.134 113.073 123.662  1.00  0.00     0.012 C 
ENDBRANCH   6   8
ENDBRANCH   5   6
ENDBRANCH   1   5
TORSDOF 5
ENDMDL
MODEL 4
REMARK VINA RESULT:    -3.949      7.655      9.181
REMARK INTER + INTRA:          -5.268
REMARK INTER:                  -4.744
REMARK INTRA:                  -0.524
REMARK UNBOUND:                -0.165
REMARK SMILES C=CC(=O)CCCCC
REMARK SMILES IDX 6 1 7 2 8 3 9 4 5 5 3 6 4 7 2 8 1 9
REMARK H PARENT
REMARK Flexibility Score: inf
ROOT
ATOM      1  C   UNL     1     101.509 116.636 123.420  1.00  0.00     0.008 C 
ENDROOT
BRANCH   1   2
ATOM      2  C   UNL     1     100.287 117.280 124.090  1.00  0.00     0.000 C 
BRANCH   2   3
ATOM      3  C   UNL     1     100.657 118.507 124.938  1.00  0.00    -0.003 C 
ATOM      4  C   UNL     1     100.608 118.224 126.439  1.00  0.00     0.004 C 
ENDBRANCH   2   3
ENDBRANCH   1   2
BRANCH   1   5
ATOM      5  C   UNL     1     101.583 115.134 123.737  1.00  0.00     0.080 C 
BRANCH   5   6
ATOM      6  C   UNL     1     102.471 114.821 124.918  1.00  0.00     0.155 C 
ATOM      7  O   UNL     1     102.465 113.665 125.424  1.00  0.00    -0.295 OA
BRANCH   6   8
ATOM      8  C   UNL     1     103.367 115.835 125.511  1.00  0.00     0.039 C 
ATOM      9  C   UNL     1     103.605 115.935 126.818  1.00  0.00     0.012 C 
ENDBRANCH   6   8
ENDBRANCH   5   6
ENDBRANCH   1   5
TORSDOF 5
ENDMDL
MODEL 5
REMARK VINA RESULT:    -3.906      6.838      8.554
REMARK INTER + INTRA:          -5.213
REMARK INTER:                  -4.682
REMARK INTRA:                  -0.532
REMARK UNBOUND:                -0.165
REMARK SMILES C=CC(=O)CCCCC
REMARK SMILES IDX 6 1 7 2 8 3 9 4 5 5 3 6 4 7 2 8 1 9
REMARK H PARENT
REMARK Flexibility Score: inf
ROOT
ATOM      1  C   UNL     1     101.407 116.178 123.132  1.00  0.00     0.008 C 
ENDROOT
BRANCH   1   2
ATOM      2  C   UNL     1     101.960 115.246 124.220  1.00  0.00     0.000 C 
BRANCH   2   3
ATOM      3  C   UNL     1     103.166 115.849 124.957  1.00  0.00    -0.003 C 
ATOM      4  C   UNL     1     103.143 115.566 126.459  1.00  0.00     0.004 C 
ENDBRANCH   2   3
ENDBRANCH   1   2
BRANCH   1   5
ATOM      5  C   UNL     1     100.254 117.036 123.676  1.00  0.00     0.080 C 
BRANCH   5   6
ATOM      6  C   UNL     1     100.672 118.449 124.009  1.00  0.00     0.155 C 
ATOM      7  O   UNL     1     101.104 119.211 123.101  1.00  0.00    -0.295 OA
BRANCH   6   8
ATOM      8  C   UNL     1     100.587 118.984 125.383  1.00  0.00     0.039 C 
ATOM      9  C   UNL     1     100.557 118.217 126.472  1.00  0.00     0.012 C 
ENDBRANCH   6   8
ENDBRANCH   5   6
ENDBRANCH   1   5
TORSDOF 5
ENDMDL
MODEL 6
REMARK VINA RESULT:    -3.843      5.990      7.633
REMARK INTER + INTRA:          -5.131
REMARK INTER:                  -4.650
REMARK INTRA:                  -0.481
REMARK UNBOUND:                -0.165
REMARK SMILES C=CC(=O)CCCCC
REMARK SMILES IDX 6 1 7 2 8 3 9 4 5 5 3 6 4 7 2 8 1 9
REMARK H PARENT
REMARK Flexibility Score: inf
ROOT
ATOM      1  C   UNL     1     100.238 116.910 123.915  1.00  0.00     0.008 C 
ENDROOT
BRANCH   1   2
ATOM      2  C   UNL     1     101.649 116.788 124.509  1.00  0.00     0.000 C 
BRANCH   2   3
ATOM      3  C   UNL     1     101.711 117.225 125.980  1.00  0.00    -0.003 C 
ATOM      4  C   UNL     1     100.660 118.278 126.329  1.00  0.00     0.004 C 
ENDBRANCH   2   3
ENDBRANCH   1   2
BRANCH   1   5
ATOM      5  C   UNL     1     100.262 117.697 122.596  1.00  0.00     0.080 C 
BRANCH   5   6
ATOM      6  C   UNL     1     100.391 119.189 122.798  1.00  0.00     0.155 C 
ATOM      7  O   UNL     1     101.501 119.759 122.611  1.00  0.00    -0.295 OA
BRANCH   6   8
ATOM      8  C   UNL     1      99.242 120.022 123.210  1.00  0.00     0.039 C 
ATOM      9  C   UNL     1      99.343 121.058 124.041  1.00  0.00     0.012 C 
ENDBRANCH   6   8
ENDBRANCH   5   6
ENDBRANCH   1   5
TORSDOF 5
ENDMDL
MODEL 7
REMARK VINA RESULT:    -3.792      8.262      9.677
REMARK INTER + INTRA:          -5.065
REMARK INTER:                  -4.820
REMARK INTRA:                  -0.246
REMARK UNBOUND:                -0.165
REMARK SMILES C=CC(=O)CCCCC
REMARK SMILES IDX 6 1 7 2 8 3 9 4 5 5 3 6 4 7 2 8 1 9
REMARK H PARENT
REMARK Flexibility Score: inf
ROOT
ATOM      1  C   UNL     1     101.990 116.479 124.681  1.00  0.00     0.008 C 
ENDROOT
BRANCH   1   2
ATOM      2  C   UNL     1     101.872 116.959 126.134  1.00  0.00     0.000 C 
BRANCH   2   3
ATOM      3  C   UNL     1     100.877 118.118 126.295  1.00  0.00    -0.003 C 
ATOM      4  C   UNL     1     100.338 118.625 124.957  1.00  0.00     0.004 C 
ENDBRANCH   2   3
ENDBRANCH   1   2
BRANCH   1   5
ATOM      5  C   UNL     1     103.003 115.330 124.561  1.00  0.00     0.080 C 
BRANCH   5   6
ATOM      6  C   UNL     1     102.451 114.002 125.027  1.00  0.00     0.155 C 
ATOM      7  O   UNL     1     102.763 113.552 126.164  1.00  0.00    -0.295 OA
BRANCH   6   8
ATOM      8  C   UNL     1     101.539 113.199 124.187  1.00  0.00     0.039 C 
ATOM      9  C   UNL     1     101.634 113.122 122.861  1.00  0.00     0.012 C 
ENDBRANCH   6   8
ENDBRANCH   5   6
ENDBRANCH   1   5
TORSDOF 5
ENDMDL
MODEL 8
REMARK VINA RESULT:    -3.687      8.659      9.540
REMARK INTER + INTRA:          -4.930
REMARK INTER:                  -4.672
REMARK INTRA:                  -0.258
REMARK UNBOUND:                -0.165
REMARK SMILES C=CC(=O)CCCCC
REMARK SMILES IDX 6 1 7 2 8 3 9 4 5 5 3 6 4 7 2 8 1 9
REMARK H PARENT
REMARK Flexibility Score: inf
ROOT
ATOM      1  C   UNL     1     102.496 113.496 124.994  1.00  0.00     0.008 C 
ENDROOT
BRANCH   1   2
ATOM      2  C   UNL     1     101.290 113.200 124.092  1.00  0.00     0.000 C 
BRANCH   2   3
ATOM      3  C   UNL     1     101.650 113.219 122.598  1.00  0.00    -0.003 C 
ATOM      4  C   UNL     1     101.566 111.837 121.952  1.00  0.00     0.004 C 
ENDBRANCH   2   3
ENDBRANCH   1   2
BRANCH   1   5
ATOM      5  C   UNL     1     102.995 114.935 124.792  1.00  0.00     0.080 C 
BRANCH   5   6
ATOM      6  C   UNL     1     102.895 115.778 126.042  1.00  0.00     0.155 C 
ATOM      7  O   UNL     1     103.579 115.483 127.060  1.00  0.00    -0.295 OA
BRANCH   6   8
ATOM      8  C   UNL     1     102.012 116.960 126.116  1.00  0.00     0.039 C 
ATOM      9  C   UNL     1     101.226 117.357 125.116  1.00  0.00     0.012 C 
ENDBRANCH   6   8
ENDBRANCH   5   6
ENDBRANCH   1   5
TORSDOF 5
ENDMDL
MODEL 9
REMARK VINA RESULT:    -3.627      6.235      7.740
REMARK INTER + INTRA:          -4.852
REMARK INTER:                  -4.329
REMARK INTRA:                  -0.523
REMARK UNBOUND:                -0.165
REMARK SMILES C=CC(=O)CCCCC
REMARK SMILES IDX 6 1 7 2 8 3 9 4 5 5 3 6 4 7 2 8 1 9
REMARK H PARENT
REMARK Flexibility Score: inf
ROOT
ATOM      1  C   UNL     1     101.051 117.409 122.535  1.00  0.00     0.008 C 
ENDROOT
BRANCH   1   2
ATOM      2  C   UNL     1     100.096 118.565 122.200  1.00  0.00     0.000 C 
BRANCH   2   3
ATOM      3  C   UNL     1     100.330 119.799 123.084  1.00  0.00    -0.003 C 
ATOM      4  C   UNL     1      99.043 120.324 123.719  1.00  0.00     0.004 C 
ENDBRANCH   2   3
ENDBRANCH   1   2
BRANCH   1   5
ATOM      5  C   UNL     1     100.624 116.701 123.830  1.00  0.00     0.080 C 
BRANCH   5   6
ATOM      6  C   UNL     1     101.702 116.704 124.890  1.00  0.00     0.155 C 
ATOM      7  O   UNL     1     102.723 115.976 124.755  1.00  0.00    -0.295 OA
BRANCH   6   8
ATOM      8  C   UNL     1     101.604 117.549 126.098  1.00  0.00     0.039 C 
ATOM      9  C   UNL     1     100.492 118.185 126.465  1.00  0.00     0.012 C 
ENDBRANCH   6   8
ENDBRANCH   5   6
ENDBRANCH   1   5
TORSDOF 5
ENDMDL
