MODEL 1
REMARK VINA RESULT:    -6.913      0.000      0.000
REMARK INTER + INTRA:          -7.584
REMARK INTER:                  -7.318
REMARK INTRA:                  -0.266
REMARK UNBOUND:                -0.266
REMARK SMILES O=c1cc(-c2ccccc2)oc2ccccc12
REMARK SMILES IDX 4 1 3 2 2 3 1 4 17 5 16 6 15 7 14 8 13 9 12 10 11 11 5 12
REMARK SMILES IDX 8 13 7 14 9 15 6 16 10 17
REMARK H PARENT
REMARK Flexibility Score: inf
ROOT
ATOM      1  C   UNL     1     100.335 116.615 125.082  1.00  0.00     0.138 A 
ATOM      2  C   UNL     1     100.217 115.732 126.177  1.00  0.00     0.100 A 
ATOM      3  C   UNL     1     100.348 114.357 125.970  1.00  0.00     0.193 A 
ATOM      4  O   UNL     1     100.242 113.569 126.949  1.00  0.00    -0.289 OA
ATOM      5  C   UNL     1     100.595 113.874 124.678  1.00  0.00     0.065 A 
ATOM      6  C   UNL     1     100.737 112.502 124.401  1.00  0.00     0.016 A 
ATOM      7  C   UNL     1     100.984 112.073 123.093  1.00  0.00     0.001 A 
ATOM      8  C   UNL     1     101.090 113.005 122.056  1.00  0.00     0.004 A 
ATOM      9  C   UNL     1     100.949 114.371 122.322  1.00  0.00     0.048 A 
ATOM     10  C   UNL     1     100.703 114.810 123.628  1.00  0.00     0.138 A 
ATOM     11  O   UNL     1     100.571 116.110 123.870  1.00  0.00    -0.456 OA
ENDROOT
BRANCH   1  12
ATOM     12  C   UNL     1     100.208 118.099 125.216  1.00  0.00     0.017 A 
ATOM     13  C   UNL     1      99.964 120.889 125.569  1.00  0.00     0.000 A 
ATOM     14  C   UNL     1     100.111 120.357 124.289  1.00  0.00     0.001 A 
ATOM     15  C   UNL     1      99.939 120.040 126.676  1.00  0.00     0.001 A 
ATOM     16  C   UNL     1     100.232 118.975 124.108  1.00  0.00     0.012 A 
ATOM     17  C   UNL     1     100.060 118.658 126.504  1.00  0.00     0.012 A 
ENDBRANCH   1  12
TORSDOF 1
ENDMDL
MODEL 2
REMARK VINA RESULT:    -6.907      2.083      6.111
REMARK INTER + INTRA:          -7.577
REMARK INTER:                  -7.337
REMARK INTRA:                  -0.240
REMARK UNBOUND:                -0.266
REMARK SMILES O=c1cc(-c2ccccc2)oc2ccccc12
REMARK SMILES IDX 4 1 3 2 2 3 1 4 17 5 16 6 15 7 14 8 13 9 12 10 11 11 5 12
REMARK SMILES IDX 8 13 7 14 9 15 6 16 10 17
REMARK H PARENT
REMARK Flexibility Score: inf
ROOT
ATOM      1  C   UNL     1     100.253 116.241 125.286  1.00  0.00     0.138 A 
ATOM      2  C   UNL     1      99.671 116.368 124.007  1.00  0.00     0.100 A 
ATOM      3  C   UNL     1      99.270 117.627 123.555  1.00  0.00     0.193 A 
ATOM      4  O   UNL     1      98.749 117.741 122.412  1.00  0.00    -0.289 OA
ATOM      5  C   UNL     1      99.454 118.746 124.379  1.00  0.00     0.065 A 
ATOM      6  C   UNL     1      99.073 120.042 123.985  1.00  0.00     0.016 A 
ATOM      7  C   UNL     1      99.279 121.125 124.846  1.00  0.00     0.001 A 
ATOM      8  C   UNL     1      99.863 120.925 126.100  1.00  0.00     0.004 A 
ATOM      9  C   UNL     1     100.244 119.640 126.500  1.00  0.00     0.048 A 
ATOM     10  C   UNL     1     100.043 118.550 125.646  1.00  0.00     0.138 A 
ATOM     11  O   UNL     1     100.409 117.333 126.035  1.00  0.00    -0.456 OA
ENDROOT
BRANCH   1  12
ATOM     12  C   UNL     1     100.709 114.930 125.845  1.00  0.00     0.017 A 
ATOM     13  C   UNL     1     101.659 112.499 126.920  1.00  0.00     0.000 A 
ATOM     14  C   UNL     1     100.355 112.587 126.436  1.00  0.00     0.001 A 
ATOM     15  C   UNL     1     102.494 113.615 126.873  1.00  0.00     0.001 A 
ATOM     16  C   UNL     1      99.879 113.789 125.902  1.00  0.00     0.012 A 
ATOM     17  C   UNL     1     102.026 114.820 126.341  1.00  0.00     0.012 A 
ENDBRANCH   1  12
TORSDOF 1
ENDMDL
MODEL 3
REMARK VINA RESULT:    -6.872      2.594      5.869
REMARK INTER + INTRA:          -7.540
REMARK INTER:                  -7.318
REMARK INTRA:                  -0.223
REMARK UNBOUND:                -0.266
REMARK SMILES O=c1cc(-c2ccccc2)oc2ccccc12
REMARK SMILES IDX 4 1 3 2 2 3 1 4 17 5 16 6 15 7 14 8 13 9 12 10 11 11 5 12
REMARK SMILES IDX 8 13 7 14 9 15 6 16 10 17
REMARK H PARENT
REMARK Flexibility Score: inf
ROOT
ATOM      1  C   UNL     1     100.075 117.605 122.664  1.00  0.00     0.138 A 
ATOM      2  C   UNL     1      99.963 116.625 123.673  1.00  0.00     0.100 A 
ATOM      3  C   UNL     1      99.948 117.015 125.013  1.00  0.00     0.193 A 
ATOM      4  O   UNL     1      99.848 116.139 125.915  1.00  0.00    -0.289 OA
ATOM      5  C   UNL     1     100.044 118.375 125.338  1.00  0.00     0.065 A 
ATOM      6  C   UNL     1     100.036 118.836 126.667  1.00  0.00     0.016 A 
ATOM      7  C   UNL     1     100.134 120.205 126.935  1.00  0.00     0.001 A 
ATOM      8  C   UNL     1     100.242 121.120 125.884  1.00  0.00     0.004 A 
ATOM      9  C   UNL     1     100.252 120.672 124.560  1.00  0.00     0.048 A 
ATOM     10  C   UNL     1     100.154 119.304 124.281  1.00  0.00     0.138 A 
ATOM     11  O   UNL     1     100.164 118.888 123.019  1.00  0.00    -0.456 OA
ENDROOT
BRANCH   1  12
ATOM     12  C   UNL     1     100.098 117.273 121.206  1.00  0.00     0.017 A 
ATOM     13  C   UNL     1     100.043 116.630 118.458  1.00  0.00     0.000 A 
ATOM     14  C   UNL     1     101.245 116.983 119.068  1.00  0.00     0.001 A 
ATOM     15  C   UNL     1      98.867 116.596 119.206  1.00  0.00     0.001 A 
ATOM     16  C   UNL     1     101.278 117.302 120.430  1.00  0.00     0.012 A 
ATOM     17  C   UNL     1      98.891 116.914 120.568  1.00  0.00     0.012 A 
ENDBRANCH   1  12
TORSDOF 1
ENDMDL
MODEL 4
REMARK VINA RESULT:    -6.713      1.196      2.383
REMARK INTER + INTRA:          -7.371
REMARK INTER:                  -7.106
REMARK INTRA:                  -0.265
REMARK UNBOUND:                -0.266
REMARK SMILES O=c1cc(-c2ccccc2)oc2ccccc12
REMARK SMILES IDX 4 1 3 2 2 3 1 4 17 5 16 6 15 7 14 8 13 9 12 10 11 11 5 12
REMARK SMILES IDX 8 13 7 14 9 15 6 16 10 17
REMARK H PARENT
REMARK Flexibility Score: inf
ROOT
ATOM      1  C   UNL     1     100.457 116.972 124.843  1.00  0.00     0.138 A 
ATOM      2  C   UNL     1     100.408 116.459 123.529  1.00  0.00     0.100 A 
ATOM      3  C   UNL     1     100.616 115.096 123.314  1.00  0.00     0.193 A 
ATOM      4  O   UNL     1     100.572 114.637 122.140  1.00  0.00    -0.289 OA
ATOM      5  C   UNL     1     100.870 114.255 124.407  1.00  0.00     0.065 A 
ATOM      6  C   UNL     1     101.088 112.873 124.260  1.00  0.00     0.016 A 
ATOM      7  C   UNL     1     101.337 112.080 125.385  1.00  0.00     0.001 A 
ATOM      8  C   UNL     1     101.370 112.656 126.658  1.00  0.00     0.004 A 
ATOM      9  C   UNL     1     101.156 114.029 126.813  1.00  0.00     0.048 A 
ATOM     10  C   UNL     1     100.905 114.832 125.695  1.00  0.00     0.138 A 
ATOM     11  O   UNL     1     100.702 116.136 125.853  1.00  0.00    -0.456 OA
ENDROOT
BRANCH   1  12
ATOM     12  C   UNL     1     100.246 118.418 125.160  1.00  0.00     0.017 A 
ATOM     13  C   UNL     1      99.847 121.125 125.855  1.00  0.00     0.000 A 
ATOM     14  C   UNL     1      99.956 120.757 124.515  1.00  0.00     0.001 A 
ATOM     15  C   UNL     1      99.935 120.154 126.853  1.00  0.00     0.001 A 
ATOM     16  C   UNL     1     100.154 119.417 124.165  1.00  0.00     0.012 A 
ATOM     17  C   UNL     1     100.133 118.812 126.510  1.00  0.00     0.012 A 
ENDBRANCH   1  12
TORSDOF 1
ENDMDL
MODEL 5
REMARK VINA RESULT:    -6.705      2.064      5.568
REMARK INTER + INTRA:          -7.363
REMARK INTER:                  -7.099
REMARK INTRA:                  -0.264
REMARK UNBOUND:                -0.266
REMARK SMILES O=c1cc(-c2ccccc2)oc2ccccc12
REMARK SMILES IDX 4 1 3 2 2 3 1 4 17 5 16 6 15 7 14 8 13 9 12 10 11 11 5 12
REMARK SMILES IDX 8 13 7 14 9 15 6 16 10 17
REMARK H PARENT
REMARK Flexibility Score: inf
ROOT
ATOM      1  C   UNL     1     101.020 114.896 125.101  1.00  0.00     0.138 A 
ATOM      2  C   UNL     1     100.873 115.895 126.087  1.00  0.00     0.100 A 
ATOM      3  C   UNL     1     100.238 117.095 125.761  1.00  0.00     0.193 A 
ATOM      4  O   UNL     1     100.106 117.988 126.642  1.00  0.00    -0.289 OA
ATOM      5  C   UNL     1      99.755 117.290 124.460  1.00  0.00     0.065 A 
ATOM      6  C   UNL     1      99.106 118.475 124.066  1.00  0.00     0.016 A 
ATOM      7  C   UNL     1      98.644 118.617 122.754  1.00  0.00     0.001 A 
ATOM      8  C   UNL     1      98.823 117.584 121.830  1.00  0.00     0.004 A 
ATOM      9  C   UNL     1      99.468 116.404 122.212  1.00  0.00     0.048 A 
ATOM     10  C   UNL     1      99.934 116.251 123.522  1.00  0.00     0.138 A 
ATOM     11  O   UNL     1     100.545 115.124 123.875  1.00  0.00    -0.456 OA
ENDROOT
BRANCH   1  12
ATOM     12  C   UNL     1     101.687 113.584 125.366  1.00  0.00     0.017 A 
ATOM     13  C   UNL     1     102.941 111.127 125.964  1.00  0.00     0.000 A 
ATOM     14  C   UNL     1     102.674 111.470 124.639  1.00  0.00     0.001 A 
ATOM     15  C   UNL     1     102.586 111.998 126.993  1.00  0.00     0.001 A 
ATOM     16  C   UNL     1     102.053 112.687 124.337  1.00  0.00     0.012 A 
ATOM     17  C   UNL     1     101.965 113.216 126.699  1.00  0.00     0.012 A 
ENDBRANCH   1  12
TORSDOF 1
ENDMDL
MODEL 6
REMARK VINA RESULT:    -6.544      1.734      6.198
REMARK INTER + INTRA:          -7.192
REMARK INTER:                  -6.927
REMARK INTRA:                  -0.265
REMARK UNBOUND:                -0.266
REMARK SMILES O=c1cc(-c2ccccc2)oc2ccccc12
REMARK SMILES IDX 4 1 3 2 2 3 1 4 17 5 16 6 15 7 14 8 13 9 12 10 11 11 5 12
REMARK SMILES IDX 8 13 7 14 9 15 6 16 10 17
REMARK H PARENT
REMARK Flexibility Score: inf
ROOT
ATOM      1  C   UNL     1     101.042 114.746 124.780  1.00  0.00     0.138 A 
ATOM      2  C   UNL     1     100.588 114.971 123.463  1.00  0.00     0.100 A 
ATOM      3  C   UNL     1      99.973 116.184 123.145  1.00  0.00     0.193 A 
ATOM      4  O   UNL     1      99.567 116.385 121.968  1.00  0.00    -0.289 OA
ATOM      5  C   UNL     1      99.816 117.160 124.139  1.00  0.00     0.065 A 
ATOM      6  C   UNL     1      99.204 118.402 123.886  1.00  0.00     0.016 A 
ATOM      7  C   UNL     1      99.073 119.340 124.914  1.00  0.00     0.001 A 
ATOM      8  C   UNL     1      99.548 119.049 126.196  1.00  0.00     0.004 A 
ATOM      9  C   UNL     1     100.155 117.817 126.458  1.00  0.00     0.048 A 
ATOM     10  C   UNL     1     100.292 116.871 125.436  1.00  0.00     0.138 A 
ATOM     11  O   UNL     1     100.871 115.703 125.694  1.00  0.00    -0.456 OA
ENDROOT
BRANCH   1  12
ATOM     12  C   UNL     1     101.710 113.477 125.204  1.00  0.00     0.017 A 
ATOM     13  C   UNL     1     102.979 111.056 125.907  1.00  0.00     0.000 A 
ATOM     14  C   UNL     1     102.607 111.962 126.898  1.00  0.00     0.001 A 
ATOM     15  C   UNL     1     102.724 111.346 124.567  1.00  0.00     0.001 A 
ATOM     16  C   UNL     1     101.978 113.164 126.555  1.00  0.00     0.012 A 
ATOM     17  C   UNL     1     102.096 112.545 124.216  1.00  0.00     0.012 A 
ENDBRANCH   1  12
TORSDOF 1
ENDMDL
MODEL 7
REMARK VINA RESULT:    -6.492      2.178      6.727
REMARK INTER + INTRA:          -7.137
REMARK INTER:                  -6.874
REMARK INTRA:                  -0.263
REMARK UNBOUND:                -0.266
REMARK SMILES O=c1cc(-c2ccccc2)oc2ccccc12
REMARK SMILES IDX 4 1 3 2 2 3 1 4 17 5 16 6 15 7 14 8 13 9 12 10 11 11 5 12
REMARK SMILES IDX 8 13 7 14 9 15 6 16 10 17
REMARK H PARENT
REMARK Flexibility Score: inf
ROOT
ATOM      1  C   UNL     1     101.747 113.013 124.251  1.00  0.00     0.138 A 
ATOM      2  C   UNL     1     101.351 113.468 122.975  1.00  0.00     0.100 A 
ATOM      3  C   UNL     1     100.801 114.745 122.839  1.00  0.00     0.193 A 
ATOM      4  O   UNL     1     100.447 115.151 121.699  1.00  0.00    -0.289 OA
ATOM      5  C   UNL     1     100.651 115.556 123.973  1.00  0.00     0.065 A 
ATOM      6  C   UNL     1     100.104 116.850 123.906  1.00  0.00     0.016 A 
ATOM      7  C   UNL     1      99.976 117.617 125.068  1.00  0.00     0.001 A 
ATOM      8  C   UNL     1     100.391 117.103 126.299  1.00  0.00     0.004 A 
ATOM      9  C   UNL     1     100.934 115.816 126.375  1.00  0.00     0.048 A 
ATOM     10  C   UNL     1     101.067 115.040 125.219  1.00  0.00     0.138 A 
ATOM     11  O   UNL     1     101.585 113.819 125.302  1.00  0.00    -0.456 OA
ENDROOT
BRANCH   1  12
ATOM     12  C   UNL     1     102.344 111.662 124.483  1.00  0.00     0.017 A 
ATOM     13  C   UNL     1     103.502 109.143 125.012  1.00  0.00     0.000 A 
ATOM     14  C   UNL     1     102.841 109.368 123.806  1.00  0.00     0.001 A 
ATOM     15  C   UNL     1     103.590 110.163 125.958  1.00  0.00     0.001 A 
ATOM     16  C   UNL     1     102.265 110.615 123.538  1.00  0.00     0.012 A 
ATOM     17  C   UNL     1     103.017 111.412 125.699  1.00  0.00     0.012 A 
ENDBRANCH   1  12
TORSDOF 1
ENDMDL
MODEL 8
REMARK VINA RESULT:    -6.481      1.380      2.057
REMARK INTER + INTRA:          -7.126
REMARK INTER:                  -6.860
REMARK INTRA:                  -0.266
REMARK UNBOUND:                -0.266
REMARK SMILES O=c1cc(-c2ccccc2)oc2ccccc12
REMARK SMILES IDX 4 1 3 2 2 3 1 4 17 5 16 6 15 7 14 8 13 9 12 10 11 11 5 12
REMARK SMILES IDX 8 13 7 14 9 15 6 16 10 17
REMARK H PARENT
REMARK Flexibility Score: inf
ROOT
ATOM      1  C   UNL     1     100.783 115.281 125.286  1.00  0.00     0.138 A 
ATOM      2  C   UNL     1     101.402 114.663 126.393  1.00  0.00     0.100 A 
ATOM      3  C   UNL     1     101.895 113.362 126.269  1.00  0.00     0.193 A 
ATOM      4  O   UNL     1     102.448 112.810 127.258  1.00  0.00    -0.289 OA
ATOM      5  C   UNL     1     101.769 112.690 125.045  1.00  0.00     0.065 A 
ATOM      6  C   UNL     1     102.243 111.380 124.853  1.00  0.00     0.016 A 
ATOM      7  C   UNL     1     102.091 110.756 123.610  1.00  0.00     0.001 A 
ATOM      8  C   UNL     1     101.468 111.430 122.556  1.00  0.00     0.004 A 
ATOM      9  C   UNL     1     100.993 112.732 122.739  1.00  0.00     0.048 A 
ATOM     10  C   UNL     1     101.140 113.366 123.978  1.00  0.00     0.138 A 
ATOM     11  O   UNL     1     100.685 114.604 124.141  1.00  0.00    -0.456 OA
ENDROOT
BRANCH   1  12
ATOM     12  C   UNL     1     100.230 116.670 125.335  1.00  0.00     0.017 A 
ATOM     13  C   UNL     1      99.158 119.281 125.331  1.00  0.00     0.000 A 
ATOM     14  C   UNL     1      99.719 118.759 126.495  1.00  0.00     0.001 A 
ATOM     15  C   UNL     1      99.127 118.512 124.168  1.00  0.00     0.001 A 
ATOM     16  C   UNL     1     100.252 117.465 126.503  1.00  0.00     0.012 A 
ATOM     17  C   UNL     1      99.657 117.218 124.168  1.00  0.00     0.012 A 
ENDBRANCH   1  12
TORSDOF 1
ENDMDL
MODEL 9
REMARK VINA RESULT:    -6.453      1.629      2.832
REMARK INTER + INTRA:          -7.096
REMARK INTER:                  -6.830
REMARK INTRA:                  -0.266
REMARK UNBOUND:                -0.266
REMARK SMILES O=c1cc(-c2ccccc2)oc2ccccc12
REMARK SMILES IDX 4 1 3 2 2 3 1 4 17 5 16 6 15 7 14 8 13 9 12 10 11 11 5 12
REMARK SMILES IDX 8 13 7 14 9 15 6 16 10 17
REMARK H PARENT
REMARK Flexibility Score: inf
ROOT
ATOM      1  C   UNL     1     100.686 115.990 124.791  1.00  0.00     0.138 A 
ATOM      2  C   UNL     1     100.610 115.358 123.532  1.00  0.00     0.100 A 
ATOM      3  C   UNL     1     101.044 114.037 123.397  1.00  0.00     0.193 A 
ATOM      4  O   UNL     1     100.977 113.472 122.271  1.00  0.00    -0.289 OA
ATOM      5  C   UNL     1     101.548 113.358 124.515  1.00  0.00     0.065 A 
ATOM      6  C   UNL     1     102.002 112.028 124.448  1.00  0.00     0.016 A 
ATOM      7  C   UNL     1     102.495 111.398 125.595  1.00  0.00     0.001 A 
ATOM      8  C   UNL     1     102.539 112.086 126.811  1.00  0.00     0.004 A 
ATOM      9  C   UNL     1     102.092 113.409 126.887  1.00  0.00     0.048 A 
ATOM     10  C   UNL     1     101.596 114.049 125.746  1.00  0.00     0.138 A 
ATOM     11  O   UNL     1     101.172 115.306 125.828  1.00  0.00    -0.456 OA
ENDROOT
BRANCH   1  12
ATOM     12  C   UNL     1     100.243 117.400 125.021  1.00  0.00     0.017 A 
ATOM     13  C   UNL     1      99.388 120.068 125.358  1.00  0.00     0.000 A 
ATOM     14  C   UNL     1      99.806 119.325 126.460  1.00  0.00     0.001 A 
ATOM     15  C   UNL     1      99.392 119.492 124.088  1.00  0.00     0.001 A 
ATOM     16  C   UNL     1     100.231 118.002 126.299  1.00  0.00     0.012 A 
ATOM     17  C   UNL     1      99.815 118.170 123.919  1.00  0.00     0.012 A 
ENDBRANCH   1  12
TORSDOF 1
ENDMDL
