MODEL 1
REMARK VINA RESULT:    -3.772      0.000      0.000
REMARK INTER + INTRA:          -4.506
REMARK INTER:                  -4.433
REMARK INTRA:                  -0.073
REMARK UNBOUND:                -0.073
REMARK SMILES CCCCC(=O)[O-]
REMARK SMILES IDX 4 1 5 2 6 3 7 4 3 5 2 6 1 7
REMARK H PARENT
REMARK Flexibility Score: inf
ROOT
ATOM      1  C   UNL     1     -10.716 -18.298  31.160  1.00  0.00     0.053 C 
ENDROOT
BRANCH   1   2
ATOM      2  C   UNL     1     -10.953 -19.687  31.669  1.00  0.00     0.041 C 
ATOM      3  O   UNL     1     -10.031 -20.314  32.252  1.00  0.00    -0.550 OA
ATOM      4  O   UNL     1     -12.205 -20.275  31.531  1.00  0.00    -0.550 OA
ENDBRANCH   1   2
BRANCH   1   5
ATOM      5  C   UNL     1     -10.728 -18.243  29.626  1.00  0.00     0.006 C 
BRANCH   5   6
ATOM      6  C   UNL     1      -9.557 -19.019  29.008  1.00  0.00    -0.003 C 
ATOM      7  C   UNL     1      -9.688 -19.092  27.489  1.00  0.00     0.004 C 
ENDBRANCH   5   6
ENDBRANCH   1   5
TORSDOF 3
ENDMDL
MODEL 2
REMARK VINA RESULT:    -3.613      2.558      3.601
REMARK INTER + INTRA:          -4.319
REMARK INTER:                  -4.212
REMARK INTRA:                  -0.108
REMARK UNBOUND:                -0.073
REMARK SMILES CCCCC(=O)[O-]
REMARK SMILES IDX 4 1 5 2 6 3 7 4 3 5 2 6 1 7
REMARK H PARENT
REMARK Flexibility Score: inf
ROOT
ATOM      1  C   UNL     1      -9.487 -18.708  29.496  1.00  0.00     0.053 C 
ENDROOT
BRANCH   1   2
ATOM      2  C   UNL     1      -9.781 -19.538  28.284  1.00  0.00     0.041 C 
ATOM      3  O   UNL     1     -10.119 -20.744  28.409  1.00  0.00    -0.550 OA
ATOM      4  O   UNL     1      -9.715 -18.970  27.018  1.00  0.00    -0.550 OA
ENDBRANCH   1   2
BRANCH   1   5
ATOM      5  C   UNL     1     -10.772 -18.243  30.194  1.00  0.00     0.006 C 
BRANCH   5   6
ATOM      6  C   UNL     1     -10.973 -18.923  31.555  1.00  0.00    -0.003 C 
ATOM      7  C   UNL     1     -11.871 -20.150  31.430  1.00  0.00     0.004 C 
ENDBRANCH   5   6
ENDBRANCH   1   5
TORSDOF 3
ENDMDL
MODEL 3
REMARK VINA RESULT:    -3.565      2.840      3.480
REMARK INTER + INTRA:          -4.262
REMARK INTER:                  -4.183
REMARK INTRA:                  -0.079
REMARK UNBOUND:                -0.073
REMARK SMILES CCCCC(=O)[O-]
REMARK SMILES IDX 4 1 5 2 6 3 7 4 3 5 2 6 1 7
REMARK H PARENT
REMARK Flexibility Score: inf
ROOT
ATOM      1  C   UNL     1     -10.387 -18.447  29.487  1.00  0.00     0.053 C 
ENDROOT
BRANCH   1   2
ATOM      2  C   UNL     1     -10.012 -19.483  28.471  1.00  0.00     0.041 C 
ATOM      3  O   UNL     1      -9.520 -19.136  27.366  1.00  0.00    -0.550 OA
ATOM      4  O   UNL     1     -10.173 -20.832  28.760  1.00  0.00    -0.550 OA
ENDBRANCH   1   2
BRANCH   1   5
ATOM      5  C   UNL     1      -9.631 -18.644  30.808  1.00  0.00     0.006 C 
BRANCH   5   6
ATOM      6  C   UNL     1      -8.109 -18.652  30.611  1.00  0.00    -0.003 C 
ATOM      7  C   UNL     1      -7.383 -18.373  31.924  1.00  0.00     0.004 C 
ENDBRANCH   5   6
ENDBRANCH   1   5
TORSDOF 3
ENDMDL
MODEL 4
REMARK VINA RESULT:    -3.458     19.914     20.928
REMARK INTER + INTRA:          -4.137
REMARK INTER:                  -4.114
REMARK INTRA:                  -0.023
REMARK UNBOUND:                -0.073
REMARK SMILES CCCCC(=O)[O-]
REMARK SMILES IDX 4 1 5 2 6 3 7 4 3 5 2 6 1 7
REMARK H PARENT
REMARK Flexibility Score: inf
ROOT
ATOM      1  C   UNL     1      -3.202 -36.187  21.966  1.00  0.00     0.053 C 
ENDROOT
BRANCH   1   2
ATOM      2  C   UNL     1      -2.146 -35.158  22.234  1.00  0.00     0.041 C 
ATOM      3  O   UNL     1      -0.998 -35.283  21.732  1.00  0.00    -0.550 OA
ATOM      4  O   UNL     1      -2.439 -34.044  23.011  1.00  0.00    -0.550 OA
ENDBRANCH   1   2
BRANCH   1   5
ATOM      5  C   UNL     1      -2.694 -37.299  21.039  1.00  0.00     0.006 C 
BRANCH   5   6
ATOM      6  C   UNL     1      -3.840 -38.125  20.440  1.00  0.00    -0.003 C 
ATOM      7  C   UNL     1      -4.075 -37.759  18.977  1.00  0.00     0.004 C 
ENDBRANCH   5   6
ENDBRANCH   1   5
TORSDOF 3
ENDMDL
MODEL 5
REMARK VINA RESULT:    -3.444      1.515      2.059
REMARK INTER + INTRA:          -4.121
REMARK INTER:                  -4.112
REMARK INTRA:                  -0.009
REMARK UNBOUND:                -0.073
REMARK SMILES CCCCC(=O)[O-]
REMARK SMILES IDX 4 1 5 2 6 3 7 4 3 5 2 6 1 7
REMARK H PARENT
REMARK Flexibility Score: inf
ROOT
ATOM      1  C   UNL     1     -10.369 -18.296  31.221  1.00  0.00     0.053 C 
ENDROOT
BRANCH   1   2
ATOM      2  C   UNL     1      -9.015 -18.859  31.529  1.00  0.00     0.041 C 
ATOM      3  O   UNL     1      -8.906 -19.906  32.218  1.00  0.00    -0.550 OA
ATOM      4  O   UNL     1      -7.875 -18.244  31.025  1.00  0.00    -0.550 OA
ENDBRANCH   1   2
BRANCH   1   5
ATOM      5  C   UNL     1     -10.628 -18.227  29.710  1.00  0.00     0.006 C 
BRANCH   5   6
ATOM      6  C   UNL     1     -10.105 -19.469  28.974  1.00  0.00    -0.003 C 
ATOM      7  C   UNL     1      -9.605 -19.110  27.578  1.00  0.00     0.004 C 
ENDBRANCH   5   6
ENDBRANCH   1   5
TORSDOF 3
ENDMDL
MODEL 6
REMARK VINA RESULT:    -3.366     17.538     18.575
REMARK INTER + INTRA:          -4.029
REMARK INTER:                  -3.996
REMARK INTRA:                  -0.033
REMARK UNBOUND:                -0.073
REMARK SMILES CCCCC(=O)[O-]
REMARK SMILES IDX 4 1 5 2 6 3 7 4 3 5 2 6 1 7
REMARK H PARENT
REMARK Flexibility Score: inf
ROOT
ATOM      1  C   UNL     1      -2.569 -34.093  23.388  1.00  0.00     0.053 C 
ENDROOT
BRANCH   1   2
ATOM      2  C   UNL     1      -2.230 -32.742  23.941  1.00  0.00     0.041 C 
ATOM      3  O   UNL     1      -3.117 -31.853  24.029  1.00  0.00    -0.550 OA
ATOM      4  O   UNL     1      -0.942 -32.477  24.390  1.00  0.00    -0.550 OA
ENDBRANCH   1   2
BRANCH   1   5
ATOM      5  C   UNL     1      -1.605 -34.510  22.270  1.00  0.00     0.006 C 
BRANCH   5   6
ATOM      6  C   UNL     1      -2.051 -35.801  21.569  1.00  0.00    -0.003 C 
ATOM      7  C   UNL     1      -3.446 -36.220  22.025  1.00  0.00     0.004 C 
ENDBRANCH   5   6
ENDBRANCH   1   5
TORSDOF 3
ENDMDL
MODEL 7
REMARK VINA RESULT:    -3.308      1.250      1.782
REMARK INTER + INTRA:          -3.961
REMARK INTER:                  -3.916
REMARK INTRA:                  -0.045
REMARK UNBOUND:                -0.073
REMARK SMILES CCCCC(=O)[O-]
REMARK SMILES IDX 4 1 5 2 6 3 7 4 3 5 2 6 1 7
REMARK H PARENT
REMARK Flexibility Score: inf
ROOT
ATOM      1  C   UNL     1     -11.334 -20.000  31.232  1.00  0.00     0.053 C 
ENDROOT
BRANCH   1   2
ATOM      2  C   UNL     1     -10.647 -20.196  32.549  1.00  0.00     0.041 C 
ATOM      3  O   UNL     1     -11.318 -20.227  33.614  1.00  0.00    -0.550 OA
ATOM      4  O   UNL     1      -9.271 -20.379  32.596  1.00  0.00    -0.550 OA
ENDBRANCH   1   2
BRANCH   1   5
ATOM      5  C   UNL     1     -10.359 -20.136  30.054  1.00  0.00     0.006 C 
BRANCH   5   6
ATOM      6  C   UNL     1     -10.184 -18.817  29.289  1.00  0.00    -0.003 C 
ATOM      7  C   UNL     1      -9.689 -19.068  27.868  1.00  0.00     0.004 C 
ENDBRANCH   5   6
ENDBRANCH   1   5
TORSDOF 3
ENDMDL
MODEL 8
REMARK VINA RESULT:    -3.254     20.526     21.446
REMARK INTER + INTRA:          -3.898
REMARK INTER:                  -3.869
REMARK INTRA:                  -0.029
REMARK UNBOUND:                -0.073
REMARK SMILES CCCCC(=O)[O-]
REMARK SMILES IDX 4 1 5 2 6 3 7 4 3 5 2 6 1 7
REMARK H PARENT
REMARK Flexibility Score: inf
ROOT
ATOM      1  C   UNL     1      -0.750 -36.280  21.418  1.00  0.00     0.053 C 
ENDROOT
BRANCH   1   2
ATOM      2  C   UNL     1       0.604 -35.682  21.186  1.00  0.00     0.041 C 
ATOM      3  O   UNL     1       1.277 -35.243  22.155  1.00  0.00    -0.550 OA
ATOM      4  O   UNL     1       1.138 -35.642  19.904  1.00  0.00    -0.550 OA
ENDBRANCH   1   2
BRANCH   1   5
ATOM      5  C   UNL     1      -1.770 -35.225  21.866  1.00  0.00     0.006 C 
BRANCH   5   6
ATOM      6  C   UNL     1      -3.143 -35.839  22.174  1.00  0.00    -0.003 C 
ATOM      7  C   UNL     1      -3.399 -37.073  21.314  1.00  0.00     0.004 C 
ENDBRANCH   5   6
ENDBRANCH   1   5
TORSDOF 3
ENDMDL
MODEL 9
REMARK VINA RESULT:    -3.130     21.047     21.918
REMARK INTER + INTRA:          -3.752
REMARK INTER:                  -3.688
REMARK INTRA:                  -0.063
REMARK UNBOUND:                -0.073
REMARK SMILES CCCCC(=O)[O-]
REMARK SMILES IDX 4 1 5 2 6 3 7 4 3 5 2 6 1 7
REMARK H PARENT
REMARK Flexibility Score: inf
ROOT
ATOM      1  C   UNL     1      -3.549 -36.703  20.574  1.00  0.00     0.053 C 
ENDROOT
BRANCH   1   2
ATOM      2  C   UNL     1      -2.203 -36.489  21.198  1.00  0.00     0.041 C 
ATOM      3  O   UNL     1      -1.473 -37.475  21.480  1.00  0.00    -0.550 OA
ATOM      4  O   UNL     1      -1.742 -35.200  21.436  1.00  0.00    -0.550 OA
ENDBRANCH   1   2
BRANCH   1   5
ATOM      5  C   UNL     1      -3.694 -38.119  20.002  1.00  0.00     0.006 C 
BRANCH   5   6
ATOM      6  C   UNL     1      -3.911 -38.112  18.482  1.00  0.00    -0.003 C 
ATOM      7  C   UNL     1      -4.611 -36.834  18.032  1.00  0.00     0.004 C 
ENDBRANCH   5   6
ENDBRANCH   1   5
TORSDOF 3
ENDMDL
