MODEL 1
REMARK VINA RESULT:    -5.466      0.000      0.000
REMARK INTER + INTRA:          -6.874
REMARK INTER:                  -6.584
REMARK INTRA:                  -0.290
REMARK UNBOUND:                -0.290
REMARK SMILES Oc1cc(O)c2cc(O)c(-c3ccc(O)c(O)c3)[o+]c2c1
REMARK SMILES IDX 10 1 19 2 20 3 21 4 2 5 3 6 4 7 6 8 7 9 8 10 11 11 12 12
REMARK SMILES IDX 13 13 14 14 18 15 16 16 15 17 17 19 9 21 1 23 5 25
REMARK H PARENT 15 18 17 20 9 22 1 24 5 26
REMARK Flexibility Score: inf
ROOT
ATOM      1  C   UNL     1    -116.756  12.571  22.953  1.00  0.00     0.402 A 
ATOM      2  O   UNL     1    -116.760  12.303  21.651  1.00  0.00    -0.202 OA
ATOM      3  C   UNL     1    -117.534  12.936  20.776  1.00  0.00     0.368 A 
ATOM      4  C   UNL     1    -117.465  12.585  19.426  1.00  0.00     0.162 A 
ATOM      5  C   UNL     1    -118.267  13.238  18.485  1.00  0.00     0.128 A 
ATOM      6  C   UNL     1    -119.141  14.247  18.896  1.00  0.00     0.093 A 
ATOM      7  C   UNL     1    -119.228  14.618  20.244  1.00  0.00     0.136 A 
ATOM      8  C   UNL     1    -118.418  13.957  21.203  1.00  0.00     0.125 A 
ATOM      9  C   UNL     1    -118.449  14.253  22.576  1.00  0.00     0.078 A 
ATOM     10  C   UNL     1    -117.625  13.554  23.462  1.00  0.00     0.223 A 
ENDROOT
BRANCH   1  11
ATOM     11  C   UNL     1    -115.838  11.802  23.824  1.00  0.00     0.087 A 
ATOM     12  C   UNL     1    -116.085  10.439  24.052  1.00  0.00     0.022 A 
ATOM     13  C   UNL     1    -115.222   9.688  24.854  1.00  0.00     0.051 A 
ATOM     14  C   UNL     1    -114.092  10.286  25.429  1.00  0.00     0.157 A 
ATOM     15  C   UNL     1    -114.693  12.393  24.386  1.00  0.00     0.068 A 
ATOM     16  C   UNL     1    -113.825  11.640  25.190  1.00  0.00     0.158 A 
BRANCH  14  17
ATOM     17  O   UNL     1    -113.230   9.541  26.232  1.00  0.00    -0.504 OA
ATOM     18  H   UNL     1    -113.578   8.832  26.866  1.00  0.00     0.293 HD
ENDBRANCH  14  17
BRANCH  16  19
ATOM     19  O   UNL     1    -112.692  12.228  25.751  1.00  0.00    -0.504 OA
ATOM     20  H   UNL     1    -112.712  12.640  26.677  1.00  0.00     0.293 HD
ENDBRANCH  16  19
ENDBRANCH   1  11
BRANCH  10  21
ATOM     21  O   UNL     1    -117.691  13.813  24.831  1.00  0.00    -0.500 OA
ATOM     22  H   UNL     1    -117.228  14.614  25.245  1.00  0.00     0.294 HD
ENDBRANCH  10  21
BRANCH   5  23
ATOM     23  O   UNL     1    -118.204  12.893  17.136  1.00  0.00    -0.507 OA
ATOM     24  H   UNL     1    -119.008  12.986  16.528  1.00  0.00     0.293 HD
ENDBRANCH   5  23
BRANCH   7  25
ATOM     25  O   UNL     1    -120.125  15.639  20.573  1.00  0.00    -0.507 OA
ATOM     26  H   UNL     1    -121.117  15.608  20.389  1.00  0.00     0.293 HD
ENDBRANCH   7  25
TORSDOF 6
ENDMDL
MODEL 2
REMARK VINA RESULT:    -5.062     12.776     14.355
REMARK INTER + INTRA:          -6.388
REMARK INTER:                  -6.043
REMARK INTRA:                  -0.345
REMARK UNBOUND:                -0.290
REMARK SMILES Oc1cc(O)c2cc(O)c(-c3ccc(O)c(O)c3)[o+]c2c1
REMARK SMILES IDX 10 1 19 2 20 3 21 4 2 5 3 6 4 7 6 8 7 9 8 10 11 11 12 12
REMARK SMILES IDX 13 13 14 14 18 15 16 16 15 17 17 19 9 21 1 23 5 25
REMARK H PARENT 15 18 17 20 9 22 1 24 5 26
REMARK Flexibility Score: inf
ROOT
ATOM      1  C   UNL     1    -102.729  10.413  21.255  1.00  0.00     0.402 A 
ATOM      2  O   UNL     1    -103.733  10.754  20.453  1.00  0.00    -0.202 OA
ATOM      3  C   UNL     1    -103.740  10.509  19.148  1.00  0.00     0.368 A 
ATOM      4  C   UNL     1    -104.844  10.903  18.387  1.00  0.00     0.162 A 
ATOM      5  C   UNL     1    -104.878  10.655  17.011  1.00  0.00     0.128 A 
ATOM      6  C   UNL     1    -103.805  10.008  16.394  1.00  0.00     0.093 A 
ATOM      7  C   UNL     1    -102.687   9.602  17.135  1.00  0.00     0.136 A 
ATOM      8  C   UNL     1    -102.646   9.855  18.531  1.00  0.00     0.125 A 
ATOM      9  C   UNL     1    -101.562   9.496  19.349  1.00  0.00     0.078 A 
ATOM     10  C   UNL     1    -101.592   9.782  20.716  1.00  0.00     0.223 A 
ENDROOT
BRANCH   1  11
ATOM     11  C   UNL     1    -102.843  10.732  22.697  1.00  0.00     0.087 A 
ATOM     12  C   UNL     1    -102.344  11.954  23.175  1.00  0.00     0.022 A 
ATOM     13  C   UNL     1    -102.459  12.286  24.527  1.00  0.00     0.051 A 
ATOM     14  C   UNL     1    -103.088  11.406  25.419  1.00  0.00     0.157 A 
ATOM     15  C   UNL     1    -103.492   9.862  23.592  1.00  0.00     0.068 A 
ATOM     16  C   UNL     1    -103.609  10.194  24.949  1.00  0.00     0.158 A 
BRANCH  14  17
ATOM     17  O   UNL     1    -103.203  11.732  26.769  1.00  0.00    -0.504 OA
ATOM     18  H   UNL     1    -104.022  12.204  27.132  1.00  0.00     0.293 HD
ENDBRANCH  14  17
BRANCH  16  19
ATOM     19  O   UNL     1    -104.247   9.329  25.836  1.00  0.00    -0.504 OA
ATOM     20  H   UNL     1    -105.010   8.731  25.537  1.00  0.00     0.293 HD
ENDBRANCH  16  19
ENDBRANCH   1  11
BRANCH  10  21
ATOM     21  O   UNL     1    -100.495   9.471  21.520  1.00  0.00    -0.500 OA
ATOM     22  H   UNL     1    -100.084  10.151  22.148  1.00  0.00     0.294 HD
ENDBRANCH  10  21
BRANCH   5  23
ATOM     23  O   UNL     1    -105.975  11.047  16.247  1.00  0.00    -0.507 OA
ATOM     24  H   UNL     1    -106.180  10.614  15.354  1.00  0.00     0.293 HD
ENDBRANCH   5  23
BRANCH   7  25
ATOM     25  O   UNL     1    -101.657   8.959  16.443  1.00  0.00    -0.507 OA
ATOM     26  H   UNL     1    -100.830   9.421  16.092  1.00  0.00     0.293 HD
ENDBRANCH   7  25
TORSDOF 6
ENDMDL
MODEL 3
REMARK VINA RESULT:    -5.043      1.258      2.741
REMARK INTER + INTRA:          -6.364
REMARK INTER:                  -6.282
REMARK INTRA:                  -0.082
REMARK UNBOUND:                -0.290
REMARK SMILES Oc1cc(O)c2cc(O)c(-c3ccc(O)c(O)c3)[o+]c2c1
REMARK SMILES IDX 10 1 19 2 20 3 21 4 2 5 3 6 4 7 6 8 7 9 8 10 11 11 12 12
REMARK SMILES IDX 13 13 14 14 18 15 16 16 15 17 17 19 9 21 1 23 5 25
REMARK H PARENT 15 18 17 20 9 22 1 24 5 26
REMARK Flexibility Score: inf
ROOT
ATOM      1  C   UNL     1    -116.006  11.431  22.385  1.00  0.00     0.402 A 
ATOM      2  O   UNL     1    -116.758  12.495  22.650  1.00  0.00    -0.202 OA
ATOM      3  C   UNL     1    -117.509  13.104  21.739  1.00  0.00     0.368 A 
ATOM      4  C   UNL     1    -118.268  14.215  22.115  1.00  0.00     0.162 A 
ATOM      5  C   UNL     1    -119.069  14.873  21.177  1.00  0.00     0.128 A 
ATOM      6  C   UNL     1    -119.114  14.416  19.857  1.00  0.00     0.093 A 
ATOM      7  C   UNL     1    -118.363  13.303  19.456  1.00  0.00     0.136 A 
ATOM      8  C   UNL     1    -117.546  12.634  20.404  1.00  0.00     0.125 A 
ATOM      9  C   UNL     1    -116.750  11.521  20.088  1.00  0.00     0.078 A 
ATOM     10  C   UNL     1    -115.967  10.917  21.075  1.00  0.00     0.223 A 
ENDROOT
BRANCH   1  11
ATOM     11  C   UNL     1    -115.220  10.835  23.490  1.00  0.00     0.087 A 
ATOM     12  C   UNL     1    -115.352   9.465  23.768  1.00  0.00     0.022 A 
ATOM     13  C   UNL     1    -114.606   8.876  24.792  1.00  0.00     0.051 A 
ATOM     14  C   UNL     1    -113.706   9.645  25.542  1.00  0.00     0.157 A 
ATOM     15  C   UNL     1    -114.302  11.598  24.232  1.00  0.00     0.068 A 
ATOM     16  C   UNL     1    -113.551  11.007  25.259  1.00  0.00     0.158 A 
BRANCH  14  17
ATOM     17  O   UNL     1    -112.962   9.062  26.566  1.00  0.00    -0.504 OA
ATOM     18  H   UNL     1    -112.023   9.374  26.782  1.00  0.00     0.293 HD
ENDBRANCH  14  17
BRANCH  16  19
ATOM     19  O   UNL     1    -112.644  11.766  25.997  1.00  0.00    -0.504 OA
ATOM     20  H   UNL     1    -111.787  11.363  26.359  1.00  0.00     0.293 HD
ENDBRANCH  16  19
ENDBRANCH   1  11
BRANCH  10  21
ATOM     21  O   UNL     1    -115.138   9.842  20.751  1.00  0.00    -0.500 OA
ATOM     22  H   UNL     1    -114.468   9.469  21.412  1.00  0.00     0.294 HD
ENDBRANCH  10  21
BRANCH   5  23
ATOM     23  O   UNL     1    -119.828  15.983  21.544  1.00  0.00    -0.507 OA
ATOM     24  H   UNL     1    -120.835  15.996  21.433  1.00  0.00     0.293 HD
ENDBRANCH   5  23
BRANCH   7  25
ATOM     25  O   UNL     1    -118.465  12.908  18.119  1.00  0.00    -0.507 OA
ATOM     26  H   UNL     1    -118.620  13.540  17.347  1.00  0.00     0.293 HD
ENDBRANCH   7  25
TORSDOF 6
ENDMDL
MODEL 4
REMARK VINA RESULT:    -4.834     18.085     18.994
REMARK INTER + INTRA:          -6.113
REMARK INTER:                  -5.765
REMARK INTRA:                  -0.347
REMARK UNBOUND:                -0.290
REMARK SMILES Oc1cc(O)c2cc(O)c(-c3ccc(O)c(O)c3)[o+]c2c1
REMARK SMILES IDX 10 1 19 2 20 3 21 4 2 5 3 6 4 7 6 8 7 9 8 10 11 11 12 12
REMARK SMILES IDX 13 13 14 14 18 15 16 16 15 17 17 19 9 21 1 23 5 25
REMARK H PARENT 15 18 17 20 9 22 1 24 5 26
REMARK Flexibility Score: inf
ROOT
ATOM      1  C   UNL     1    -105.166  27.508  20.474  1.00  0.00     0.402 A 
ATOM      2  O   UNL     1    -106.176  27.096  19.715  1.00  0.00    -0.202 OA
ATOM      3  C   UNL     1    -107.446  27.135  20.104  1.00  0.00     0.368 A 
ATOM      4  C   UNL     1    -108.439  26.682  19.232  1.00  0.00     0.162 A 
ATOM      5  C   UNL     1    -109.783  26.714  19.617  1.00  0.00     0.128 A 
ATOM      6  C   UNL     1    -110.135  27.203  20.877  1.00  0.00     0.093 A 
ATOM      7  C   UNL     1    -109.158  27.664  21.768  1.00  0.00     0.136 A 
ATOM      8  C   UNL     1    -107.792  27.631  21.384  1.00  0.00     0.125 A 
ATOM      9  C   UNL     1    -106.745  28.059  22.217  1.00  0.00     0.078 A 
ATOM     10  C   UNL     1    -105.423  27.991  21.771  1.00  0.00     0.223 A 
ENDROOT
BRANCH   1  11
ATOM     11  C   UNL     1    -103.794  27.424  19.922  1.00  0.00     0.087 A 
ATOM     12  C   UNL     1    -103.265  28.518  19.219  1.00  0.00     0.022 A 
ATOM     13  C   UNL     1    -101.966  28.470  18.707  1.00  0.00     0.051 A 
ATOM     14  C   UNL     1    -101.172  27.333  18.903  1.00  0.00     0.157 A 
ATOM     15  C   UNL     1    -102.985  26.293  20.134  1.00  0.00     0.068 A 
ATOM     16  C   UNL     1    -101.681  26.244  19.622  1.00  0.00     0.158 A 
BRANCH  14  17
ATOM     17  O   UNL     1     -99.876  27.279  18.391  1.00  0.00    -0.504 OA
ATOM     18  H   UNL     1     -99.498  28.031  17.827  1.00  0.00     0.293 HD
ENDBRANCH  14  17
BRANCH  16  19
ATOM     19  O   UNL     1    -100.883  25.120  19.828  1.00  0.00    -0.504 OA
ATOM     20  H   UNL     1    -100.198  25.086  20.575  1.00  0.00     0.293 HD
ENDBRANCH  16  19
ENDBRANCH   1  11
BRANCH  10  21
ATOM     21  O   UNL     1    -104.379  28.369  22.616  1.00  0.00    -0.500 OA
ATOM     22  H   UNL     1    -103.419  28.109  22.426  1.00  0.00     0.294 HD
ENDBRANCH  10  21
BRANCH   5  23
ATOM     23  O   UNL     1    -110.779  26.263  18.753  1.00  0.00    -0.507 OA
ATOM     24  H   UNL     1    -111.515  26.878  18.426  1.00  0.00     0.293 HD
ENDBRANCH   5  23
BRANCH   7  25
ATOM     25  O   UNL     1    -109.593  28.141  23.008  1.00  0.00    -0.507 OA
ATOM     26  H   UNL     1    -109.217  28.957  23.469  1.00  0.00     0.293 HD
ENDBRANCH   7  25
TORSDOF 6
ENDMDL
MODEL 5
REMARK VINA RESULT:    -4.815     16.990     18.520
REMARK INTER + INTRA:          -6.091
REMARK INTER:                  -5.757
REMARK INTRA:                  -0.334
REMARK UNBOUND:                -0.290
REMARK SMILES Oc1cc(O)c2cc(O)c(-c3ccc(O)c(O)c3)[o+]c2c1
REMARK SMILES IDX 10 1 19 2 20 3 21 4 2 5 3 6 4 7 6 8 7 9 8 10 11 11 12 12
REMARK SMILES IDX 13 13 14 14 18 15 16 16 15 17 17 19 9 21 1 23 5 25
REMARK H PARENT 15 18 17 20 9 22 1 24 5 26
REMARK Flexibility Score: inf
ROOT
ATOM      1  C   UNL     1    -107.802  27.586  20.621  1.00  0.00     0.402 A 
ATOM      2  O   UNL     1    -107.052  26.969  19.712  1.00  0.00    -0.202 OA
ATOM      3  C   UNL     1    -105.729  26.891  19.788  1.00  0.00     0.368 A 
ATOM      4  C   UNL     1    -105.027  26.218  18.785  1.00  0.00     0.162 A 
ATOM      5  C   UNL     1    -103.634  26.119  18.842  1.00  0.00     0.128 A 
ATOM      6  C   UNL     1    -102.939  26.693  19.909  1.00  0.00     0.093 A 
ATOM      7  C   UNL     1    -103.619  27.372  20.928  1.00  0.00     0.136 A 
ATOM      8  C   UNL     1    -105.033  27.479  20.873  1.00  0.00     0.125 A 
ATOM      9  C   UNL     1    -105.795  28.151  21.842  1.00  0.00     0.078 A 
ATOM     10  C   UNL     1    -107.185  28.218  21.717  1.00  0.00     0.223 A 
ENDROOT
BRANCH   1  11
ATOM     11  C   UNL     1    -109.270  27.596  20.430  1.00  0.00     0.087 A 
ATOM     12  C   UNL     1    -109.875  28.691  19.792  1.00  0.00     0.022 A 
ATOM     13  C   UNL     1    -111.256  28.713  19.581  1.00  0.00     0.051 A 
ATOM     14  C   UNL     1    -112.051  27.635  19.993  1.00  0.00     0.157 A 
ATOM     15  C   UNL     1    -110.069  26.507  20.822  1.00  0.00     0.068 A 
ATOM     16  C   UNL     1    -111.455  26.528  20.611  1.00  0.00     0.158 A 
BRANCH  14  17
ATOM     17  O   UNL     1    -113.429  27.654  19.788  1.00  0.00    -0.504 OA
ATOM     18  H   UNL     1    -113.862  28.322  19.160  1.00  0.00     0.293 HD
ENDBRANCH  14  17
BRANCH  16  19
ATOM     19  O   UNL     1    -112.246  25.450  21.005  1.00  0.00    -0.504 OA
ATOM     20  H   UNL     1    -113.143  25.588  21.456  1.00  0.00     0.293 HD
ENDBRANCH  16  19
ENDBRANCH   1  11
BRANCH  10  21
ATOM     21  O   UNL     1    -107.938  28.929  22.652  1.00  0.00    -0.500 OA
ATOM     22  H   UNL     1    -108.636  29.607  22.370  1.00  0.00     0.294 HD
ENDBRANCH  10  21
BRANCH   5  23
ATOM     23  O   UNL     1    -102.928  25.450  17.844  1.00  0.00    -0.507 OA
ATOM     24  H   UNL     1    -102.667  24.477  17.942  1.00  0.00     0.293 HD
ENDBRANCH   5  23
BRANCH   7  25
ATOM     25  O   UNL     1    -102.851  27.917  21.962  1.00  0.00    -0.507 OA
ATOM     26  H   UNL     1    -103.096  27.870  22.940  1.00  0.00     0.293 HD
ENDBRANCH   7  25
TORSDOF 6
ENDMDL
MODEL 6
REMARK VINA RESULT:    -4.755     20.006     21.676
REMARK INTER + INTRA:          -6.018
REMARK INTER:                  -5.706
REMARK INTRA:                  -0.312
REMARK UNBOUND:                -0.290
REMARK SMILES Oc1cc(O)c2cc(O)c(-c3ccc(O)c(O)c3)[o+]c2c1
REMARK SMILES IDX 10 1 19 2 20 3 21 4 2 5 3 6 4 7 6 8 7 9 8 10 11 11 12 12
REMARK SMILES IDX 13 13 14 14 18 15 16 16 15 17 17 19 9 21 1 23 5 25
REMARK H PARENT 15 18 17 20 9 22 1 24 5 26
REMARK Flexibility Score: inf
ROOT
ATOM      1  C   UNL     1    -103.328  23.892  33.471  1.00  0.00     0.402 A 
ATOM      2  O   UNL     1    -103.156  22.943  34.385  1.00  0.00    -0.202 OA
ATOM      3  C   UNL     1    -102.323  21.920  34.229  1.00  0.00     0.368 A 
ATOM      4  C   UNL     1    -102.208  20.973  35.250  1.00  0.00     0.162 A 
ATOM      5  C   UNL     1    -101.337  19.888  35.111  1.00  0.00     0.128 A 
ATOM      6  C   UNL     1    -100.575  19.751  33.948  1.00  0.00     0.093 A 
ATOM      7  C   UNL     1    -100.672  20.687  32.911  1.00  0.00     0.136 A 
ATOM      8  C   UNL     1    -101.557  21.788  33.045  1.00  0.00     0.125 A 
ATOM      9  C   UNL     1    -101.729  22.767  32.052  1.00  0.00     0.078 A 
ATOM     10  C   UNL     1    -102.624  23.820  32.254  1.00  0.00     0.223 A 
ENDROOT
BRANCH   1  11
ATOM     11  C   UNL     1    -104.279  24.988  33.768  1.00  0.00     0.087 A 
ATOM     12  C   UNL     1    -103.861  26.067  34.562  1.00  0.00     0.022 A 
ATOM     13  C   UNL     1    -104.733  27.122  34.839  1.00  0.00     0.051 A 
ATOM     14  C   UNL     1    -106.032  27.121  34.314  1.00  0.00     0.157 A 
ATOM     15  C   UNL     1    -105.577  25.001  33.226  1.00  0.00     0.068 A 
ATOM     16  C   UNL     1    -106.453  26.060  33.502  1.00  0.00     0.158 A 
BRANCH  14  17
ATOM     17  O   UNL     1    -106.907  28.170  34.590  1.00  0.00    -0.504 OA
ATOM     18  H   UNL     1    -106.637  29.136  34.445  1.00  0.00     0.293 HD
ENDBRANCH  14  17
BRANCH  16  19
ATOM     19  O   UNL     1    -107.740  26.069  32.968  1.00  0.00    -0.504 OA
ATOM     20  H   UNL     1    -108.552  26.260  33.545  1.00  0.00     0.293 HD
ENDBRANCH  16  19
ENDBRANCH   1  11
BRANCH  10  21
ATOM     21  O   UNL     1    -102.831  24.765  31.248  1.00  0.00    -0.500 OA
ATOM     22  H   UNL     1    -102.145  25.480  31.039  1.00  0.00     0.294 HD
ENDBRANCH  10  21
BRANCH   5  23
ATOM     23  O   UNL     1    -101.217  18.939  36.125  1.00  0.00    -0.507 OA
ATOM     24  H   UNL     1    -100.327  18.747  36.568  1.00  0.00     0.293 HD
ENDBRANCH   5  23
BRANCH   7  25
ATOM     25  O   UNL     1     -99.875  20.480  31.781  1.00  0.00    -0.507 OA
ATOM     26  H   UNL     1     -99.554  21.214  31.167  1.00  0.00     0.293 HD
ENDBRANCH   7  25
TORSDOF 6
ENDMDL
MODEL 7
REMARK VINA RESULT:    -4.656      2.130      7.111
REMARK INTER + INTRA:          -5.899
REMARK INTER:                  -5.859
REMARK INTRA:                  -0.040
REMARK UNBOUND:                -0.290
REMARK SMILES Oc1cc(O)c2cc(O)c(-c3ccc(O)c(O)c3)[o+]c2c1
REMARK SMILES IDX 10 1 19 2 20 3 21 4 2 5 3 6 4 7 6 8 7 9 8 10 11 11 12 12
REMARK SMILES IDX 13 13 14 14 18 15 16 16 15 17 17 19 9 21 1 23 5 25
REMARK H PARENT 15 18 17 20 9 22 1 24 5 26
REMARK Flexibility Score: inf
ROOT
ATOM      1  C   UNL     1    -115.496  11.314  23.379  1.00  0.00     0.402 A 
ATOM      2  O   UNL     1    -114.288  11.024  22.905  1.00  0.00    -0.202 OA
ATOM      3  C   UNL     1    -113.357  10.393  23.614  1.00  0.00     0.368 A 
ATOM      4  C   UNL     1    -112.117  10.129  23.028  1.00  0.00     0.162 A 
ATOM      5  C   UNL     1    -111.122   9.465  23.751  1.00  0.00     0.128 A 
ATOM      6  C   UNL     1    -111.368   9.061  25.065  1.00  0.00     0.093 A 
ATOM      7  C   UNL     1    -112.604   9.313  25.675  1.00  0.00     0.136 A 
ATOM      8  C   UNL     1    -113.616   9.990  24.947  1.00  0.00     0.125 A 
ATOM      9  C   UNL     1    -114.879  10.297  25.481  1.00  0.00     0.078 A 
ATOM     10  C   UNL     1    -115.824  10.971  24.703  1.00  0.00     0.223 A 
ENDROOT
BRANCH   1  11
ATOM     11  C   UNL     1    -116.450  12.011  22.486  1.00  0.00     0.087 A 
ATOM     12  C   UNL     1    -116.750  11.457  21.231  1.00  0.00     0.022 A 
ATOM     13  C   UNL     1    -117.662  12.086  20.380  1.00  0.00     0.051 A 
ATOM     14  C   UNL     1    -118.299  13.269  20.777  1.00  0.00     0.157 A 
ATOM     15  C   UNL     1    -117.106  13.188  22.888  1.00  0.00     0.068 A 
ATOM     16  C   UNL     1    -118.023  13.819  22.035  1.00  0.00     0.158 A 
BRANCH  14  17
ATOM     17  O   UNL     1    -119.207  13.901  19.930  1.00  0.00    -0.504 OA
ATOM     18  H   UNL     1    -118.916  14.632  19.291  1.00  0.00     0.293 HD
ENDBRANCH  14  17
BRANCH  16  19
ATOM     19  O   UNL     1    -118.670  14.987  22.433  1.00  0.00    -0.504 OA
ATOM     20  H   UNL     1    -119.596  14.967  22.844  1.00  0.00     0.293 HD
ENDBRANCH  16  19
ENDBRANCH   1  11
BRANCH  10  21
ATOM     21  O   UNL     1    -117.059  11.320  25.250  1.00  0.00    -0.500 OA
ATOM     22  H   UNL     1    -117.930  11.004  24.842  1.00  0.00     0.294 HD
ENDBRANCH  10  21
BRANCH   5  23
ATOM     23  O   UNL     1    -109.882   9.199  23.173  1.00  0.00    -0.507 OA
ATOM     24  H   UNL     1    -109.617   9.599  22.281  1.00  0.00     0.293 HD
ENDBRANCH   5  23
BRANCH   7  25
ATOM     25  O   UNL     1    -112.772   8.875  26.992  1.00  0.00    -0.507 OA
ATOM     26  H   UNL     1    -113.616   8.451  27.348  1.00  0.00     0.293 HD
ENDBRANCH   7  25
TORSDOF 6
ENDMDL
MODEL 8
REMARK VINA RESULT:    -4.611     18.898     21.135
REMARK INTER + INTRA:          -5.844
REMARK INTER:                  -5.607
REMARK INTRA:                  -0.237
REMARK UNBOUND:                -0.290
REMARK SMILES Oc1cc(O)c2cc(O)c(-c3ccc(O)c(O)c3)[o+]c2c1
REMARK SMILES IDX 10 1 19 2 20 3 21 4 2 5 3 6 4 7 6 8 7 9 8 10 11 11 12 12
REMARK SMILES IDX 13 13 14 14 18 15 16 16 15 17 17 19 9 21 1 23 5 25
REMARK H PARENT 15 18 17 20 9 22 1 24 5 26
REMARK Flexibility Score: inf
ROOT
ATOM      1  C   UNL     1    -105.628  25.251  34.221  1.00  0.00     0.402 A 
ATOM      2  O   UNL     1    -105.009  24.503  33.313  1.00  0.00    -0.202 OA
ATOM      3  C   UNL     1    -103.733  24.662  32.981  1.00  0.00     0.368 A 
ATOM      4  C   UNL     1    -103.169  23.823  32.017  1.00  0.00     0.162 A 
ATOM      5  C   UNL     1    -101.828  23.968  31.651  1.00  0.00     0.128 A 
ATOM      6  C   UNL     1    -101.045  24.956  32.255  1.00  0.00     0.093 A 
ATOM      7  C   UNL     1    -101.586  25.809  33.225  1.00  0.00     0.136 A 
ATOM      8  C   UNL     1    -102.948  25.668  33.597  1.00  0.00     0.125 A 
ATOM      9  C   UNL     1    -103.578  26.486  34.549  1.00  0.00     0.078 A 
ATOM     10  C   UNL     1    -104.926  26.290  34.860  1.00  0.00     0.223 A 
ENDROOT
BRANCH   1  11
ATOM     11  C   UNL     1    -107.052  24.968  34.511  1.00  0.00     0.087 A 
ATOM     12  C   UNL     1    -107.392  23.808  35.226  1.00  0.00     0.022 A 
ATOM     13  C   UNL     1    -108.727  23.530  35.530  1.00  0.00     0.051 A 
ATOM     14  C   UNL     1    -109.740  24.414  35.135  1.00  0.00     0.157 A 
ATOM     15  C   UNL     1    -108.070  25.862  34.135  1.00  0.00     0.068 A 
ATOM     16  C   UNL     1    -109.410  25.585  34.441  1.00  0.00     0.158 A 
BRANCH  14  17
ATOM     17  O   UNL     1    -111.074  24.139  35.434  1.00  0.00    -0.504 OA
ATOM     18  H   UNL     1    -111.334  23.621  36.264  1.00  0.00     0.293 HD
ENDBRANCH  14  17
BRANCH  16  19
ATOM     19  O   UNL     1    -110.419  26.469  34.063  1.00  0.00    -0.504 OA
ATOM     20  H   UNL     1    -111.009  26.925  34.750  1.00  0.00     0.293 HD
ENDBRANCH  16  19
ENDBRANCH   1  11
BRANCH  10  21
ATOM     21  O   UNL     1    -105.564  27.134  35.769  1.00  0.00    -0.500 OA
ATOM     22  H   UNL     1    -106.483  27.519  35.584  1.00  0.00     0.294 HD
ENDBRANCH  10  21
BRANCH   5  23
ATOM     23  O   UNL     1    -101.260  23.135  30.690  1.00  0.00    -0.507 OA
ATOM     24  H   UNL     1    -100.854  23.508  29.840  1.00  0.00     0.293 HD
ENDBRANCH   5  23
BRANCH   7  25
ATOM     25  O   UNL     1    -100.736  26.769  33.782  1.00  0.00    -0.507 OA
ATOM     26  H   UNL     1    -101.029  27.474  34.443  1.00  0.00     0.293 HD
ENDBRANCH   7  25
TORSDOF 6
ENDMDL
