MODEL 1
REMARK VINA RESULT:    -4.047      0.000      0.000
REMARK INTER + INTRA:          -9.160
REMARK INTER:                  -7.359
REMARK INTRA:                  -1.801
REMARK UNBOUND:                -1.801
REMARK SMILES CCCCCCCCCCCCCCCC(=O)[O-]
REMARK SMILES IDX 9 1 10 2 11 3 12 4 13 5 14 6 15 7 16 8 17 9 18 10 8 11 7 12
REMARK SMILES IDX 6 13 5 14 4 15 3 16 2 17 1 18
REMARK H PARENT
REMARK Flexibility Score: inf
ROOT
ATOM      1  C   UNL     1      -5.700  26.846  32.503  1.00  0.00     0.000 C 
ENDROOT
BRANCH   1   2
ATOM      2  C   UNL     1      -5.946  25.523  33.250  1.00  0.00     0.000 C 
BRANCH   2   3
ATOM      3  C   UNL     1      -7.104  24.712  32.644  1.00  0.00     0.000 C 
BRANCH   3   4
ATOM      4  C   UNL     1      -8.133  24.276  33.701  1.00  0.00     0.000 C 
BRANCH   4   5
ATOM      5  C   UNL     1      -8.265  25.281  34.859  1.00  0.00     0.000 C 
BRANCH   5   6
ATOM      6  C   UNL     1      -8.419  24.652  36.259  1.00  0.00     0.006 C 
BRANCH   6   7
ATOM      7  C   UNL     1      -7.799  23.253  36.403  1.00  0.00     0.053 C 
BRANCH   7   8
ATOM      8  C   UNL     1      -8.836  22.205  36.668  1.00  0.00     0.041 C 
ATOM      9  O   UNL     1      -9.259  21.481  35.728  1.00  0.00    -0.550 OA
ATOM     10  O   UNL     1      -9.360  22.049  37.945  1.00  0.00    -0.550 OA
ENDBRANCH   7   8
ENDBRANCH   6   7
ENDBRANCH   5   6
ENDBRANCH   4   5
ENDBRANCH   3   4
ENDBRANCH   2   3
ENDBRANCH   1   2
BRANCH   1  11
ATOM     11  C   UNL     1      -5.814  28.074  33.421  1.00  0.00     0.000 C 
BRANCH  11  12
ATOM     12  C   UNL     1      -5.876  27.698  34.910  1.00  0.00    -0.000 C 
BRANCH  12  13
ATOM     13  C   UNL     1      -4.827  28.476  35.716  1.00  0.00    -0.000 C 
BRANCH  13  14
ATOM     14  C   UNL     1      -3.930  29.310  34.790  1.00  0.00    -0.000 C 
BRANCH  14  15
ATOM     15  C   UNL     1      -2.445  28.932  34.909  1.00  0.00    -0.000 C 
BRANCH  15  16
ATOM     16  C   UNL     1      -1.903  28.257  33.638  1.00  0.00    -0.000 C 
BRANCH  16  17
ATOM     17  C   UNL     1      -2.063  26.729  33.669  1.00  0.00    -0.003 C 
ATOM     18  C   UNL     1      -2.181  26.118  32.274  1.00  0.00     0.004 C 
ENDBRANCH  16  17
ENDBRANCH  15  16
ENDBRANCH  14  15
ENDBRANCH  13  14
ENDBRANCH  12  13
ENDBRANCH  11  12
ENDBRANCH   1  11
TORSDOF 14
ENDMDL
MODEL 2
REMARK VINA RESULT:    -4.013      1.771      4.398
REMARK INTER + INTRA:          -9.099
REMARK INTER:                  -7.784
REMARK INTRA:                  -1.315
REMARK UNBOUND:                -1.801
REMARK SMILES CCCCCCCCCCCCCCCC(=O)[O-]
REMARK SMILES IDX 9 1 10 2 11 3 12 4 13 5 14 6 15 7 16 8 17 9 18 10 8 11 7 12
REMARK SMILES IDX 6 13 5 14 4 15 3 16 2 17 1 18
REMARK H PARENT
REMARK Flexibility Score: inf
ROOT
ATOM      1  C   UNL     1      -4.143  27.810  33.992  1.00  0.00     0.000 C 
ENDROOT
BRANCH   1   2
ATOM      2  C   UNL     1      -4.846  27.432  32.676  1.00  0.00     0.000 C 
BRANCH   2   3
ATOM      3  C   UNL     1      -4.550  25.985  32.245  1.00  0.00     0.000 C 
BRANCH   3   4
ATOM      4  C   UNL     1      -5.496  24.968  32.907  1.00  0.00     0.000 C 
BRANCH   4   5
ATOM      5  C   UNL     1      -6.741  24.665  32.055  1.00  0.00     0.000 C 
BRANCH   5   6
ATOM      6  C   UNL     1      -8.065  24.567  32.839  1.00  0.00     0.006 C 
BRANCH   6   7
ATOM      7  C   UNL     1      -7.898  24.325  34.348  1.00  0.00     0.053 C 
BRANCH   7   8
ATOM      8  C   UNL     1      -8.751  23.192  34.832  1.00  0.00     0.041 C 
ATOM      9  O   UNL     1      -9.185  23.187  36.014  1.00  0.00    -0.550 OA
ATOM     10  O   UNL     1      -9.038  22.126  33.988  1.00  0.00    -0.550 OA
ENDBRANCH   7   8
ENDBRANCH   6   7
ENDBRANCH   5   6
ENDBRANCH   4   5
ENDBRANCH   3   4
ENDBRANCH   2   3
ENDBRANCH   1   2
BRANCH   1  11
ATOM     11  C   UNL     1      -5.011  28.706  34.890  1.00  0.00     0.000 C 
BRANCH  11  12
ATOM     12  C   UNL     1      -6.004  27.904  35.747  1.00  0.00    -0.000 C 
BRANCH  12  13
ATOM     13  C   UNL     1      -5.537  27.836  37.207  1.00  0.00    -0.000 C 
BRANCH  13  14
ATOM     14  C   UNL     1      -6.618  27.209  38.101  1.00  0.00    -0.000 C 
BRANCH  14  15
ATOM     15  C   UNL     1      -7.229  25.940  37.487  1.00  0.00    -0.000 C 
BRANCH  15  16
ATOM     16  C   UNL     1      -7.553  24.869  38.542  1.00  0.00    -0.000 C 
BRANCH  16  17
ATOM     17  C   UNL     1      -6.560  23.697  38.515  1.00  0.00    -0.003 C 
ATOM     18  C   UNL     1      -7.235  22.345  38.745  1.00  0.00     0.004 C 
ENDBRANCH  16  17
ENDBRANCH  15  16
ENDBRANCH  14  15
ENDBRANCH  13  14
ENDBRANCH  12  13
ENDBRANCH  11  12
ENDBRANCH   1  11
TORSDOF 14
ENDMDL
MODEL 3
REMARK VINA RESULT:    -4.005      1.495      3.602
REMARK INTER + INTRA:          -9.084
REMARK INTER:                  -7.495
REMARK INTRA:                  -1.590
REMARK UNBOUND:                -1.801
REMARK SMILES CCCCCCCCCCCCCCCC(=O)[O-]
REMARK SMILES IDX 9 1 10 2 11 3 12 4 13 5 14 6 15 7 16 8 17 9 18 10 8 11 7 12
REMARK SMILES IDX 6 13 5 14 4 15 3 16 2 17 1 18
REMARK H PARENT
REMARK Flexibility Score: inf
ROOT
ATOM      1  C   UNL     1      -7.566  26.134  34.457  1.00  0.00     0.000 C 
ENDROOT
BRANCH   1   2
ATOM      2  C   UNL     1      -8.213  25.954  35.841  1.00  0.00     0.000 C 
BRANCH   2   3
ATOM      3  C   UNL     1      -7.191  26.048  36.986  1.00  0.00     0.000 C 
BRANCH   3   4
ATOM      4  C   UNL     1      -7.712  25.427  38.294  1.00  0.00     0.000 C 
BRANCH   4   5
ATOM      5  C   UNL     1      -7.047  24.078  38.622  1.00  0.00     0.000 C 
BRANCH   5   6
ATOM      6  C   UNL     1      -6.572  23.266  37.399  1.00  0.00     0.006 C 
BRANCH   6   7
ATOM      7  C   UNL     1      -7.315  21.938  37.186  1.00  0.00     0.053 C 
BRANCH   7   8
ATOM      8  C   UNL     1      -8.732  22.151  36.750  1.00  0.00     0.041 C 
ATOM      9  O   UNL     1      -9.677  21.984  37.566  1.00  0.00    -0.550 OA
ATOM     10  O   UNL     1      -9.012  22.502  35.436  1.00  0.00    -0.550 OA
ENDBRANCH   7   8
ENDBRANCH   6   7
ENDBRANCH   5   6
ENDBRANCH   4   5
ENDBRANCH   3   4
ENDBRANCH   2   3
ENDBRANCH   1   2
BRANCH   1  11
ATOM     11  C   UNL     1      -6.875  24.854  33.957  1.00  0.00     0.000 C 
BRANCH  11  12
ATOM     12  C   UNL     1      -7.202  24.538  32.488  1.00  0.00    -0.000 C 
BRANCH  12  13
ATOM     13  C   UNL     1      -5.946  24.639  31.613  1.00  0.00    -0.000 C 
BRANCH  13  14
ATOM     14  C   UNL     1      -4.749  25.152  32.427  1.00  0.00    -0.000 C 
BRANCH  14  15
ATOM     15  C   UNL     1      -4.234  26.511  31.928  1.00  0.00    -0.000 C 
BRANCH  15  16
ATOM     16  C   UNL     1      -3.525  27.316  33.031  1.00  0.00    -0.000 C 
BRANCH  16  17
ATOM     17  C   UNL     1      -4.382  27.457  34.299  1.00  0.00    -0.003 C 
ATOM     18  C   UNL     1      -4.727  28.910  34.621  1.00  0.00     0.004 C 
ENDBRANCH  16  17
ENDBRANCH  15  16
ENDBRANCH  14  15
ENDBRANCH  13  14
ENDBRANCH  12  13
ENDBRANCH  11  12
ENDBRANCH   1  11
TORSDOF 14
ENDMDL
MODEL 4
REMARK VINA RESULT:    -3.951      4.130      7.208
REMARK INTER + INTRA:          -8.986
REMARK INTER:                  -7.116
REMARK INTRA:                  -1.869
REMARK UNBOUND:                -1.801
REMARK SMILES CCCCCCCCCCCCCCCC(=O)[O-]
REMARK SMILES IDX 9 1 10 2 11 3 12 4 13 5 14 6 15 7 16 8 17 9 18 10 8 11 7 12
REMARK SMILES IDX 6 13 5 14 4 15 3 16 2 17 1 18
REMARK H PARENT
REMARK Flexibility Score: inf
ROOT
ATOM      1  C   UNL     1      -4.932  26.728  33.167  1.00  0.00     0.000 C 
ENDROOT
BRANCH   1   2
ATOM      2  C   UNL     1      -5.720  28.048  33.231  1.00  0.00     0.000 C 
BRANCH   2   3
ATOM      3  C   UNL     1      -5.430  28.845  34.514  1.00  0.00     0.000 C 
BRANCH   3   4
ATOM      4  C   UNL     1      -4.145  28.378  35.220  1.00  0.00     0.000 C 
BRANCH   4   5
ATOM      5  C   UNL     1      -3.040  29.449  35.223  1.00  0.00     0.000 C 
BRANCH   5   6
ATOM      6  C   UNL     1      -1.993  29.314  34.098  1.00  0.00     0.006 C 
BRANCH   6   7
ATOM      7  C   UNL     1      -1.429  27.896  33.916  1.00  0.00     0.053 C 
BRANCH   7   8
ATOM      8  C   UNL     1      -0.033  27.775  34.444  1.00  0.00     0.041 C 
ATOM      9  O   UNL     1       0.257  28.237  35.579  1.00  0.00    -0.550 OA
ATOM     10  O   UNL     1       0.957  27.183  33.669  1.00  0.00    -0.550 OA
ENDBRANCH   7   8
ENDBRANCH   6   7
ENDBRANCH   5   6
ENDBRANCH   4   5
ENDBRANCH   3   4
ENDBRANCH   2   3
ENDBRANCH   1   2
BRANCH   1  11
ATOM     11  C   UNL     1      -5.842  25.506  32.966  1.00  0.00     0.000 C 
BRANCH  11  12
ATOM     12  C   UNL     1      -6.199  24.807  34.288  1.00  0.00    -0.000 C 
BRANCH  12  13
ATOM     13  C   UNL     1      -7.718  24.759  34.492  1.00  0.00    -0.000 C 
BRANCH  13  14
ATOM     14  C   UNL     1      -8.185  25.895  35.415  1.00  0.00    -0.000 C 
BRANCH  14  15
ATOM     15  C   UNL     1      -7.171  26.207  36.527  1.00  0.00    -0.000 C 
BRANCH  15  16
ATOM     16  C   UNL     1      -7.638  25.716  37.908  1.00  0.00    -0.000 C 
BRANCH  16  17
ATOM     17  C   UNL     1      -7.059  24.340  38.270  1.00  0.00    -0.003 C 
ATOM     18  C   UNL     1      -8.056  23.203  38.050  1.00  0.00     0.004 C 
ENDBRANCH  16  17
ENDBRANCH  15  16
ENDBRANCH  14  15
ENDBRANCH  13  14
ENDBRANCH  12  13
ENDBRANCH  11  12
ENDBRANCH   1  11
TORSDOF 14
ENDMDL
MODEL 5
REMARK VINA RESULT:    -3.914      1.680      3.127
REMARK INTER + INTRA:          -8.919
REMARK INTER:                  -7.174
REMARK INTRA:                  -1.745
REMARK UNBOUND:                -1.801
REMARK SMILES CCCCCCCCCCCCCCCC(=O)[O-]
REMARK SMILES IDX 9 1 10 2 11 3 12 4 13 5 14 6 15 7 16 8 17 9 18 10 8 11 7 12
REMARK SMILES IDX 6 13 5 14 4 15 3 16 2 17 1 18
REMARK H PARENT
REMARK Flexibility Score: inf
ROOT
ATOM      1  C   UNL     1      -3.999  25.189  31.638  1.00  0.00     0.000 C 
ENDROOT
BRANCH   1   2
ATOM      2  C   UNL     1      -5.008  25.036  32.790  1.00  0.00     0.000 C 
BRANCH   2   3
ATOM      3  C   UNL     1      -6.413  24.654  32.296  1.00  0.00     0.000 C 
BRANCH   3   4
ATOM      4  C   UNL     1      -7.527  25.215  33.196  1.00  0.00     0.000 C 
BRANCH   4   5
ATOM      5  C   UNL     1      -8.254  24.122  34.000  1.00  0.00     0.000 C 
BRANCH   5   6
ATOM      6  C   UNL     1      -7.993  24.143  35.520  1.00  0.00     0.006 C 
BRANCH   6   7
ATOM      7  C   UNL     1      -7.936  25.548  36.139  1.00  0.00     0.053 C 
BRANCH   7   8
ATOM      8  C   UNL     1      -7.520  25.510  37.578  1.00  0.00     0.041 C 
ATOM      9  O   UNL     1      -7.856  24.542  38.309  1.00  0.00    -0.550 OA
ATOM     10  O   UNL     1      -6.790  26.561  38.120  1.00  0.00    -0.550 OA
ENDBRANCH   7   8
ENDBRANCH   6   7
ENDBRANCH   5   6
ENDBRANCH   4   5
ENDBRANCH   3   4
ENDBRANCH   2   3
ENDBRANCH   1   2
BRANCH   1  11
ATOM     11  C   UNL     1      -2.601  25.598  32.128  1.00  0.00     0.000 C 
BRANCH  11  12
ATOM     12  C   UNL     1      -2.630  26.289  33.500  1.00  0.00    -0.000 C 
BRANCH  12  13
ATOM     13  C   UNL     1      -1.982  27.678  33.430  1.00  0.00    -0.000 C 
BRANCH  13  14
ATOM     14  C   UNL     1      -2.128  28.422  34.765  1.00  0.00    -0.000 C 
BRANCH  14  15
ATOM     15  C   UNL     1      -3.438  29.220  34.856  1.00  0.00    -0.000 C 
BRANCH  15  16
ATOM     16  C   UNL     1      -4.467  28.565  35.792  1.00  0.00    -0.000 C 
BRANCH  16  17
ATOM     17  C   UNL     1      -5.736  28.115  35.050  1.00  0.00    -0.003 C 
ATOM     18  C   UNL     1      -5.671  28.393  33.549  1.00  0.00     0.004 C 
ENDBRANCH  16  17
ENDBRANCH  15  16
ENDBRANCH  14  15
ENDBRANCH  13  14
ENDBRANCH  12  13
ENDBRANCH  11  12
ENDBRANCH   1  11
TORSDOF 14
ENDMDL
MODEL 6
REMARK VINA RESULT:    -3.824      1.469      2.962
REMARK INTER + INTRA:          -8.754
REMARK INTER:                  -7.305
REMARK INTRA:                  -1.449
REMARK UNBOUND:                -1.801
REMARK SMILES CCCCCCCCCCCCCCCC(=O)[O-]
REMARK SMILES IDX 9 1 10 2 11 3 12 4 13 5 14 6 15 7 16 8 17 9 18 10 8 11 7 12
REMARK SMILES IDX 6 13 5 14 4 15 3 16 2 17 1 18
REMARK H PARENT
REMARK Flexibility Score: inf
ROOT
ATOM      1  C   UNL     1      -6.363  25.748  32.620  1.00  0.00     0.000 C 
ENDROOT
BRANCH   1   2
ATOM      2  C   UNL     1      -7.591  25.051  33.234  1.00  0.00     0.000 C 
BRANCH   2   3
ATOM      3  C   UNL     1      -7.978  25.639  34.601  1.00  0.00     0.000 C 
BRANCH   3   4
ATOM      4  C   UNL     1      -7.136  25.060  35.751  1.00  0.00     0.000 C 
BRANCH   4   5
ATOM      5  C   UNL     1      -7.635  25.498  37.139  1.00  0.00     0.000 C 
BRANCH   5   6
ATOM      6  C   UNL     1      -7.179  24.606  38.312  1.00  0.00     0.006 C 
BRANCH   6   7
ATOM      7  C   UNL     1      -6.761  23.184  37.908  1.00  0.00     0.053 C 
BRANCH   7   8
ATOM      8  C   UNL     1      -7.797  22.168  38.279  1.00  0.00     0.041 C 
ATOM      9  O   UNL     1      -8.973  22.274  37.842  1.00  0.00    -0.550 OA
ATOM     10  O   UNL     1      -7.473  21.122  39.135  1.00  0.00    -0.550 OA
ENDBRANCH   7   8
ENDBRANCH   6   7
ENDBRANCH   5   6
ENDBRANCH   4   5
ENDBRANCH   3   4
ENDBRANCH   2   3
ENDBRANCH   1   2
BRANCH   1  11
ATOM     11  C   UNL     1      -5.394  24.758  31.954  1.00  0.00     0.000 C 
BRANCH  11  12
ATOM     12  C   UNL     1      -3.919  25.142  32.159  1.00  0.00    -0.000 C 
BRANCH  12  13
ATOM     13  C   UNL     1      -3.772  26.650  32.398  1.00  0.00    -0.000 C 
BRANCH  13  14
ATOM     14  C   UNL     1      -3.245  26.933  33.813  1.00  0.00    -0.000 C 
BRANCH  14  15
ATOM     15  C   UNL     1      -3.010  28.431  34.067  1.00  0.00    -0.000 C 
BRANCH  15  16
ATOM     16  C   UNL     1      -4.279  29.156  34.547  1.00  0.00    -0.000 C 
BRANCH  16  17
ATOM     17  C   UNL     1      -5.294  28.200  35.193  1.00  0.00    -0.003 C 
ATOM     18  C   UNL     1      -5.419  28.404  36.702  1.00  0.00     0.004 C 
ENDBRANCH  16  17
ENDBRANCH  15  16
ENDBRANCH  14  15
ENDBRANCH  13  14
ENDBRANCH  12  13
ENDBRANCH  11  12
ENDBRANCH   1  11
TORSDOF 14
ENDMDL
MODEL 7
REMARK VINA RESULT:    -3.813      4.461      7.296
REMARK INTER + INTRA:          -8.735
REMARK INTER:                  -7.264
REMARK INTRA:                  -1.471
REMARK UNBOUND:                -1.801
REMARK SMILES CCCCCCCCCCCCCCCC(=O)[O-]
REMARK SMILES IDX 9 1 10 2 11 3 12 4 13 5 14 6 15 7 16 8 17 9 18 10 8 11 7 12
REMARK SMILES IDX 6 13 5 14 4 15 3 16 2 17 1 18
REMARK H PARENT
REMARK Flexibility Score: inf
ROOT
ATOM      1  C   UNL     1      -6.926  25.579  38.065  1.00  0.00     0.000 C 
ENDROOT
BRANCH   1   2
ATOM      2  C   UNL     1      -6.689  27.084  37.849  1.00  0.00     0.000 C 
BRANCH   2   3
ATOM      3  C   UNL     1      -6.340  27.422  36.390  1.00  0.00     0.000 C 
BRANCH   3   4
ATOM      4  C   UNL     1      -5.464  28.680  36.270  1.00  0.00     0.000 C 
BRANCH   4   5
ATOM      5  C   UNL     1      -4.115  28.407  35.580  1.00  0.00     0.000 C 
BRANCH   5   6
ATOM      6  C   UNL     1      -3.610  29.535  34.658  1.00  0.00     0.006 C 
BRANCH   6   7
ATOM      7  C   UNL     1      -2.225  29.284  34.041  1.00  0.00     0.053 C 
BRANCH   7   8
ATOM      8  C   UNL     1      -1.398  30.532  33.993  1.00  0.00     0.041 C 
ATOM      9  O   UNL     1      -0.560  30.701  33.068  1.00  0.00    -0.550 OA
ATOM     10  O   UNL     1      -1.529  31.494  34.987  1.00  0.00    -0.550 OA
ENDBRANCH   7   8
ENDBRANCH   6   7
ENDBRANCH   5   6
ENDBRANCH   4   5
ENDBRANCH   3   4
ENDBRANCH   2   3
ENDBRANCH   1   2
BRANCH   1  11
ATOM     11  C   UNL     1      -8.016  25.014  37.141  1.00  0.00     0.000 C 
BRANCH  11  12
ATOM     12  C   UNL     1      -7.558  23.760  36.379  1.00  0.00    -0.000 C 
BRANCH  12  13
ATOM     13  C   UNL     1      -8.297  23.630  35.041  1.00  0.00    -0.000 C 
BRANCH  13  14
ATOM     14  C   UNL     1      -8.124  24.899  34.193  1.00  0.00    -0.000 C 
BRANCH  14  15
ATOM     15  C   UNL     1      -7.902  24.589  32.704  1.00  0.00    -0.000 C 
BRANCH  15  16
ATOM     16  C   UNL     1      -6.435  24.763  32.276  1.00  0.00    -0.000 C 
BRANCH  16  17
ATOM     17  C   UNL     1      -5.670  25.740  33.183  1.00  0.00    -0.003 C 
ATOM     18  C   UNL     1      -5.454  27.105  32.531  1.00  0.00     0.004 C 
ENDBRANCH  16  17
ENDBRANCH  15  16
ENDBRANCH  14  15
ENDBRANCH  13  14
ENDBRANCH  12  13
ENDBRANCH  11  12
ENDBRANCH   1  11
TORSDOF 14
ENDMDL
MODEL 8
REMARK VINA RESULT:    -3.808      1.543      2.426
REMARK INTER + INTRA:          -8.727
REMARK INTER:                  -7.572
REMARK INTRA:                  -1.154
REMARK UNBOUND:                -1.801
REMARK SMILES CCCCCCCCCCCCCCCC(=O)[O-]
REMARK SMILES IDX 9 1 10 2 11 3 12 4 13 5 14 6 15 7 16 8 17 9 18 10 8 11 7 12
REMARK SMILES IDX 6 13 5 14 4 15 3 16 2 17 1 18
REMARK H PARENT
REMARK Flexibility Score: inf
ROOT
ATOM      1  C   UNL     1      -5.778  26.559  33.185  1.00  0.00     0.000 C 
ENDROOT
BRANCH   1   2
ATOM      2  C   UNL     1      -6.205  25.564  34.278  1.00  0.00     0.000 C 
BRANCH   2   3
ATOM      3  C   UNL     1      -7.712  25.258  34.239  1.00  0.00     0.000 C 
BRANCH   3   4
ATOM      4  C   UNL     1      -8.392  25.476  35.602  1.00  0.00     0.000 C 
BRANCH   4   5
ATOM      5  C   UNL     1      -7.388  25.576  36.763  1.00  0.00     0.000 C 
BRANCH   5   6
ATOM      6  C   UNL     1      -7.863  24.962  38.096  1.00  0.00     0.006 C 
BRANCH   6   7
ATOM      7  C   UNL     1      -7.103  23.696  38.523  1.00  0.00     0.053 C 
BRANCH   7   8
ATOM      8  C   UNL     1      -7.884  22.450  38.239  1.00  0.00     0.041 C 
ATOM      9  O   UNL     1      -9.084  22.527  37.864  1.00  0.00    -0.550 OA
ATOM     10  O   UNL     1      -7.299  21.203  38.420  1.00  0.00    -0.550 OA
ENDBRANCH   7   8
ENDBRANCH   6   7
ENDBRANCH   5   6
ENDBRANCH   4   5
ENDBRANCH   3   4
ENDBRANCH   2   3
ENDBRANCH   1   2
BRANCH   1  11
ATOM     11  C   UNL     1      -5.763  28.014  33.683  1.00  0.00     0.000 C 
BRANCH  11  12
ATOM     12  C   UNL     1      -5.710  28.116  35.216  1.00  0.00    -0.000 C 
BRANCH  12  13
ATOM     13  C   UNL     1      -4.366  28.689  35.682  1.00  0.00    -0.000 C 
BRANCH  13  14
ATOM     14  C   UNL     1      -3.437  28.951  34.487  1.00  0.00    -0.000 C 
BRANCH  14  15
ATOM     15  C   UNL     1      -2.038  28.345  34.683  1.00  0.00    -0.000 C 
BRANCH  15  16
ATOM     16  C   UNL     1      -0.941  29.416  34.807  1.00  0.00    -0.000 C 
BRANCH  16  17
ATOM     17  C   UNL     1      -1.465  30.831  34.515  1.00  0.00    -0.003 C 
ATOM     18  C   UNL     1      -1.041  31.847  35.574  1.00  0.00     0.004 C 
ENDBRANCH  16  17
ENDBRANCH  15  16
ENDBRANCH  14  15
ENDBRANCH  13  14
ENDBRANCH  12  13
ENDBRANCH  11  12
ENDBRANCH   1  11
TORSDOF 14
ENDMDL
MODEL 9
REMARK VINA RESULT:    -3.789      4.869      8.154
REMARK INTER + INTRA:          -8.692
REMARK INTER:                  -7.487
REMARK INTRA:                  -1.204
REMARK UNBOUND:                -1.801
REMARK SMILES CCCCCCCCCCCCCCCC(=O)[O-]
REMARK SMILES IDX 9 1 10 2 11 3 12 4 13 5 14 6 15 7 16 8 17 9 18 10 8 11 7 12
REMARK SMILES IDX 6 13 5 14 4 15 3 16 2 17 1 18
REMARK H PARENT
REMARK Flexibility Score: inf
ROOT
ATOM      1  C   UNL     1      -6.192  26.898  32.960  1.00  0.00     0.000 C 
ENDROOT
BRANCH   1   2
ATOM      2  C   UNL     1      -5.529  28.171  33.515  1.00  0.00     0.000 C 
BRANCH   2   3
ATOM      3  C   UNL     1      -5.541  28.218  35.053  1.00  0.00     0.000 C 
BRANCH   3   4
ATOM      4  C   UNL     1      -4.181  28.632  35.640  1.00  0.00     0.000 C 
BRANCH   4   5
ATOM      5  C   UNL     1      -3.308  29.409  34.638  1.00  0.00     0.000 C 
BRANCH   5   6
ATOM      6  C   UNL     1      -1.967  29.925  35.200  1.00  0.00     0.006 C 
BRANCH   6   7
ATOM      7  C   UNL     1      -1.656  31.393  34.863  1.00  0.00     0.053 C 
BRANCH   7   8
ATOM      8  C   UNL     1      -0.423  31.879  35.562  1.00  0.00     0.041 C 
ATOM      9  O   UNL     1      -0.394  33.032  36.066  1.00  0.00    -0.550 OA
ATOM     10  O   UNL     1       0.705  31.071  35.627  1.00  0.00    -0.550 OA
ENDBRANCH   7   8
ENDBRANCH   6   7
ENDBRANCH   5   6
ENDBRANCH   4   5
ENDBRANCH   3   4
ENDBRANCH   2   3
ENDBRANCH   1   2
BRANCH   1  11
ATOM     11  C   UNL     1      -5.512  25.612  33.458  1.00  0.00     0.000 C 
BRANCH  11  12
ATOM     12  C   UNL     1      -6.404  24.797  34.408  1.00  0.00    -0.000 C 
BRANCH  12  13
ATOM     13  C   UNL     1      -7.866  25.255  34.316  1.00  0.00    -0.000 C 
BRANCH  13  14
ATOM     14  C   UNL     1      -8.578  25.096  35.667  1.00  0.00    -0.000 C 
BRANCH  14  15
ATOM     15  C   UNL     1      -7.660  25.410  36.860  1.00  0.00    -0.000 C 
BRANCH  15  16
ATOM     16  C   UNL     1      -7.542  24.232  37.842  1.00  0.00    -0.000 C 
BRANCH  16  17
ATOM     17  C   UNL     1      -8.044  22.911  37.239  1.00  0.00    -0.003 C 
ATOM     18  C   UNL     1      -8.990  22.158  38.172  1.00  0.00     0.004 C 
ENDBRANCH  16  17
ENDBRANCH  15  16
ENDBRANCH  14  15
ENDBRANCH  13  14
ENDBRANCH  12  13
ENDBRANCH  11  12
ENDBRANCH   1  11
TORSDOF 14
ENDMDL
