MODEL 1
REMARK VINA RESULT:    -3.751      0.000      0.000
REMARK INTER + INTRA:          -5.957
REMARK INTER:                  -5.286
REMARK INTRA:                  -0.670
REMARK UNBOUND:                -0.670
REMARK SMILES CCCCCCCCC(=O)[O-]
REMARK SMILES IDX 6 1 7 2 8 3 9 4 10 5 11 6 5 7 4 8 3 9 2 10 1 11
REMARK H PARENT
REMARK Flexibility Score: inf
ROOT
ATOM      1  C   UNL     1       6.254  48.201  33.094  1.00  0.00     0.000 C 
ENDROOT
BRANCH   1   2
ATOM      2  C   UNL     1       5.426  48.302  31.802  1.00  0.00     0.006 C 
BRANCH   2   3
ATOM      3  C   UNL     1       6.226  47.869  30.566  1.00  0.00     0.053 C 
BRANCH   3   4
ATOM      4  C   UNL     1       5.841  48.652  29.348  1.00  0.00     0.041 C 
ATOM      5  O   UNL     1       5.837  49.911  29.380  1.00  0.00    -0.550 OA
ATOM      6  O   UNL     1       5.456  47.992  28.188  1.00  0.00    -0.550 OA
ENDBRANCH   3   4
ENDBRANCH   2   3
ENDBRANCH   1   2
BRANCH   1   7
ATOM      7  C   UNL     1       7.000  49.504  33.428  1.00  0.00     0.000 C 
BRANCH   7   8
ATOM      8  C   UNL     1       8.521  49.354  33.630  1.00  0.00    -0.000 C 
BRANCH   8   9
ATOM      9  C   UNL     1       9.239  48.480  32.583  1.00  0.00    -0.000 C 
BRANCH   9  10
ATOM     10  C   UNL     1      10.087  49.261  31.563  1.00  0.00    -0.003 C 
ATOM     11  C   UNL     1       9.242  49.997  30.525  1.00  0.00     0.004 C 
ENDBRANCH   9  10
ENDBRANCH   8   9
ENDBRANCH   7   8
ENDBRANCH   1   7
TORSDOF 7
ENDMDL
MODEL 2
REMARK VINA RESULT:    -3.612     16.729     18.065
REMARK INTER + INTRA:          -5.761
REMARK INTER:                  -5.065
REMARK INTRA:                  -0.696
REMARK UNBOUND:                -0.670
REMARK SMILES CCCCCCCCC(=O)[O-]
REMARK SMILES IDX 6 1 7 2 8 3 9 4 10 5 11 6 5 7 4 8 3 9 2 10 1 11
REMARK H PARENT
REMARK Flexibility Score: inf
ROOT
ATOM      1  C   UNL     1      11.432  36.821  19.382  1.00  0.00     0.000 C 
ENDROOT
BRANCH   1   2
ATOM      2  C   UNL     1      12.777  36.154  19.044  1.00  0.00     0.006 C 
BRANCH   2   3
ATOM      3  C   UNL     1      13.656  35.962  20.286  1.00  0.00     0.053 C 
BRANCH   3   4
ATOM      4  C   UNL     1      13.953  34.516  20.543  1.00  0.00     0.041 C 
ATOM      5  O   UNL     1      13.013  33.703  20.745  1.00  0.00    -0.550 OA
ATOM      6  O   UNL     1      15.269  34.072  20.589  1.00  0.00    -0.550 OA
ENDBRANCH   3   4
ENDBRANCH   2   3
ENDBRANCH   1   2
BRANCH   1   7
ATOM      7  C   UNL     1      10.271  35.814  19.462  1.00  0.00     0.000 C 
BRANCH   7   8
ATOM      8  C   UNL     1       9.889  35.367  20.887  1.00  0.00    -0.000 C 
BRANCH   8   9
ATOM      9  C   UNL     1      10.287  36.345  22.010  1.00  0.00    -0.000 C 
BRANCH   9  10
ATOM     10  C   UNL     1      11.271  35.773  23.046  1.00  0.00    -0.003 C 
ATOM     11  C   UNL     1      10.955  36.214  24.474  1.00  0.00     0.004 C 
ENDBRANCH   9  10
ENDBRANCH   8   9
ENDBRANCH   7   8
ENDBRANCH   1   7
TORSDOF 7
ENDMDL
MODEL 3
REMARK VINA RESULT:    -3.575     16.543     17.624
REMARK INTER + INTRA:          -5.709
REMARK INTER:                  -5.051
REMARK INTRA:                  -0.658
REMARK UNBOUND:                -0.670
REMARK SMILES CCCCCCCCC(=O)[O-]
REMARK SMILES IDX 6 1 7 2 8 3 9 4 10 5 11 6 5 7 4 8 3 9 2 10 1 11
REMARK H PARENT
REMARK Flexibility Score: inf
ROOT
ATOM      1  C   UNL     1      10.050  36.344  22.141  1.00  0.00     0.000 C 
ENDROOT
BRANCH   1   2
ATOM      2  C   UNL     1       9.508  36.142  20.715  1.00  0.00     0.006 C 
BRANCH   2   3
ATOM      3  C   UNL     1       9.300  34.660  20.379  1.00  0.00     0.053 C 
BRANCH   3   4
ATOM      4  C   UNL     1       7.866  34.351  20.076  1.00  0.00     0.041 C 
ATOM      5  O   UNL     1       6.953  35.107  20.499  1.00  0.00    -0.550 OA
ATOM      6  O   UNL     1       7.537  33.211  19.353  1.00  0.00    -0.550 OA
ENDBRANCH   3   4
ENDBRANCH   2   3
ENDBRANCH   1   2
BRANCH   1   7
ATOM      7  C   UNL     1      11.284  35.474  22.438  1.00  0.00     0.000 C 
BRANCH   7   8
ATOM      8  C   UNL     1      12.601  35.969  21.809  1.00  0.00    -0.000 C 
BRANCH   8   9
ATOM      9  C   UNL     1      13.211  35.038  20.743  1.00  0.00    -0.000 C 
BRANCH   9  10
ATOM     10  C   UNL     1      13.688  35.746  19.463  1.00  0.00    -0.003 C 
ATOM     11  C   UNL     1      12.676  36.760  18.931  1.00  0.00     0.004 C 
ENDBRANCH   9  10
ENDBRANCH   8   9
ENDBRANCH   7   8
ENDBRANCH   1   7
TORSDOF 7
ENDMDL
MODEL 4
REMARK VINA RESULT:    -3.553     16.563     17.781
REMARK INTER + INTRA:          -5.678
REMARK INTER:                  -5.040
REMARK INTRA:                  -0.637
REMARK UNBOUND:                -0.670
REMARK SMILES CCCCCCCCC(=O)[O-]
REMARK SMILES IDX 6 1 7 2 8 3 9 4 10 5 11 6 5 7 4 8 3 9 2 10 1 11
REMARK H PARENT
REMARK Flexibility Score: inf
ROOT
ATOM      1  C   UNL     1      10.054  36.679  19.582  1.00  0.00     0.000 C 
ENDROOT
BRANCH   1   2
ATOM      2  C   UNL     1       9.947  35.728  20.787  1.00  0.00     0.006 C 
BRANCH   2   3
ATOM      3  C   UNL     1      10.180  36.453  22.118  1.00  0.00     0.053 C 
BRANCH   3   4
ATOM      4  C   UNL     1      10.987  35.625  23.071  1.00  0.00     0.041 C 
ATOM      5  O   UNL     1      11.513  34.548  22.686  1.00  0.00    -0.550 OA
ATOM      6  O   UNL     1      11.133  36.027  24.393  1.00  0.00    -0.550 OA
ENDBRANCH   3   4
ENDBRANCH   2   3
ENDBRANCH   1   2
BRANCH   1   7
ATOM      7  C   UNL     1      11.494  36.815  19.056  1.00  0.00     0.000 C 
BRANCH   7   8
ATOM      8  C   UNL     1      12.395  35.587  19.292  1.00  0.00    -0.000 C 
BRANCH   8   9
ATOM      9  C   UNL     1      13.667  35.855  20.120  1.00  0.00    -0.000 C 
BRANCH   9  10
ATOM     10  C   UNL     1      14.379  34.591  20.636  1.00  0.00    -0.003 C 
ATOM     11  C   UNL     1      13.740  33.299  20.130  1.00  0.00     0.004 C 
ENDBRANCH   9  10
ENDBRANCH   8   9
ENDBRANCH   7   8
ENDBRANCH   1   7
TORSDOF 7
ENDMDL
MODEL 5
REMARK VINA RESULT:    -3.511     17.526     18.796
REMARK INTER + INTRA:          -5.618
REMARK INTER:                  -4.939
REMARK INTRA:                  -0.679
REMARK UNBOUND:                -0.670
REMARK SMILES CCCCCCCCC(=O)[O-]
REMARK SMILES IDX 6 1 7 2 8 3 9 4 10 5 11 6 5 7 4 8 3 9 2 10 1 11
REMARK H PARENT
REMARK Flexibility Score: inf
ROOT
ATOM      1  C   UNL     1      13.784  35.463  20.660  1.00  0.00     0.000 C 
ENDROOT
BRANCH   1   2
ATOM      2  C   UNL     1      14.566  34.217  20.211  1.00  0.00     0.006 C 
BRANCH   2   3
ATOM      3  C   UNL     1      14.353  33.027  21.156  1.00  0.00     0.053 C 
BRANCH   3   4
ATOM      4  C   UNL     1      12.915  32.614  21.220  1.00  0.00     0.041 C 
ATOM      5  O   UNL     1      12.356  32.435  22.334  1.00  0.00    -0.550 OA
ATOM      6  O   UNL     1      12.199  32.397  20.049  1.00  0.00    -0.550 OA
ENDBRANCH   3   4
ENDBRANCH   2   3
ENDBRANCH   1   2
BRANCH   1   7
ATOM      7  C   UNL     1      13.039  36.149  19.502  1.00  0.00     0.000 C 
BRANCH   7   8
ATOM      8  C   UNL     1      11.593  36.579  19.818  1.00  0.00    -0.000 C 
BRANCH   8   9
ATOM      9  C   UNL     1      10.818  35.636  20.758  1.00  0.00    -0.000 C 
BRANCH   9  10
ATOM     10  C   UNL     1      10.346  36.280  22.074  1.00  0.00    -0.003 C 
ATOM     11  C   UNL     1      11.146  35.809  23.288  1.00  0.00     0.004 C 
ENDBRANCH   9  10
ENDBRANCH   8   9
ENDBRANCH   7   8
ENDBRANCH   1   7
TORSDOF 7
ENDMDL
MODEL 6
REMARK VINA RESULT:    -3.501     17.239     18.593
REMARK INTER + INTRA:          -5.604
REMARK INTER:                  -5.061
REMARK INTRA:                  -0.543
REMARK UNBOUND:                -0.670
REMARK SMILES CCCCCCCCC(=O)[O-]
REMARK SMILES IDX 6 1 7 2 8 3 9 4 10 5 11 6 5 7 4 8 3 9 2 10 1 11
REMARK H PARENT
REMARK Flexibility Score: inf
ROOT
ATOM      1  C   UNL     1      12.577  35.885  21.436  1.00  0.00     0.000 C 
ENDROOT
BRANCH   1   2
ATOM      2  C   UNL     1      13.049  34.498  20.964  1.00  0.00     0.006 C 
BRANCH   2   3
ATOM      3  C   UNL     1      12.231  33.363  21.593  1.00  0.00     0.053 C 
BRANCH   3   4
ATOM      4  C   UNL     1      13.073  32.156  21.872  1.00  0.00     0.041 C 
ATOM      5  O   UNL     1      12.537  31.088  22.268  1.00  0.00    -0.550 OA
ATOM      6  O   UNL     1      14.453  32.220  21.726  1.00  0.00    -0.550 OA
ENDBRANCH   3   4
ENDBRANCH   2   3
ENDBRANCH   1   2
BRANCH   1   7
ATOM      7  C   UNL     1      11.505  35.807  22.537  1.00  0.00     0.000 C 
BRANCH   7   8
ATOM      8  C   UNL     1      10.131  36.389  22.153  1.00  0.00    -0.000 C 
BRANCH   8   9
ATOM      9  C   UNL     1       9.764  36.278  20.660  1.00  0.00    -0.000 C 
BRANCH   9  10
ATOM     10  C   UNL     1       9.009  34.993  20.275  1.00  0.00    -0.003 C 
ATOM     11  C   UNL     1       7.492  35.174  20.267  1.00  0.00     0.004 C 
ENDBRANCH   9  10
ENDBRANCH   8   9
ENDBRANCH   7   8
ENDBRANCH   1   7
TORSDOF 7
ENDMDL
MODEL 7
REMARK VINA RESULT:    -3.481     16.968     18.235
REMARK INTER + INTRA:          -5.576
REMARK INTER:                  -5.207
REMARK INTRA:                  -0.369
REMARK UNBOUND:                -0.670
REMARK SMILES CCCCCCCCC(=O)[O-]
REMARK SMILES IDX 6 1 7 2 8 3 9 4 10 5 11 6 5 7 4 8 3 9 2 10 1 11
REMARK H PARENT
REMARK Flexibility Score: inf
ROOT
ATOM      1  C   UNL     1       9.113  33.946  20.040  1.00  0.00     0.000 C 
ENDROOT
BRANCH   1   2
ATOM      2  C   UNL     1       7.920  33.014  19.767  1.00  0.00     0.006 C 
BRANCH   2   3
ATOM      3  C   UNL     1       6.626  33.525  20.413  1.00  0.00     0.053 C 
BRANCH   3   4
ATOM      4  C   UNL     1       5.588  32.450  20.513  1.00  0.00     0.041 C 
ATOM      5  O   UNL     1       4.855  32.370  21.533  1.00  0.00    -0.550 OA
ATOM      6  O   UNL     1       5.451  31.517  19.492  1.00  0.00    -0.550 OA
ENDBRANCH   3   4
ENDBRANCH   2   3
ENDBRANCH   1   2
BRANCH   1   7
ATOM      7  C   UNL     1       8.689  35.409  20.259  1.00  0.00     0.000 C 
BRANCH   7   8
ATOM      8  C   UNL     1       9.820  36.358  20.701  1.00  0.00    -0.000 C 
BRANCH   8   9
ATOM      9  C   UNL     1      10.146  36.334  22.208  1.00  0.00    -0.000 C 
BRANCH   9  10
ATOM     10  C   UNL     1      11.611  36.007  22.547  1.00  0.00    -0.003 C 
ATOM     11  C   UNL     1      12.485  35.835  21.305  1.00  0.00     0.004 C 
ENDBRANCH   9  10
ENDBRANCH   8   9
ENDBRANCH   7   8
ENDBRANCH   1   7
TORSDOF 7
ENDMDL
MODEL 8
REMARK VINA RESULT:    -3.471      2.249      4.224
REMARK INTER + INTRA:          -5.562
REMARK INTER:                  -5.135
REMARK INTRA:                  -0.427
REMARK UNBOUND:                -0.670
REMARK SMILES CCCCCCCCC(=O)[O-]
REMARK SMILES IDX 6 1 7 2 8 3 9 4 10 5 11 6 5 7 4 8 3 9 2 10 1 11
REMARK H PARENT
REMARK Flexibility Score: inf
ROOT
ATOM      1  C   UNL     1       7.208  48.819  33.699  1.00  0.00     0.000 C 
ENDROOT
BRANCH   1   2
ATOM      2  C   UNL     1       8.514  48.472  32.965  1.00  0.00     0.006 C 
BRANCH   2   3
ATOM      3  C   UNL     1       9.454  49.680  32.852  1.00  0.00     0.053 C 
BRANCH   3   4
ATOM      4  C   UNL     1      10.062  49.790  31.488  1.00  0.00     0.041 C 
ATOM      5  O   UNL     1       9.348  49.634  30.462  1.00  0.00    -0.550 OA
ATOM      6  O   UNL     1      11.423  50.033  31.349  1.00  0.00    -0.550 OA
ENDBRANCH   3   4
ENDBRANCH   2   3
ENDBRANCH   1   2
BRANCH   1   7
ATOM      7  C   UNL     1       5.995  48.043  33.157  1.00  0.00     0.000 C 
BRANCH   7   8
ATOM      8  C   UNL     1       6.023  47.763  31.641  1.00  0.00    -0.000 C 
BRANCH   8   9
ATOM      9  C   UNL     1       5.421  48.873  30.757  1.00  0.00    -0.000 C 
BRANCH   9  10
ATOM     10  C   UNL     1       6.040  48.987  29.353  1.00  0.00    -0.003 C 
ATOM     11  C   UNL     1       5.572  47.884  28.405  1.00  0.00     0.004 C 
ENDBRANCH   9  10
ENDBRANCH   8   9
ENDBRANCH   7   8
ENDBRANCH   1   7
TORSDOF 7
ENDMDL
MODEL 9
REMARK VINA RESULT:    -3.405     17.571     18.795
REMARK INTER + INTRA:          -5.469
REMARK INTER:                  -5.027
REMARK INTRA:                  -0.441
REMARK UNBOUND:                -0.670
REMARK SMILES CCCCCCCCC(=O)[O-]
REMARK SMILES IDX 6 1 7 2 8 3 9 4 10 5 11 6 5 7 4 8 3 9 2 10 1 11
REMARK H PARENT
REMARK Flexibility Score: inf
ROOT
ATOM      1  C   UNL     1      13.488  35.851  19.523  1.00  0.00     0.000 C 
ENDROOT
BRANCH   1   2
ATOM      2  C   UNL     1      13.952  34.385  19.484  1.00  0.00     0.006 C 
BRANCH   2   3
ATOM      3  C   UNL     1      13.872  33.716  20.862  1.00  0.00     0.053 C 
BRANCH   3   4
ATOM      4  C   UNL     1      15.106  32.925  21.173  1.00  0.00     0.041 C 
ATOM      5  O   UNL     1      16.226  33.303  20.740  1.00  0.00    -0.550 OA
ATOM      6  O   UNL     1      15.015  31.753  21.913  1.00  0.00    -0.550 OA
ENDBRANCH   3   4
ENDBRANCH   2   3
ENDBRANCH   1   2
BRANCH   1   7
ATOM      7  C   UNL     1      12.712  36.198  20.806  1.00  0.00     0.000 C 
BRANCH   7   8
ATOM      8  C   UNL     1      11.178  36.204  20.660  1.00  0.00    -0.000 C 
BRANCH   8   9
ATOM      9  C   UNL     1      10.392  36.198  21.987  1.00  0.00    -0.000 C 
BRANCH   9  10
ATOM     10  C   UNL     1      11.089  35.463  23.146  1.00  0.00    -0.003 C 
ATOM     11  C   UNL     1      11.070  36.257  24.451  1.00  0.00     0.004 C 
ENDBRANCH   9  10
ENDBRANCH   8   9
ENDBRANCH   7   8
ENDBRANCH   1   7
TORSDOF 7
ENDMDL
