MODEL 1
REMARK VINA RESULT:    -4.014      0.000      0.000
REMARK INTER + INTRA:          -7.845
REMARK INTER:                  -7.299
REMARK INTRA:                  -0.546
REMARK UNBOUND:                -0.546
REMARK SMILES CCCCCC=CCC=CCCCCCCCC(=O)[O-]
REMARK SMILES IDX 11 1 12 2 13 3 14 4 15 5 16 6 17 7 18 8 19 9 20 10 10 11
REMARK SMILES IDX 9 12 8 13 7 14 6 15 5 16 4 17 3 18 2 19 1 20
REMARK H PARENT
REMARK Flexibility Score: inf
ROOT
ATOM      1  C   UNL     1     417.606 -84.101 117.836  1.00  0.00     0.027 C 
ENDROOT
BRANCH   1   2
ATOM      2  C   UNL     1     418.365 -83.890 119.159  1.00  0.00     0.004 C 
BRANCH   2   3
ATOM      3  C   UNL     1     419.794 -84.463 119.162  1.00  0.00     0.000 C 
BRANCH   3   4
ATOM      4  C   UNL     1     420.061 -85.382 120.367  1.00  0.00     0.000 C 
BRANCH   4   5
ATOM      5  C   UNL     1     420.246 -86.851 119.956  1.00  0.00     0.000 C 
BRANCH   5   6
ATOM      6  C   UNL     1     420.351 -87.792 121.169  1.00  0.00     0.006 C 
BRANCH   6   7
ATOM      7  C   UNL     1     420.582 -89.251 120.752  1.00  0.00     0.053 C 
BRANCH   7   8
ATOM      8  C   UNL     1     422.036 -89.611 120.757  1.00  0.00     0.041 C 
ATOM      9  O   UNL     1     422.875 -88.870 120.181  1.00  0.00    -0.550 OA
ATOM     10  O   UNL     1     422.461 -90.783 121.370  1.00  0.00    -0.550 OA
ENDBRANCH   7   8
ENDBRANCH   6   7
ENDBRANCH   5   6
ENDBRANCH   4   5
ENDBRANCH   3   4
ENDBRANCH   2   3
ENDBRANCH   1   2
BRANCH   1  11
ATOM     11  C   UNL     1     416.112 -84.064 118.015  1.00  0.00    -0.031 C 
ATOM     12  C   UNL     1     415.353 -85.152 117.822  1.00  0.00    -0.027 C 
BRANCH  12  13
ATOM     13  C   UNL     1     413.863 -85.094 118.020  1.00  0.00     0.054 C 
BRANCH  13  14
ATOM     14  C   UNL     1     413.158 -84.771 116.733  1.00  0.00    -0.027 C 
ATOM     15  C   UNL     1     412.845 -85.731 115.848  1.00  0.00    -0.031 C 
BRANCH  15  16
ATOM     16  C   UNL     1     412.129 -85.416 114.564  1.00  0.00     0.027 C 
BRANCH  16  17
ATOM     17  C   UNL     1     410.782 -84.735 114.836  1.00  0.00     0.004 C 
BRANCH  17  18
ATOM     18  C   UNL     1     409.671 -85.772 115.037  1.00  0.00     0.000 C 
BRANCH  18  19
ATOM     19  C   UNL     1     408.341 -85.274 114.461  1.00  0.00    -0.003 C 
ATOM     20  C   UNL     1     407.158 -85.816 115.258  1.00  0.00     0.004 C 
ENDBRANCH  18  19
ENDBRANCH  17  18
ENDBRANCH  16  17
ENDBRANCH  15  16
ENDBRANCH  13  14
ENDBRANCH  12  13
ENDBRANCH   1  11
TORSDOF 14
ENDMDL
MODEL 2
REMARK VINA RESULT:    -3.880      5.316     10.927
REMARK INTER + INTRA:          -7.602
REMARK INTER:                  -6.871
REMARK INTRA:                  -0.732
REMARK UNBOUND:                -0.546
REMARK SMILES CCCCCC=CCC=CCCCCCCCC(=O)[O-]
REMARK SMILES IDX 11 1 12 2 13 3 14 4 15 5 16 6 17 7 18 8 19 9 20 10 10 11
REMARK SMILES IDX 9 12 8 13 7 14 6 15 5 16 4 17 3 18 2 19 1 20
REMARK H PARENT
REMARK Flexibility Score: inf
ROOT
ATOM      1  C   UNL     1     414.374 -84.566 118.402  1.00  0.00     0.027 C 
ENDROOT
BRANCH   1   2
ATOM      2  C   UNL     1     413.856 -85.485 117.281  1.00  0.00     0.004 C 
BRANCH   2   3
ATOM      3  C   UNL     1     412.901 -84.793 116.291  1.00  0.00     0.000 C 
BRANCH   3   4
ATOM      4  C   UNL     1     412.566 -85.676 115.076  1.00  0.00     0.000 C 
BRANCH   4   5
ATOM      5  C   UNL     1     412.095 -84.856 113.865  1.00  0.00     0.000 C 
BRANCH   5   6
ATOM      6  C   UNL     1     410.597 -84.513 113.935  1.00  0.00     0.006 C 
BRANCH   6   7
ATOM      7  C   UNL     1     409.776 -85.631 114.592  1.00  0.00     0.053 C 
BRANCH   7   8
ATOM      8  C   UNL     1     408.309 -85.330 114.579  1.00  0.00     0.041 C 
ATOM      9  O   UNL     1     407.862 -84.381 113.881  1.00  0.00    -0.550 OA
ATOM     10  O   UNL     1     407.437 -86.076 115.362  1.00  0.00    -0.550 OA
ENDBRANCH   7   8
ENDBRANCH   6   7
ENDBRANCH   5   6
ENDBRANCH   4   5
ENDBRANCH   3   4
ENDBRANCH   2   3
ENDBRANCH   1   2
BRANCH   1  11
ATOM     11  C   UNL     1     415.693 -83.926 118.062  1.00  0.00    -0.031 C 
ATOM     12  C   UNL     1     416.799 -84.658 117.863  1.00  0.00    -0.027 C 
BRANCH  12  13
ATOM     13  C   UNL     1     418.103 -83.997 117.511  1.00  0.00     0.054 C 
BRANCH  13  14
ATOM     14  C   UNL     1     419.244 -84.604 118.278  1.00  0.00    -0.027 C 
ATOM     15  C   UNL     1     419.413 -84.359 119.588  1.00  0.00    -0.031 C 
BRANCH  15  16
ATOM     16  C   UNL     1     420.544 -84.974 120.364  1.00  0.00     0.027 C 
BRANCH  16  17
ATOM     17  C   UNL     1     420.127 -86.314 120.982  1.00  0.00     0.004 C 
BRANCH  17  18
ATOM     18  C   UNL     1     420.650 -87.491 120.150  1.00  0.00     0.000 C 
BRANCH  18  19
ATOM     19  C   UNL     1     420.455 -88.819 120.889  1.00  0.00    -0.003 C 
ATOM     20  C   UNL     1     421.759 -89.608 120.958  1.00  0.00     0.004 C 
ENDBRANCH  18  19
ENDBRANCH  17  18
ENDBRANCH  16  17
ENDBRANCH  15  16
ENDBRANCH  13  14
ENDBRANCH  12  13
ENDBRANCH   1  11
TORSDOF 14
ENDMDL
MODEL 3
REMARK VINA RESULT:    -3.729      2.227      4.274
REMARK INTER + INTRA:          -7.328
REMARK INTER:                  -6.525
REMARK INTRA:                  -0.803
REMARK UNBOUND:                -0.546
REMARK SMILES CCCCCC=CCC=CCCCCCCCC(=O)[O-]
REMARK SMILES IDX 11 1 12 2 13 3 14 4 15 5 16 6 17 7 18 8 19 9 20 10 10 11
REMARK SMILES IDX 9 12 8 13 7 14 6 15 5 16 4 17 3 18 2 19 1 20
REMARK H PARENT
REMARK Flexibility Score: inf
ROOT
ATOM      1  C   UNL     1     413.603 -85.528 117.267  1.00  0.00     0.027 C 
ENDROOT
BRANCH   1   2
ATOM      2  C   UNL     1     414.346 -84.606 118.251  1.00  0.00     0.004 C 
BRANCH   2   3
ATOM      3  C   UNL     1     415.556 -83.877 117.639  1.00  0.00     0.000 C 
BRANCH   3   4
ATOM      4  C   UNL     1     416.891 -84.568 117.967  1.00  0.00     0.000 C 
BRANCH   4   5
ATOM      5  C   UNL     1     418.091 -83.875 117.301  1.00  0.00     0.000 C 
BRANCH   5   6
ATOM      6  C   UNL     1     419.429 -84.263 117.952  1.00  0.00     0.006 C 
BRANCH   6   7
ATOM      7  C   UNL     1     419.380 -84.160 119.483  1.00  0.00     0.053 C 
BRANCH   7   8
ATOM      8  C   UNL     1     419.955 -85.374 120.144  1.00  0.00     0.041 C 
ATOM      9  O   UNL     1     420.326 -86.358 119.451  1.00  0.00    -0.550 OA
ATOM     10  O   UNL     1     420.051 -85.434 121.529  1.00  0.00    -0.550 OA
ENDBRANCH   7   8
ENDBRANCH   6   7
ENDBRANCH   5   6
ENDBRANCH   4   5
ENDBRANCH   3   4
ENDBRANCH   2   3
ENDBRANCH   1   2
BRANCH   1  11
ATOM     11  C   UNL     1     412.949 -84.767 116.144  1.00  0.00    -0.031 C 
ATOM     12  C   UNL     1     412.395 -85.396 115.099  1.00  0.00    -0.027 C 
BRANCH  12  13
ATOM     13  C   UNL     1     411.735 -84.615 113.995  1.00  0.00     0.054 C 
BRANCH  13  14
ATOM     14  C   UNL     1     410.267 -84.925 113.915  1.00  0.00    -0.027 C 
ATOM     15  C   UNL     1     409.464 -84.784 114.982  1.00  0.00    -0.031 C 
BRANCH  15  16
ATOM     16  C   UNL     1     407.993 -85.080 114.905  1.00  0.00     0.027 C 
BRANCH  16  17
ATOM     17  C   UNL     1     407.238 -83.949 114.194  1.00  0.00     0.004 C 
BRANCH  17  18
ATOM     18  C   UNL     1     406.001 -84.488 113.465  1.00  0.00     0.000 C 
BRANCH  18  19
ATOM     19  C   UNL     1     405.478 -85.762 114.136  1.00  0.00    -0.003 C 
ATOM     20  C   UNL     1     404.729 -86.642 113.140  1.00  0.00     0.004 C 
ENDBRANCH  18  19
ENDBRANCH  17  18
ENDBRANCH  16  17
ENDBRANCH  15  16
ENDBRANCH  13  14
ENDBRANCH  12  13
ENDBRANCH   1  11
TORSDOF 14
ENDMDL
MODEL 4
REMARK VINA RESULT:    -3.600      4.544     10.726
REMARK INTER + INTRA:          -7.093
REMARK INTER:                  -6.172
REMARK INTRA:                  -0.921
REMARK UNBOUND:                -0.546
REMARK SMILES CCCCCC=CCC=CCCCCCCCC(=O)[O-]
REMARK SMILES IDX 11 1 12 2 13 3 14 4 15 5 16 6 17 7 18 8 19 9 20 10 10 11
REMARK SMILES IDX 9 12 8 13 7 14 6 15 5 16 4 17 3 18 2 19 1 20
REMARK H PARENT
REMARK Flexibility Score: inf
ROOT
ATOM      1  C   UNL     1     417.502 -84.874 117.489  1.00  0.00     0.027 C 
ENDROOT
BRANCH   1   2
ATOM      2  C   UNL     1     416.603 -83.875 118.241  1.00  0.00     0.004 C 
BRANCH   2   3
ATOM      3  C   UNL     1     415.111 -83.971 117.872  1.00  0.00     0.000 C 
BRANCH   3   4
ATOM      4  C   UNL     1     414.494 -85.328 118.251  1.00  0.00     0.000 C 
BRANCH   4   5
ATOM      5  C   UNL     1     413.473 -85.820 117.214  1.00  0.00     0.000 C 
BRANCH   5   6
ATOM      6  C   UNL     1     412.895 -84.672 116.368  1.00  0.00     0.006 C 
BRANCH   6   7
ATOM      7  C   UNL     1     411.375 -84.789 116.193  1.00  0.00     0.053 C 
BRANCH   7   8
ATOM      8  C   UNL     1     411.007 -85.334 114.847  1.00  0.00     0.041 C 
ATOM      9  O   UNL     1     411.885 -85.463 113.953  1.00  0.00    -0.550 OA
ATOM     10  O   UNL     1     409.688 -85.669 114.568  1.00  0.00    -0.550 OA
ENDBRANCH   7   8
ENDBRANCH   6   7
ENDBRANCH   5   6
ENDBRANCH   4   5
ENDBRANCH   3   4
ENDBRANCH   2   3
ENDBRANCH   1   2
BRANCH   1  11
ATOM     11  C   UNL     1     418.936 -84.814 117.940  1.00  0.00    -0.031 C 
ATOM     12  C   UNL     1     419.284 -85.055 119.212  1.00  0.00    -0.027 C 
BRANCH  12  13
ATOM     13  C   UNL     1     420.726 -85.003 119.638  1.00  0.00     0.054 C 
BRANCH  13  14
ATOM     14  C   UNL     1     421.172 -86.322 120.203  1.00  0.00    -0.027 C 
ATOM     15  C   UNL     1     420.841 -86.696 121.450  1.00  0.00    -0.031 C 
BRANCH  15  16
ATOM     16  C   UNL     1     421.274 -88.019 122.017  1.00  0.00     0.027 C 
BRANCH  16  17
ATOM     17  C   UNL     1     422.800 -88.165 121.977  1.00  0.00     0.004 C 
BRANCH  17  18
ATOM     18  C   UNL     1     423.208 -89.512 121.369  1.00  0.00     0.000 C 
BRANCH  18  19
ATOM     19  C   UNL     1     421.977 -90.354 121.018  1.00  0.00    -0.003 C 
ATOM     20  C   UNL     1     422.376 -91.651 120.322  1.00  0.00     0.004 C 
ENDBRANCH  18  19
ENDBRANCH  17  18
ENDBRANCH  16  17
ENDBRANCH  15  16
ENDBRANCH  13  14
ENDBRANCH  12  13
ENDBRANCH   1  11
TORSDOF 14
ENDMDL
MODEL 5
REMARK VINA RESULT:    -3.587      7.269      9.269
REMARK INTER + INTRA:          -7.068
REMARK INTER:                  -4.837
REMARK INTRA:                  -2.232
REMARK UNBOUND:                -0.546
REMARK SMILES CCCCCC=CCC=CCCCCCCCC(=O)[O-]
REMARK SMILES IDX 11 1 12 2 13 3 14 4 15 5 16 6 17 7 18 8 19 9 20 10 10 11
REMARK SMILES IDX 9 12 8 13 7 14 6 15 5 16 4 17 3 18 2 19 1 20
REMARK H PARENT
REMARK Flexibility Score: inf
ROOT
ATOM      1  C   UNL     1     420.028 -88.403 120.186  1.00  0.00     0.027 C 
ENDROOT
BRANCH   1   2
ATOM      2  C   UNL     1     420.582 -89.511 121.101  1.00  0.00     0.004 C 
BRANCH   2   3
ATOM      3  C   UNL     1     420.450 -90.931 120.520  1.00  0.00     0.000 C 
BRANCH   3   4
ATOM      4  C   UNL     1     421.813 -91.564 120.192  1.00  0.00     0.000 C 
BRANCH   4   5
ATOM      5  C   UNL     1     422.778 -91.536 121.389  1.00  0.00     0.000 C 
BRANCH   5   6
ATOM      6  C   UNL     1     424.122 -90.872 121.044  1.00  0.00     0.006 C 
BRANCH   6   7
ATOM      7  C   UNL     1     424.010 -89.925 119.842  1.00  0.00     0.053 C 
BRANCH   7   8
ATOM      8  C   UNL     1     423.963 -88.489 120.264  1.00  0.00     0.041 C 
ATOM      9  O   UNL     1     423.930 -88.187 121.487  1.00  0.00    -0.550 OA
ATOM     10  O   UNL     1     423.921 -87.482 119.307  1.00  0.00    -0.550 OA
ENDBRANCH   7   8
ENDBRANCH   6   7
ENDBRANCH   5   6
ENDBRANCH   4   5
ENDBRANCH   3   4
ENDBRANCH   2   3
ENDBRANCH   1   2
BRANCH   1  11
ATOM     11  C   UNL     1     420.451 -87.027 120.623  1.00  0.00    -0.031 C 
ATOM     12  C   UNL     1     420.815 -86.088 119.738  1.00  0.00    -0.027 C 
BRANCH  12  13
ATOM     13  C   UNL     1     421.221 -84.715 120.198  1.00  0.00     0.054 C 
BRANCH  13  14
ATOM     14  C   UNL     1     421.488 -84.696 121.677  1.00  0.00    -0.027 C 
ATOM     15  C   UNL     1     422.721 -84.905 122.166  1.00  0.00    -0.031 C 
BRANCH  15  16
ATOM     16  C   UNL     1     422.998 -84.875 123.643  1.00  0.00     0.027 C 
BRANCH  16  17
ATOM     17  C   UNL     1     421.803 -85.413 124.441  1.00  0.00     0.004 C 
BRANCH  17  18
ATOM     18  C   UNL     1     421.626 -86.919 124.218  1.00  0.00     0.000 C 
BRANCH  18  19
ATOM     19  C   UNL     1     420.158 -87.331 124.372  1.00  0.00    -0.003 C 
ATOM     20  C   UNL     1     419.226 -86.149 124.127  1.00  0.00     0.004 C 
ENDBRANCH  18  19
ENDBRANCH  17  18
ENDBRANCH  16  17
ENDBRANCH  15  16
ENDBRANCH  13  14
ENDBRANCH  12  13
ENDBRANCH   1  11
TORSDOF 14
ENDMDL
MODEL 6
REMARK VINA RESULT:    -3.493      5.333      8.689
REMARK INTER + INTRA:          -6.898
REMARK INTER:                  -5.107
REMARK INTRA:                  -1.790
REMARK UNBOUND:                -0.546
REMARK SMILES CCCCCC=CCC=CCCCCCCCC(=O)[O-]
REMARK SMILES IDX 11 1 12 2 13 3 14 4 15 5 16 6 17 7 18 8 19 9 20 10 10 11
REMARK SMILES IDX 9 12 8 13 7 14 6 15 5 16 4 17 3 18 2 19 1 20
REMARK H PARENT
REMARK Flexibility Score: inf
ROOT
ATOM      1  C   UNL     1     424.125 -90.461 119.606  1.00  0.00     0.027 C 
ENDROOT
BRANCH   1   2
ATOM      2  C   UNL     1     423.415 -90.658 120.958  1.00  0.00     0.004 C 
BRANCH   2   3
ATOM      3  C   UNL     1     421.950 -91.117 120.838  1.00  0.00     0.000 C 
BRANCH   3   4
ATOM      4  C   UNL     1     420.956 -89.944 120.890  1.00  0.00     0.000 C 
BRANCH   4   5
ATOM      5  C   UNL     1     421.450 -88.795 121.783  1.00  0.00     0.000 C 
BRANCH   5   6
ATOM      6  C   UNL     1     420.327 -87.807 122.143  1.00  0.00     0.006 C 
BRANCH   6   7
ATOM      7  C   UNL     1     420.607 -87.066 123.458  1.00  0.00     0.053 C 
BRANCH   7   8
ATOM      8  C   UNL     1     419.383 -86.383 123.987  1.00  0.00     0.041 C 
ATOM      9  O   UNL     1     418.962 -85.326 123.446  1.00  0.00    -0.550 OA
ATOM     10  O   UNL     1     418.726 -86.895 125.099  1.00  0.00    -0.550 OA
ENDBRANCH   7   8
ENDBRANCH   6   7
ENDBRANCH   5   6
ENDBRANCH   4   5
ENDBRANCH   3   4
ENDBRANCH   2   3
ENDBRANCH   1   2
BRANCH   1  11
ATOM     11  C   UNL     1     424.085 -89.032 119.135  1.00  0.00    -0.031 C 
ATOM     12  C   UNL     1     424.113 -88.007 119.998  1.00  0.00    -0.027 C 
BRANCH  12  13
ATOM     13  C   UNL     1     424.086 -86.586 119.503  1.00  0.00     0.054 C 
BRANCH  13  14
ATOM     14  C   UNL     1     422.837 -85.880 119.951  1.00  0.00    -0.027 C 
ATOM     15  C   UNL     1     422.870 -84.609 120.384  1.00  0.00    -0.031 C 
BRANCH  15  16
ATOM     16  C   UNL     1     421.623 -83.894 120.822  1.00  0.00     0.027 C 
BRANCH  16  17
ATOM     17  C   UNL     1     420.366 -84.618 120.323  1.00  0.00     0.004 C 
BRANCH  17  18
ATOM     18  C   UNL     1     419.894 -84.040 118.983  1.00  0.00     0.000 C 
BRANCH  18  19
ATOM     19  C   UNL     1     419.181 -85.106 118.144  1.00  0.00    -0.003 C 
ATOM     20  C   UNL     1     417.843 -84.591 117.621  1.00  0.00     0.004 C 
ENDBRANCH  18  19
ENDBRANCH  17  18
ENDBRANCH  16  17
ENDBRANCH  15  16
ENDBRANCH  13  14
ENDBRANCH  12  13
ENDBRANCH   1  11
TORSDOF 14
ENDMDL
MODEL 7
REMARK VINA RESULT:    -3.486      6.185     11.678
REMARK INTER + INTRA:          -6.885
REMARK INTER:                  -6.241
REMARK INTRA:                  -0.643
REMARK UNBOUND:                -0.546
REMARK SMILES CCCCCC=CCC=CCCCCCCCC(=O)[O-]
REMARK SMILES IDX 11 1 12 2 13 3 14 4 15 5 16 6 17 7 18 8 19 9 20 10 10 11
REMARK SMILES IDX 9 12 8 13 7 14 6 15 5 16 4 17 3 18 2 19 1 20
REMARK H PARENT
REMARK Flexibility Score: inf
ROOT
ATOM      1  C   UNL     1     412.017 -84.513 116.070  1.00  0.00     0.027 C 
ENDROOT
BRANCH   1   2
ATOM      2  C   UNL     1     411.790 -85.325 114.781  1.00  0.00     0.004 C 
BRANCH   2   3
ATOM      3  C   UNL     1     411.357 -84.476 113.572  1.00  0.00     0.000 C 
BRANCH   3   4
ATOM      4  C   UNL     1     409.841 -84.536 113.319  1.00  0.00     0.000 C 
BRANCH   4   5
ATOM      5  C   UNL     1     409.029 -84.572 114.623  1.00  0.00     0.000 C 
BRANCH   5   6
ATOM      6  C   UNL     1     408.142 -85.825 114.729  1.00  0.00     0.006 C 
BRANCH   6   7
ATOM      7  C   UNL     1     406.753 -85.506 115.300  1.00  0.00     0.053 C 
BRANCH   7   8
ATOM      8  C   UNL     1     405.713 -85.420 114.226  1.00  0.00     0.041 C 
ATOM      9  O   UNL     1     405.224 -84.305 113.903  1.00  0.00    -0.550 OA
ATOM     10  O   UNL     1     405.258 -86.576 113.602  1.00  0.00    -0.550 OA
ENDBRANCH   7   8
ENDBRANCH   6   7
ENDBRANCH   5   6
ENDBRANCH   4   5
ENDBRANCH   3   4
ENDBRANCH   2   3
ENDBRANCH   1   2
BRANCH   1  11
ATOM     11  C   UNL     1     413.215 -84.986 116.848  1.00  0.00    -0.031 C 
ATOM     12  C   UNL     1     413.972 -84.137 117.557  1.00  0.00    -0.027 C 
BRANCH  12  13
ATOM     13  C   UNL     1     415.158 -84.635 118.338  1.00  0.00     0.054 C 
BRANCH  13  14
ATOM     14  C   UNL     1     416.417 -83.929 117.919  1.00  0.00    -0.027 C 
ATOM     15  C   UNL     1     417.593 -84.576 117.859  1.00  0.00    -0.031 C 
BRANCH  15  16
ATOM     16  C   UNL     1     418.854 -83.879 117.430  1.00  0.00     0.027 C 
BRANCH  16  17
ATOM     17  C   UNL     1     419.994 -84.135 118.423  1.00  0.00     0.004 C 
BRANCH  17  18
ATOM     18  C   UNL     1     419.450 -84.354 119.840  1.00  0.00     0.000 C 
BRANCH  18  19
ATOM     19  C   UNL     1     420.344 -85.314 120.631  1.00  0.00    -0.003 C 
ATOM     20  C   UNL     1     420.343 -86.707 120.010  1.00  0.00     0.004 C 
ENDBRANCH  18  19
ENDBRANCH  17  18
ENDBRANCH  16  17
ENDBRANCH  15  16
ENDBRANCH  13  14
ENDBRANCH  12  13
ENDBRANCH   1  11
TORSDOF 14
ENDMDL
MODEL 8
REMARK VINA RESULT:    -3.449      5.164      6.712
REMARK INTER + INTRA:          -6.818
REMARK INTER:                  -5.787
REMARK INTRA:                  -1.031
REMARK UNBOUND:                -0.546
REMARK SMILES CCCCCC=CCC=CCCCCCCCC(=O)[O-]
REMARK SMILES IDX 11 1 12 2 13 3 14 4 15 5 16 6 17 7 18 8 19 9 20 10 10 11
REMARK SMILES IDX 9 12 8 13 7 14 6 15 5 16 4 17 3 18 2 19 1 20
REMARK H PARENT
REMARK Flexibility Score: inf
ROOT
ATOM      1  C   UNL     1     420.425 -84.253 120.840  1.00  0.00     0.027 C 
ENDROOT
BRANCH   1   2
ATOM      2  C   UNL     1     420.782 -85.751 120.854  1.00  0.00     0.004 C 
BRANCH   2   3
ATOM      3  C   UNL     1     422.278 -86.039 121.073  1.00  0.00     0.000 C 
BRANCH   3   4
ATOM      4  C   UNL     1     422.995 -86.460 119.778  1.00  0.00     0.000 C 
BRANCH   4   5
ATOM      5  C   UNL     1     423.415 -87.938 119.791  1.00  0.00     0.000 C 
BRANCH   5   6
ATOM      6  C   UNL     1     423.004 -88.654 121.089  1.00  0.00     0.006 C 
BRANCH   6   7
ATOM      7  C   UNL     1     422.206 -89.936 120.816  1.00  0.00     0.053 C 
BRANCH   7   8
ATOM      8  C   UNL     1     420.735 -89.731 121.010  1.00  0.00     0.041 C 
ATOM      9  O   UNL     1     419.909 -90.302 120.250  1.00  0.00    -0.550 OA
ATOM     10  O   UNL     1     420.275 -88.883 122.010  1.00  0.00    -0.550 OA
ENDBRANCH   7   8
ENDBRANCH   6   7
ENDBRANCH   5   6
ENDBRANCH   4   5
ENDBRANCH   3   4
ENDBRANCH   2   3
ENDBRANCH   1   2
BRANCH   1  11
ATOM     11  C   UNL     1     419.355 -83.923 119.835  1.00  0.00    -0.031 C 
ATOM     12  C   UNL     1     419.100 -84.724 118.790  1.00  0.00    -0.027 C 
BRANCH  12  13
ATOM     13  C   UNL     1     418.016 -84.380 117.805  1.00  0.00     0.054 C 
BRANCH  13  14
ATOM     14  C   UNL     1     418.597 -83.916 116.499  1.00  0.00    -0.027 C 
ATOM     15  C   UNL     1     419.143 -84.783 115.631  1.00  0.00    -0.031 C 
BRANCH  15  16
ATOM     16  C   UNL     1     419.714 -84.327 114.318  1.00  0.00     0.027 C 
BRANCH  16  17
ATOM     17  C   UNL     1     419.830 -85.494 113.329  1.00  0.00     0.004 C 
BRANCH  17  18
ATOM     18  C   UNL     1     420.095 -84.986 111.907  1.00  0.00     0.000 C 
BRANCH  18  19
ATOM     19  C   UNL     1     421.582 -84.680 111.700  1.00  0.00    -0.003 C 
ATOM     20  C   UNL     1     422.460 -85.693 112.429  1.00  0.00     0.004 C 
ENDBRANCH  18  19
ENDBRANCH  17  18
ENDBRANCH  16  17
ENDBRANCH  15  16
ENDBRANCH  13  14
ENDBRANCH  12  13
ENDBRANCH   1  11
TORSDOF 14
ENDMDL
MODEL 9
REMARK VINA RESULT:    -3.427      1.454      2.648
REMARK INTER + INTRA:          -6.779
REMARK INTER:                  -6.370
REMARK INTRA:                  -0.409
REMARK UNBOUND:                -0.546
REMARK SMILES CCCCCC=CCC=CCCCCCCCC(=O)[O-]
REMARK SMILES IDX 11 1 12 2 13 3 14 4 15 5 16 6 17 7 18 8 19 9 20 10 10 11
REMARK SMILES IDX 9 12 8 13 7 14 6 15 5 16 4 17 3 18 2 19 1 20
REMARK H PARENT
REMARK Flexibility Score: inf
ROOT
ATOM      1  C   UNL     1     415.185 -84.511 118.044  1.00  0.00     0.027 C 
ENDROOT
BRANCH   1   2
ATOM      2  C   UNL     1     416.538 -83.901 117.635  1.00  0.00     0.004 C 
BRANCH   2   3
ATOM      3  C   UNL     1     417.584 -83.875 118.764  1.00  0.00     0.000 C 
BRANCH   3   4
ATOM      4  C   UNL     1     418.818 -84.739 118.447  1.00  0.00     0.000 C 
BRANCH   4   5
ATOM      5  C   UNL     1     419.668 -85.029 119.694  1.00  0.00     0.000 C 
BRANCH   5   6
ATOM      6  C   UNL     1     420.599 -86.239 119.502  1.00  0.00     0.006 C 
BRANCH   6   7
ATOM      7  C   UNL     1     420.879 -86.970 120.822  1.00  0.00     0.053 C 
BRANCH   7   8
ATOM      8  C   UNL     1     420.853 -88.458 120.653  1.00  0.00     0.041 C 
ATOM      9  O   UNL     1     419.759 -89.058 120.480  1.00  0.00    -0.550 OA
ATOM     10  O   UNL     1     422.033 -89.188 120.721  1.00  0.00    -0.550 OA
ENDBRANCH   7   8
ENDBRANCH   6   7
ENDBRANCH   5   6
ENDBRANCH   4   5
ENDBRANCH   3   4
ENDBRANCH   2   3
ENDBRANCH   1   2
BRANCH   1  11
ATOM     11  C   UNL     1     414.024 -83.876 117.328  1.00  0.00    -0.031 C 
ATOM     12  C   UNL     1     413.216 -84.589 116.531  1.00  0.00    -0.027 C 
BRANCH  12  13
ATOM     13  C   UNL     1     412.052 -83.935 115.835  1.00  0.00     0.054 C 
BRANCH  13  14
ATOM     14  C   UNL     1     410.788 -84.722 116.037  1.00  0.00    -0.027 C 
ATOM     15  C   UNL     1     410.068 -85.167 114.994  1.00  0.00    -0.031 C 
BRANCH  15  16
ATOM     16  C   UNL     1     408.810 -85.965 115.190  1.00  0.00     0.027 C 
BRANCH  16  17
ATOM     17  C   UNL     1     407.608 -85.273 114.534  1.00  0.00     0.004 C 
BRANCH  17  18
ATOM     18  C   UNL     1     406.522 -86.290 114.164  1.00  0.00     0.000 C 
BRANCH  18  19
ATOM     19  C   UNL     1     405.374 -85.619 113.403  1.00  0.00    -0.003 C 
ATOM     20  C   UNL     1     404.697 -84.551 114.256  1.00  0.00     0.004 C 
ENDBRANCH  18  19
ENDBRANCH  17  18
ENDBRANCH  16  17
ENDBRANCH  15  16
ENDBRANCH  13  14
ENDBRANCH  12  13
ENDBRANCH   1  11
TORSDOF 14
ENDMDL
