MODEL 1
REMARK VINA RESULT:    -4.617      0.000      0.000
REMARK INTER + INTRA:         -10.366
REMARK INTER:                  -8.936
REMARK INTRA:                  -1.430
REMARK UNBOUND:                -1.430
REMARK SMILES CCCCCCCCCCCCCCCCCC(=O)[O-]
REMARK SMILES IDX 10 1 11 2 12 3 13 4 14 5 15 6 16 7 17 8 18 9 19 10 20 11
REMARK SMILES IDX 9 12 8 13 7 14 6 15 5 16 4 17 3 18 2 19 1 20
REMARK H PARENT
REMARK Flexibility Score: inf
ROOT
ATOM      1  C   UNL     1      -2.656  13.231 -16.538  1.00  0.00     0.000 C 
ENDROOT
BRANCH   1   2
ATOM      2  C   UNL     1      -4.181  13.316 -16.345  1.00  0.00     0.000 C 
BRANCH   2   3
ATOM      3  C   UNL     1      -4.703  12.304 -15.313  1.00  0.00     0.000 C 
BRANCH   3   4
ATOM      4  C   UNL     1      -3.898  10.991 -15.317  1.00  0.00     0.000 C 
BRANCH   4   5
ATOM      5  C   UNL     1      -3.227  10.707 -13.963  1.00  0.00     0.000 C 
BRANCH   5   6
ATOM      6  C   UNL     1      -3.568   9.313 -13.416  1.00  0.00     0.000 C 
BRANCH   6   7
ATOM      7  C   UNL     1      -4.956   8.861 -13.894  1.00  0.00     0.006 C 
BRANCH   7   8
ATOM      8  C   UNL     1      -5.249   7.398 -13.529  1.00  0.00     0.053 C 
BRANCH   8   9
ATOM      9  C   UNL     1      -6.611   6.973 -13.985  1.00  0.00     0.041 C 
ATOM     10  O   UNL     1      -7.563   7.797 -13.991  1.00  0.00    -0.550 OA
ATOM     11  O   UNL     1      -6.838   5.656 -14.366  1.00  0.00    -0.550 OA
ENDBRANCH   8   9
ENDBRANCH   7   8
ENDBRANCH   6   7
ENDBRANCH   5   6
ENDBRANCH   4   5
ENDBRANCH   3   4
ENDBRANCH   2   3
ENDBRANCH   1   2
BRANCH   1  12
ATOM     12  C   UNL     1      -2.212  13.765 -17.916  1.00  0.00     0.000 C 
BRANCH  12  13
ATOM     13  C   UNL     1      -2.636  12.865 -19.089  1.00  0.00    -0.000 C 
BRANCH  13  14
ATOM     14  C   UNL     1      -2.511  11.365 -18.767  1.00  0.00    -0.000 C 
BRANCH  14  15
ATOM     15  C   UNL     1      -3.645  10.530 -19.380  1.00  0.00    -0.000 C 
BRANCH  15  16
ATOM     16  C   UNL     1      -4.871  11.382 -19.754  1.00  0.00    -0.000 C 
BRANCH  16  17
ATOM     17  C   UNL     1      -5.733  10.728 -20.845  1.00  0.00    -0.000 C 
BRANCH  17  18
ATOM     18  C   UNL     1      -7.237  10.789 -20.526  1.00  0.00    -0.000 C 
BRANCH  18  19
ATOM     19  C   UNL     1      -8.023   9.634 -21.167  1.00  0.00    -0.003 C 
ATOM     20  C   UNL     1      -8.743   8.763 -20.138  1.00  0.00     0.004 C 
ENDBRANCH  18  19
ENDBRANCH  17  18
ENDBRANCH  16  17
ENDBRANCH  15  16
ENDBRANCH  14  15
ENDBRANCH  13  14
ENDBRANCH  12  13
ENDBRANCH   1  12
TORSDOF 16
ENDMDL
MODEL 2
REMARK VINA RESULT:    -4.339      2.464      6.170
REMARK INTER + INTRA:          -9.828
REMARK INTER:                  -8.581
REMARK INTRA:                  -1.247
REMARK UNBOUND:                -1.430
REMARK SMILES CCCCCCCCCCCCCCCCCC(=O)[O-]
REMARK SMILES IDX 10 1 11 2 12 3 13 4 14 5 15 6 16 7 17 8 18 9 19 10 20 11
REMARK SMILES IDX 9 12 8 13 7 14 6 15 5 16 4 17 3 18 2 19 1 20
REMARK H PARENT
REMARK Flexibility Score: inf
ROOT
ATOM      1  C   UNL     1      -4.471  12.701 -16.703  1.00  0.00     0.000 C 
ENDROOT
BRANCH   1   2
ATOM      2  C   UNL     1      -3.022  13.029 -17.105  1.00  0.00     0.000 C 
BRANCH   2   3
ATOM      3  C   UNL     1      -2.582  12.291 -18.380  1.00  0.00     0.000 C 
BRANCH   3   4
ATOM      4  C   UNL     1      -3.134  10.856 -18.450  1.00  0.00     0.000 C 
BRANCH   4   5
ATOM      5  C   UNL     1      -3.740  10.523 -19.823  1.00  0.00     0.000 C 
BRANCH   5   6
ATOM      6  C   UNL     1      -4.945  11.411 -20.166  1.00  0.00     0.000 C 
BRANCH   6   7
ATOM      7  C   UNL     1      -5.992  10.628 -20.974  1.00  0.00     0.006 C 
BRANCH   7   8
ATOM      8  C   UNL     1      -7.371  10.636 -20.300  1.00  0.00     0.053 C 
BRANCH   8   9
ATOM      9  C   UNL     1      -8.289   9.614 -20.898  1.00  0.00     0.041 C 
ATOM     10  O   UNL     1      -8.680   9.735 -22.088  1.00  0.00    -0.550 OA
ATOM     11  O   UNL     1      -8.741   8.550 -20.128  1.00  0.00    -0.550 OA
ENDBRANCH   8   9
ENDBRANCH   7   8
ENDBRANCH   6   7
ENDBRANCH   5   6
ENDBRANCH   4   5
ENDBRANCH   3   4
ENDBRANCH   2   3
ENDBRANCH   1   2
BRANCH   1  12
ATOM     12  C   UNL     1      -4.651  12.640 -15.172  1.00  0.00     0.000 C 
BRANCH  12  13
ATOM     13  C   UNL     1      -3.326  12.716 -14.393  1.00  0.00    -0.000 C 
BRANCH  13  14
ATOM     14  C   UNL     1      -2.679  11.336 -14.180  1.00  0.00    -0.000 C 
BRANCH  14  15
ATOM     15  C   UNL     1      -3.691  10.185 -14.281  1.00  0.00    -0.000 C 
BRANCH  15  16
ATOM     16  C   UNL     1      -3.526   9.152 -13.152  1.00  0.00    -0.000 C 
BRANCH  16  17
ATOM     17  C   UNL     1      -4.481   7.957 -13.303  1.00  0.00    -0.000 C 
BRANCH  17  18
ATOM     18  C   UNL     1      -5.714   8.290 -14.160  1.00  0.00    -0.000 C 
BRANCH  18  19
ATOM     19  C   UNL     1      -6.917   7.388 -13.838  1.00  0.00    -0.003 C 
ATOM     20  C   UNL     1      -6.710   5.941 -14.286  1.00  0.00     0.004 C 
ENDBRANCH  18  19
ENDBRANCH  17  18
ENDBRANCH  16  17
ENDBRANCH  15  16
ENDBRANCH  14  15
ENDBRANCH  13  14
ENDBRANCH  12  13
ENDBRANCH   1  12
TORSDOF 16
ENDMDL
MODEL 3
REMARK VINA RESULT:    -4.146      5.606      8.616
REMARK INTER + INTRA:          -9.454
REMARK INTER:                  -8.066
REMARK INTRA:                  -1.388
REMARK UNBOUND:                -1.430
REMARK SMILES CCCCCCCCCCCCCCCCCC(=O)[O-]
REMARK SMILES IDX 10 1 11 2 12 3 13 4 14 5 15 6 16 7 17 8 18 9 19 10 20 11
REMARK SMILES IDX 9 12 8 13 7 14 6 15 5 16 4 17 3 18 2 19 1 20
REMARK H PARENT
REMARK Flexibility Score: inf
ROOT
ATOM      1  C   UNL     1      -2.430  14.391 -17.119  1.00  0.00     0.000 C 
ENDROOT
BRANCH   1   2
ATOM      2  C   UNL     1      -1.344  14.440 -18.208  1.00  0.00     0.000 C 
BRANCH   2   3
ATOM      3  C   UNL     1      -0.612  15.790 -18.251  1.00  0.00     0.000 C 
BRANCH   3   4
ATOM      4  C   UNL     1       0.881  15.640 -18.593  1.00  0.00     0.000 C 
BRANCH   4   5
ATOM      5  C   UNL     1       1.558  16.989 -18.886  1.00  0.00     0.000 C 
BRANCH   5   6
ATOM      6  C   UNL     1       0.878  17.754 -20.031  1.00  0.00     0.000 C 
BRANCH   6   7
ATOM      7  C   UNL     1       0.820  19.259 -19.728  1.00  0.00     0.006 C 
BRANCH   7   8
ATOM      8  C   UNL     1      -0.567  19.701 -19.240  1.00  0.00     0.053 C 
BRANCH   8   9
ATOM      9  C   UNL     1      -0.591  19.926 -17.759  1.00  0.00     0.041 C 
ATOM     10  O   UNL     1       0.488  20.004 -17.114  1.00  0.00    -0.550 OA
ATOM     11  O   UNL     1      -1.803  20.010 -17.087  1.00  0.00    -0.550 OA
ENDBRANCH   8   9
ENDBRANCH   7   8
ENDBRANCH   6   7
ENDBRANCH   5   6
ENDBRANCH   4   5
ENDBRANCH   3   4
ENDBRANCH   2   3
ENDBRANCH   1   2
BRANCH   1  12
ATOM     12  C   UNL     1      -1.949  13.662 -15.847  1.00  0.00     0.000 C 
BRANCH  12  13
ATOM     13  C   UNL     1      -3.028  12.777 -15.200  1.00  0.00    -0.000 C 
BRANCH  13  14
ATOM     14  C   UNL     1      -4.319  12.704 -16.034  1.00  0.00    -0.000 C 
BRANCH  14  15
ATOM     15  C   UNL     1      -4.484  11.356 -16.754  1.00  0.00    -0.000 C 
BRANCH  15  16
ATOM     16  C   UNL     1      -3.145  10.786 -17.253  1.00  0.00    -0.000 C 
BRANCH  16  17
ATOM     17  C   UNL     1      -3.138  10.541 -18.771  1.00  0.00    -0.000 C 
BRANCH  17  18
ATOM     18  C   UNL     1      -4.147  11.430 -19.517  1.00  0.00    -0.000 C 
BRANCH  18  19
ATOM     19  C   UNL     1      -4.876  10.678 -20.642  1.00  0.00    -0.003 C 
ATOM     20  C   UNL     1      -6.381  10.943 -20.656  1.00  0.00     0.004 C 
ENDBRANCH  18  19
ENDBRANCH  17  18
ENDBRANCH  16  17
ENDBRANCH  15  16
ENDBRANCH  14  15
ENDBRANCH  13  14
ENDBRANCH  12  13
ENDBRANCH   1  12
TORSDOF 16
ENDMDL
MODEL 4
REMARK VINA RESULT:    -4.146      5.179      8.709
REMARK INTER + INTRA:          -9.453
REMARK INTER:                  -8.627
REMARK INTRA:                  -0.826
REMARK UNBOUND:                -1.430
REMARK SMILES CCCCCCCCCCCCCCCCCC(=O)[O-]
REMARK SMILES IDX 10 1 11 2 12 3 13 4 14 5 15 6 16 7 17 8 18 9 19 10 20 11
REMARK SMILES IDX 9 12 8 13 7 14 6 15 5 16 4 17 3 18 2 19 1 20
REMARK H PARENT
REMARK Flexibility Score: inf
ROOT
ATOM      1  C   UNL     1      -3.790  11.700 -18.791  1.00  0.00     0.000 C 
ENDROOT
BRANCH   1   2
ATOM      2  C   UNL     1      -2.379  12.210 -19.136  1.00  0.00     0.000 C 
BRANCH   2   3
ATOM      3  C   UNL     1      -2.290  13.744 -19.134  1.00  0.00     0.000 C 
BRANCH   3   4
ATOM      4  C   UNL     1      -1.569  14.290 -17.888  1.00  0.00     0.000 C 
BRANCH   4   5
ATOM      5  C   UNL     1      -0.881  15.640 -18.149  1.00  0.00     0.000 C 
BRANCH   5   6
ATOM      6  C   UNL     1       0.503  15.480 -18.796  1.00  0.00     0.000 C 
BRANCH   6   7
ATOM      7  C   UNL     1       1.266  16.814 -18.796  1.00  0.00     0.006 C 
BRANCH   7   8
ATOM      8  C   UNL     1       0.584  17.874 -19.672  1.00  0.00     0.053 C 
BRANCH   8   9
ATOM      9  C   UNL     1      -0.025  18.968 -18.848  1.00  0.00     0.041 C 
ATOM     10  O   UNL     1      -1.275  19.054 -18.735  1.00  0.00    -0.550 OA
ATOM     11  O   UNL     1       0.788  19.915 -18.239  1.00  0.00    -0.550 OA
ENDBRANCH   8   9
ENDBRANCH   7   8
ENDBRANCH   6   7
ENDBRANCH   5   6
ENDBRANCH   4   5
ENDBRANCH   3   4
ENDBRANCH   2   3
ENDBRANCH   1   2
BRANCH   1  12
ATOM     12  C   UNL     1      -3.877  11.159 -17.348  1.00  0.00     0.000 C 
BRANCH  12  13
ATOM     13  C   UNL     1      -4.614  12.103 -16.382  1.00  0.00    -0.000 C 
BRANCH  13  14
ATOM     14  C   UNL     1      -3.714  12.611 -15.242  1.00  0.00    -0.000 C 
BRANCH  14  15
ATOM     15  C   UNL     1      -3.081  11.470 -14.431  1.00  0.00    -0.000 C 
BRANCH  15  16
ATOM     16  C   UNL     1      -4.038  10.280 -14.241  1.00  0.00    -0.000 C 
BRANCH  16  17
ATOM     17  C   UNL     1      -3.471   9.215 -13.288  1.00  0.00    -0.000 C 
BRANCH  17  18
ATOM     18  C   UNL     1      -4.275   7.904 -13.323  1.00  0.00    -0.000 C 
BRANCH  18  19
ATOM     19  C   UNL     1      -5.677   8.089 -13.926  1.00  0.00    -0.003 C 
ATOM     20  C   UNL     1      -6.489   6.794 -13.951  1.00  0.00     0.004 C 
ENDBRANCH  18  19
ENDBRANCH  17  18
ENDBRANCH  16  17
ENDBRANCH  15  16
ENDBRANCH  14  15
ENDBRANCH  13  14
ENDBRANCH  12  13
ENDBRANCH   1  12
TORSDOF 16
ENDMDL
MODEL 5
REMARK VINA RESULT:    -4.079      3.284      6.265
REMARK INTER + INTRA:          -9.324
REMARK INTER:                  -8.150
REMARK INTRA:                  -1.174
REMARK UNBOUND:                -1.430
REMARK SMILES CCCCCCCCCCCCCCCCCC(=O)[O-]
REMARK SMILES IDX 10 1 11 2 12 3 13 4 14 5 15 6 16 7 17 8 18 9 19 10 20 11
REMARK SMILES IDX 9 12 8 13 7 14 6 15 5 16 4 17 3 18 2 19 1 20
REMARK H PARENT
REMARK Flexibility Score: inf
ROOT
ATOM      1  C   UNL     1      -2.452  12.295 -18.833  1.00  0.00     0.000 C 
ENDROOT
BRANCH   1   2
ATOM      2  C   UNL     1      -3.916  11.920 -18.541  1.00  0.00     0.000 C 
BRANCH   2   3
ATOM      3  C   UNL     1      -4.117  11.400 -17.108  1.00  0.00     0.000 C 
BRANCH   3   4
ATOM      4  C   UNL     1      -4.633  12.492 -16.153  1.00  0.00     0.000 C 
BRANCH   4   5
ATOM      5  C   UNL     1      -4.208  12.249 -14.696  1.00  0.00     0.000 C 
BRANCH   5   6
ATOM      6  C   UNL     1      -3.147  11.146 -14.567  1.00  0.00     0.000 C 
BRANCH   6   7
ATOM      7  C   UNL     1      -3.667   9.980 -13.713  1.00  0.00     0.006 C 
BRANCH   7   8
ATOM      8  C   UNL     1      -4.978   9.398 -14.261  1.00  0.00     0.053 C 
BRANCH   8   9
ATOM      9  C   UNL     1      -5.204   7.994 -13.789  1.00  0.00     0.041 C 
ATOM     10  O   UNL     1      -6.357   7.490 -13.832  1.00  0.00    -0.550 OA
ATOM     11  O   UNL     1      -4.149   7.257 -13.265  1.00  0.00    -0.550 OA
ENDBRANCH   8   9
ENDBRANCH   7   8
ENDBRANCH   6   7
ENDBRANCH   5   6
ENDBRANCH   4   5
ENDBRANCH   3   4
ENDBRANCH   2   3
ENDBRANCH   1   2
BRANCH   1  12
ATOM     12  C   UNL     1      -2.260  13.818 -18.983  1.00  0.00     0.000 C 
BRANCH  12  13
ATOM     13  C   UNL     1      -1.352  14.433 -17.904  1.00  0.00    -0.000 C 
BRANCH  13  14
ATOM     14  C   UNL     1      -0.720  15.765 -18.343  1.00  0.00    -0.000 C 
BRANCH  14  15
ATOM     15  C   UNL     1       0.760  15.619 -18.730  1.00  0.00    -0.000 C 
BRANCH  15  16
ATOM     16  C   UNL     1       1.474  16.977 -18.855  1.00  0.00    -0.000 C 
BRANCH  16  17
ATOM     17  C   UNL     1       0.898  17.843 -19.987  1.00  0.00    -0.000 C 
BRANCH  17  18
ATOM     18  C   UNL     1       0.883  19.340 -19.636  1.00  0.00    -0.000 C 
BRANCH  18  19
ATOM     19  C   UNL     1       0.273  19.614 -18.251  1.00  0.00    -0.003 C 
ATOM     20  C   UNL     1      -1.237  19.378 -18.210  1.00  0.00     0.004 C 
ENDBRANCH  18  19
ENDBRANCH  17  18
ENDBRANCH  16  17
ENDBRANCH  15  16
ENDBRANCH  14  15
ENDBRANCH  13  14
ENDBRANCH  12  13
ENDBRANCH   1  12
TORSDOF 16
ENDMDL
MODEL 6
REMARK VINA RESULT:    -4.012      3.740      6.864
REMARK INTER + INTRA:          -9.195
REMARK INTER:                  -7.903
REMARK INTRA:                  -1.292
REMARK UNBOUND:                -1.430
REMARK SMILES CCCCCCCCCCCCCCCCCC(=O)[O-]
REMARK SMILES IDX 10 1 11 2 12 3 13 4 14 5 15 6 16 7 17 8 18 9 19 10 20 11
REMARK SMILES IDX 9 12 8 13 7 14 6 15 5 16 4 17 3 18 2 19 1 20
REMARK H PARENT
REMARK Flexibility Score: inf
ROOT
ATOM      1  C   UNL     1      -1.678  13.664 -19.148  1.00  0.00     0.000 C 
ENDROOT
BRANCH   1   2
ATOM      2  C   UNL     1      -3.028  12.935 -19.036  1.00  0.00     0.000 C 
BRANCH   2   3
ATOM      3  C   UNL     1      -2.873  11.407 -19.008  1.00  0.00     0.000 C 
BRANCH   3   4
ATOM      4  C   UNL     1      -3.239  10.802 -17.640  1.00  0.00     0.000 C 
BRANCH   4   5
ATOM      5  C   UNL     1      -4.063  11.766 -16.771  1.00  0.00     0.000 C 
BRANCH   5   6
ATOM      6  C   UNL     1      -3.282  12.275 -15.551  1.00  0.00     0.000 C 
BRANCH   6   7
ATOM      7  C   UNL     1      -3.321  11.249 -14.407  1.00  0.00     0.006 C 
BRANCH   7   8
ATOM      8  C   UNL     1      -4.625  10.439 -14.397  1.00  0.00     0.053 C 
BRANCH   8   9
ATOM      9  C   UNL     1      -4.440   9.095 -13.763  1.00  0.00     0.041 C 
ATOM     10  O   UNL     1      -3.371   8.824 -13.154  1.00  0.00    -0.550 OA
ATOM     11  O   UNL     1      -5.431   8.128 -13.876  1.00  0.00    -0.550 OA
ENDBRANCH   8   9
ENDBRANCH   7   8
ENDBRANCH   6   7
ENDBRANCH   5   6
ENDBRANCH   4   5
ENDBRANCH   3   4
ENDBRANCH   2   3
ENDBRANCH   1   2
BRANCH   1  12
ATOM     12  C   UNL     1      -1.454  14.659 -17.990  1.00  0.00     0.000 C 
BRANCH  12  13
ATOM     13  C   UNL     1      -0.625  15.892 -18.389  1.00  0.00    -0.000 C 
BRANCH  13  14
ATOM     14  C   UNL     1       0.843  15.550 -18.695  1.00  0.00    -0.000 C 
BRANCH  14  15
ATOM     15  C   UNL     1       1.721  16.801 -18.862  1.00  0.00    -0.000 C 
BRANCH  15  16
ATOM     16  C   UNL     1       1.258  17.695 -20.025  1.00  0.00    -0.000 C 
BRANCH  16  17
ATOM     17  C   UNL     1       1.181  19.179 -19.633  1.00  0.00    -0.000 C 
BRANCH  17  18
ATOM     18  C   UNL     1       1.285  19.394 -18.113  1.00  0.00    -0.000 C 
BRANCH  18  19
ATOM     19  C   UNL     1       0.011  20.018 -17.518  1.00  0.00    -0.003 C 
ATOM     20  C   UNL     1      -1.269  19.455 -18.134  1.00  0.00     0.004 C 
ENDBRANCH  18  19
ENDBRANCH  17  18
ENDBRANCH  16  17
ENDBRANCH  15  16
ENDBRANCH  14  15
ENDBRANCH  13  14
ENDBRANCH  12  13
ENDBRANCH   1  12
TORSDOF 16
ENDMDL
MODEL 7
REMARK VINA RESULT:    -3.975      5.476      9.119
REMARK INTER + INTRA:          -9.122
REMARK INTER:                  -8.128
REMARK INTRA:                  -0.995
REMARK UNBOUND:                -1.430
REMARK SMILES CCCCCCCCCCCCCCCCCC(=O)[O-]
REMARK SMILES IDX 10 1 11 2 12 3 13 4 14 5 15 6 16 7 17 8 18 9 19 10 20 11
REMARK SMILES IDX 9 12 8 13 7 14 6 15 5 16 4 17 3 18 2 19 1 20
REMARK H PARENT
REMARK Flexibility Score: inf
ROOT
ATOM      1  C   UNL     1      -1.949  13.874 -18.710  1.00  0.00     0.000 C 
ENDROOT
BRANCH   1   2
ATOM      2  C   UNL     1      -1.157  14.845 -17.817  1.00  0.00     0.000 C 
BRANCH   2   3
ATOM      3  C   UNL     1      -0.510  15.987 -18.616  1.00  0.00     0.000 C 
BRANCH   3   4
ATOM      4  C   UNL     1       1.024  15.875 -18.668  1.00  0.00     0.000 C 
BRANCH   4   5
ATOM      5  C   UNL     1       1.699  17.198 -19.064  1.00  0.00     0.000 C 
BRANCH   5   6
ATOM      6  C   UNL     1       0.915  17.961 -20.142  1.00  0.00     0.000 C 
BRANCH   6   7
ATOM      7  C   UNL     1       0.643  19.408 -19.703  1.00  0.00     0.006 C 
BRANCH   7   8
ATOM      8  C   UNL     1       0.692  19.571 -18.177  1.00  0.00     0.053 C 
BRANCH   8   9
ATOM      9  C   UNL     1      -0.680  19.631 -17.579  1.00  0.00     0.041 C 
ATOM     10  O   UNL     1      -1.686  19.328 -18.273  1.00  0.00    -0.550 OA
ATOM     11  O   UNL     1      -0.850  20.058 -16.268  1.00  0.00    -0.550 OA
ENDBRANCH   8   9
ENDBRANCH   7   8
ENDBRANCH   6   7
ENDBRANCH   5   6
ENDBRANCH   4   5
ENDBRANCH   3   4
ENDBRANCH   2   3
ENDBRANCH   1   2
BRANCH   1  12
ATOM     12  C   UNL     1      -2.747  12.843 -17.884  1.00  0.00     0.000 C 
BRANCH  12  13
ATOM     13  C   UNL     1      -3.052  13.307 -16.450  1.00  0.00    -0.000 C 
BRANCH  13  14
ATOM     14  C   UNL     1      -4.323  12.661 -15.871  1.00  0.00    -0.000 C 
BRANCH  14  15
ATOM     15  C   UNL     1      -4.217  11.132 -15.768  1.00  0.00    -0.000 C 
BRANCH  15  16
ATOM     16  C   UNL     1      -3.314  10.679 -14.608  1.00  0.00    -0.000 C 
BRANCH  16  17
ATOM     17  C   UNL     1      -4.052   9.780 -13.602  1.00  0.00    -0.000 C 
BRANCH  17  18
ATOM     18  C   UNL     1      -5.019   8.799 -14.287  1.00  0.00    -0.000 C 
BRANCH  18  19
ATOM     19  C   UNL     1      -5.410   7.624 -13.375  1.00  0.00    -0.003 C 
ATOM     20  C   UNL     1      -6.557   6.788 -13.942  1.00  0.00     0.004 C 
ENDBRANCH  18  19
ENDBRANCH  17  18
ENDBRANCH  16  17
ENDBRANCH  15  16
ENDBRANCH  14  15
ENDBRANCH  13  14
ENDBRANCH  12  13
ENDBRANCH   1  12
TORSDOF 16
ENDMDL
MODEL 8
REMARK VINA RESULT:    -3.949      4.581      7.657
REMARK INTER + INTRA:          -9.073
REMARK INTER:                  -7.704
REMARK INTRA:                  -1.369
REMARK UNBOUND:                -1.430
REMARK SMILES CCCCCCCCCCCCCCCCCC(=O)[O-]
REMARK SMILES IDX 10 1 11 2 12 3 13 4 14 5 15 6 16 7 17 8 18 9 19 10 20 11
REMARK SMILES IDX 9 12 8 13 7 14 6 15 5 16 4 17 3 18 2 19 1 20
REMARK H PARENT
REMARK Flexibility Score: inf
ROOT
ATOM      1  C   UNL     1      -1.391  15.268 -18.678  1.00  0.00     0.000 C 
ENDROOT
BRANCH   1   2
ATOM      2  C   UNL     1      -1.981  14.014 -18.010  1.00  0.00     0.000 C 
BRANCH   2   3
ATOM      3  C   UNL     1      -2.010  14.121 -16.477  1.00  0.00     0.000 C 
BRANCH   3   4
ATOM      4  C   UNL     1      -2.948  13.083 -15.832  1.00  0.00     0.000 C 
BRANCH   4   5
ATOM      5  C   UNL     1      -3.790  12.324 -16.870  1.00  0.00     0.000 C 
BRANCH   5   6
ATOM      6  C   UNL     1      -3.419  10.836 -16.955  1.00  0.00     0.000 C 
BRANCH   6   7
ATOM      7  C   UNL     1      -3.128  10.425 -18.407  1.00  0.00     0.006 C 
BRANCH   7   8
ATOM      8  C   UNL     1      -3.529  11.514 -19.411  1.00  0.00     0.053 C 
BRANCH   8   9
ATOM      9  C   UNL     1      -4.781  11.154 -20.151  1.00  0.00     0.041 C 
ATOM     10  O   UNL     1      -4.722  10.442 -21.187  1.00  0.00    -0.550 OA
ATOM     11  O   UNL     1      -6.009  11.638 -19.717  1.00  0.00    -0.550 OA
ENDBRANCH   8   9
ENDBRANCH   7   8
ENDBRANCH   6   7
ENDBRANCH   5   6
ENDBRANCH   4   5
ENDBRANCH   3   4
ENDBRANCH   2   3
ENDBRANCH   1   2
BRANCH   1  12
ATOM     12  C   UNL     1      -0.029  15.666 -18.071  1.00  0.00     0.000 C 
BRANCH  12  13
ATOM     13  C   UNL     1       1.159  15.434 -19.021  1.00  0.00    -0.000 C 
BRANCH  13  14
ATOM     14  C   UNL     1       1.996  16.704 -19.251  1.00  0.00    -0.000 C 
BRANCH  14  15
ATOM     15  C   UNL     1       1.917  17.212 -20.699  1.00  0.00    -0.000 C 
BRANCH  15  16
ATOM     16  C   UNL     1       1.576  18.710 -20.781  1.00  0.00    -0.000 C 
BRANCH  16  17
ATOM     17  C   UNL     1       1.080  19.276 -19.441  1.00  0.00    -0.000 C 
BRANCH  17  18
ATOM     18  C   UNL     1      -0.385  19.743 -19.503  1.00  0.00    -0.000 C 
BRANCH  18  19
ATOM     19  C   UNL     1      -1.239  19.156 -18.367  1.00  0.00    -0.003 C 
ATOM     20  C   UNL     1      -1.062  19.903 -17.045  1.00  0.00     0.004 C 
ENDBRANCH  18  19
ENDBRANCH  17  18
ENDBRANCH  16  17
ENDBRANCH  15  16
ENDBRANCH  14  15
ENDBRANCH  13  14
ENDBRANCH  12  13
ENDBRANCH   1  12
TORSDOF 16
ENDMDL
MODEL 9
REMARK VINA RESULT:    -3.893      5.316      7.904
REMARK INTER + INTRA:          -8.964
REMARK INTER:                  -7.997
REMARK INTRA:                  -0.967
REMARK UNBOUND:                -1.430
REMARK SMILES CCCCCCCCCCCCCCCCCC(=O)[O-]
REMARK SMILES IDX 10 1 11 2 12 3 13 4 14 5 15 6 16 7 17 8 18 9 19 10 20 11
REMARK SMILES IDX 9 12 8 13 7 14 6 15 5 16 4 17 3 18 2 19 1 20
REMARK H PARENT
REMARK Flexibility Score: inf
ROOT
ATOM      1  C   UNL     1      -3.084  12.677 -15.039  1.00  0.00     0.000 C 
ENDROOT
BRANCH   1   2
ATOM      2  C   UNL     1      -3.127  13.456 -16.366  1.00  0.00     0.000 C 
BRANCH   2   3
ATOM      3  C   UNL     1      -1.797  14.157 -16.682  1.00  0.00     0.000 C 
BRANCH   3   4
ATOM      4  C   UNL     1      -1.718  14.640 -18.142  1.00  0.00     0.000 C 
BRANCH   4   5
ATOM      5  C   UNL     1      -0.391  15.348 -18.458  1.00  0.00     0.000 C 
BRANCH   5   6
ATOM      6  C   UNL     1      -0.567  16.856 -18.692  1.00  0.00     0.000 C 
BRANCH   6   7
ATOM      7  C   UNL     1       0.795  17.556 -18.806  1.00  0.00     0.006 C 
BRANCH   7   8
ATOM      8  C   UNL     1       0.768  18.978 -18.227  1.00  0.00     0.053 C 
BRANCH   8   9
ATOM      9  C   UNL     1      -0.481  19.711 -18.609  1.00  0.00     0.041 C 
ATOM     10  O   UNL     1      -1.371  19.937 -17.747  1.00  0.00    -0.550 OA
ATOM     11  O   UNL     1      -0.679  20.110 -19.924  1.00  0.00    -0.550 OA
ENDBRANCH   8   9
ENDBRANCH   7   8
ENDBRANCH   6   7
ENDBRANCH   5   6
ENDBRANCH   4   5
ENDBRANCH   3   4
ENDBRANCH   2   3
ENDBRANCH   1   2
BRANCH   1  12
ATOM     12  C   UNL     1      -3.285  11.161 -15.247  1.00  0.00     0.000 C 
BRANCH  12  13
ATOM     13  C   UNL     1      -3.844  10.799 -16.634  1.00  0.00    -0.000 C 
BRANCH  13  14
ATOM     14  C   UNL     1      -2.753  10.340 -17.616  1.00  0.00    -0.000 C 
BRANCH  14  15
ATOM     15  C   UNL     1      -3.226  10.356 -19.078  1.00  0.00    -0.000 C 
BRANCH  15  16
ATOM     16  C   UNL     1      -3.878  11.692 -19.473  1.00  0.00    -0.000 C 
BRANCH  16  17
ATOM     17  C   UNL     1      -5.390  11.560 -19.717  1.00  0.00    -0.000 C 
BRANCH  17  18
ATOM     18  C   UNL     1      -5.719  10.627 -20.896  1.00  0.00    -0.000 C 
BRANCH  18  19
ATOM     19  C   UNL     1      -7.202  10.683 -21.295  1.00  0.00    -0.003 C 
ATOM     20  C   UNL     1      -8.049   9.629 -20.582  1.00  0.00     0.004 C 
ENDBRANCH  18  19
ENDBRANCH  17  18
ENDBRANCH  16  17
ENDBRANCH  15  16
ENDBRANCH  14  15
ENDBRANCH  13  14
ENDBRANCH  12  13
ENDBRANCH   1  12
TORSDOF 16
ENDMDL
