MODEL 1
REMARK VINA RESULT:    -5.616      0.000      0.000
REMARK INTER + INTRA:          -5.781
REMARK INTER:                  -5.781
REMARK INTRA:                   0.000
REMARK UNBOUND:                 0.000
REMARK SMILES C=C1[C@H](O)C[C@@]23C[C@@H]1C(C)(C)[C@@H]2CC[C@H]3C
REMARK SMILES IDX 16 1 15 2 14 3 13 4 12 5 6 6 7 7 8 8 9 9 10 10 11 11 2 12
REMARK SMILES IDX 1 13 3 14 5 15 4 16
REMARK H PARENT 4 17
REMARK Flexibility Score: inf
ROOT
ATOM      1  C   UNL     1      48.431   7.729 113.550  1.00  0.00     0.008 C 
ATOM      2  C   UNL     1      47.237   7.137 114.324  1.00  0.00    -0.008 C 
ATOM      3  C   UNL     1      46.015   7.042 113.409  1.00  0.00     0.004 C 
ATOM      4  C   UNL     1      45.275   8.363 113.570  1.00  0.00     0.005 C 
ATOM      5  C   UNL     1      45.579   8.866 114.996  1.00  0.00     0.002 C 
ATOM      6  C   UNL     1      46.753   8.003 115.520  1.00  0.00    -0.020 C 
ATOM      7  C   UNL     1      46.136   7.131 116.621  1.00  0.00     0.016 C 
ATOM      8  C   UNL     1      45.191   8.109 117.288  1.00  0.00     0.023 C 
ATOM      9  C   UNL     1      44.449   8.759 116.083  1.00  0.00    -0.025 C 
ATOM     10  C   UNL     1      43.863  10.151 116.422  1.00  0.00     0.012 C 
ATOM     11  C   UNL     1      43.254   7.850 115.683  1.00  0.00     0.012 C 
ATOM     12  C   UNL     1      46.050   9.107 118.064  1.00  0.00    -0.045 C 
ATOM     13  C   UNL     1      45.634   9.559 119.257  1.00  0.00     0.011 C 
ATOM     14  C   UNL     1      47.346   9.652 117.465  1.00  0.00     0.140 C 
ATOM     15  C   UNL     1      47.847   8.878 116.203  1.00  0.00     0.044 C 
ENDROOT
BRANCH  14  16
ATOM     16  O   UNL     1      47.166  11.009 117.153  1.00  0.00    -0.389 OA
ATOM     17  H   UNL     1      46.549  11.384 117.835  1.00  0.00     0.211 HD
ENDBRANCH  14  16
TORSDOF 1
ENDMDL
MODEL 2
REMARK VINA RESULT:    -5.540      3.613      5.733
REMARK INTER + INTRA:          -5.702
REMARK INTER:                  -5.702
REMARK INTRA:                   0.000
REMARK UNBOUND:                 0.000
REMARK SMILES C=C1[C@H](O)C[C@@]23C[C@@H]1C(C)(C)[C@@H]2CC[C@H]3C
REMARK SMILES IDX 16 1 15 2 14 3 13 4 12 5 6 6 7 7 8 8 9 9 10 10 11 11 2 12
REMARK SMILES IDX 1 13 3 14 5 15 4 16
REMARK H PARENT 4 17
REMARK Flexibility Score: inf
ROOT
ATOM      1  C   UNL     1      46.344   9.499 118.426  1.00  0.00     0.008 C 
ATOM      2  C   UNL     1      45.260   9.132 119.458  1.00  0.00    -0.008 C 
ATOM      3  C   UNL     1      43.935   8.846 118.748  1.00  0.00     0.004 C 
ATOM      4  C   UNL     1      43.208  10.182 118.678  1.00  0.00     0.005 C 
ATOM      5  C   UNL     1      43.680  11.004 119.895  1.00  0.00     0.002 C 
ATOM      6  C   UNL     1      44.919  10.267 120.463  1.00  0.00    -0.020 C 
ATOM      7  C   UNL     1      44.451   9.695 121.807  1.00  0.00     0.016 C 
ATOM      8  C   UNL     1      43.585  10.822 122.331  1.00  0.00     0.023 C 
ATOM      9  C   UNL     1      42.694  11.181 121.106  1.00  0.00    -0.025 C 
ATOM     10  C   UNL     1      42.140  12.626 121.171  1.00  0.00     0.012 C 
ATOM     11  C   UNL     1      41.469  10.227 121.082  1.00  0.00     0.012 C 
ATOM     12  C   UNL     1      44.523  11.959 122.736  1.00  0.00    -0.045 C 
ATOM     13  C   UNL     1      44.253  12.690 123.828  1.00  0.00     0.011 C 
ATOM     14  C   UNL     1      45.730  12.320 121.870  1.00  0.00     0.140 C 
ATOM     15  C   UNL     1      46.080  11.258 120.779  1.00  0.00     0.044 C 
ENDROOT
BRANCH  14  16
ATOM     16  O   UNL     1      45.500  13.567 121.268  1.00  0.00    -0.389 OA
ATOM     17  H   UNL     1      45.131  14.165 121.971  1.00  0.00     0.211 HD
ENDBRANCH  14  16
TORSDOF 1
ENDMDL
MODEL 3
REMARK VINA RESULT:    -5.168      7.084      8.845
REMARK INTER + INTRA:          -5.319
REMARK INTER:                  -5.319
REMARK INTRA:                   0.000
REMARK UNBOUND:                 0.000
REMARK SMILES C=C1[C@H](O)C[C@@]23C[C@@H]1C(C)(C)[C@@H]2CC[C@H]3C
REMARK SMILES IDX 16 1 15 2 14 3 13 4 12 5 6 6 7 7 8 8 9 9 10 10 11 11 2 12
REMARK SMILES IDX 1 13 3 14 5 15 4 16
REMARK H PARENT 4 17
REMARK Flexibility Score: inf
ROOT
ATOM      1  C   UNL     1      40.296  16.873 109.827  1.00  0.00     0.008 C 
ATOM      2  C   UNL     1      41.458  15.887 110.050  1.00  0.00    -0.008 C 
ATOM      3  C   UNL     1      41.393  14.758 109.019  1.00  0.00     0.004 C 
ATOM      4  C   UNL     1      40.542  13.668 109.655  1.00  0.00     0.005 C 
ATOM      5  C   UNL     1      40.735  13.791 111.180  1.00  0.00     0.002 C 
ATOM      6  C   UNL     1      41.428  15.156 111.420  1.00  0.00    -0.020 C 
ATOM      7  C   UNL     1      42.844  14.798 111.889  1.00  0.00     0.016 C 
ATOM      8  C   UNL     1      42.576  13.601 112.778  1.00  0.00     0.023 C 
ATOM      9  C   UNL     1      41.627  12.723 111.910  1.00  0.00    -0.025 C 
ATOM     10  C   UNL     1      40.764  11.756 112.756  1.00  0.00     0.012 C 
ATOM     11  C   UNL     1      42.488  11.846 110.959  1.00  0.00     0.012 C 
ATOM     12  C   UNL     1      41.903  14.125 114.047  1.00  0.00    -0.045 C 
ATOM     13  C   UNL     1      42.202  13.577 115.235  1.00  0.00     0.011 C 
ATOM     14  C   UNL     1      40.839  15.219 113.970  1.00  0.00     0.140 C 
ATOM     15  C   UNL     1      40.757  15.941 112.587  1.00  0.00     0.044 C 
ENDROOT
BRANCH  14  16
ATOM     16  O   UNL     1      39.592  14.662 114.294  1.00  0.00    -0.389 OA
ATOM     17  H   UNL     1      38.907  15.167 113.782  1.00  0.00     0.211 HD
ENDBRANCH  14  16
TORSDOF 1
ENDMDL
MODEL 4
REMARK VINA RESULT:    -5.164      2.889      6.335
REMARK INTER + INTRA:          -5.315
REMARK INTER:                  -5.315
REMARK INTRA:                   0.000
REMARK UNBOUND:                 0.000
REMARK SMILES C=C1[C@H](O)C[C@@]23C[C@@H]1C(C)(C)[C@@H]2CC[C@H]3C
REMARK SMILES IDX 16 1 15 2 14 3 13 4 12 5 6 6 7 7 8 8 9 9 10 10 11 11 2 12
REMARK SMILES IDX 1 13 3 14 5 15 4 16
REMARK H PARENT 4 17
REMARK Flexibility Score: inf
ROOT
ATOM      1  C   UNL     1      42.242  12.866 120.837  1.00  0.00     0.008 C 
ATOM      2  C   UNL     1      43.091  11.688 121.351  1.00  0.00    -0.008 C 
ATOM      3  C   UNL     1      44.268  12.212 122.177  1.00  0.00     0.004 C 
ATOM      4  C   UNL     1      45.409  12.411 121.189  1.00  0.00     0.005 C 
ATOM      5  C   UNL     1      45.195  11.387 120.057  1.00  0.00     0.002 C 
ATOM      6  C   UNL     1      43.757  10.839 120.233  1.00  0.00    -0.020 C 
ATOM      7  C   UNL     1      43.946   9.384 120.679  1.00  0.00     0.016 C 
ATOM      8  C   UNL     1      45.121   8.954 119.826  1.00  0.00     0.023 C 
ATOM      9  C   UNL     1      46.131  10.126 120.003  1.00  0.00    -0.025 C 
ATOM     10  C   UNL     1      47.141  10.227 118.834  1.00  0.00     0.012 C 
ATOM     11  C   UNL     1      46.958   9.882 121.295  1.00  0.00     0.012 C 
ATOM     12  C   UNL     1      44.611   8.822 118.391  1.00  0.00    -0.045 C 
ATOM     13  C   UNL     1      45.069   7.832 117.609  1.00  0.00     0.011 C 
ATOM     14  C   UNL     1      43.636   9.847 117.812  1.00  0.00     0.140 C 
ATOM     15  C   UNL     1      42.991  10.794 118.876  1.00  0.00     0.044 C 
ENDROOT
BRANCH  14  16
ATOM     16  O   UNL     1      44.303  10.606 116.838  1.00  0.00    -0.389 OA
ATOM     17  H   UNL     1      43.905  11.516 116.856  1.00  0.00     0.211 HD
ENDBRANCH  14  16
TORSDOF 1
ENDMDL
MODEL 5
REMARK VINA RESULT:    -5.153      6.701      8.915
REMARK INTER + INTRA:          -5.303
REMARK INTER:                  -5.303
REMARK INTRA:                   0.000
REMARK UNBOUND:                 0.000
REMARK SMILES C=C1[C@H](O)C[C@@]23C[C@@H]1C(C)(C)[C@@H]2CC[C@H]3C
REMARK SMILES IDX 16 1 15 2 14 3 13 4 12 5 6 6 7 7 8 8 9 9 10 10 11 11 2 12
REMARK SMILES IDX 1 13 3 14 5 15 4 16
REMARK H PARENT 4 17
REMARK Flexibility Score: inf
ROOT
ATOM      1  C   UNL     1      40.615  16.245 114.751  1.00  0.00     0.008 C 
ATOM      2  C   UNL     1      41.131  16.034 113.315  1.00  0.00    -0.008 C 
ATOM      3  C   UNL     1      40.116  16.579 112.308  1.00  0.00     0.004 C 
ATOM      4  C   UNL     1      39.187  15.416 111.988  1.00  0.00     0.005 C 
ATOM      5  C   UNL     1      40.016  14.128 112.167  1.00  0.00     0.002 C 
ATOM      6  C   UNL     1      41.311  14.545 112.908  1.00  0.00    -0.020 C 
ATOM      7  C   UNL     1      42.426  14.385 111.868  1.00  0.00     0.016 C 
ATOM      8  C   UNL     1      42.001  13.116 111.159  1.00  0.00     0.023 C 
ATOM      9  C   UNL     1      40.489  13.358 110.881  1.00  0.00    -0.025 C 
ATOM     10  C   UNL     1      39.696  12.041 110.694  1.00  0.00     0.012 C 
ATOM     11  C   UNL     1      40.346  14.163 109.560  1.00  0.00     0.012 C 
ATOM     12  C   UNL     1      42.248  11.957 112.126  1.00  0.00    -0.045 C 
ATOM     13  C   UNL     1      42.699  10.783 111.658  1.00  0.00     0.011 C 
ATOM     14  C   UNL     1      41.921  12.098 113.612  1.00  0.00     0.140 C 
ATOM     15  C   UNL     1      41.644  13.565 114.074  1.00  0.00     0.044 C 
ENDROOT
BRANCH  14  16
ATOM     16  O   UNL     1      40.817  11.285 113.912  1.00  0.00    -0.389 OA
ATOM     17  H   UNL     1      40.044  11.890 114.064  1.00  0.00     0.211 HD
ENDBRANCH  14  16
TORSDOF 1
ENDMDL
MODEL 6
REMARK VINA RESULT:    -5.003      7.852      9.604
REMARK INTER + INTRA:          -5.149
REMARK INTER:                  -5.149
REMARK INTRA:                   0.000
REMARK UNBOUND:                 0.000
REMARK SMILES C=C1[C@H](O)C[C@@]23C[C@@H]1C(C)(C)[C@@H]2CC[C@H]3C
REMARK SMILES IDX 16 1 15 2 14 3 13 4 12 5 6 6 7 7 8 8 9 9 10 10 11 11 2 12
REMARK SMILES IDX 1 13 3 14 5 15 4 16
REMARK H PARENT 4 17
REMARK Flexibility Score: inf
ROOT
ATOM      1  C   UNL     1      43.460   2.630 112.809  1.00  0.00     0.008 C 
ATOM      2  C   UNL     1      42.686   1.591 113.642  1.00  0.00    -0.008 C 
ATOM      3  C   UNL     1      42.683   0.240 112.923  1.00  0.00     0.004 C 
ATOM      4  C   UNL     1      41.440   0.243 112.044  1.00  0.00     0.005 C 
ATOM      5  C   UNL     1      40.407   1.149 112.745  1.00  0.00     0.002 C 
ATOM      6  C   UNL     1      41.180   1.920 113.843  1.00  0.00    -0.020 C 
ATOM      7  C   UNL     1      40.659   1.345 115.166  1.00  0.00     0.016 C 
ATOM      8  C   UNL     1      39.185   1.174 114.862  1.00  0.00     0.023 C 
ATOM      9  C   UNL     1      39.190   0.471 113.473  1.00  0.00    -0.025 C 
ATOM     10  C   UNL     1      37.874   0.689 112.686  1.00  0.00     0.012 C 
ATOM     11  C   UNL     1      39.341  -1.060 113.688  1.00  0.00     0.012 C 
ATOM     12  C   UNL     1      38.570   2.573 114.816  1.00  0.00    -0.045 C 
ATOM     13  C   UNL     1      37.339   2.777 115.310  1.00  0.00     0.011 C 
ATOM     14  C   UNL     1      39.314   3.730 114.151  1.00  0.00     0.140 C 
ATOM     15  C   UNL     1      40.818   3.436 113.842  1.00  0.00     0.044 C 
ENDROOT
BRANCH  14  16
ATOM     16  O   UNL     1      38.643   4.082 112.970  1.00  0.00    -0.389 OA
ATOM     17  H   UNL     1      38.918   5.009 112.745  1.00  0.00     0.211 HD
ENDBRANCH  14  16
TORSDOF 1
ENDMDL
MODEL 7
REMARK VINA RESULT:    -4.957      7.464      9.695
REMARK INTER + INTRA:          -5.102
REMARK INTER:                  -5.102
REMARK INTRA:                   0.000
REMARK UNBOUND:                 0.000
REMARK SMILES C=C1[C@H](O)C[C@@]23C[C@@H]1C(C)(C)[C@@H]2CC[C@H]3C
REMARK SMILES IDX 16 1 15 2 14 3 13 4 12 5 6 6 7 7 8 8 9 9 10 10 11 11 2 12
REMARK SMILES IDX 1 13 3 14 5 15 4 16
REMARK H PARENT 4 17
REMARK Flexibility Score: inf
ROOT
ATOM      1  C   UNL     1      42.089  13.179 114.741  1.00  0.00     0.008 C 
ATOM      2  C   UNL     1      42.159  14.428 113.842  1.00  0.00    -0.008 C 
ATOM      3  C   UNL     1      41.178  15.490 114.343  1.00  0.00     0.004 C 
ATOM      4  C   UNL     1      39.869  15.219 113.614  1.00  0.00     0.005 C 
ATOM      5  C   UNL     1      40.243  14.579 112.261  1.00  0.00     0.002 C 
ATOM      6  C   UNL     1      41.737  14.184 112.367  1.00  0.00    -0.020 C 
ATOM      7  C   UNL     1      42.464  15.143 111.416  1.00  0.00     0.016 C 
ATOM      8  C   UNL     1      41.491  15.217 110.257  1.00  0.00     0.023 C 
ATOM      9  C   UNL     1      40.123  15.454 110.961  1.00  0.00    -0.025 C 
ATOM     10  C   UNL     1      38.919  15.009 110.096  1.00  0.00     0.012 C 
ATOM     11  C   UNL     1      39.953  16.976 111.224  1.00  0.00     0.012 C 
ATOM     12  C   UNL     1      41.558  13.875 109.528  1.00  0.00    -0.045 C 
ATOM     13  C   UNL     1      41.473  13.839 108.189  1.00  0.00     0.011 C 
ATOM     14  C   UNL     1      41.649  12.565 110.310  1.00  0.00     0.140 C 
ATOM     15  C   UNL     1      41.988  12.743 111.825  1.00  0.00     0.044 C 
ENDROOT
BRANCH  14  16
ATOM     16  O   UNL     1      40.439  11.868 110.169  1.00  0.00    -0.389 OA
ATOM     17  H   UNL     1      39.714  12.546 110.144  1.00  0.00     0.211 HD
ENDBRANCH  14  16
TORSDOF 1
ENDMDL
MODEL 8
REMARK VINA RESULT:    -4.939      8.246     10.466
REMARK INTER + INTRA:          -5.083
REMARK INTER:                  -5.083
REMARK INTRA:                   0.000
REMARK UNBOUND:                 0.000
REMARK SMILES C=C1[C@H](O)C[C@@]23C[C@@H]1C(C)(C)[C@@H]2CC[C@H]3C
REMARK SMILES IDX 16 1 15 2 14 3 13 4 12 5 6 6 7 7 8 8 9 9 10 10 11 11 2 12
REMARK SMILES IDX 1 13 3 14 5 15 4 16
REMARK H PARENT 4 17
REMARK Flexibility Score: inf
ROOT
ATOM      1  C   UNL     1      37.657   2.246 114.597  1.00  0.00     0.008 C 
ATOM      2  C   UNL     1      39.179   2.348 114.817  1.00  0.00    -0.008 C 
ATOM      3  C   UNL     1      39.680   3.726 114.379  1.00  0.00     0.004 C 
ATOM      4  C   UNL     1      40.051   3.582 112.910  1.00  0.00     0.005 C 
ATOM      5  C   UNL     1      40.471   2.113 112.704  1.00  0.00     0.002 C 
ATOM      6  C   UNL     1      40.019   1.350 113.974  1.00  0.00    -0.020 C 
ATOM      7  C   UNL     1      41.323   0.979 114.692  1.00  0.00     0.016 C 
ATOM      8  C   UNL     1      42.218   0.612 113.525  1.00  0.00     0.023 C 
ATOM      9  C   UNL     1      41.999   1.788 112.530  1.00  0.00    -0.025 C 
ATOM     10  C   UNL     1      42.327   1.403 111.067  1.00  0.00     0.012 C 
ATOM     11  C   UNL     1      42.952   2.953 112.916  1.00  0.00     0.012 C 
ATOM     12  C   UNL     1      41.719  -0.727 112.981  1.00  0.00    -0.045 C 
ATOM     13  C   UNL     1      42.600  -1.640 112.546  1.00  0.00     0.011 C 
ATOM     14  C   UNL     1      40.222  -1.010 112.859  1.00  0.00     0.140 C 
ATOM     15  C   UNL     1      39.310   0.009 113.615  1.00  0.00     0.044 C 
ENDROOT
BRANCH  14  16
ATOM     16  O   UNL     1      39.876  -1.044 111.499  1.00  0.00    -0.389 OA
ATOM     17  H   UNL     1      40.550  -1.613 111.042  1.00  0.00     0.211 HD
ENDBRANCH  14  16
TORSDOF 1
ENDMDL
MODEL 9
REMARK VINA RESULT:    -4.900      8.733     10.912
REMARK INTER + INTRA:          -5.043
REMARK INTER:                  -5.043
REMARK INTRA:                   0.000
REMARK UNBOUND:                 0.000
REMARK SMILES C=C1[C@H](O)C[C@@]23C[C@@H]1C(C)(C)[C@@H]2CC[C@H]3C
REMARK SMILES IDX 16 1 15 2 14 3 13 4 12 5 6 6 7 7 8 8 9 9 10 10 11 11 2 12
REMARK SMILES IDX 1 13 3 14 5 15 4 16
REMARK H PARENT 4 17
REMARK Flexibility Score: inf
ROOT
ATOM      1  C   UNL     1      36.752   3.116 112.745  1.00  0.00     0.008 C 
ATOM      2  C   UNL     1      37.342   2.118 113.759  1.00  0.00    -0.008 C 
ATOM      3  C   UNL     1      37.769   2.853 115.031  1.00  0.00     0.004 C 
ATOM      4  C   UNL     1      39.219   3.256 114.808  1.00  0.00     0.005 C 
ATOM      5  C   UNL     1      39.827   2.205 113.857  1.00  0.00     0.002 C 
ATOM      6  C   UNL     1      38.635   1.401 113.280  1.00  0.00    -0.020 C 
ATOM      7  C   UNL     1      38.762   0.008 113.908  1.00  0.00     0.016 C 
ATOM      8  C   UNL     1      40.263  -0.200 113.882  1.00  0.00     0.023 C 
ATOM      9  C   UNL     1      40.815   1.138 114.454  1.00  0.00    -0.025 C 
ATOM     10  C   UNL     1      42.273   1.419 114.018  1.00  0.00     0.012 C 
ATOM     11  C   UNL     1      40.813   1.058 116.005  1.00  0.00     0.012 C 
ATOM     12  C   UNL     1      40.659  -0.431 112.424  1.00  0.00    -0.045 C 
ATOM     13  C   UNL     1      41.616  -1.322 112.126  1.00  0.00     0.011 C 
ATOM     14  C   UNL     1      40.026   0.394 111.304  1.00  0.00     0.140 C 
ATOM     15  C   UNL     1      38.766   1.210 111.739  1.00  0.00     0.044 C 
ENDROOT
BRANCH  14  16
ATOM     16  O   UNL     1      40.996   1.259 110.774  1.00  0.00    -0.389 OA
ATOM     17  H   UNL     1      41.825   0.726 110.653  1.00  0.00     0.211 HD
ENDBRANCH  14  16
TORSDOF 1
ENDMDL
