MODEL 1
REMARK VINA RESULT:    -5.201      0.000      0.000
REMARK INTER + INTRA:          -7.134
REMARK INTER:                  -6.721
REMARK INTRA:                  -0.413
REMARK UNBOUND:                -0.413
REMARK SMILES CCO[C@@H]1O[C@H](CO)[C@H](O)[C@@H](O)[C@H]1O
REMARK SMILES IDX 4 1 13 2 11 3 9 4 6 5 5 6 3 7 2 8 1 9 14 10 12 12 7 14 8 15
REMARK SMILES IDX 10 17
REMARK H PARENT 14 11 12 13 8 16 10 18
REMARK Flexibility Score: inf
ROOT
ATOM      1  C   UNL     1      53.998  -2.806  12.484  1.00  0.00     0.281 C 
ATOM      2  C   UNL     1      52.875  -3.752  13.025  1.00  0.00     0.202 C 
ATOM      3  C   UNL     1      51.561  -3.601  12.226  1.00  0.00     0.179 C 
ATOM      4  C   UNL     1      51.799  -3.636  10.692  1.00  0.00     0.177 C 
ATOM      5  C   UNL     1      53.191  -3.048  10.311  1.00  0.00     0.178 C 
ATOM      6  O   UNL     1      53.625  -2.122  11.291  1.00  0.00    -0.341 OA
ENDROOT
BRANCH   1   7
ATOM      7  O   UNL     1      54.426  -1.897  13.488  1.00  0.00    -0.350 OA
BRANCH   7   8
ATOM      8  C   UNL     1      55.344  -2.488  14.390  1.00  0.00     0.160 C 
ATOM      9  C   UNL     1      56.381  -3.272  13.601  1.00  0.00     0.035 C 
ENDBRANCH   7   8
ENDBRANCH   1   7
BRANCH   2  10
ATOM     10  O   UNL     1      53.309  -5.092  13.043  1.00  0.00    -0.385 OA
ATOM     11  H   UNL     1      52.890  -5.539  13.823  1.00  0.00     0.211 HD
ENDBRANCH   2  10
BRANCH   3  12
ATOM     12  O   UNL     1      50.660  -4.610  12.604  1.00  0.00    -0.387 OA
ATOM     13  H   UNL     1      50.598  -5.240  11.838  1.00  0.00     0.211 HD
ENDBRANCH   3  12
BRANCH   5  14
ATOM     14  C   UNL     1      53.235  -2.388   8.924  1.00  0.00     0.191 C 
BRANCH  14  15
ATOM     15  O   UNL     1      52.689  -1.098   8.968  1.00  0.00    -0.394 OA
ATOM     16  H   UNL     1      53.316  -0.553   9.511  1.00  0.00     0.210 HD
ENDBRANCH  14  15
ENDBRANCH   5  14
BRANCH   4  17
ATOM     17  O   UNL     1      50.740  -2.993  10.022  1.00  0.00    -0.387 OA
ATOM     18  H   UNL     1      49.896  -3.245  10.479  1.00  0.00     0.211 HD
ENDBRANCH   4  17
TORSDOF 7
ENDMDL
MODEL 2
REMARK VINA RESULT:    -5.038      1.974      2.508
REMARK INTER + INTRA:          -6.924
REMARK INTER:                  -6.532
REMARK INTRA:                  -0.392
REMARK UNBOUND:                -0.413
REMARK SMILES CCO[C@@H]1O[C@H](CO)[C@H](O)[C@@H](O)[C@H]1O
REMARK SMILES IDX 4 1 13 2 11 3 9 4 6 5 5 6 3 7 2 8 1 9 14 10 12 12 7 14 8 15
REMARK SMILES IDX 10 17
REMARK H PARENT 14 11 12 13 8 16 10 18
REMARK Flexibility Score: inf
ROOT
ATOM      1  C   UNL     1      53.311  -2.001  12.227  1.00  0.00     0.281 C 
ATOM      2  C   UNL     1      52.264  -2.959  12.887  1.00  0.00     0.202 C 
ATOM      3  C   UNL     1      51.456  -3.745  11.829  1.00  0.00     0.179 C 
ATOM      4  C   UNL     1      52.370  -4.379  10.745  1.00  0.00     0.177 C 
ATOM      5  C   UNL     1      53.645  -3.519  10.490  1.00  0.00     0.178 C 
ATOM      6  O   UNL     1      53.402  -2.162  10.814  1.00  0.00    -0.341 OA
ENDROOT
BRANCH   1   7
ATOM      7  O   UNL     1      53.055  -0.648  12.577  1.00  0.00    -0.350 OA
BRANCH   7   8
ATOM      8  C   UNL     1      51.960  -0.106  11.861  1.00  0.00     0.160 C 
ATOM      9  C   UNL     1      52.039   1.411  11.906  1.00  0.00     0.035 C 
ENDBRANCH   7   8
ENDBRANCH   1   7
BRANCH   2  10
ATOM     10  O   UNL     1      52.884  -3.829  13.804  1.00  0.00    -0.385 OA
ATOM     11  H   UNL     1      53.815  -3.516  13.941  1.00  0.00     0.211 HD
ENDBRANCH   2  10
BRANCH   3  12
ATOM     12  O   UNL     1      50.690  -4.737  12.462  1.00  0.00    -0.387 OA
ATOM     13  H   UNL     1      50.928  -5.600  12.033  1.00  0.00     0.211 HD
ENDBRANCH   3  12
BRANCH   5  14
ATOM     14  C   UNL     1      54.192  -3.617   9.058  1.00  0.00     0.191 C 
BRANCH  14  15
ATOM     15  O   UNL     1      53.442  -2.819   8.182  1.00  0.00    -0.394 OA
ATOM     16  H   UNL     1      53.209  -1.999   8.689  1.00  0.00     0.210 HD
ENDBRANCH  14  15
ENDBRANCH   5  14
BRANCH   4  17
ATOM     17  O   UNL     1      51.634  -4.613   9.567  1.00  0.00    -0.387 OA
ATOM     18  H   UNL     1      50.847  -5.167   9.808  1.00  0.00     0.211 HD
ENDBRANCH   4  17
TORSDOF 7
ENDMDL
MODEL 3
REMARK VINA RESULT:    -5.036     13.082     15.225
REMARK INTER + INTRA:          -6.920
REMARK INTER:                  -6.527
REMARK INTRA:                  -0.393
REMARK UNBOUND:                -0.413
REMARK SMILES CCO[C@@H]1O[C@H](CO)[C@H](O)[C@@H](O)[C@H]1O
REMARK SMILES IDX 4 1 13 2 11 3 9 4 6 5 5 6 3 7 2 8 1 9 14 10 12 12 7 14 8 15
REMARK SMILES IDX 10 17
REMARK H PARENT 14 11 12 13 8 16 10 18
REMARK Flexibility Score: inf
ROOT
ATOM      1  C   UNL     1      63.972  -5.110  23.283  1.00  0.00     0.281 C 
ATOM      2  C   UNL     1      64.106  -4.546  21.829  1.00  0.00     0.202 C 
ATOM      3  C   UNL     1      62.738  -4.465  21.115  1.00  0.00     0.179 C 
ATOM      4  C   UNL     1      61.651  -3.802  22.004  1.00  0.00     0.177 C 
ATOM      5  C   UNL     1      61.894  -4.082  23.518  1.00  0.00     0.178 C 
ATOM      6  O   UNL     1      62.619  -5.287  23.690  1.00  0.00    -0.341 OA
ENDROOT
BRANCH   1   7
ATOM      7  O   UNL     1      64.718  -6.309  23.435  1.00  0.00    -0.350 OA
BRANCH   7   8
ATOM      8  C   UNL     1      64.036  -7.269  24.222  1.00  0.00     0.160 C 
ATOM      9  C   UNL     1      64.915  -7.662  25.399  1.00  0.00     0.035 C 
ENDBRANCH   7   8
ENDBRANCH   1   7
BRANCH   2  10
ATOM     10  O   UNL     1      64.755  -3.296  21.831  1.00  0.00    -0.385 OA
ATOM     11  H   UNL     1      64.338  -2.736  22.534  1.00  0.00     0.211 HD
ENDBRANCH   2  10
BRANCH   3  12
ATOM     12  O   UNL     1      62.877  -3.760  19.908  1.00  0.00    -0.387 OA
ATOM     13  H   UNL     1      62.338  -2.931  19.996  1.00  0.00     0.211 HD
ENDBRANCH   3  12
BRANCH   5  14
ATOM     14  C   UNL     1      60.610  -4.129  24.361  1.00  0.00     0.191 C 
BRANCH  14  15
ATOM     15  O   UNL     1      59.983  -5.377  24.247  1.00  0.00    -0.394 OA
ATOM     16  H   UNL     1      59.509  -5.367  23.374  1.00  0.00     0.210 HD
ENDBRANCH  14  15
ENDBRANCH   5  14
BRANCH   4  17
ATOM     17  O   UNL     1      60.368  -4.202  21.581  1.00  0.00    -0.387 OA
ATOM     18  H   UNL     1      59.745  -4.073  22.343  1.00  0.00     0.211 HD
ENDBRANCH   4  17
TORSDOF 7
ENDMDL
MODEL 4
REMARK VINA RESULT:    -5.015      1.453      1.495
REMARK INTER + INTRA:          -6.894
REMARK INTER:                  -6.736
REMARK INTRA:                  -0.158
REMARK UNBOUND:                -0.413
REMARK SMILES CCO[C@@H]1O[C@H](CO)[C@H](O)[C@@H](O)[C@H]1O
REMARK SMILES IDX 4 1 13 2 11 3 9 4 6 5 5 6 3 7 2 8 1 9 14 10 12 12 7 14 8 15
REMARK SMILES IDX 10 17
REMARK H PARENT 14 11 12 13 8 16 10 18
REMARK Flexibility Score: inf
ROOT
ATOM      1  C   UNL     1      53.880  -3.509  12.204  1.00  0.00     0.281 C 
ATOM      2  C   UNL     1      52.403  -3.356  12.696  1.00  0.00     0.202 C 
ATOM      3  C   UNL     1      51.519  -2.641  11.648  1.00  0.00     0.179 C 
ATOM      4  C   UNL     1      51.704  -3.231  10.224  1.00  0.00     0.177 C 
ATOM      5  C   UNL     1      53.150  -3.772  10.006  1.00  0.00     0.178 C 
ATOM      6  O   UNL     1      54.064  -3.098  10.852  1.00  0.00    -0.341 OA
ENDROOT
BRANCH   1   7
ATOM      7  O   UNL     1      54.780  -2.838  13.075  1.00  0.00    -0.350 OA
BRANCH   7   8
ATOM      8  C   UNL     1      55.466  -3.733  13.930  1.00  0.00     0.160 C 
ATOM      9  C   UNL     1      56.964  -3.566  13.725  1.00  0.00     0.035 C 
ENDBRANCH   7   8
ENDBRANCH   1   7
BRANCH   2  10
ATOM     10  O   UNL     1      51.859  -4.604  13.055  1.00  0.00    -0.385 OA
ATOM     11  H   UNL     1      51.924  -5.204  12.269  1.00  0.00     0.211 HD
ENDBRANCH   2  10
BRANCH   3  12
ATOM     12  O   UNL     1      50.171  -2.718  12.037  1.00  0.00    -0.387 OA
ATOM     13  H   UNL     1      49.785  -3.508  11.577  1.00  0.00     0.211 HD
ENDBRANCH   3  12
BRANCH   5  14
ATOM     14  C   UNL     1      53.637  -3.690   8.552  1.00  0.00     0.191 C 
BRANCH  14  15
ATOM     15  O   UNL     1      55.028  -3.852   8.482  1.00  0.00    -0.394 OA
ATOM     16  H   UNL     1      55.238  -4.659   9.019  1.00  0.00     0.210 HD
ENDBRANCH  14  15
ENDBRANCH   5  14
BRANCH   4  17
ATOM     17  O   UNL     1      51.332  -2.281   9.253  1.00  0.00    -0.387 OA
ATOM     18  H   UNL     1      50.960  -2.773   8.476  1.00  0.00     0.211 HD
ENDBRANCH   4  17
TORSDOF 7
ENDMDL
MODEL 5
REMARK VINA RESULT:    -4.949     11.512     14.360
REMARK INTER + INTRA:          -6.808
REMARK INTER:                  -6.435
REMARK INTRA:                  -0.373
REMARK UNBOUND:                -0.413
REMARK SMILES CCO[C@@H]1O[C@H](CO)[C@H](O)[C@@H](O)[C@H]1O
REMARK SMILES IDX 4 1 13 2 11 3 9 4 6 5 5 6 3 7 2 8 1 9 14 10 12 12 7 14 8 15
REMARK SMILES IDX 10 17
REMARK H PARENT 14 11 12 13 8 16 10 18
REMARK Flexibility Score: inf
ROOT
ATOM      1  C   UNL     1      62.658  -3.830  23.286  1.00  0.00     0.281 C 
ATOM      2  C   UNL     1      64.007  -3.621  22.521  1.00  0.00     0.202 C 
ATOM      3  C   UNL     1      64.014  -4.350  21.158  1.00  0.00     0.179 C 
ATOM      4  C   UNL     1      62.721  -4.080  20.342  1.00  0.00     0.177 C 
ATOM      5  C   UNL     1      61.488  -3.858  21.270  1.00  0.00     0.178 C 
ATOM      6  O   UNL     1      61.677  -4.514  22.511  1.00  0.00    -0.341 OA
ENDROOT
BRANCH   1   7
ATOM      7  O   UNL     1      62.874  -4.475  24.533  1.00  0.00    -0.350 OA
BRANCH   7   8
ATOM      8  C   UNL     1      62.958  -5.883  24.400  1.00  0.00     0.160 C 
ATOM      9  C   UNL     1      64.307  -6.351  24.921  1.00  0.00     0.035 C 
ENDBRANCH   7   8
ENDBRANCH   1   7
BRANCH   2  10
ATOM     10  O   UNL     1      64.293  -2.251  22.367  1.00  0.00    -0.385 OA
ATOM     11  H   UNL     1      64.530  -1.886  23.259  1.00  0.00     0.211 HD
ENDBRANCH   2  10
BRANCH   3  12
ATOM     12  O   UNL     1      65.146  -3.962  20.421  1.00  0.00    -0.387 OA
ATOM     13  H   UNL     1      65.139  -4.495  19.584  1.00  0.00     0.211 HD
ENDBRANCH   3  12
BRANCH   5  14
ATOM     14  C   UNL     1      60.152  -4.297  20.654  1.00  0.00     0.191 C 
BRANCH  14  15
ATOM     15  O   UNL     1      59.829  -3.503  19.545  1.00  0.00    -0.394 OA
ATOM     16  H   UNL     1      59.735  -4.127  18.778  1.00  0.00     0.210 HD
ENDBRANCH  14  15
ENDBRANCH   5  14
BRANCH   4  17
ATOM     17  O   UNL     1      62.513  -5.114  19.408  1.00  0.00    -0.387 OA
ATOM     18  H   UNL     1      61.895  -5.773  19.820  1.00  0.00     0.211 HD
ENDBRANCH   4  17
TORSDOF 7
ENDMDL
MODEL 6
REMARK VINA RESULT:    -4.947      1.553      4.076
REMARK INTER + INTRA:          -6.806
REMARK INTER:                  -6.445
REMARK INTRA:                  -0.361
REMARK UNBOUND:                -0.413
REMARK SMILES CCO[C@@H]1O[C@H](CO)[C@H](O)[C@@H](O)[C@H]1O
REMARK SMILES IDX 4 1 13 2 11 3 9 4 6 5 5 6 3 7 2 8 1 9 14 10 12 12 7 14 8 15
REMARK SMILES IDX 10 17
REMARK H PARENT 14 11 12 13 8 16 10 18
REMARK Flexibility Score: inf
ROOT
ATOM      1  C   UNL     1      53.380  -3.271  10.117  1.00  0.00     0.281 C 
ATOM      2  C   UNL     1      52.021  -3.976  10.442  1.00  0.00     0.202 C 
ATOM      3  C   UNL     1      51.879  -4.285  11.950  1.00  0.00     0.179 C 
ATOM      4  C   UNL     1      52.238  -3.060  12.835  1.00  0.00     0.177 C 
ATOM      5  C   UNL     1      53.326  -2.165  12.168  1.00  0.00     0.178 C 
ATOM      6  O   UNL     1      54.124  -2.930  11.283  1.00  0.00    -0.341 OA
ENDROOT
BRANCH   1   7
ATOM      7  O   UNL     1      54.156  -4.049   9.217  1.00  0.00    -0.350 OA
BRANCH   7   8
ATOM      8  C   UNL     1      53.627  -4.036   7.904  1.00  0.00     0.160 C 
ATOM      9  C   UNL     1      54.747  -4.315   6.915  1.00  0.00     0.035 C 
ENDBRANCH   7   8
ENDBRANCH   1   7
BRANCH   2  10
ATOM     10  O   UNL     1      50.933  -3.216   9.973  1.00  0.00    -0.385 OA
ATOM     11  H   UNL     1      51.294  -2.411   9.520  1.00  0.00     0.211 HD
ENDBRANCH   2  10
BRANCH   3  12
ATOM     12  O   UNL     1      50.571  -4.716  12.222  1.00  0.00    -0.387 OA
ATOM     13  H   UNL     1      49.988  -4.323  11.522  1.00  0.00     0.211 HD
ENDBRANCH   3  12
BRANCH   5  14
ATOM     14  C   UNL     1      54.229  -1.426  13.167  1.00  0.00     0.191 C 
BRANCH  14  15
ATOM     15  O   UNL     1      55.219  -2.280  13.672  1.00  0.00    -0.394 OA
ATOM     16  H   UNL     1      56.085  -1.823  13.508  1.00  0.00     0.210 HD
ENDBRANCH  14  15
ENDBRANCH   5  14
BRANCH   4  17
ATOM     17  O   UNL     1      52.608  -3.487  14.125  1.00  0.00    -0.387 OA
ATOM     18  H   UNL     1      52.589  -4.479  14.133  1.00  0.00     0.211 HD
ENDBRANCH   4  17
TORSDOF 7
ENDMDL
MODEL 7
REMARK VINA RESULT:    -4.933     11.472     13.762
REMARK INTER + INTRA:          -6.787
REMARK INTER:                  -6.401
REMARK INTRA:                  -0.387
REMARK UNBOUND:                -0.413
REMARK SMILES CCO[C@@H]1O[C@H](CO)[C@H](O)[C@@H](O)[C@H]1O
REMARK SMILES IDX 4 1 13 2 11 3 9 4 6 5 5 6 3 7 2 8 1 9 14 10 12 12 7 14 8 15
REMARK SMILES IDX 10 17
REMARK H PARENT 14 11 12 13 8 16 10 18
REMARK Flexibility Score: inf
ROOT
ATOM      1  C   UNL     1      60.836  -3.027  23.270  1.00  0.00     0.281 C 
ATOM      2  C   UNL     1      59.912  -3.439  22.076  1.00  0.00     0.202 C 
ATOM      3  C   UNL     1      60.692  -3.517  20.744  1.00  0.00     0.179 C 
ATOM      4  C   UNL     1      62.016  -4.316  20.886  1.00  0.00     0.177 C 
ATOM      5  C   UNL     1      62.626  -4.173  22.314  1.00  0.00     0.178 C 
ATOM      6  O   UNL     1      62.213  -2.957  22.911  1.00  0.00    -0.341 OA
ENDROOT
BRANCH   1   7
ATOM      7  O   UNL     1      60.394  -1.813  23.861  1.00  0.00    -0.350 OA
BRANCH   7   8
ATOM      8  C   UNL     1      61.385  -0.803  23.816  1.00  0.00     0.160 C 
ATOM      9  C   UNL     1      60.853   0.446  24.501  1.00  0.00     0.035 C 
ENDBRANCH   7   8
ENDBRANCH   1   7
BRANCH   2  10
ATOM     10  O   UNL     1      59.246  -4.650  22.348  1.00  0.00    -0.385 OA
ATOM     11  H   UNL     1      58.331  -4.587  21.970  1.00  0.00     0.211 HD
ENDBRANCH   2  10
BRANCH   3  12
ATOM     12  O   UNL     1      59.879  -4.093  19.754  1.00  0.00    -0.387 OA
ATOM     13  H   UNL     1      59.147  -3.447  19.573  1.00  0.00     0.211 HD
ENDBRANCH   3  12
BRANCH   5  14
ATOM     14  C   UNL     1      64.159  -4.272  22.354  1.00  0.00     0.191 C 
BRANCH  14  15
ATOM     15  O   UNL     1      64.747  -3.092  21.881  1.00  0.00    -0.394 OA
ATOM     16  H   UNL     1      65.549  -3.371  21.368  1.00  0.00     0.210 HD
ENDBRANCH  14  15
ENDBRANCH   5  14
BRANCH   4  17
ATOM     17  O   UNL     1      62.920  -3.940  19.874  1.00  0.00    -0.387 OA
ATOM     18  H   UNL     1      63.814  -4.294  20.121  1.00  0.00     0.211 HD
ENDBRANCH   4  17
TORSDOF 7
ENDMDL
MODEL 8
REMARK VINA RESULT:    -4.884      1.854      3.648
REMARK INTER + INTRA:          -6.724
REMARK INTER:                  -6.322
REMARK INTRA:                  -0.402
REMARK UNBOUND:                -0.413
REMARK SMILES CCO[C@@H]1O[C@H](CO)[C@H](O)[C@@H](O)[C@H]1O
REMARK SMILES IDX 4 1 13 2 11 3 9 4 6 5 5 6 3 7 2 8 1 9 14 10 12 12 7 14 8 15
REMARK SMILES IDX 10 17
REMARK H PARENT 14 11 12 13 8 16 10 18
REMARK Flexibility Score: inf
ROOT
ATOM      1  C   UNL     1      51.929  -3.722  10.196  1.00  0.00     0.281 C 
ATOM      2  C   UNL     1      52.172  -4.164  11.677  1.00  0.00     0.202 C 
ATOM      3  C   UNL     1      52.985  -3.112  12.466  1.00  0.00     0.179 C 
ATOM      4  C   UNL     1      52.432  -1.674  12.267  1.00  0.00     0.177 C 
ATOM      5  C   UNL     1      51.796  -1.490  10.856  1.00  0.00     0.178 C 
ATOM      6  O   UNL     1      52.372  -2.394   9.930  1.00  0.00    -0.341 OA
ENDROOT
BRANCH   1   7
ATOM      7  O   UNL     1      52.502  -4.650   9.286  1.00  0.00    -0.350 OA
BRANCH   7   8
ATOM      8  C   UNL     1      53.794  -4.255   8.861  1.00  0.00     0.160 C 
ATOM      9  C   UNL     1      53.872  -4.359   7.346  1.00  0.00     0.035 C 
ENDBRANCH   7   8
ENDBRANCH   1   7
BRANCH   2  10
ATOM     10  O   UNL     1      50.955  -4.456  12.323  1.00  0.00    -0.385 OA
ATOM     11  H   UNL     1      50.371  -3.657  12.252  1.00  0.00     0.211 HD
ENDBRANCH   2  10
BRANCH   3  12
ATOM     12  O   UNL     1      52.993  -3.447  13.830  1.00  0.00    -0.387 OA
ATOM     13  H   UNL     1      53.424  -4.339  13.903  1.00  0.00     0.211 HD
ENDBRANCH   3  12
BRANCH   5  14
ATOM     14  C   UNL     1      51.892  -0.059  10.307  1.00  0.00     0.191 C 
BRANCH  14  15
ATOM     15  O   UNL     1      53.084   0.122   9.592  1.00  0.00    -0.394 OA
ATOM     16  H   UNL     1      52.842   0.642   8.781  1.00  0.00     0.210 HD
ENDBRANCH  14  15
ENDBRANCH   5  14
BRANCH   4  17
ATOM     17  O   UNL     1      53.440  -0.727  12.531  1.00  0.00    -0.387 OA
ATOM     18  H   UNL     1      54.274  -1.042  12.094  1.00  0.00     0.211 HD
ENDBRANCH   4  17
TORSDOF 7
ENDMDL
MODEL 9
REMARK VINA RESULT:    -4.830     11.568     14.565
REMARK INTER + INTRA:          -6.655
REMARK INTER:                  -6.234
REMARK INTRA:                  -0.421
REMARK UNBOUND:                -0.413
REMARK SMILES CCO[C@@H]1O[C@H](CO)[C@H](O)[C@@H](O)[C@H]1O
REMARK SMILES IDX 4 1 13 2 11 3 9 4 6 5 5 6 3 7 2 8 1 9 14 10 12 12 7 14 8 15
REMARK SMILES IDX 10 17
REMARK H PARENT 14 11 12 13 8 16 10 18
REMARK Flexibility Score: inf
ROOT
ATOM      1  C   UNL     1      61.107  -4.058  21.724  1.00  0.00     0.281 C 
ATOM      2  C   UNL     1      62.283  -3.949  20.697  1.00  0.00     0.202 C 
ATOM      3  C   UNL     1      63.661  -3.949  21.397  1.00  0.00     0.179 C 
ATOM      4  C   UNL     1      63.782  -5.083  22.452  1.00  0.00     0.177 C 
ATOM      5  C   UNL     1      62.406  -5.412  23.107  1.00  0.00     0.178 C 
ATOM      6  O   UNL     1      61.551  -4.283  23.058  1.00  0.00    -0.341 OA
ENDROOT
BRANCH   1   7
ATOM      7  O   UNL     1      60.256  -2.923  21.647  1.00  0.00    -0.350 OA
BRANCH   7   8
ATOM      8  C   UNL     1      59.329  -3.020  20.582  1.00  0.00     0.160 C 
ATOM      9  C   UNL     1      58.434  -4.228  20.810  1.00  0.00     0.035 C 
ENDBRANCH   7   8
ENDBRANCH   1   7
BRANCH   2  10
ATOM     10  O   UNL     1      62.204  -4.967  19.728  1.00  0.00    -0.385 OA
ATOM     11  H   UNL     1      61.402  -4.797  19.170  1.00  0.00     0.211 HD
ENDBRANCH   2  10
BRANCH   3  12
ATOM     12  O   UNL     1      64.679  -4.065  20.437  1.00  0.00    -0.387 OA
ATOM     13  H   UNL     1      65.147  -3.191  20.408  1.00  0.00     0.211 HD
ENDBRANCH   3  12
BRANCH   5  14
ATOM     14  C   UNL     1      62.506  -5.921  24.552  1.00  0.00     0.191 C 
BRANCH  14  15
ATOM     15  O   UNL     1      63.301  -7.073  24.622  1.00  0.00    -0.394 OA
ATOM     16  H   UNL     1      63.858  -6.974  25.438  1.00  0.00     0.210 HD
ENDBRANCH  14  15
ENDBRANCH   5  14
BRANCH   4  17
ATOM     17  O   UNL     1      64.768  -4.757  23.403  1.00  0.00    -0.387 OA
ATOM     18  H   UNL     1      65.459  -5.469  23.378  1.00  0.00     0.211 HD
ENDBRANCH   4  17
TORSDOF 7
ENDMDL
