MODEL 1
REMARK VINA RESULT:    -6.575      0.000      0.000
REMARK INTER + INTRA:         -18.560
REMARK INTER:                 -16.570
REMARK INTRA:                  -1.990
REMARK UNBOUND:                -1.990
REMARK SMILES CCCCCCCCCCCCCCCCCCCCCCCCCCCC(=O)[O-]
REMARK SMILES IDX 15 1 16 2 17 3 18 4 19 5 20 6 21 7 22 8 23 9 24 10 25 11
REMARK SMILES IDX 26 12 27 13 28 14 29 15 30 16 14 17 13 18 12 19 11 20 10 21
REMARK SMILES IDX 9 22 8 23 7 24 6 25 5 26 4 27 3 28 2 29 1 30
REMARK H PARENT
REMARK Flexibility Score: inf
ROOT
ATOM      1  C   UNL     1      47.130 -49.113 163.690  1.00  0.00     0.000 C 
ENDROOT
BRANCH   1   2
ATOM      2  C   UNL     1      45.759 -48.999 163.013  1.00  0.00     0.000 C 
BRANCH   2   3
ATOM      3  C   UNL     1      44.762 -48.256 163.915  1.00  0.00     0.000 C 
BRANCH   3   4
ATOM      4  C   UNL     1      43.591 -49.144 164.372  1.00  0.00     0.000 C 
BRANCH   4   5
ATOM      5  C   UNL     1      42.198 -48.487 164.287  1.00  0.00     0.000 C 
BRANCH   5   6
ATOM      6  C   UNL     1      41.505 -48.577 162.914  1.00  0.00     0.000 C 
BRANCH   6   7
ATOM      7  C   UNL     1      41.351 -47.207 162.231  1.00  0.00     0.000 C 
BRANCH   7   8
ATOM      8  C   UNL     1      40.053 -47.089 161.412  1.00  0.00     0.000 C 
BRANCH   8   9
ATOM      9  C   UNL     1      38.953 -48.107 161.772  1.00  0.00     0.000 C 
BRANCH   9  10
ATOM     10  C   UNL     1      37.755 -48.142 160.806  1.00  0.00     0.000 C 
BRANCH  10  11
ATOM     11  C   UNL     1      36.511 -48.801 161.428  1.00  0.00     0.000 C 
BRANCH  11  12
ATOM     12  C   UNL     1      36.867 -49.918 162.421  1.00  0.00     0.006 C 
BRANCH  12  13
ATOM     13  C   UNL     1      35.643 -50.745 162.844  1.00  0.00     0.053 C 
BRANCH  13  14
ATOM     14  C   UNL     1      35.980 -52.202 162.915  1.00  0.00     0.041 C 
ATOM     15  O   UNL     1      36.463 -52.694 163.970  1.00  0.00    -0.550 OA
ATOM     16  O   UNL     1      35.765 -53.019 161.811  1.00  0.00    -0.550 OA
ENDBRANCH  13  14
ENDBRANCH  12  13
ENDBRANCH  11  12
ENDBRANCH  10  11
ENDBRANCH   9  10
ENDBRANCH   8   9
ENDBRANCH   7   8
ENDBRANCH   6   7
ENDBRANCH   5   6
ENDBRANCH   4   5
ENDBRANCH   3   4
ENDBRANCH   2   3
ENDBRANCH   1   2
BRANCH   1  17
ATOM     17  C   UNL     1      47.523 -47.798 164.378  1.00  0.00     0.000 C 
BRANCH  17  18
ATOM     18  C   UNL     1      49.012 -47.797 164.747  1.00  0.00     0.000 C 
BRANCH  18  19
ATOM     19  C   UNL     1      49.588 -46.371 164.743  1.00  0.00     0.000 C 
BRANCH  19  20
ATOM     20  C   UNL     1      51.020 -46.297 165.308  1.00  0.00     0.000 C 
BRANCH  20  21
ATOM     21  C   UNL     1      51.617 -47.643 165.763  1.00  0.00     0.000 C 
BRANCH  21  22
ATOM     22  C   UNL     1      53.128 -47.809 165.504  1.00  0.00    -0.000 C 
BRANCH  22  23
ATOM     23  C   UNL     1      53.852 -48.727 166.501  1.00  0.00    -0.000 C 
BRANCH  23  24
ATOM     24  C   UNL     1      54.133 -48.036 167.849  1.00  0.00    -0.000 C 
BRANCH  24  25
ATOM     25  C   UNL     1      54.991 -46.768 167.682  1.00  0.00    -0.000 C 
BRANCH  25  26
ATOM     26  C   UNL     1      54.335 -45.508 168.295  1.00  0.00    -0.000 C 
BRANCH  26  27
ATOM     27  C   UNL     1      54.450 -44.256 167.404  1.00  0.00    -0.000 C 
BRANCH  27  28
ATOM     28  C   UNL     1      54.772 -44.595 165.943  1.00  0.00    -0.000 C 
BRANCH  28  29
ATOM     29  C   UNL     1      53.744 -43.970 164.990  1.00  0.00    -0.003 C 
ATOM     30  C   UNL     1      53.717 -42.450 165.135  1.00  0.00     0.004 C 
ENDBRANCH  28  29
ENDBRANCH  27  28
ENDBRANCH  26  27
ENDBRANCH  25  26
ENDBRANCH  24  25
ENDBRANCH  23  24
ENDBRANCH  22  23
ENDBRANCH  21  22
ENDBRANCH  20  21
ENDBRANCH  19  20
ENDBRANCH  18  19
ENDBRANCH  17  18
ENDBRANCH   1  17
TORSDOF 26
ENDMDL
MODEL 2
REMARK VINA RESULT:    -6.555      1.683      3.183
REMARK INTER + INTRA:         -18.509
REMARK INTER:                 -16.647
REMARK INTRA:                  -1.863
REMARK UNBOUND:                -1.990
REMARK SMILES CCCCCCCCCCCCCCCCCCCCCCCCCCCC(=O)[O-]
REMARK SMILES IDX 15 1 16 2 17 3 18 4 19 5 20 6 21 7 22 8 23 9 24 10 25 11
REMARK SMILES IDX 26 12 27 13 28 14 29 15 30 16 14 17 13 18 12 19 11 20 10 21
REMARK SMILES IDX 9 22 8 23 7 24 6 25 5 26 4 27 3 28 2 29 1 30
REMARK H PARENT
REMARK Flexibility Score: inf
ROOT
ATOM      1  C   UNL     1      45.322 -47.215 164.060  1.00  0.00     0.000 C 
ENDROOT
BRANCH   1   2
ATOM      2  C   UNL     1      44.944 -46.786 162.637  1.00  0.00     0.000 C 
BRANCH   2   3
ATOM      3  C   UNL     1      43.809 -47.661 162.084  1.00  0.00     0.000 C 
BRANCH   3   4
ATOM      4  C   UNL     1      42.878 -48.199 163.185  1.00  0.00     0.000 C 
BRANCH   4   5
ATOM      5  C   UNL     1      41.377 -48.217 162.825  1.00  0.00     0.000 C 
BRANCH   5   6
ATOM      6  C   UNL     1      40.639 -49.533 163.131  1.00  0.00     0.000 C 
BRANCH   6   7
ATOM      7  C   UNL     1      39.137 -49.466 162.804  1.00  0.00     0.000 C 
BRANCH   7   8
ATOM      8  C   UNL     1      38.753 -48.208 162.004  1.00  0.00     0.000 C 
BRANCH   8   9
ATOM      9  C   UNL     1      37.979 -48.471 160.696  1.00  0.00     0.000 C 
BRANCH   9  10
ATOM     10  C   UNL     1      36.446 -48.463 160.834  1.00  0.00     0.000 C 
BRANCH  10  11
ATOM     11  C   UNL     1      35.807 -49.803 160.426  1.00  0.00     0.000 C 
BRANCH  11  12
ATOM     12  C   UNL     1      35.028 -50.461 161.575  1.00  0.00     0.006 C 
BRANCH  12  13
ATOM     13  C   UNL     1      35.924 -50.811 162.773  1.00  0.00     0.053 C 
BRANCH  13  14
ATOM     14  C   UNL     1      35.902 -52.283 163.046  1.00  0.00     0.041 C 
ATOM     15  O   UNL     1      36.037 -52.715 164.223  1.00  0.00    -0.550 OA
ATOM     16  O   UNL     1      35.737 -53.182 161.999  1.00  0.00    -0.550 OA
ENDBRANCH  13  14
ENDBRANCH  12  13
ENDBRANCH  11  12
ENDBRANCH  10  11
ENDBRANCH   9  10
ENDBRANCH   8   9
ENDBRANCH   7   8
ENDBRANCH   6   7
ENDBRANCH   5   6
ENDBRANCH   4   5
ENDBRANCH   3   4
ENDBRANCH   2   3
ENDBRANCH   1   2
BRANCH   1  17
ATOM     17  C   UNL     1      45.220 -46.039 165.041  1.00  0.00     0.000 C 
BRANCH  17  18
ATOM     18  C   UNL     1      46.588 -45.724 165.659  1.00  0.00     0.000 C 
BRANCH  18  19
ATOM     19  C   UNL     1      47.696 -46.592 165.038  1.00  0.00     0.000 C 
BRANCH  19  20
ATOM     20  C   UNL     1      48.768 -45.766 164.301  1.00  0.00     0.000 C 
BRANCH  20  21
ATOM     21  C   UNL     1      50.218 -46.014 164.760  1.00  0.00     0.000 C 
BRANCH  21  22
ATOM     22  C   UNL     1      50.488 -47.413 165.351  1.00  0.00    -0.000 C 
BRANCH  22  23
ATOM     23  C   UNL     1      51.975 -47.759 165.524  1.00  0.00    -0.000 C 
BRANCH  23  24
ATOM     24  C   UNL     1      52.800 -46.578 166.070  1.00  0.00    -0.000 C 
BRANCH  24  25
ATOM     25  C   UNL     1      54.312 -46.779 165.858  1.00  0.00    -0.000 C 
BRANCH  25  26
ATOM     26  C   UNL     1      54.845 -48.087 166.490  1.00  0.00    -0.000 C 
BRANCH  26  27
ATOM     27  C   UNL     1      54.888 -48.058 168.029  1.00  0.00    -0.000 C 
BRANCH  27  28
ATOM     28  C   UNL     1      54.335 -49.342 168.663  1.00  0.00    -0.000 C 
BRANCH  28  29
ATOM     29  C   UNL     1      53.671 -50.237 167.608  1.00  0.00    -0.003 C 
ATOM     30  C   UNL     1      53.876 -51.715 167.936  1.00  0.00     0.004 C 
ENDBRANCH  28  29
ENDBRANCH  27  28
ENDBRANCH  26  27
ENDBRANCH  25  26
ENDBRANCH  24  25
ENDBRANCH  23  24
ENDBRANCH  22  23
ENDBRANCH  21  22
ENDBRANCH  20  21
ENDBRANCH  19  20
ENDBRANCH  18  19
ENDBRANCH  17  18
ENDBRANCH   1  17
TORSDOF 26
ENDMDL
MODEL 3
REMARK VINA RESULT:    -6.544      1.451      3.289
REMARK INTER + INTRA:         -18.482
REMARK INTER:                 -16.987
REMARK INTRA:                  -1.494
REMARK UNBOUND:                -1.990
REMARK SMILES CCCCCCCCCCCCCCCCCCCCCCCCCCCC(=O)[O-]
REMARK SMILES IDX 15 1 16 2 17 3 18 4 19 5 20 6 21 7 22 8 23 9 24 10 25 11
REMARK SMILES IDX 26 12 27 13 28 14 29 15 30 16 14 17 13 18 12 19 11 20 10 21
REMARK SMILES IDX 9 22 8 23 7 24 6 25 5 26 4 27 3 28 2 29 1 30
REMARK H PARENT
REMARK Flexibility Score: inf
ROOT
ATOM      1  C   UNL     1      45.919 -49.301 162.859  1.00  0.00     0.000 C 
ENDROOT
BRANCH   1   2
ATOM      2  C   UNL     1      45.160 -49.438 164.185  1.00  0.00     0.000 C 
BRANCH   2   3
ATOM      3  C   UNL     1      43.680 -49.065 164.010  1.00  0.00     0.000 C 
BRANCH   3   4
ATOM      4  C   UNL     1      43.475 -47.844 163.095  1.00  0.00     0.000 C 
BRANCH   4   5
ATOM      5  C   UNL     1      42.312 -47.967 162.088  1.00  0.00     0.000 C 
BRANCH   5   6
ATOM      6  C   UNL     1      40.913 -47.652 162.650  1.00  0.00     0.000 C 
BRANCH   6   7
ATOM      7  C   UNL     1      39.942 -47.127 161.579  1.00  0.00     0.000 C 
BRANCH   7   8
ATOM      8  C   UNL     1      38.821 -48.127 161.244  1.00  0.00     0.000 C 
BRANCH   8   9
ATOM      9  C   UNL     1      38.295 -48.948 162.438  1.00  0.00     0.000 C 
BRANCH   9  10
ATOM     10  C   UNL     1      36.763 -49.075 162.516  1.00  0.00     0.000 C 
BRANCH  10  11
ATOM     11  C   UNL     1      36.226 -50.278 161.720  1.00  0.00     0.000 C 
BRANCH  11  12
ATOM     12  C   UNL     1      35.441 -51.266 162.597  1.00  0.00     0.006 C 
BRANCH  12  13
ATOM     13  C   UNL     1      35.781 -52.732 162.285  1.00  0.00     0.053 C 
BRANCH  13  14
ATOM     14  C   UNL     1      36.011 -53.507 163.544  1.00  0.00     0.041 C 
ATOM     15  O   UNL     1      36.853 -53.108 164.394  1.00  0.00    -0.550 OA
ATOM     16  O   UNL     1      35.299 -54.678 163.780  1.00  0.00    -0.550 OA
ENDBRANCH  13  14
ENDBRANCH  12  13
ENDBRANCH  11  12
ENDBRANCH  10  11
ENDBRANCH   9  10
ENDBRANCH   8   9
ENDBRANCH   7   8
ENDBRANCH   6   7
ENDBRANCH   5   6
ENDBRANCH   4   5
ENDBRANCH   3   4
ENDBRANCH   2   3
ENDBRANCH   1   2
BRANCH   1  17
ATOM     17  C   UNL     1      47.435 -49.244 163.090  1.00  0.00     0.000 C 
BRANCH  17  18
ATOM     18  C   UNL     1      47.765 -48.468 164.371  1.00  0.00     0.000 C 
BRANCH  18  19
ATOM     19  C   UNL     1      48.824 -49.201 165.212  1.00  0.00     0.000 C 
BRANCH  19  20
ATOM     20  C   UNL     1      50.066 -48.338 165.505  1.00  0.00     0.000 C 
BRANCH  20  21
ATOM     21  C   UNL     1      49.910 -46.836 165.194  1.00  0.00     0.000 C 
BRANCH  21  22
ATOM     22  C   UNL     1      51.231 -46.045 165.112  1.00  0.00    -0.000 C 
BRANCH  22  23
ATOM     23  C   UNL     1      52.430 -46.727 165.791  1.00  0.00    -0.000 C 
BRANCH  23  24
ATOM     24  C   UNL     1      53.692 -45.845 165.794  1.00  0.00    -0.000 C 
BRANCH  24  25
ATOM     25  C   UNL     1      54.967 -46.656 166.092  1.00  0.00    -0.000 C 
BRANCH  25  26
ATOM     26  C   UNL     1      54.837 -48.150 165.713  1.00  0.00    -0.000 C 
BRANCH  26  27
ATOM     27  C   UNL     1      54.937 -49.105 166.918  1.00  0.00    -0.000 C 
BRANCH  27  28
ATOM     28  C   UNL     1      53.626 -49.856 167.190  1.00  0.00    -0.000 C 
BRANCH  28  29
ATOM     29  C   UNL     1      53.878 -51.358 167.383  1.00  0.00    -0.003 C 
ATOM     30  C   UNL     1      53.957 -51.714 168.866  1.00  0.00     0.004 C 
ENDBRANCH  28  29
ENDBRANCH  27  28
ENDBRANCH  26  27
ENDBRANCH  25  26
ENDBRANCH  24  25
ENDBRANCH  23  24
ENDBRANCH  22  23
ENDBRANCH  21  22
ENDBRANCH  20  21
ENDBRANCH  19  20
ENDBRANCH  18  19
ENDBRANCH  17  18
ENDBRANCH   1  17
TORSDOF 26
ENDMDL
MODEL 4
REMARK VINA RESULT:    -6.450      2.812      3.770
REMARK INTER + INTRA:         -18.244
REMARK INTER:                 -16.393
REMARK INTRA:                  -1.851
REMARK UNBOUND:                -1.990
REMARK SMILES CCCCCCCCCCCCCCCCCCCCCCCCCCCC(=O)[O-]
REMARK SMILES IDX 15 1 16 2 17 3 18 4 19 5 20 6 21 7 22 8 23 9 24 10 25 11
REMARK SMILES IDX 26 12 27 13 28 14 29 15 30 16 14 17 13 18 12 19 11 20 10 21
REMARK SMILES IDX 9 22 8 23 7 24 6 25 5 26 4 27 3 28 2 29 1 30
REMARK H PARENT
REMARK Flexibility Score: inf
ROOT
ATOM      1  C   UNL     1      44.812 -46.912 164.399  1.00  0.00     0.000 C 
ENDROOT
BRANCH   1   2
ATOM      2  C   UNL     1      44.486 -46.417 162.985  1.00  0.00     0.000 C 
BRANCH   2   3
ATOM      3  C   UNL     1      44.566 -47.568 161.970  1.00  0.00     0.000 C 
BRANCH   3   4
ATOM      4  C   UNL     1      43.186 -47.987 161.432  1.00  0.00     0.000 C 
BRANCH   4   5
ATOM      5  C   UNL     1      41.980 -47.332 162.136  1.00  0.00     0.000 C 
BRANCH   5   6
ATOM      6  C   UNL     1      40.897 -48.305 162.639  1.00  0.00     0.000 C 
BRANCH   6   7
ATOM      7  C   UNL     1      39.516 -48.035 162.017  1.00  0.00     0.000 C 
BRANCH   7   8
ATOM      8  C   UNL     1      38.506 -49.165 162.287  1.00  0.00     0.000 C 
BRANCH   8   9
ATOM      9  C   UNL     1      37.032 -48.721 162.382  1.00  0.00     0.000 C 
BRANCH   9  10
ATOM     10  C   UNL     1      36.125 -49.226 161.245  1.00  0.00     0.000 C 
BRANCH  10  11
ATOM     11  C   UNL     1      36.545 -48.683 159.867  1.00  0.00     0.000 C 
BRANCH  11  12
ATOM     12  C   UNL     1      35.661 -47.518 159.396  1.00  0.00     0.006 C 
BRANCH  12  13
ATOM     13  C   UNL     1      36.195 -46.151 159.849  1.00  0.00     0.053 C 
BRANCH  13  14
ATOM     14  C   UNL     1      36.436 -45.254 158.674  1.00  0.00     0.041 C 
ATOM     15  O   UNL     1      36.800 -44.060 158.848  1.00  0.00    -0.550 OA
ATOM     16  O   UNL     1      36.252 -45.736 157.383  1.00  0.00    -0.550 OA
ENDBRANCH  13  14
ENDBRANCH  12  13
ENDBRANCH  11  12
ENDBRANCH  10  11
ENDBRANCH   9  10
ENDBRANCH   8   9
ENDBRANCH   7   8
ENDBRANCH   6   7
ENDBRANCH   5   6
ENDBRANCH   4   5
ENDBRANCH   3   4
ENDBRANCH   2   3
ENDBRANCH   1   2
BRANCH   1  17
ATOM     17  C   UNL     1      45.413 -45.789 165.256  1.00  0.00     0.000 C 
BRANCH  17  18
ATOM     18  C   UNL     1      46.940 -45.921 165.337  1.00  0.00     0.000 C 
BRANCH  18  19
ATOM     19  C   UNL     1      47.417 -47.256 164.739  1.00  0.00     0.000 C 
BRANCH  19  20
ATOM     20  C   UNL     1      48.945 -47.319 164.547  1.00  0.00     0.000 C 
BRANCH  20  21
ATOM     21  C   UNL     1      49.686 -45.979 164.725  1.00  0.00     0.000 C 
BRANCH  21  22
ATOM     22  C   UNL     1      51.184 -46.101 165.068  1.00  0.00    -0.000 C 
BRANCH  22  23
ATOM     23  C   UNL     1      51.552 -47.339 165.902  1.00  0.00    -0.000 C 
BRANCH  23  24
ATOM     24  C   UNL     1      52.886 -47.973 165.465  1.00  0.00    -0.000 C 
BRANCH  24  25
ATOM     25  C   UNL     1      54.058 -47.533 166.363  1.00  0.00    -0.000 C 
BRANCH  25  26
ATOM     26  C   UNL     1      55.044 -46.580 165.648  1.00  0.00    -0.000 C 
BRANCH  26  27
ATOM     27  C   UNL     1      54.810 -45.091 165.971  1.00  0.00    -0.000 C 
BRANCH  27  28
ATOM     28  C   UNL     1      54.775 -44.210 164.714  1.00  0.00    -0.000 C 
BRANCH  28  29
ATOM     29  C   UNL     1      53.664 -43.156 164.810  1.00  0.00    -0.003 C 
ATOM     30  C   UNL     1      54.011 -41.919 163.984  1.00  0.00     0.004 C 
ENDBRANCH  28  29
ENDBRANCH  27  28
ENDBRANCH  26  27
ENDBRANCH  25  26
ENDBRANCH  24  25
ENDBRANCH  23  24
ENDBRANCH  22  23
ENDBRANCH  21  22
ENDBRANCH  20  21
ENDBRANCH  19  20
ENDBRANCH  18  19
ENDBRANCH  17  18
ENDBRANCH   1  17
TORSDOF 26
ENDMDL
MODEL 5
REMARK VINA RESULT:    -6.439      5.447     15.294
REMARK INTER + INTRA:         -18.217
REMARK INTER:                 -16.570
REMARK INTRA:                  -1.648
REMARK UNBOUND:                -1.990
REMARK SMILES CCCCCCCCCCCCCCCCCCCCCCCCCCCC(=O)[O-]
REMARK SMILES IDX 15 1 16 2 17 3 18 4 19 5 20 6 21 7 22 8 23 9 24 10 25 11
REMARK SMILES IDX 26 12 27 13 28 14 29 15 30 16 14 17 13 18 12 19 11 20 10 21
REMARK SMILES IDX 9 22 8 23 7 24 6 25 5 26 4 27 3 28 2 29 1 30
REMARK H PARENT
REMARK Flexibility Score: inf
ROOT
ATOM      1  C   UNL     1      43.442 -48.066 164.044  1.00  0.00     0.000 C 
ENDROOT
BRANCH   1   2
ATOM      2  C   UNL     1      44.443 -49.228 164.039  1.00  0.00     0.000 C 
BRANCH   2   3
ATOM      3  C   UNL     1      45.660 -48.898 163.161  1.00  0.00     0.000 C 
BRANCH   3   4
ATOM      4  C   UNL     1      46.957 -48.735 163.973  1.00  0.00     0.000 C 
BRANCH   4   5
ATOM      5  C   UNL     1      47.279 -47.291 164.411  1.00  0.00     0.000 C 
BRANCH   5   6
ATOM      6  C   UNL     1      48.748 -47.026 164.791  1.00  0.00     0.000 C 
BRANCH   6   7
ATOM      7  C   UNL     1      49.418 -48.235 165.467  1.00  0.00     0.000 C 
BRANCH   7   8
ATOM      8  C   UNL     1      50.951 -48.111 165.533  1.00  0.00     0.000 C 
BRANCH   8   9
ATOM      9  C   UNL     1      51.488 -46.677 165.711  1.00  0.00     0.000 C 
BRANCH   9  10
ATOM     10  C   UNL     1      53.022 -46.551 165.720  1.00  0.00     0.000 C 
BRANCH  10  11
ATOM     11  C   UNL     1      53.538 -45.679 166.879  1.00  0.00     0.000 C 
BRANCH  11  12
ATOM     12  C   UNL     1      54.467 -44.552 166.403  1.00  0.00     0.006 C 
BRANCH  12  13
ATOM     13  C   UNL     1      54.011 -43.933 165.073  1.00  0.00     0.053 C 
BRANCH  13  14
ATOM     14  C   UNL     1      53.598 -42.506 165.261  1.00  0.00     0.041 C 
ATOM     15  O   UNL     1      53.865 -41.901 166.335  1.00  0.00    -0.550 OA
ATOM     16  O   UNL     1      52.912 -41.842 164.251  1.00  0.00    -0.550 OA
ENDBRANCH  13  14
ENDBRANCH  12  13
ENDBRANCH  11  12
ENDBRANCH  10  11
ENDBRANCH   9  10
ENDBRANCH   8   9
ENDBRANCH   7   8
ENDBRANCH   6   7
ENDBRANCH   5   6
ENDBRANCH   4   5
ENDBRANCH   3   4
ENDBRANCH   2   3
ENDBRANCH   1   2
BRANCH   1  17
ATOM     17  C   UNL     1      42.665 -47.995 162.722  1.00  0.00     0.000 C 
BRANCH  17  18
ATOM     18  C   UNL     1      41.184 -48.331 162.940  1.00  0.00     0.000 C 
BRANCH  18  19
ATOM     19  C   UNL     1      40.296 -47.652 161.883  1.00  0.00     0.000 C 
BRANCH  19  20
ATOM     20  C   UNL     1      38.847 -48.177 161.885  1.00  0.00     0.000 C 
BRANCH  20  21
ATOM     21  C   UNL     1      38.646 -49.548 162.558  1.00  0.00     0.000 C 
BRANCH  21  22
ATOM     22  C   UNL     1      37.202 -50.090 162.520  1.00  0.00    -0.000 C 
BRANCH  22  23
ATOM     23  C   UNL     1      36.111 -49.018 162.670  1.00  0.00    -0.000 C 
BRANCH  23  24
ATOM     24  C   UNL     1      35.134 -48.995 161.480  1.00  0.00    -0.000 C 
BRANCH  24  25
ATOM     25  C   UNL     1      35.637 -49.846 160.300  1.00  0.00    -0.000 C 
BRANCH  25  26
ATOM     26  C   UNL     1      36.213 -48.998 159.142  1.00  0.00    -0.000 C 
BRANCH  26  27
ATOM     27  C   UNL     1      35.598 -47.589 159.041  1.00  0.00    -0.000 C 
BRANCH  27  28
ATOM     28  C   UNL     1      36.396 -46.537 159.824  1.00  0.00    -0.000 C 
BRANCH  28  29
ATOM     29  C   UNL     1      35.673 -45.183 159.826  1.00  0.00    -0.003 C 
ATOM     30  C   UNL     1      36.137 -44.313 158.660  1.00  0.00     0.004 C 
ENDBRANCH  28  29
ENDBRANCH  27  28
ENDBRANCH  26  27
ENDBRANCH  25  26
ENDBRANCH  24  25
ENDBRANCH  23  24
ENDBRANCH  22  23
ENDBRANCH  21  22
ENDBRANCH  20  21
ENDBRANCH  19  20
ENDBRANCH  18  19
ENDBRANCH  17  18
ENDBRANCH   1  17
TORSDOF 26
ENDMDL
MODEL 6
REMARK VINA RESULT:    -6.430      5.303     15.370
REMARK INTER + INTRA:         -18.193
REMARK INTER:                 -16.526
REMARK INTRA:                  -1.667
REMARK UNBOUND:                -1.990
REMARK SMILES CCCCCCCCCCCCCCCCCCCCCCCCCCCC(=O)[O-]
REMARK SMILES IDX 15 1 16 2 17 3 18 4 19 5 20 6 21 7 22 8 23 9 24 10 25 11
REMARK SMILES IDX 26 12 27 13 28 14 29 15 30 16 14 17 13 18 12 19 11 20 10 21
REMARK SMILES IDX 9 22 8 23 7 24 6 25 5 26 4 27 3 28 2 29 1 30
REMARK H PARENT
REMARK Flexibility Score: inf
ROOT
ATOM      1  C   UNL     1      45.194 -46.508 163.189  1.00  0.00     0.000 C 
ENDROOT
BRANCH   1   2
ATOM      2  C   UNL     1      45.444 -46.871 164.658  1.00  0.00     0.000 C 
BRANCH   2   3
ATOM      3  C   UNL     1      45.801 -45.622 165.477  1.00  0.00     0.000 C 
BRANCH   3   4
ATOM      4  C   UNL     1      47.294 -45.558 165.850  1.00  0.00     0.000 C 
BRANCH   4   5
ATOM      5  C   UNL     1      48.273 -45.757 164.674  1.00  0.00     0.000 C 
BRANCH   5   6
ATOM      6  C   UNL     1      49.322 -46.867 164.868  1.00  0.00     0.000 C 
BRANCH   6   7
ATOM      7  C   UNL     1      50.713 -46.319 165.233  1.00  0.00     0.000 C 
BRANCH   7   8
ATOM      8  C   UNL     1      51.729 -47.430 165.556  1.00  0.00     0.000 C 
BRANCH   8   9
ATOM      9  C   UNL     1      53.193 -46.963 165.684  1.00  0.00     0.000 C 
BRANCH   9  10
ATOM     10  C   UNL     1      53.777 -47.035 167.107  1.00  0.00     0.000 C 
BRANCH  10  11
ATOM     11  C   UNL     1      53.989 -45.643 167.731  1.00  0.00     0.000 C 
BRANCH  11  12
ATOM     12  C   UNL     1      54.827 -44.716 166.837  1.00  0.00     0.006 C 
BRANCH  12  13
ATOM     13  C   UNL     1      54.147 -43.360 166.592  1.00  0.00     0.053 C 
BRANCH  13  14
ATOM     14  C   UNL     1      53.872 -43.154 165.135  1.00  0.00     0.041 C 
ATOM     15  O   UNL     1      52.929 -42.404 164.764  1.00  0.00    -0.550 OA
ATOM     16  O   UNL     1      54.654 -43.797 164.182  1.00  0.00    -0.550 OA
ENDBRANCH  13  14
ENDBRANCH  12  13
ENDBRANCH  11  12
ENDBRANCH  10  11
ENDBRANCH   9  10
ENDBRANCH   8   9
ENDBRANCH   7   8
ENDBRANCH   6   7
ENDBRANCH   5   6
ENDBRANCH   4   5
ENDBRANCH   3   4
ENDBRANCH   2   3
ENDBRANCH   1   2
BRANCH   1  17
ATOM     17  C   UNL     1      43.902 -47.152 162.668  1.00  0.00     0.000 C 
BRANCH  17  18
ATOM     18  C   UNL     1      43.335 -48.144 163.692  1.00  0.00     0.000 C 
BRANCH  18  19
ATOM     19  C   UNL     1      41.869 -48.491 163.381  1.00  0.00     0.000 C 
BRANCH  19  20
ATOM     20  C   UNL     1      41.331 -47.772 162.129  1.00  0.00     0.000 C 
BRANCH  20  21
ATOM     21  C   UNL     1      39.807 -47.870 161.919  1.00  0.00     0.000 C 
BRANCH  21  22
ATOM     22  C   UNL     1      39.116 -49.027 162.670  1.00  0.00    -0.000 C 
BRANCH  22  23
ATOM     23  C   UNL     1      37.683 -49.327 162.203  1.00  0.00    -0.000 C 
BRANCH  23  24
ATOM     24  C   UNL     1      37.235 -48.422 161.041  1.00  0.00    -0.000 C 
BRANCH  24  25
ATOM     25  C   UNL     1      36.072 -49.038 160.240  1.00  0.00    -0.000 C 
BRANCH  25  26
ATOM     26  C   UNL     1      35.245 -50.057 161.058  1.00  0.00    -0.000 C 
BRANCH  26  27
ATOM     27  C   UNL     1      35.272 -51.484 160.478  1.00  0.00    -0.000 C 
BRANCH  27  28
ATOM     28  C   UNL     1      35.515 -52.556 161.550  1.00  0.00    -0.000 C 
BRANCH  28  29
ATOM     29  C   UNL     1      35.723 -51.919 162.931  1.00  0.00    -0.003 C 
ATOM     30  C   UNL     1      36.211 -52.954 163.943  1.00  0.00     0.004 C 
ENDBRANCH  28  29
ENDBRANCH  27  28
ENDBRANCH  26  27
ENDBRANCH  25  26
ENDBRANCH  24  25
ENDBRANCH  23  24
ENDBRANCH  22  23
ENDBRANCH  21  22
ENDBRANCH  20  21
ENDBRANCH  19  20
ENDBRANCH  18  19
ENDBRANCH  17  18
ENDBRANCH   1  17
TORSDOF 26
ENDMDL
MODEL 7
REMARK VINA RESULT:    -6.427      4.755     15.045
REMARK INTER + INTRA:         -18.186
REMARK INTER:                 -16.630
REMARK INTRA:                  -1.556
REMARK UNBOUND:                -1.990
REMARK SMILES CCCCCCCCCCCCCCCCCCCCCCCCCCCC(=O)[O-]
REMARK SMILES IDX 15 1 16 2 17 3 18 4 19 5 20 6 21 7 22 8 23 9 24 10 25 11
REMARK SMILES IDX 26 12 27 13 28 14 29 15 30 16 14 17 13 18 12 19 11 20 10 21
REMARK SMILES IDX 9 22 8 23 7 24 6 25 5 26 4 27 3 28 2 29 1 30
REMARK H PARENT
REMARK Flexibility Score: inf
ROOT
ATOM      1  C   UNL     1      44.148 -48.435 163.749  1.00  0.00     0.000 C 
ENDROOT
BRANCH   1   2
ATOM      2  C   UNL     1      45.219 -49.519 163.575  1.00  0.00     0.000 C 
BRANCH   2   3
ATOM      3  C   UNL     1      46.617 -48.894 163.457  1.00  0.00     0.000 C 
BRANCH   3   4
ATOM      4  C   UNL     1      46.720 -47.523 164.150  1.00  0.00     0.000 C 
BRANCH   4   5
ATOM      5  C   UNL     1      48.034 -47.274 164.919  1.00  0.00     0.000 C 
BRANCH   5   6
ATOM      6  C   UNL     1      49.184 -48.247 164.597  1.00  0.00     0.000 C 
BRANCH   6   7
ATOM      7  C   UNL     1      50.411 -48.044 165.503  1.00  0.00     0.000 C 
BRANCH   7   8
ATOM      8  C   UNL     1      50.910 -46.588 165.519  1.00  0.00     0.000 C 
BRANCH   8   9
ATOM      9  C   UNL     1      52.440 -46.419 165.603  1.00  0.00     0.000 C 
BRANCH   9  10
ATOM     10  C   UNL     1      53.239 -47.734 165.662  1.00  0.00     0.000 C 
BRANCH  10  11
ATOM     11  C   UNL     1      54.359 -47.700 166.718  1.00  0.00     0.000 C 
BRANCH  11  12
ATOM     12  C   UNL     1      54.957 -49.090 166.989  1.00  0.00     0.006 C 
BRANCH  12  13
ATOM     13  C   UNL     1      54.062 -49.951 167.894  1.00  0.00     0.053 C 
BRANCH  13  14
ATOM     14  C   UNL     1      53.939 -51.343 167.356  1.00  0.00     0.041 C 
ATOM     15  O   UNL     1      52.872 -51.996 167.518  1.00  0.00    -0.550 OA
ATOM     16  O   UNL     1      55.005 -51.923 166.680  1.00  0.00    -0.550 OA
ENDBRANCH  13  14
ENDBRANCH  12  13
ENDBRANCH  11  12
ENDBRANCH  10  11
ENDBRANCH   9  10
ENDBRANCH   8   9
ENDBRANCH   7   8
ENDBRANCH   6   7
ENDBRANCH   5   6
ENDBRANCH   4   5
ENDBRANCH   3   4
ENDBRANCH   2   3
ENDBRANCH   1   2
BRANCH   1  17
ATOM     17  C   UNL     1      43.097 -48.852 164.788  1.00  0.00     0.000 C 
BRANCH  17  18
ATOM     18  C   UNL     1      41.724 -48.262 164.443  1.00  0.00     0.000 C 
BRANCH  18  19
ATOM     19  C   UNL     1      41.244 -48.733 163.060  1.00  0.00     0.000 C 
BRANCH  19  20
ATOM     20  C   UNL     1      41.138 -47.588 162.035  1.00  0.00     0.000 C 
BRANCH  20  21
ATOM     21  C   UNL     1      39.701 -47.181 161.650  1.00  0.00     0.000 C 
BRANCH  21  22
ATOM     22  C   UNL     1      38.655 -48.311 161.743  1.00  0.00    -0.000 C 
BRANCH  22  23
ATOM     23  C   UNL     1      37.551 -48.249 160.675  1.00  0.00    -0.000 C 
BRANCH  23  24
ATOM     24  C   UNL     1      36.137 -48.360 161.277  1.00  0.00    -0.000 C 
BRANCH  24  25
ATOM     25  C   UNL     1      36.108 -49.254 162.530  1.00  0.00    -0.000 C 
BRANCH  25  26
ATOM     26  C   UNL     1      35.101 -50.423 162.418  1.00  0.00    -0.000 C 
BRANCH  26  27
ATOM     27  C   UNL     1      35.343 -51.334 161.199  1.00  0.00    -0.000 C 
BRANCH  27  28
ATOM     28  C   UNL     1      35.675 -52.779 161.595  1.00  0.00    -0.000 C 
BRANCH  28  29
ATOM     29  C   UNL     1      36.083 -52.868 163.072  1.00  0.00    -0.003 C 
ATOM     30  C   UNL     1      35.808 -54.262 163.633  1.00  0.00     0.004 C 
ENDBRANCH  28  29
ENDBRANCH  27  28
ENDBRANCH  26  27
ENDBRANCH  25  26
ENDBRANCH  24  25
ENDBRANCH  23  24
ENDBRANCH  22  23
ENDBRANCH  21  22
ENDBRANCH  20  21
ENDBRANCH  19  20
ENDBRANCH  18  19
ENDBRANCH  17  18
ENDBRANCH   1  17
TORSDOF 26
ENDMDL
MODEL 8
REMARK VINA RESULT:    -6.408      5.071     15.096
REMARK INTER + INTRA:         -18.139
REMARK INTER:                 -15.925
REMARK INTRA:                  -2.214
REMARK UNBOUND:                -1.990
REMARK SMILES CCCCCCCCCCCCCCCCCCCCCCCCCCCC(=O)[O-]
REMARK SMILES IDX 15 1 16 2 17 3 18 4 19 5 20 6 21 7 22 8 23 9 24 10 25 11
REMARK SMILES IDX 26 12 27 13 28 14 29 15 30 16 14 17 13 18 12 19 11 20 10 21
REMARK SMILES IDX 9 22 8 23 7 24 6 25 5 26 4 27 3 28 2 29 1 30
REMARK H PARENT
REMARK Flexibility Score: inf
ROOT
ATOM      1  C   UNL     1      43.452 -48.087 164.649  1.00  0.00     0.000 C 
ENDROOT
BRANCH   1   2
ATOM      2  C   UNL     1      44.558 -49.149 164.621  1.00  0.00     0.000 C 
BRANCH   2   3
ATOM      3  C   UNL     1      45.227 -49.208 163.240  1.00  0.00     0.000 C 
BRANCH   3   4
ATOM      4  C   UNL     1      46.712 -48.805 163.276  1.00  0.00     0.000 C 
BRANCH   4   5
ATOM      5  C   UNL     1      47.200 -48.220 164.618  1.00  0.00     0.000 C 
BRANCH   5   6
ATOM      6  C   UNL     1      48.679 -47.790 164.654  1.00  0.00     0.000 C 
BRANCH   6   7
ATOM      7  C   UNL     1      49.548 -48.713 165.526  1.00  0.00     0.000 C 
BRANCH   7   8
ATOM      8  C   UNL     1      51.002 -48.222 165.653  1.00  0.00     0.000 C 
BRANCH   8   9
ATOM      9  C   UNL     1      51.191 -46.695 165.555  1.00  0.00     0.000 C 
BRANCH   9  10
ATOM     10  C   UNL     1      52.654 -46.216 165.584  1.00  0.00     0.000 C 
BRANCH  10  11
ATOM     11  C   UNL     1      53.144 -45.896 167.008  1.00  0.00     0.000 C 
BRANCH  11  12
ATOM     12  C   UNL     1      54.341 -46.762 167.430  1.00  0.00     0.006 C 
BRANCH  12  13
ATOM     13  C   UNL     1      54.440 -48.066 166.623  1.00  0.00     0.053 C 
BRANCH  13  14
ATOM     14  C   UNL     1      54.376 -49.260 167.524  1.00  0.00     0.041 C 
ATOM     15  O   UNL     1      54.342 -50.423 167.039  1.00  0.00    -0.550 OA
ATOM     16  O   UNL     1      54.349 -49.089 168.903  1.00  0.00    -0.550 OA
ENDBRANCH  13  14
ENDBRANCH  12  13
ENDBRANCH  11  12
ENDBRANCH  10  11
ENDBRANCH   9  10
ENDBRANCH   8   9
ENDBRANCH   7   8
ENDBRANCH   6   7
ENDBRANCH   5   6
ENDBRANCH   4   5
ENDBRANCH   3   4
ENDBRANCH   2   3
ENDBRANCH   1   2
BRANCH   1  17
ATOM     17  C   UNL     1      43.028 -47.688 163.228  1.00  0.00     0.000 C 
BRANCH  17  18
ATOM     18  C   UNL     1      41.643 -48.256 162.892  1.00  0.00     0.000 C 
BRANCH  18  19
ATOM     19  C   UNL     1      41.074 -47.618 161.613  1.00  0.00     0.000 C 
BRANCH  19  20
ATOM     20  C   UNL     1      39.578 -47.266 161.728  1.00  0.00     0.000 C 
BRANCH  20  21
ATOM     21  C   UNL     1      38.605 -48.404 161.362  1.00  0.00     0.000 C 
BRANCH  21  22
ATOM     22  C   UNL     1      37.661 -48.848 162.498  1.00  0.00    -0.000 C 
BRANCH  22  23
ATOM     23  C   UNL     1      37.283 -50.338 162.470  1.00  0.00    -0.000 C 
BRANCH  23  24
ATOM     24  C   UNL     1      35.760 -50.564 162.487  1.00  0.00    -0.000 C 
BRANCH  24  25
ATOM     25  C   UNL     1      35.053 -49.842 161.325  1.00  0.00    -0.000 C 
BRANCH  25  26
ATOM     26  C   UNL     1      35.368 -50.464 159.943  1.00  0.00    -0.000 C 
BRANCH  26  27
ATOM     27  C   UNL     1      35.908 -49.449 158.917  1.00  0.00    -0.000 C 
BRANCH  27  28
ATOM     28  C   UNL     1      35.102 -48.143 158.893  1.00  0.00    -0.000 C 
BRANCH  28  29
ATOM     29  C   UNL     1      35.944 -46.964 159.398  1.00  0.00    -0.003 C 
ATOM     30  C   UNL     1      35.124 -46.059 160.316  1.00  0.00     0.004 C 
ENDBRANCH  28  29
ENDBRANCH  27  28
ENDBRANCH  26  27
ENDBRANCH  25  26
ENDBRANCH  24  25
ENDBRANCH  23  24
ENDBRANCH  22  23
ENDBRANCH  21  22
ENDBRANCH  20  21
ENDBRANCH  19  20
ENDBRANCH  18  19
ENDBRANCH  17  18
ENDBRANCH   1  17
TORSDOF 26
ENDMDL
MODEL 9
REMARK VINA RESULT:    -6.397      2.769      4.181
REMARK INTER + INTRA:         -18.111
REMARK INTER:                 -16.010
REMARK INTRA:                  -2.100
REMARK UNBOUND:                -1.990
REMARK SMILES CCCCCCCCCCCCCCCCCCCCCCCCCCCC(=O)[O-]
REMARK SMILES IDX 15 1 16 2 17 3 18 4 19 5 20 6 21 7 22 8 23 9 24 10 25 11
REMARK SMILES IDX 26 12 27 13 28 14 29 15 30 16 14 17 13 18 12 19 11 20 10 21
REMARK SMILES IDX 9 22 8 23 7 24 6 25 5 26 4 27 3 28 2 29 1 30
REMARK H PARENT
REMARK Flexibility Score: inf
ROOT
ATOM      1  C   UNL     1      45.763 -47.171 163.570  1.00  0.00     0.000 C 
ENDROOT
BRANCH   1   2
ATOM      2  C   UNL     1      44.439 -46.891 162.848  1.00  0.00     0.000 C 
BRANCH   2   3
ATOM      3  C   UNL     1      44.218 -47.891 161.703  1.00  0.00     0.000 C 
BRANCH   3   4
ATOM      4  C   UNL     1      42.795 -47.826 161.119  1.00  0.00     0.000 C 
BRANCH   4   5
ATOM      5  C   UNL     1      41.669 -47.633 162.155  1.00  0.00     0.000 C 
BRANCH   5   6
ATOM      6  C   UNL     1      40.553 -46.653 161.747  1.00  0.00     0.000 C 
BRANCH   6   7
ATOM      7  C   UNL     1      39.284 -47.365 161.248  1.00  0.00     0.000 C 
BRANCH   7   8
ATOM      8  C   UNL     1      38.981 -48.662 162.019  1.00  0.00     0.000 C 
BRANCH   8   9
ATOM      9  C   UNL     1      37.505 -48.862 162.415  1.00  0.00     0.000 C 
BRANCH   9  10
ATOM     10  C   UNL     1      36.547 -49.130 161.240  1.00  0.00     0.000 C 
BRANCH  10  11
ATOM     11  C   UNL     1      35.165 -48.482 161.442  1.00  0.00     0.000 C 
BRANCH  11  12
ATOM     12  C   UNL     1      35.045 -47.115 160.749  1.00  0.00     0.006 C 
BRANCH  12  13
ATOM     13  C   UNL     1      36.030 -46.958 159.580  1.00  0.00     0.053 C 
BRANCH  13  14
ATOM     14  C   UNL     1      36.040 -45.549 159.074  1.00  0.00     0.041 C 
ATOM     15  O   UNL     1      36.402 -45.299 157.893  1.00  0.00    -0.550 OA
ATOM     16  O   UNL     1      35.653 -44.508 159.910  1.00  0.00    -0.550 OA
ENDBRANCH  13  14
ENDBRANCH  12  13
ENDBRANCH  11  12
ENDBRANCH  10  11
ENDBRANCH   9  10
ENDBRANCH   8   9
ENDBRANCH   7   8
ENDBRANCH   6   7
ENDBRANCH   5   6
ENDBRANCH   4   5
ENDBRANCH   3   4
ENDBRANCH   2   3
ENDBRANCH   1   2
BRANCH   1  17
ATOM     17  C   UNL     1      45.767 -48.570 164.202  1.00  0.00     0.000 C 
BRANCH  17  18
ATOM     18  C   UNL     1      46.759 -49.492 163.481  1.00  0.00     0.000 C 
BRANCH  18  19
ATOM     19  C   UNL     1      48.201 -48.973 163.611  1.00  0.00     0.000 C 
BRANCH  19  20
ATOM     20  C   UNL     1      48.790 -49.172 165.021  1.00  0.00     0.000 C 
BRANCH  20  21
ATOM     21  C   UNL     1      49.775 -48.080 165.482  1.00  0.00     0.000 C 
BRANCH  21  22
ATOM     22  C   UNL     1      49.500 -46.671 164.919  1.00  0.00    -0.000 C 
BRANCH  22  23
ATOM     23  C   UNL     1      50.742 -45.773 164.807  1.00  0.00    -0.000 C 
BRANCH  23  24
ATOM     24  C   UNL     1      51.870 -46.197 165.767  1.00  0.00    -0.000 C 
BRANCH  24  25
ATOM     25  C   UNL     1      53.135 -45.336 165.592  1.00  0.00    -0.000 C 
BRANCH  25  26
ATOM     26  C   UNL     1      54.325 -45.824 166.452  1.00  0.00    -0.000 C 
BRANCH  26  27
ATOM     27  C   UNL     1      53.921 -46.274 167.869  1.00  0.00    -0.000 C 
BRANCH  27  28
ATOM     28  C   UNL     1      54.711 -47.499 168.350  1.00  0.00    -0.000 C 
BRANCH  28  29
ATOM     29  C   UNL     1      54.837 -48.548 167.237  1.00  0.00    -0.003 C 
ATOM     30  C   UNL     1      53.544 -49.349 167.090  1.00  0.00     0.004 C 
ENDBRANCH  28  29
ENDBRANCH  27  28
ENDBRANCH  26  27
ENDBRANCH  25  26
ENDBRANCH  24  25
ENDBRANCH  23  24
ENDBRANCH  22  23
ENDBRANCH  21  22
ENDBRANCH  20  21
ENDBRANCH  19  20
ENDBRANCH  18  19
ENDBRANCH  17  18
ENDBRANCH   1  17
TORSDOF 26
ENDMDL
