MODEL 1
REMARK VINA RESULT:    -1.560      0.000      0.000
REMARK INTER + INTRA:          -2.174
REMARK INTER:                  -1.880
REMARK INTRA:                  -0.294
REMARK UNBOUND:                -0.294
REMARK SMILES O=c1c(O)c(-c2ccc(O)cc2O)oc2cc(O)cc(O)c12
REMARK SMILES IDX 5 1 3 2 2 3 1 4 22 5 20 6 19 7 17 8 16 9 15 10 14 11 6 12
REMARK SMILES IDX 8 13 7 14 9 15 11 16 12 17 10 18 13 20 4 22 21 24 18 26
REMARK H PARENT 10 19 13 21 4 23 21 25 18 27
REMARK Flexibility Score: inf
ROOT
ATOM      1  C   UNL     1      28.041  28.488  26.462  1.00  0.00     0.184 A 
ATOM      2  C   UNL     1      28.525  27.247  26.007  1.00  0.00     0.208 A 
ATOM      3  C   UNL     1      28.372  26.118  26.825  1.00  0.00     0.238 A 
ATOM      4  O   UNL     1      28.810  25.002  26.432  1.00  0.00    -0.285 OA
ATOM      5  C   UNL     1      27.728  26.244  28.074  1.00  0.00     0.111 A 
ATOM      6  C   UNL     1      27.531  25.155  28.957  1.00  0.00     0.134 A 
ATOM      7  C   UNL     1      26.872  25.361  30.178  1.00  0.00     0.093 A 
ATOM      8  C   UNL     1      26.409  26.633  30.532  1.00  0.00     0.123 A 
ATOM      9  C   UNL     1      26.601  27.709  29.665  1.00  0.00     0.094 A 
ATOM     10  C   UNL     1      27.256  27.525  28.444  1.00  0.00     0.146 A 
ATOM     11  O   UNL     1      27.429  28.568  27.640  1.00  0.00    -0.451 OA
ENDROOT
BRANCH   1  12
ATOM     12  C   UNL     1      28.184  29.724  25.659  1.00  0.00     0.063 A 
ATOM     13  C   UNL     1      29.125  31.949  25.360  1.00  0.00     0.047 A 
ATOM     14  C   UNL     1      29.010  30.772  26.103  1.00  0.00     0.020 A 
ATOM     15  C   UNL     1      28.408  32.101  24.168  1.00  0.00     0.119 A 
ATOM     16  C   UNL     1      27.575  31.071  23.723  1.00  0.00     0.093 A 
ATOM     17  C   UNL     1      27.456  29.885  24.462  1.00  0.00     0.130 A 
BRANCH  15  18
ATOM     18  O   UNL     1      28.515  33.271  23.419  1.00  0.00    -0.508 OA
ATOM     19  H   UNL     1      29.401  33.750  23.308  1.00  0.00     0.293 HD
ENDBRANCH  15  18
BRANCH  17  20
ATOM     20  O   UNL     1      26.624  28.863  24.004  1.00  0.00    -0.507 OA
ATOM     21  H   UNL     1      26.040  28.328  24.637  1.00  0.00     0.293 HD
ENDBRANCH  17  20
ENDBRANCH   1  12
BRANCH   2  22
ATOM     22  O   UNL     1      29.123  27.144  24.748  1.00  0.00    -0.502 OA
ATOM     23  H   UNL     1      30.128  27.114  24.627  1.00  0.00     0.293 HD
ENDBRANCH   2  22
BRANCH   6  24
ATOM     24  O   UNL     1      27.981  23.875  28.630  1.00  0.00    -0.507 OA
ATOM     25  H   UNL     1      28.371  23.253  29.330  1.00  0.00     0.293 HD
ENDBRANCH   6  24
BRANCH   8  26
ATOM     26  O   UNL     1      25.754  26.837  31.745  1.00  0.00    -0.508 OA
ATOM     27  H   UNL     1      25.088  27.592  31.868  1.00  0.00     0.293 HD
ENDBRANCH   8  26
TORSDOF 6
ENDMDL
MODEL 2
REMARK VINA RESULT:    -0.549      2.237      5.810
REMARK INTER + INTRA:          -0.956
REMARK INTER:                  -0.683
REMARK INTRA:                  -0.273
REMARK UNBOUND:                -0.294
REMARK SMILES O=c1c(O)c(-c2ccc(O)cc2O)oc2cc(O)cc(O)c12
REMARK SMILES IDX 5 1 3 2 2 3 1 4 22 5 20 6 19 7 17 8 16 9 15 10 14 11 6 12
REMARK SMILES IDX 8 13 7 14 9 15 11 16 12 17 10 18 13 20 4 22 21 24 18 26
REMARK H PARENT 10 19 13 21 4 23 21 25 18 27
REMARK Flexibility Score: inf
ROOT
ATOM      1  C   UNL     1      26.350  27.423  29.000  1.00  0.00     0.184 A 
ATOM      2  C   UNL     1      26.704  26.079  29.223  1.00  0.00     0.208 A 
ATOM      3  C   UNL     1      27.491  25.417  28.268  1.00  0.00     0.238 A 
ATOM      4  O   UNL     1      27.806  24.210  28.453  1.00  0.00    -0.285 OA
ATOM      5  C   UNL     1      27.923  26.111  27.119  1.00  0.00     0.111 A 
ATOM      6  C   UNL     1      28.722  25.519  26.111  1.00  0.00     0.134 A 
ATOM      7  C   UNL     1      29.118  26.280  25.001  1.00  0.00     0.093 A 
ATOM      8  C   UNL     1      28.730  27.619  24.880  1.00  0.00     0.123 A 
ATOM      9  C   UNL     1      27.943  28.207  25.871  1.00  0.00     0.094 A 
ATOM     10  C   UNL     1      27.537  27.466  26.985  1.00  0.00     0.146 A 
ATOM     11  O   UNL     1      26.784  28.049  27.910  1.00  0.00    -0.451 OA
ENDROOT
BRANCH   1  12
ATOM     12  C   UNL     1      25.507  28.177  29.956  1.00  0.00     0.063 A 
ATOM     13  C   UNL     1      25.053  28.941  32.221  1.00  0.00     0.047 A 
ATOM     14  C   UNL     1      25.862  28.253  31.314  1.00  0.00     0.020 A 
ATOM     15  C   UNL     1      23.872  29.553  31.787  1.00  0.00     0.119 A 
ATOM     16  C   UNL     1      23.502  29.472  30.441  1.00  0.00     0.093 A 
ATOM     17  C   UNL     1      24.311  28.785  29.523  1.00  0.00     0.130 A 
BRANCH  15  18
ATOM     18  O   UNL     1      23.057  30.242  32.683  1.00  0.00    -0.508 OA
ATOM     19  H   UNL     1      22.055  30.306  32.547  1.00  0.00     0.293 HD
ENDBRANCH  15  18
BRANCH  17  20
ATOM     20  O   UNL     1      23.933  28.716  28.182  1.00  0.00    -0.507 OA
ATOM     21  H   UNL     1      23.350  27.964  27.831  1.00  0.00     0.293 HD
ENDBRANCH  17  20
ENDBRANCH   1  12
BRANCH   2  22
ATOM     22  O   UNL     1      26.295  25.428  30.390  1.00  0.00    -0.502 OA
ATOM     23  H   UNL     1      26.001  24.459  30.395  1.00  0.00     0.293 HD
ENDBRANCH   2  22
BRANCH   6  24
ATOM     24  O   UNL     1      29.124  24.186  26.205  1.00  0.00    -0.507 OA
ATOM     25  H   UNL     1      29.938  23.912  26.744  1.00  0.00     0.293 HD
ENDBRANCH   6  24
BRANCH   8  26
ATOM     26  O   UNL     1      29.125  28.375  23.778  1.00  0.00    -0.508 OA
ATOM     27  H   UNL     1      29.758  29.161  23.874  1.00  0.00     0.293 HD
ENDBRANCH   8  26
TORSDOF 6
ENDMDL
MODEL 3
REMARK VINA RESULT:    -0.330     12.728     14.743
REMARK INTER + INTRA:          -0.692
REMARK INTER:                  -0.366
REMARK INTRA:                  -0.327
REMARK UNBOUND:                -0.294
REMARK SMILES O=c1c(O)c(-c2ccc(O)cc2O)oc2cc(O)cc(O)c12
REMARK SMILES IDX 5 1 3 2 2 3 1 4 22 5 20 6 19 7 17 8 16 9 15 10 14 11 6 12
REMARK SMILES IDX 8 13 7 14 9 15 11 16 12 17 10 18 13 20 4 22 21 24 18 26
REMARK H PARENT 10 19 13 21 4 23 21 25 18 27
REMARK Flexibility Score: inf
ROOT
ATOM      1  C   UNL     1      27.389  41.147  21.440  1.00  0.00     0.184 A 
ATOM      2  C   UNL     1      28.137  41.377  20.270  1.00  0.00     0.208 A 
ATOM      3  C   UNL     1      27.883  40.590  19.137  1.00  0.00     0.238 A 
ATOM      4  O   UNL     1      28.553  40.781  18.085  1.00  0.00    -0.285 OA
ATOM      5  C   UNL     1      26.879  39.599  19.187  1.00  0.00     0.111 A 
ATOM      6  C   UNL     1      26.558  38.766  18.088  1.00  0.00     0.134 A 
ATOM      7  C   UNL     1      25.540  37.809  18.215  1.00  0.00     0.093 A 
ATOM      8  C   UNL     1      24.839  37.671  19.418  1.00  0.00     0.123 A 
ATOM      9  C   UNL     1      25.151  38.491  20.503  1.00  0.00     0.094 A 
ATOM     10  C   UNL     1      26.164  39.449  20.398  1.00  0.00     0.146 A 
ATOM     11  O   UNL     1      26.444  40.212  21.448  1.00  0.00    -0.451 OA
ENDROOT
BRANCH   1  12
ATOM     12  C   UNL     1      27.617  41.928  22.678  1.00  0.00     0.063 A 
ATOM     13  C   UNL     1      28.388  42.049  24.983  1.00  0.00     0.047 A 
ATOM     14  C   UNL     1      28.197  41.322  23.806  1.00  0.00     0.020 A 
ATOM     15  C   UNL     1      27.991  43.389  25.054  1.00  0.00     0.119 A 
ATOM     16  C   UNL     1      27.401  43.998  23.942  1.00  0.00     0.093 A 
ATOM     17  C   UNL     1      27.208  43.275  22.756  1.00  0.00     0.130 A 
BRANCH  15  18
ATOM     18  O   UNL     1      28.176  44.125  26.223  1.00  0.00    -0.508 OA
ATOM     19  H   UNL     1      27.446  44.721  26.594  1.00  0.00     0.293 HD
ENDBRANCH  15  18
BRANCH  17  20
ATOM     20  O   UNL     1      26.623  43.896  21.652  1.00  0.00    -0.507 OA
ATOM     21  H   UNL     1      26.654  44.901  21.529  1.00  0.00     0.293 HD
ENDBRANCH  17  20
ENDBRANCH   1  12
BRANCH   2  22
ATOM     22  O   UNL     1      29.097  42.392  20.237  1.00  0.00    -0.502 OA
ATOM     23  H   UNL     1      29.598  42.636  19.391  1.00  0.00     0.293 HD
ENDBRANCH   2  22
BRANCH   6  24
ATOM     24  O   UNL     1      27.240  38.882  16.876  1.00  0.00    -0.507 OA
ATOM     25  H   UNL     1      28.238  39.060  16.841  1.00  0.00     0.293 HD
ENDBRANCH   6  24
BRANCH   8  26
ATOM     26  O   UNL     1      23.827  36.722  19.543  1.00  0.00    -0.508 OA
ATOM     27  H   UNL     1      23.705  36.185  20.395  1.00  0.00     0.293 HD
ENDBRANCH   8  26
TORSDOF 6
ENDMDL
MODEL 4
REMARK VINA RESULT:    -0.205     11.464     14.912
REMARK INTER + INTRA:          -0.541
REMARK INTER:                  -0.274
REMARK INTRA:                  -0.267
REMARK UNBOUND:                -0.294
REMARK SMILES O=c1c(O)c(-c2ccc(O)cc2O)oc2cc(O)cc(O)c12
REMARK SMILES IDX 5 1 3 2 2 3 1 4 22 5 20 6 19 7 17 8 16 9 15 10 14 11 6 12
REMARK SMILES IDX 8 13 7 14 9 15 11 16 12 17 10 18 13 20 4 22 21 24 18 26
REMARK H PARENT 10 19 13 21 4 23 21 25 18 27
REMARK Flexibility Score: inf
ROOT
ATOM      1  C   UNL     1      26.129  40.018  20.499  1.00  0.00     0.184 A 
ATOM      2  C   UNL     1      26.878  40.510  19.414  1.00  0.00     0.208 A 
ATOM      3  C   UNL     1      27.627  41.685  19.583  1.00  0.00     0.238 A 
ATOM      4  O   UNL     1      28.295  42.140  18.615  1.00  0.00    -0.285 OA
ATOM      5  C   UNL     1      27.627  42.338  20.834  1.00  0.00     0.111 A 
ATOM      6  C   UNL     1      28.356  43.523  21.089  1.00  0.00     0.134 A 
ATOM      7  C   UNL     1      28.311  44.108  22.363  1.00  0.00     0.093 A 
ATOM      8  C   UNL     1      27.550  43.529  23.386  1.00  0.00     0.123 A 
ATOM      9  C   UNL     1      26.829  42.360  23.139  1.00  0.00     0.094 A 
ATOM     10  C   UNL     1      26.860  41.763  21.875  1.00  0.00     0.146 A 
ATOM     11  O   UNL     1      26.160  40.654  21.667  1.00  0.00    -0.451 OA
ENDROOT
BRANCH   1  12
ATOM     12  C   UNL     1      25.302  38.795  20.386  1.00  0.00     0.063 A 
ATOM     13  C   UNL     1      23.124  37.710  20.431  1.00  0.00     0.047 A 
ATOM     14  C   UNL     1      23.903  38.866  20.511  1.00  0.00     0.020 A 
ATOM     15  C   UNL     1      23.732  36.464  20.237  1.00  0.00     0.119 A 
ATOM     16  C   UNL     1      25.122  36.381  20.125  1.00  0.00     0.093 A 
ATOM     17  C   UNL     1      25.912  37.538  20.201  1.00  0.00     0.130 A 
BRANCH  15  18
ATOM     18  O   UNL     1      22.964  35.304  20.156  1.00  0.00    -0.508 OA
ATOM     19  H   UNL     1      22.418  35.086  19.331  1.00  0.00     0.293 HD
ENDBRANCH  15  18
BRANCH  17  20
ATOM     20  O   UNL     1      27.298  37.440  20.083  1.00  0.00    -0.507 OA
ATOM     21  H   UNL     1      27.742  36.620  19.686  1.00  0.00     0.293 HD
ENDBRANCH  17  20
ENDBRANCH   1  12
BRANCH   2  22
ATOM     22  O   UNL     1      26.892  39.822  18.199  1.00  0.00    -0.502 OA
ATOM     23  H   UNL     1      27.556  39.082  18.002  1.00  0.00     0.293 HD
ENDBRANCH   2  22
BRANCH   6  24
ATOM     24  O   UNL     1      29.125  44.123  20.090  1.00  0.00    -0.507 OA
ATOM     25  H   UNL     1      30.079  43.834  19.907  1.00  0.00     0.293 HD
ENDBRANCH   6  24
BRANCH   8  26
ATOM     26  O   UNL     1      27.506  44.108  24.652  1.00  0.00    -0.508 OA
ATOM     27  H   UNL     1      26.941  44.928  24.841  1.00  0.00     0.293 HD
ENDBRANCH   8  26
TORSDOF 6
ENDMDL
MODEL 5
REMARK VINA RESULT:     1.036      3.611      5.325
REMARK INTER + INTRA:           0.954
REMARK INTER:                   1.365
REMARK INTRA:                  -0.411
REMARK UNBOUND:                -0.294
REMARK SMILES O=c1c(O)c(-c2ccc(O)cc2O)oc2cc(O)cc(O)c12
REMARK SMILES IDX 5 1 3 2 2 3 1 4 22 5 20 6 19 7 17 8 16 9 15 10 14 11 6 12
REMARK SMILES IDX 8 13 7 14 9 15 11 16 12 17 10 18 13 20 4 22 21 24 18 26
REMARK H PARENT 10 19 13 21 4 23 21 25 18 27
REMARK Flexibility Score: inf
ROOT
ATOM      1  C   UNL     1      26.790  26.359  28.296  1.00  0.00     0.184 A 
ATOM      2  C   UNL     1      27.059  25.913  29.604  1.00  0.00     0.208 A 
ATOM      3  C   UNL     1      26.482  26.596  30.686  1.00  0.00     0.238 A 
ATOM      4  O   UNL     1      26.724  26.211  31.862  1.00  0.00    -0.285 OA
ATOM      5  C   UNL     1      25.636  27.698  30.443  1.00  0.00     0.111 A 
ATOM      6  C   UNL     1      25.012  28.438  31.476  1.00  0.00     0.134 A 
ATOM      7  C   UNL     1      24.177  29.517  31.153  1.00  0.00     0.093 A 
ATOM      8  C   UNL     1      23.955  29.870  29.817  1.00  0.00     0.123 A 
ATOM      9  C   UNL     1      24.568  29.144  28.795  1.00  0.00     0.094 A 
ATOM     10  C   UNL     1      25.405  28.066  29.097  1.00  0.00     0.146 A 
ATOM     11  O   UNL     1      25.979  27.395  28.104  1.00  0.00    -0.451 OA
ENDROOT
BRANCH   1  12
ATOM     12  C   UNL     1      27.379  25.698  27.110  1.00  0.00     0.063 A 
ATOM     13  C   UNL     1      29.122  25.569  25.415  1.00  0.00     0.047 A 
ATOM     14  C   UNL     1      28.578  26.175  26.550  1.00  0.00     0.020 A 
ATOM     15  C   UNL     1      28.469  24.487  24.815  1.00  0.00     0.119 A 
ATOM     16  C   UNL     1      27.270  24.013  25.354  1.00  0.00     0.093 A 
ATOM     17  C   UNL     1      26.719  24.614  26.496  1.00  0.00     0.130 A 
BRANCH  15  18
ATOM     18  O   UNL     1      29.001  23.875  23.681  1.00  0.00    -0.508 OA
ATOM     19  H   UNL     1      29.322  22.914  23.699  1.00  0.00     0.293 HD
ENDBRANCH  15  18
BRANCH  17  20
ATOM     20  O   UNL     1      25.524  24.129  27.027  1.00  0.00    -0.507 OA
ATOM     21  H   UNL     1      25.488  23.681  27.936  1.00  0.00     0.293 HD
ENDBRANCH  17  20
ENDBRANCH   1  12
BRANCH   2  22
ATOM     22  O   UNL     1      27.869  24.794  29.813  1.00  0.00    -0.502 OA
ATOM     23  H   UNL     1      27.489  23.890  30.066  1.00  0.00     0.293 HD
ENDBRANCH   2  22
BRANCH   6  24
ATOM     24  O   UNL     1      25.214  28.108  32.818  1.00  0.00    -0.507 OA
ATOM     25  H   UNL     1      24.578  27.498  33.318  1.00  0.00     0.293 HD
ENDBRANCH   6  24
BRANCH   8  26
ATOM     26  O   UNL     1      23.125  30.941  29.495  1.00  0.00    -0.508 OA
ATOM     27  H   UNL     1      23.494  31.800  29.103  1.00  0.00     0.293 HD
ENDBRANCH   8  26
TORSDOF 6
ENDMDL
MODEL 6
REMARK VINA RESULT:     1.122      5.059      6.582
REMARK INTER + INTRA:           1.058
REMARK INTER:                   1.044
REMARK INTRA:                   0.013
REMARK UNBOUND:                -0.294
REMARK SMILES O=c1c(O)c(-c2ccc(O)cc2O)oc2cc(O)cc(O)c12
REMARK SMILES IDX 5 1 3 2 2 3 1 4 22 5 20 6 19 7 17 8 16 9 15 10 14 11 6 12
REMARK SMILES IDX 8 13 7 14 9 15 11 16 12 17 10 18 13 20 4 22 21 24 18 26
REMARK H PARENT 10 19 13 21 4 23 21 25 18 27
REMARK Flexibility Score: inf
ROOT
ATOM      1  C   UNL     1      24.060  24.513  26.898  1.00  0.00     0.184 A 
ATOM      2  C   UNL     1      24.954  24.243  25.845  1.00  0.00     0.208 A 
ATOM      3  C   UNL     1      26.322  24.115  26.132  1.00  0.00     0.238 A 
ATOM      4  O   UNL     1      27.133  23.881  25.195  1.00  0.00    -0.285 OA
ATOM      5  C   UNL     1      26.770  24.243  27.463  1.00  0.00     0.111 A 
ATOM      6  C   UNL     1      28.130  24.124  27.838  1.00  0.00     0.134 A 
ATOM      7  C   UNL     1      28.494  24.257  29.186  1.00  0.00     0.093 A 
ATOM      8  C   UNL     1      27.526  24.506  30.164  1.00  0.00     0.123 A 
ATOM      9  C   UNL     1      26.183  24.624  29.800  1.00  0.00     0.094 A 
ATOM     10  C   UNL     1      25.800  24.496  28.462  1.00  0.00     0.146 A 
ATOM     11  O   UNL     1      24.516  24.618  28.142  1.00  0.00    -0.451 OA
ENDROOT
BRANCH   1  12
ATOM     12  C   UNL     1      22.608  24.680  26.665  1.00  0.00     0.063 A 
ATOM     13  C   UNL     1      20.582  24.080  25.455  1.00  0.00     0.047 A 
ATOM     14  C   UNL     1      21.947  23.905  25.695  1.00  0.00     0.020 A 
ATOM     15  C   UNL     1      19.860  25.039  26.174  1.00  0.00     0.119 A 
ATOM     16  C   UNL     1      20.508  25.824  27.131  1.00  0.00     0.093 A 
ATOM     17  C   UNL     1      21.878  25.652  27.379  1.00  0.00     0.130 A 
BRANCH  15  18
ATOM     18  O   UNL     1      18.498  25.222  25.943  1.00  0.00    -0.508 OA
ATOM     19  H   UNL     1      18.005  26.035  26.294  1.00  0.00     0.293 HD
ENDBRANCH  15  18
BRANCH  17  20
ATOM     20  O   UNL     1      22.513  26.439  28.341  1.00  0.00    -0.507 OA
ATOM     21  H   UNL     1      22.307  27.426  28.441  1.00  0.00     0.293 HD
ENDBRANCH  17  20
ENDBRANCH   1  12
BRANCH   2  22
ATOM     22  O   UNL     1      24.478  24.081  24.542  1.00  0.00    -0.502 OA
ATOM     23  H   UNL     1      24.656  24.759  23.811  1.00  0.00     0.293 HD
ENDBRANCH   2  22
BRANCH   6  24
ATOM     24  O   UNL     1      29.118  23.875  26.884  1.00  0.00    -0.507 OA
ATOM     25  H   UNL     1      30.014  23.473  27.138  1.00  0.00     0.293 HD
ENDBRANCH   6  24
BRANCH   8  26
ATOM     26  O   UNL     1      27.887  24.636  31.503  1.00  0.00    -0.508 OA
ATOM     27  H   UNL     1      28.527  23.986  31.946  1.00  0.00     0.293 HD
ENDBRANCH   8  26
TORSDOF 6
ENDMDL
MODEL 7
REMARK VINA RESULT:     1.249      4.152      6.418
REMARK INTER + INTRA:           1.211
REMARK INTER:                   1.474
REMARK INTRA:                  -0.263
REMARK UNBOUND:                -0.294
REMARK SMILES O=c1c(O)c(-c2ccc(O)cc2O)oc2cc(O)cc(O)c12
REMARK SMILES IDX 5 1 3 2 2 3 1 4 22 5 20 6 19 7 17 8 16 9 15 10 14 11 6 12
REMARK SMILES IDX 8 13 7 14 9 15 11 16 12 17 10 18 13 20 4 22 21 24 18 26
REMARK H PARENT 10 19 13 21 4 23 21 25 18 27
REMARK Flexibility Score: inf
ROOT
ATOM      1  C   UNL     1      24.287  26.101  28.074  1.00  0.00     0.184 A 
ATOM      2  C   UNL     1      24.984  25.063  28.719  1.00  0.00     0.208 A 
ATOM      3  C   UNL     1      26.336  25.253  29.044  1.00  0.00     0.238 A 
ATOM      4  O   UNL     1      26.974  24.326  29.614  1.00  0.00    -0.285 OA
ATOM      5  C   UNL     1      26.962  26.478  28.732  1.00  0.00     0.111 A 
ATOM      6  C   UNL     1      28.319  26.751  29.028  1.00  0.00     0.134 A 
ATOM      7  C   UNL     1      28.867  27.999  28.694  1.00  0.00     0.093 A 
ATOM      8  C   UNL     1      28.083  28.976  28.070  1.00  0.00     0.123 A 
ATOM      9  C   UNL     1      26.745  28.711  27.776  1.00  0.00     0.094 A 
ATOM     10  C   UNL     1      26.181  27.474  28.100  1.00  0.00     0.146 A 
ATOM     11  O   UNL     1      24.906  27.247  27.805  1.00  0.00    -0.451 OA
ENDROOT
BRANCH   1  12
ATOM     12  C   UNL     1      22.865  25.963  27.685  1.00  0.00     0.063 A 
ATOM     13  C   UNL     1      21.097  24.729  26.554  1.00  0.00     0.047 A 
ATOM     14  C   UNL     1      22.433  24.848  26.944  1.00  0.00     0.020 A 
ATOM     15  C   UNL     1      20.176  25.728  26.889  1.00  0.00     0.119 A 
ATOM     16  C   UNL     1      20.597  26.846  27.614  1.00  0.00     0.093 A 
ATOM     17  C   UNL     1      21.936  26.972  28.011  1.00  0.00     0.130 A 
BRANCH  15  18
ATOM     18  O   UNL     1      18.840  25.621  26.505  1.00  0.00    -0.508 OA
ATOM     19  H   UNL     1      18.352  26.391  26.063  1.00  0.00     0.293 HD
ENDBRANCH  15  18
BRANCH  17  20
ATOM     20  O   UNL     1      22.342  28.091  28.739  1.00  0.00    -0.507 OA
ATOM     21  H   UNL     1      21.783  28.463  29.498  1.00  0.00     0.293 HD
ENDBRANCH  17  20
ENDBRANCH   1  12
BRANCH   2  22
ATOM     22  O   UNL     1      24.328  23.875  29.051  1.00  0.00    -0.502 OA
ATOM     23  H   UNL     1      24.684  22.966  28.782  1.00  0.00     0.293 HD
ENDBRANCH   2  22
BRANCH   6  24
ATOM     24  O   UNL     1      29.125  25.797  29.651  1.00  0.00    -0.507 OA
ATOM     25  H   UNL     1      28.985  24.803  29.503  1.00  0.00     0.293 HD
ENDBRANCH   6  24
BRANCH   8  26
ATOM     26  O   UNL     1      28.626  30.216  27.739  1.00  0.00    -0.508 OA
ATOM     27  H   UNL     1      28.352  31.062  28.226  1.00  0.00     0.293 HD
ENDBRANCH   8  26
TORSDOF 6
ENDMDL
