MODEL 1
REMARK VINA RESULT:    -2.853      0.000      0.000
REMARK INTER + INTRA:          -3.965
REMARK INTER:                  -3.771
REMARK INTRA:                  -0.194
REMARK UNBOUND:                -0.194
REMARK SMILES CCCCCCCO
REMARK SMILES IDX 5 1 4 2 3 3 2 4 1 5 6 6 7 7 8 8
REMARK H PARENT 8 9
REMARK Flexibility Score: inf
ROOT
ATOM      1  C   UNL     1      35.333  -6.696  25.592  1.00  0.00     0.002 C 
ENDROOT
BRANCH   1   2
ATOM      2  C   UNL     1      35.189  -8.100  24.992  1.00  0.00     0.000 C 
BRANCH   2   3
ATOM      3  C   UNL     1      33.730  -8.394  24.623  1.00  0.00    -0.000 C 
BRANCH   3   4
ATOM      4  C   UNL     1      32.785  -8.000  25.764  1.00  0.00    -0.003 C 
ATOM      5  C   UNL     1      31.327  -8.067  25.319  1.00  0.00     0.004 C 
ENDBRANCH   3   4
ENDBRANCH   2   3
ENDBRANCH   1   2
BRANCH   1   6
ATOM      6  C   UNL     1      36.527  -5.955  24.980  1.00  0.00     0.028 C 
BRANCH   6   7
ATOM      7  C   UNL     1      36.066  -4.742  24.168  1.00  0.00     0.156 C 
BRANCH   7   8
ATOM      8  O   UNL     1      34.678  -4.780  23.985  1.00  0.00    -0.396 OA
ATOM      9  H   UNL     1      34.283  -5.042  24.858  1.00  0.00     0.210 HD
ENDBRANCH   7   8
ENDBRANCH   6   7
ENDBRANCH   1   6
TORSDOF 6
ENDMDL
MODEL 2
REMARK VINA RESULT:    -2.733     13.054     13.699
REMARK INTER + INTRA:          -3.806
REMARK INTER:                  -3.620
REMARK INTRA:                  -0.186
REMARK UNBOUND:                -0.194
REMARK SMILES CCCCCCCO
REMARK SMILES IDX 5 1 4 2 3 3 2 4 1 5 6 6 7 7 8 8
REMARK H PARENT 8 9
REMARK Flexibility Score: inf
ROOT
ATOM      1  C   UNL     1      35.646 -11.221  37.222  1.00  0.00     0.002 C 
ENDROOT
BRANCH   1   2
ATOM      2  C   UNL     1      34.707 -10.032  36.981  1.00  0.00     0.000 C 
BRANCH   2   3
ATOM      3  C   UNL     1      33.309 -10.313  37.544  1.00  0.00    -0.000 C 
BRANCH   3   4
ATOM      4  C   UNL     1      32.548 -11.303  36.655  1.00  0.00    -0.003 C 
ATOM      5  C   UNL     1      31.351 -10.635  35.984  1.00  0.00     0.004 C 
ENDBRANCH   3   4
ENDBRANCH   2   3
ENDBRANCH   1   2
BRANCH   1   6
ATOM      6  C   UNL     1      36.823 -10.820  38.120  1.00  0.00     0.028 C 
BRANCH   6   7
ATOM      7  C   UNL     1      36.643 -11.361  39.540  1.00  0.00     0.156 C 
BRANCH   7   8
ATOM      8  O   UNL     1      35.580 -12.273  39.580  1.00  0.00    -0.396 OA
ATOM      9  H   UNL     1      34.759 -11.762  39.354  1.00  0.00     0.210 HD
ENDBRANCH   7   8
ENDBRANCH   6   7
ENDBRANCH   1   6
TORSDOF 6
ENDMDL
MODEL 3
REMARK VINA RESULT:    -2.718     17.120     18.771
REMARK INTER + INTRA:          -3.786
REMARK INTER:                  -3.579
REMARK INTRA:                  -0.207
REMARK UNBOUND:                -0.194
REMARK SMILES CCCCCCCO
REMARK SMILES IDX 5 1 4 2 3 3 2 4 1 5 6 6 7 7 8 8
REMARK H PARENT 8 9
REMARK Flexibility Score: inf
ROOT
ATOM      1  C   UNL     1      28.106 -19.847  35.440  1.00  0.00     0.002 C 
ENDROOT
BRANCH   1   2
ATOM      2  C   UNL     1      27.210 -19.214  36.512  1.00  0.00     0.000 C 
BRANCH   2   3
ATOM      3  C   UNL     1      27.600 -17.753  36.763  1.00  0.00    -0.000 C 
BRANCH   3   4
ATOM      4  C   UNL     1      29.053 -17.493  36.349  1.00  0.00    -0.003 C 
ATOM      5  C   UNL     1      29.485 -16.075  36.714  1.00  0.00     0.004 C 
ENDBRANCH   3   4
ENDBRANCH   2   3
ENDBRANCH   1   2
BRANCH   1   6
ATOM      6  C   UNL     1      28.428 -21.306  35.782  1.00  0.00     0.028 C 
BRANCH   6   7
ATOM      7  C   UNL     1      27.468 -21.850  36.842  1.00  0.00     0.156 C 
BRANCH   7   8
ATOM      8  O   UNL     1      28.187 -22.348  37.936  1.00  0.00    -0.396 OA
ATOM      9  H   UNL     1      28.145 -23.339  37.877  1.00  0.00     0.210 HD
ENDBRANCH   7   8
ENDBRANCH   6   7
ENDBRANCH   1   6
TORSDOF 6
ENDMDL
MODEL 4
REMARK VINA RESULT:    -2.679     14.440     15.053
REMARK INTER + INTRA:          -3.735
REMARK INTER:                  -3.503
REMARK INTRA:                  -0.232
REMARK UNBOUND:                -0.194
REMARK SMILES CCCCCCCO
REMARK SMILES IDX 5 1 4 2 3 3 2 4 1 5 6 6 7 7 8 8
REMARK H PARENT 8 9
REMARK Flexibility Score: inf
ROOT
ATOM      1  C   UNL     1      29.256 -20.109  23.027  1.00  0.00     0.002 C 
ENDROOT
BRANCH   1   2
ATOM      2  C   UNL     1      28.931 -21.499  23.586  1.00  0.00     0.000 C 
BRANCH   2   3
ATOM      3  C   UNL     1      28.532 -21.418  25.065  1.00  0.00    -0.000 C 
BRANCH   3   4
ATOM      4  C   UNL     1      29.060 -20.130  25.706  1.00  0.00    -0.003 C 
ATOM      5  C   UNL     1      29.918 -20.436  26.931  1.00  0.00     0.004 C 
ENDBRANCH   3   4
ENDBRANCH   2   3
ENDBRANCH   1   2
BRANCH   1   6
ATOM      6  C   UNL     1      30.529 -20.142  22.174  1.00  0.00     0.028 C 
BRANCH   6   7
ATOM      7  C   UNL     1      31.052 -21.571  22.015  1.00  0.00     0.156 C 
BRANCH   7   8
ATOM      8  O   UNL     1      32.254 -21.571  21.295  1.00  0.00    -0.396 OA
ATOM      9  H   UNL     1      32.607 -22.498  21.330  1.00  0.00     0.210 HD
ENDBRANCH   7   8
ENDBRANCH   6   7
ENDBRANCH   1   6
TORSDOF 6
ENDMDL
MODEL 5
REMARK VINA RESULT:    -2.677     14.720     15.650
REMARK INTER + INTRA:          -3.731
REMARK INTER:                  -3.463
REMARK INTRA:                  -0.268
REMARK UNBOUND:                -0.194
REMARK SMILES CCCCCCCO
REMARK SMILES IDX 5 1 4 2 3 3 2 4 1 5 6 6 7 7 8 8
REMARK H PARENT 8 9
REMARK Flexibility Score: inf
ROOT
ATOM      1  C   UNL     1      30.363 -20.037  22.108  1.00  0.00     0.002 C 
ENDROOT
BRANCH   1   2
ATOM      2  C   UNL     1      29.129 -20.161  23.010  1.00  0.00     0.000 C 
BRANCH   2   3
ATOM      3  C   UNL     1      29.524 -20.130  24.491  1.00  0.00    -0.000 C 
BRANCH   3   4
ATOM      4  C   UNL     1      28.572 -20.989  25.331  1.00  0.00    -0.003 C 
ATOM      5  C   UNL     1      28.287 -22.324  24.649  1.00  0.00     0.004 C 
ENDBRANCH   3   4
ENDBRANCH   2   3
ENDBRANCH   1   2
BRANCH   1   6
ATOM      6  C   UNL     1      31.021 -21.404  21.884  1.00  0.00     0.028 C 
BRANCH   6   7
ATOM      7  C   UNL     1      30.000 -22.436  21.400  1.00  0.00     0.156 C 
BRANCH   7   8
ATOM      8  O   UNL     1      30.487 -23.105  20.269  1.00  0.00    -0.396 OA
ATOM      9  H   UNL     1      31.224 -23.692  20.581  1.00  0.00     0.210 HD
ENDBRANCH   7   8
ENDBRANCH   6   7
ENDBRANCH   1   6
TORSDOF 6
ENDMDL
MODEL 6
REMARK VINA RESULT:    -2.665     15.303     16.682
REMARK INTER + INTRA:          -3.715
REMARK INTER:                  -3.471
REMARK INTRA:                  -0.245
REMARK UNBOUND:                -0.194
REMARK SMILES CCCCCCCO
REMARK SMILES IDX 5 1 4 2 3 3 2 4 1 5 6 6 7 7 8 8
REMARK H PARENT 8 9
REMARK Flexibility Score: inf
ROOT
ATOM      1  C   UNL     1      29.658 -22.913  20.543  1.00  0.00     0.002 C 
ENDROOT
BRANCH   1   2
ATOM      2  C   UNL     1      28.145 -22.923  20.296  1.00  0.00     0.000 C 
BRANCH   2   3
ATOM      3  C   UNL     1      27.371 -22.857  21.618  1.00  0.00    -0.000 C 
BRANCH   3   4
ATOM      4  C   UNL     1      26.368 -21.697  21.611  1.00  0.00    -0.003 C 
ATOM      5  C   UNL     1      26.680 -20.692  22.716  1.00  0.00     0.004 C 
ENDBRANCH   3   4
ENDBRANCH   2   3
ENDBRANCH   1   2
BRANCH   1   6
ATOM      6  C   UNL     1      29.983 -22.397  21.949  1.00  0.00     0.028 C 
BRANCH   6   7
ATOM      7  C   UNL     1      30.954 -21.215  21.894  1.00  0.00     0.156 C 
BRANCH   7   8
ATOM      8  O   UNL     1      32.180 -21.621  21.351  1.00  0.00    -0.396 OA
ATOM      9  H   UNL     1      32.006 -21.858  20.402  1.00  0.00     0.210 HD
ENDBRANCH   7   8
ENDBRANCH   6   7
ENDBRANCH   1   6
TORSDOF 6
ENDMDL
MODEL 7
REMARK VINA RESULT:    -2.655     17.401     18.780
REMARK INTER + INTRA:          -3.703
REMARK INTER:                  -3.482
REMARK INTRA:                  -0.221
REMARK UNBOUND:                -0.194
REMARK SMILES CCCCCCCO
REMARK SMILES IDX 5 1 4 2 3 3 2 4 1 5 6 6 7 7 8 8
REMARK H PARENT 8 9
REMARK Flexibility Score: inf
ROOT
ATOM      1  C   UNL     1      28.433 -19.568  35.154  1.00  0.00     0.002 C 
ENDROOT
BRANCH   1   2
ATOM      2  C   UNL     1      28.776 -21.060  35.249  1.00  0.00     0.000 C 
BRANCH   2   3
ATOM      3  C   UNL     1      27.874 -21.769  36.266  1.00  0.00    -0.000 C 
BRANCH   3   4
ATOM      4  C   UNL     1      28.650 -22.847  37.031  1.00  0.00    -0.003 C 
ATOM      5  C   UNL     1      30.068 -22.996  36.487  1.00  0.00     0.004 C 
ENDBRANCH   3   4
ENDBRANCH   2   3
ENDBRANCH   1   2
BRANCH   1   6
ATOM      6  C   UNL     1      27.598 -19.117  36.358  1.00  0.00     0.028 C 
BRANCH   6   7
ATOM      7  C   UNL     1      27.900 -17.663  36.726  1.00  0.00     0.156 C 
BRANCH   7   8
ATOM      8  O   UNL     1      29.224 -17.540  37.168  1.00  0.00    -0.396 OA
ATOM      9  H   UNL     1      29.390 -18.301  37.784  1.00  0.00     0.210 HD
ENDBRANCH   7   8
ENDBRANCH   6   7
ENDBRANCH   1   6
TORSDOF 6
ENDMDL
MODEL 8
REMARK VINA RESULT:    -2.649     14.137     14.917
REMARK INTER + INTRA:          -3.695
REMARK INTER:                  -3.444
REMARK INTRA:                  -0.252
REMARK UNBOUND:                -0.194
REMARK SMILES CCCCCCCO
REMARK SMILES IDX 5 1 4 2 3 3 2 4 1 5 6 6 7 7 8 8
REMARK H PARENT 8 9
REMARK Flexibility Score: inf
ROOT
ATOM      1  C   UNL     1      28.828 -19.423  24.116  1.00  0.00     0.002 C 
ENDROOT
BRANCH   1   2
ATOM      2  C   UNL     1      28.967 -20.013  22.707  1.00  0.00     0.000 C 
BRANCH   2   3
ATOM      3  C   UNL     1      30.410 -19.901  22.202  1.00  0.00    -0.000 C 
BRANCH   3   4
ATOM      4  C   UNL     1      31.046 -21.287  22.045  1.00  0.00    -0.003 C 
ATOM      5  C   UNL     1      29.984 -22.383  22.034  1.00  0.00     0.004 C 
ENDBRANCH   3   4
ENDBRANCH   2   3
ENDBRANCH   1   2
BRANCH   1   6
ATOM      6  C   UNL     1      29.113 -20.482  25.187  1.00  0.00     0.028 C 
BRANCH   6   7
ATOM      7  C   UNL     1      29.907 -19.888  26.353  1.00  0.00     0.156 C 
BRANCH   7   8
ATOM      8  O   UNL     1      30.341 -20.907  27.212  1.00  0.00    -0.396 OA
ATOM      9  H   UNL     1      29.835 -21.724  26.962  1.00  0.00     0.210 HD
ENDBRANCH   7   8
ENDBRANCH   6   7
ENDBRANCH   1   6
TORSDOF 6
ENDMDL
MODEL 9
REMARK VINA RESULT:    -2.643     14.652     15.865
REMARK INTER + INTRA:          -3.686
REMARK INTER:                  -3.494
REMARK INTRA:                  -0.192
REMARK UNBOUND:                -0.194
REMARK SMILES CCCCCCCO
REMARK SMILES IDX 5 1 4 2 3 3 2 4 1 5 6 6 7 7 8 8
REMARK H PARENT 8 9
REMARK Flexibility Score: inf
ROOT
ATOM      1  C   UNL     1      29.272 -20.737  23.256  1.00  0.00     0.002 C 
ENDROOT
BRANCH   1   2
ATOM      2  C   UNL     1      28.814 -22.180  23.008  1.00  0.00     0.000 C 
BRANCH   2   3
ATOM      3  C   UNL     1      28.077 -22.741  24.231  1.00  0.00    -0.000 C 
BRANCH   3   4
ATOM      4  C   UNL     1      27.838 -21.647  25.278  1.00  0.00    -0.003 C 
ATOM      5  C   UNL     1      27.146 -22.211  26.516  1.00  0.00     0.004 C 
ENDBRANCH   3   4
ENDBRANCH   2   3
ENDBRANCH   1   2
BRANCH   1   6
ATOM      6  C   UNL     1      30.491 -20.390  22.394  1.00  0.00     0.028 C 
BRANCH   6   7
ATOM      7  C   UNL     1      30.900 -21.573  21.513  1.00  0.00     0.156 C 
BRANCH   7   8
ATOM      8  O   UNL     1      32.289 -21.583  21.329  1.00  0.00    -0.396 OA
ATOM      9  H   UNL     1      32.689 -21.832  22.204  1.00  0.00     0.210 HD
ENDBRANCH   7   8
ENDBRANCH   6   7
ENDBRANCH   1   6
TORSDOF 6
ENDMDL
