MODEL 1
REMARK VINA RESULT:    -8.800      0.000      0.000
REMARK INTER + INTRA:          -9.295
REMARK INTER:                  -9.572
REMARK INTRA:                   0.276
REMARK UNBOUND:                 0.276
REMARK SMILES C[C@@H]1[C@@H](C)CC[C@]2(C(=O)[O-])CC[C@]3(C)C(=CC[C@H]4[C@]5(C)CC[C@@H](O)C(C)(C)[C@@H]5CC[C@]43C)[C@@H]12
REMARK SMILES IDX 7 1 6 2 11 3 33 4 5 5 12 6 15 7 2 8 3 9 13 10 16 11 1 12
REMARK SMILES IDX 4 13 14 14 31 15 17 16 18 17 30 18 32 19 19 20 29 21 28 22
REMARK SMILES IDX 21 23 20 24 25 25 22 26 23 27 26 28 27 29 8 30 9 31 10 32
REMARK SMILES IDX 24 33
REMARK H PARENT 24 34
REMARK Flexibility Score: inf
ROOT
ATOM      1  C   UNL     1      18.027  33.966  10.640  1.00  0.00     0.017 C 
ATOM      2  C   UNL     1      18.148  35.413  11.175  1.00  0.00     0.014 C 
ATOM      3  C   UNL     1      16.841  33.266  11.374  1.00  0.00     0.014 C 
ATOM      4  C   UNL     1      19.326  33.170  10.996  1.00  0.00     0.030 C 
ATOM      5  C   UNL     1      19.423  36.109  10.686  1.00  0.00     0.004 C 
ATOM      6  C   UNL     1      16.720  31.751  11.063  1.00  0.00     0.013 C 
ATOM      7  C   UNL     1      19.130  31.709  10.551  1.00  0.00    -0.063 C 
ATOM      8  C   UNL     1      20.663  33.880  10.589  1.00  0.00    -0.003 C 
ATOM      9  C   UNL     1      20.685  35.343  11.125  1.00  0.00    -0.011 C 
ATOM     10  C   UNL     1      18.038  30.910  11.277  1.00  0.00    -0.006 C 
ATOM     11  C   UNL     1      19.580  31.332   9.347  1.00  0.00    -0.027 C 
ATOM     12  C   UNL     1      21.870  33.081  11.128  1.00  0.00     0.008 C 
ATOM     13  C   UNL     1      21.931  36.115  10.657  1.00  0.00     0.008 C 
ATOM     14  C   UNL     1      18.392  30.884  12.804  1.00  0.00     0.017 C 
ATOM     15  C   UNL     1      17.868  29.385  10.737  1.00  0.00    -0.020 C 
ATOM     16  C   UNL     1      19.249  30.053   8.674  1.00  0.00     0.032 C 
ATOM     17  C   UNL     1      17.959  29.313   9.156  1.00  0.00     0.006 C 
ATOM     18  C   UNL     1      18.999  28.459  11.274  1.00  0.00     0.008 C 
ATOM     19  C   UNL     1      16.491  28.859  11.272  1.00  0.00     0.012 C 
ATOM     20  C   UNL     1      17.917  27.845   8.483  1.00  0.00    -0.025 C 
ATOM     21  C   UNL     1      18.968  27.023  10.717  1.00  0.00     0.005 C 
ATOM     22  C   UNL     1      18.986  26.888   9.163  1.00  0.00     0.003 C 
ATOM     23  C   UNL     1      16.495  27.197   8.545  1.00  0.00     0.010 C 
ATOM     24  C   UNL     1      18.223  28.039   6.957  1.00  0.00     0.012 C 
ATOM     25  C   UNL     1      18.901  25.357   8.705  1.00  0.00    -0.006 C 
ATOM     26  C   UNL     1      16.433  25.746   8.042  1.00  0.00     0.033 C 
ATOM     27  C   UNL     1      17.428  24.838   8.778  1.00  0.00     0.120 C 
ATOM     28  C   UNL     1      19.774  24.457   9.630  1.00  0.00     0.014 C 
ATOM     29  C   UNL     1      19.488  25.159   7.274  1.00  0.00     0.014 C 
ENDROOT
BRANCH   1  30
ATOM     30  C   UNL     1      17.728  34.022   9.139  1.00  0.00     0.048 C 
ATOM     31  O   UNL     1      16.542  33.926   8.725  1.00  0.00    -0.550 OA
ATOM     32  O   UNL     1      18.727  34.282   8.210  1.00  0.00    -0.550 OA
ENDBRANCH   1  30
BRANCH  27  33
ATOM     33  O   UNL     1      17.330  23.543   8.236  1.00  0.00    -0.393 OA
ATOM     34  H   UNL     1      18.253  23.186   8.152  1.00  0.00     0.210 HD
ENDBRANCH  27  33
TORSDOF 2
ENDMDL
MODEL 2
REMARK VINA RESULT:    -8.368      3.210      8.283
REMARK INTER + INTRA:          -8.825
REMARK INTER:                  -9.110
REMARK INTRA:                   0.285
REMARK UNBOUND:                 0.276
REMARK SMILES C[C@@H]1[C@@H](C)CC[C@]2(C(=O)[O-])CC[C@]3(C)C(=CC[C@H]4[C@]5(C)CC[C@@H](O)C(C)(C)[C@@H]5CC[C@]43C)[C@@H]12
REMARK SMILES IDX 7 1 6 2 11 3 33 4 5 5 12 6 15 7 2 8 3 9 13 10 16 11 1 12
REMARK SMILES IDX 4 13 14 14 31 15 17 16 18 17 30 18 32 19 19 20 29 21 28 22
REMARK SMILES IDX 21 23 20 24 25 25 22 26 23 27 26 28 27 29 8 30 9 31 10 32
REMARK SMILES IDX 24 33
REMARK H PARENT 24 34
REMARK Flexibility Score: inf
ROOT
ATOM      1  C   UNL     1      19.077  31.045  10.858  1.00  0.00     0.017 C 
ATOM      2  C   UNL     1      19.739  29.882  11.636  1.00  0.00     0.014 C 
ATOM      3  C   UNL     1      19.451  32.386  11.562  1.00  0.00     0.014 C 
ATOM      4  C   UNL     1      17.521  30.900  10.934  1.00  0.00     0.030 C 
ATOM      5  C   UNL     1      19.247  28.510  11.162  1.00  0.00     0.004 C 
ATOM      6  C   UNL     1      18.705  33.621  10.990  1.00  0.00     0.013 C 
ATOM      7  C   UNL     1      16.891  32.128  10.249  1.00  0.00    -0.063 C 
ATOM      8  C   UNL     1      16.972  29.487  10.536  1.00  0.00    -0.003 C 
ATOM      9  C   UNL     1      17.722  28.373  11.328  1.00  0.00    -0.011 C 
ATOM     10  C   UNL     1      17.134  33.488  10.917  1.00  0.00    -0.006 C 
ATOM     11  C   UNL     1      16.543  32.042   8.958  1.00  0.00    -0.027 C 
ATOM     12  C   UNL     1      15.452  29.417  10.800  1.00  0.00     0.008 C 
ATOM     13  C   UNL     1      17.293  26.960  10.891  1.00  0.00     0.008 C 
ATOM     14  C   UNL     1      16.553  33.423  12.372  1.00  0.00     0.017 C 
ATOM     15  C   UNL     1      16.465  34.741  10.125  1.00  0.00    -0.020 C 
ATOM     16  C   UNL     1      16.171  33.190   8.096  1.00  0.00     0.032 C 
ATOM     17  C   UNL     1      16.651  34.604   8.557  1.00  0.00     0.006 C 
ATOM     18  C   UNL     1      14.929  34.818  10.370  1.00  0.00     0.008 C 
ATOM     19  C   UNL     1      17.129  36.047  10.685  1.00  0.00     0.012 C 
ATOM     20  C   UNL     1      15.939  35.723   7.632  1.00  0.00    -0.025 C 
ATOM     21  C   UNL     1      14.207  35.914   9.564  1.00  0.00     0.005 C 
ATOM     22  C   UNL     1      14.406  35.874   8.017  1.00  0.00     0.003 C 
ATOM     23  C   UNL     1      16.656  37.111   7.711  1.00  0.00     0.010 C 
ATOM     24  C   UNL     1      16.104  35.251   6.145  1.00  0.00     0.012 C 
ATOM     25  C   UNL     1      13.651  37.086   7.296  1.00  0.00    -0.006 C 
ATOM     26  C   UNL     1      15.939  38.242   6.958  1.00  0.00     0.033 C 
ATOM     27  C   UNL     1      14.483  38.405   7.414  1.00  0.00     0.120 C 
ATOM     28  C   UNL     1      12.259  37.335   7.951  1.00  0.00     0.014 C 
ATOM     29  C   UNL     1      13.345  36.757   5.803  1.00  0.00     0.014 C 
ENDROOT
BRANCH   1  30
ATOM     30  C   UNL     1      19.628  31.054   9.429  1.00  0.00     0.048 C 
ATOM     31  O   UNL     1      20.564  31.837   9.116  1.00  0.00    -0.550 OA
ATOM     32  O   UNL     1      19.191  30.142   8.477  1.00  0.00    -0.550 OA
ENDBRANCH   1  30
BRANCH  27  33
ATOM     33  O   UNL     1      13.894  39.433   6.656  1.00  0.00    -0.393 OA
ATOM     34  H   UNL     1      13.059  39.069   6.259  1.00  0.00     0.210 HD
ENDBRANCH  27  33
TORSDOF 2
ENDMDL
MODEL 3
REMARK VINA RESULT:    -8.221      1.515      2.255
REMARK INTER + INTRA:          -8.665
REMARK INTER:                  -8.951
REMARK INTRA:                   0.286
REMARK UNBOUND:                 0.276
REMARK SMILES C[C@@H]1[C@@H](C)CC[C@]2(C(=O)[O-])CC[C@]3(C)C(=CC[C@H]4[C@]5(C)CC[C@@H](O)C(C)(C)[C@@H]5CC[C@]43C)[C@@H]12
REMARK SMILES IDX 7 1 6 2 11 3 33 4 5 5 12 6 15 7 2 8 3 9 13 10 16 11 1 12
REMARK SMILES IDX 4 13 14 14 31 15 17 16 18 17 30 18 32 19 19 20 29 21 28 22
REMARK SMILES IDX 21 23 20 24 25 25 22 26 23 27 26 28 27 29 8 30 9 31 10 32
REMARK SMILES IDX 24 33
REMARK H PARENT 24 34
REMARK Flexibility Score: inf
ROOT
ATOM      1  C   UNL     1      19.894  34.314  10.171  1.00  0.00     0.017 C 
ATOM      2  C   UNL     1      20.501  35.635  10.701  1.00  0.00     0.014 C 
ATOM      3  C   UNL     1      18.364  34.526   9.953  1.00  0.00     0.014 C 
ATOM      4  C   UNL     1      20.057  33.197  11.254  1.00  0.00     0.030 C 
ATOM      5  C   UNL     1      21.952  35.465  11.163  1.00  0.00     0.004 C 
ATOM      6  C   UNL     1      17.598  33.225   9.593  1.00  0.00     0.013 C 
ATOM      7  C   UNL     1      19.347  31.929  10.745  1.00  0.00    -0.063 C 
ATOM      8  C   UNL     1      21.510  33.038  11.820  1.00  0.00    -0.003 C 
ATOM      9  C   UNL     1      22.064  34.418  12.287  1.00  0.00    -0.011 C 
ATOM     10  C   UNL     1      17.824  32.013  10.579  1.00  0.00    -0.006 C 
ATOM     11  C   UNL     1      20.064  30.999  10.100  1.00  0.00    -0.027 C 
ATOM     12  C   UNL     1      21.515  32.024  12.985  1.00  0.00     0.008 C 
ATOM     13  C   UNL     1      23.529  34.330  12.750  1.00  0.00     0.008 C 
ATOM     14  C   UNL     1      17.202  32.361  11.976  1.00  0.00     0.017 C 
ATOM     15  C   UNL     1      17.145  30.648  10.012  1.00  0.00    -0.020 C 
ATOM     16  C   UNL     1      19.497  29.863   9.335  1.00  0.00     0.032 C 
ATOM     17  C   UNL     1      18.016  30.002   8.856  1.00  0.00     0.006 C 
ATOM     18  C   UNL     1      17.032  29.562  11.122  1.00  0.00     0.008 C 
ATOM     19  C   UNL     1      15.702  31.020   9.524  1.00  0.00     0.012 C 
ATOM     20  C   UNL     1      17.521  28.579   8.271  1.00  0.00    -0.025 C 
ATOM     21  C   UNL     1      16.499  28.201  10.634  1.00  0.00     0.005 C 
ATOM     22  C   UNL     1      17.274  27.545   9.450  1.00  0.00     0.003 C 
ATOM     23  C   UNL     1      16.237  28.707   7.388  1.00  0.00     0.010 C 
ATOM     24  C   UNL     1      18.647  28.072   7.302  1.00  0.00     0.012 C 
ATOM     25  C   UNL     1      16.602  26.165   9.001  1.00  0.00    -0.006 C 
ATOM     26  C   UNL     1      15.647  27.367   6.920  1.00  0.00     0.033 C 
ATOM     27  C   UNL     1      15.353  26.426   8.097  1.00  0.00     0.120 C 
ATOM     28  C   UNL     1      16.132  25.350  10.244  1.00  0.00     0.014 C 
ATOM     29  C   UNL     1      17.627  25.242   8.274  1.00  0.00     0.014 C 
ENDROOT
BRANCH   1  30
ATOM     30  C   UNL     1      20.552  33.975   8.830  1.00  0.00     0.048 C 
ATOM     31  O   UNL     1      19.969  34.256   7.749  1.00  0.00    -0.550 OA
ATOM     32  O   UNL     1      21.838  33.454   8.764  1.00  0.00    -0.550 OA
ENDBRANCH   1  30
BRANCH  27  33
ATOM     33  O   UNL     1      14.851  25.217   7.581  1.00  0.00    -0.393 OA
ATOM     34  H   UNL     1      15.564  24.814   7.021  1.00  0.00     0.210 HD
ENDBRANCH  27  33
TORSDOF 2
ENDMDL
MODEL 4
REMARK VINA RESULT:    -8.198      9.914     13.645
REMARK INTER + INTRA:          -8.640
REMARK INTER:                  -8.921
REMARK INTRA:                   0.281
REMARK UNBOUND:                 0.276
REMARK SMILES C[C@@H]1[C@@H](C)CC[C@]2(C(=O)[O-])CC[C@]3(C)C(=CC[C@H]4[C@]5(C)CC[C@@H](O)C(C)(C)[C@@H]5CC[C@]43C)[C@@H]12
REMARK SMILES IDX 7 1 6 2 11 3 33 4 5 5 12 6 15 7 2 8 3 9 13 10 16 11 1 12
REMARK SMILES IDX 4 13 14 14 31 15 17 16 18 17 30 18 32 19 19 20 29 21 28 22
REMARK SMILES IDX 21 23 20 24 25 25 22 26 23 27 26 28 27 29 8 30 9 31 10 32
REMARK SMILES IDX 24 33
REMARK H PARENT 24 34
REMARK Flexibility Score: inf
ROOT
ATOM      1  C   UNL     1       7.169  31.567   4.253  1.00  0.00     0.017 C 
ATOM      2  C   UNL     1       6.321  30.561   3.438  1.00  0.00     0.014 C 
ATOM      3  C   UNL     1       6.287  32.134   5.408  1.00  0.00     0.014 C 
ATOM      4  C   UNL     1       7.565  32.773   3.339  1.00  0.00     0.030 C 
ATOM      5  C   UNL     1       7.021  30.122   2.147  1.00  0.00     0.004 C 
ATOM      6  C   UNL     1       6.958  33.290   6.197  1.00  0.00     0.013 C 
ATOM      7  C   UNL     1       8.310  33.806   4.204  1.00  0.00    -0.063 C 
ATOM      8  C   UNL     1       8.212  32.373   1.968  1.00  0.00    -0.003 C 
ATOM      9  C   UNL     1       7.321  31.326   1.234  1.00  0.00    -0.011 C 
ATOM     10  C   UNL     1       7.499  34.483   5.318  1.00  0.00    -0.006 C 
ATOM     11  C   UNL     1       9.649  33.775   4.243  1.00  0.00    -0.027 C 
ATOM     12  C   UNL     1       8.412  33.630   1.092  1.00  0.00     0.008 C 
ATOM     13  C   UNL     1       7.970  30.821  -0.068  1.00  0.00     0.008 C 
ATOM     14  C   UNL     1       6.288  35.225   4.653  1.00  0.00     0.017 C 
ATOM     15  C   UNL     1       8.356  35.540   6.208  1.00  0.00    -0.020 C 
ATOM     16  C   UNL     1      10.492  34.519   5.209  1.00  0.00     0.032 C 
ATOM     17  C   UNL     1       9.806  34.988   6.532  1.00  0.00     0.006 C 
ATOM     18  C   UNL     1       8.568  36.885   5.452  1.00  0.00     0.008 C 
ATOM     19  C   UNL     1       7.528  35.821   7.511  1.00  0.00     0.012 C 
ATOM     20  C   UNL     1      10.811  35.980   7.318  1.00  0.00    -0.025 C 
ATOM     21  C   UNL     1       9.465  37.898   6.188  1.00  0.00     0.005 C 
ATOM     22  C   UNL     1      10.883  37.392   6.595  1.00  0.00     0.003 C 
ATOM     23  C   UNL     1      10.421  36.162   8.821  1.00  0.00     0.010 C 
ATOM     24  C   UNL     1      12.216  35.281   7.332  1.00  0.00     0.012 C 
ATOM     25  C   UNL     1      11.701  38.511   7.393  1.00  0.00    -0.006 C 
ATOM     26  C   UNL     1      11.264  37.201   9.578  1.00  0.00     0.033 C 
ATOM     27  C   UNL     1      11.244  38.572   8.887  1.00  0.00     0.120 C 
ATOM     28  C   UNL     1      11.467  39.917   6.762  1.00  0.00     0.014 C 
ATOM     29  C   UNL     1      13.238  38.272   7.293  1.00  0.00     0.014 C 
ENDROOT
BRANCH   1  30
ATOM     30  C   UNL     1       8.368  30.825   4.851  1.00  0.00     0.048 C 
ATOM     31  O   UNL     1       8.321  30.393   6.034  1.00  0.00    -0.550 OA
ATOM     32  O   UNL     1       9.486  30.518   4.087  1.00  0.00    -0.550 OA
ENDBRANCH   1  30
BRANCH  27  33
ATOM     33  O   UNL     1      12.063  39.449   9.622  1.00  0.00    -0.393 OA
ATOM     34  H   UNL     1      12.940  39.494   9.159  1.00  0.00     0.210 HD
ENDBRANCH  27  33
TORSDOF 2
ENDMDL
MODEL 5
REMARK VINA RESULT:    -8.151      7.431      9.291
REMARK INTER + INTRA:          -8.589
REMARK INTER:                  -9.117
REMARK INTRA:                   0.528
REMARK UNBOUND:                 0.276
REMARK SMILES C[C@@H]1[C@@H](C)CC[C@]2(C(=O)[O-])CC[C@]3(C)C(=CC[C@H]4[C@]5(C)CC[C@@H](O)C(C)(C)[C@@H]5CC[C@]43C)[C@@H]12
REMARK SMILES IDX 7 1 6 2 11 3 33 4 5 5 12 6 15 7 2 8 3 9 13 10 16 11 1 12
REMARK SMILES IDX 4 13 14 14 31 15 17 16 18 17 30 18 32 19 19 20 29 21 28 22
REMARK SMILES IDX 21 23 20 24 25 25 22 26 23 27 26 28 27 29 8 30 9 31 10 32
REMARK SMILES IDX 24 33
REMARK H PARENT 24 34
REMARK Flexibility Score: inf
ROOT
ATOM      1  C   UNL     1      14.409  37.343   7.010  1.00  0.00     0.017 C 
ATOM      2  C   UNL     1      15.360  38.279   7.794  1.00  0.00     0.014 C 
ATOM      3  C   UNL     1      13.044  38.073   6.820  1.00  0.00     0.014 C 
ATOM      4  C   UNL     1      14.132  36.057   7.857  1.00  0.00     0.030 C 
ATOM      5  C   UNL     1      16.645  37.569   8.231  1.00  0.00     0.004 C 
ATOM      6  C   UNL     1      11.936  37.176   6.205  1.00  0.00     0.013 C 
ATOM      7  C   UNL     1      13.099  35.199   7.103  1.00  0.00    -0.063 C 
ATOM      8  C   UNL     1      15.416  35.338   8.398  1.00  0.00    -0.003 C 
ATOM      9  C   UNL     1      16.339  36.357   9.132  1.00  0.00    -0.011 C 
ATOM     10  C   UNL     1      11.696  35.800   6.938  1.00  0.00    -0.006 C 
ATOM     11  C   UNL     1      13.533  34.220   6.298  1.00  0.00    -0.027 C 
ATOM     12  C   UNL     1      15.016  34.184   9.344  1.00  0.00     0.008 C 
ATOM     13  C   UNL     1      17.665  35.719   9.586  1.00  0.00     0.008 C 
ATOM     14  C   UNL     1      11.114  36.071   8.369  1.00  0.00     0.017 C 
ATOM     15  C   UNL     1      10.667  34.853   6.109  1.00  0.00    -0.020 C 
ATOM     16  C   UNL     1      12.695  33.486   5.320  1.00  0.00     0.032 C 
ATOM     17  C   UNL     1      11.372  34.180   4.860  1.00  0.00     0.006 C 
ATOM     18  C   UNL     1      10.136  33.680   6.985  1.00  0.00     0.008 C 
ATOM     19  C   UNL     1       9.453  35.753   5.686  1.00  0.00     0.012 C 
ATOM     20  C   UNL     1      10.500  33.123   4.003  1.00  0.00    -0.025 C 
ATOM     21  C   UNL     1       9.240  32.676   6.236  1.00  0.00     0.005 C 
ATOM     22  C   UNL     1       9.854  32.029   4.956  1.00  0.00     0.003 C 
ATOM     23  C   UNL     1       9.389  33.816   3.147  1.00  0.00     0.010 C 
ATOM     24  C   UNL     1      11.477  32.464   2.968  1.00  0.00     0.012 C 
ATOM     25  C   UNL     1       8.817  31.045   4.239  1.00  0.00    -0.006 C 
ATOM     26  C   UNL     1       8.445  32.845   2.421  1.00  0.00     0.033 C 
ATOM     27  C   UNL     1       7.783  31.854   3.388  1.00  0.00     0.120 C 
ATOM     28  C   UNL     1       8.025  30.215   5.294  1.00  0.00     0.014 C 
ATOM     29  C   UNL     1       9.551  29.988   3.359  1.00  0.00     0.014 C 
ENDROOT
BRANCH   1  30
ATOM     30  C   UNL     1      15.024  37.058   5.637  1.00  0.00     0.048 C 
ATOM     31  O   UNL     1      14.361  37.274   4.588  1.00  0.00    -0.550 OA
ATOM     32  O   UNL     1      16.348  36.659   5.504  1.00  0.00    -0.550 OA
ENDBRANCH   1  30
BRANCH  27  33
ATOM     33  O   UNL     1       6.966  30.986   2.642  1.00  0.00    -0.393 OA
ATOM     34  H   UNL     1       7.122  31.183   1.681  1.00  0.00     0.210 HD
ENDBRANCH  27  33
TORSDOF 2
ENDMDL
MODEL 6
REMARK VINA RESULT:    -8.138      2.784      4.907
REMARK INTER + INTRA:          -8.576
REMARK INTER:                  -8.857
REMARK INTRA:                   0.281
REMARK UNBOUND:                 0.276
REMARK SMILES C[C@@H]1[C@@H](C)CC[C@]2(C(=O)[O-])CC[C@]3(C)C(=CC[C@H]4[C@]5(C)CC[C@@H](O)C(C)(C)[C@@H]5CC[C@]43C)[C@@H]12
REMARK SMILES IDX 7 1 6 2 11 3 33 4 5 5 12 6 15 7 2 8 3 9 13 10 16 11 1 12
REMARK SMILES IDX 4 13 14 14 31 15 17 16 18 17 30 18 32 19 19 20 29 21 28 22
REMARK SMILES IDX 21 23 20 24 25 25 22 26 23 27 26 28 27 29 8 30 9 31 10 32
REMARK SMILES IDX 24 33
REMARK H PARENT 24 34
REMARK Flexibility Score: inf
ROOT
ATOM      1  C   UNL     1      17.015  34.271   6.990  1.00  0.00     0.017 C 
ATOM      2  C   UNL     1      16.801  35.660   6.342  1.00  0.00     0.014 C 
ATOM      3  C   UNL     1      18.545  33.966   7.008  1.00  0.00     0.014 C 
ATOM      4  C   UNL     1      16.334  33.175   6.106  1.00  0.00     0.030 C 
ATOM      5  C   UNL     1      15.321  35.953   6.069  1.00  0.00     0.004 C 
ATOM      6  C   UNL     1      18.889  32.524   7.470  1.00  0.00     0.013 C 
ATOM      7  C   UNL     1      16.659  31.798   6.715  1.00  0.00    -0.063 C 
ATOM      8  C   UNL     1      14.841  33.468   5.730  1.00  0.00    -0.003 C 
ATOM      9  C   UNL     1      14.705  34.900   5.129  1.00  0.00    -0.011 C 
ATOM     10  C   UNL     1      18.133  31.371   6.702  1.00  0.00    -0.006 C 
ATOM     11  C   UNL     1      15.783  31.242   7.563  1.00  0.00    -0.027 C 
ATOM     12  C   UNL     1      14.329  32.405   4.733  1.00  0.00     0.008 C 
ATOM     13  C   UNL     1      13.239  35.274   4.844  1.00  0.00     0.008 C 
ATOM     14  C   UNL     1      18.616  31.341   5.210  1.00  0.00     0.017 C 
ATOM     15  C   UNL     1      18.405  29.921   7.386  1.00  0.00    -0.020 C 
ATOM     16  C   UNL     1      16.057  30.064   8.420  1.00  0.00     0.032 C 
ATOM     17  C   UNL     1      17.557  29.733   8.711  1.00  0.00     0.006 C 
ATOM     18  C   UNL     1      17.989  28.756   6.441  1.00  0.00     0.008 C 
ATOM     19  C   UNL     1      19.948  29.822   7.656  1.00  0.00     0.012 C 
ATOM     20  C   UNL     1      17.642  28.294   9.441  1.00  0.00    -0.025 C 
ATOM     21  C   UNL     1      18.115  27.352   7.062  1.00  0.00     0.005 C 
ATOM     22  C   UNL     1      17.356  27.124   8.406  1.00  0.00     0.003 C 
ATOM     23  C   UNL     1      19.015  28.062  10.152  1.00  0.00     0.010 C 
ATOM     24  C   UNL     1      16.572  28.305  10.589  1.00  0.00     0.012 C 
ATOM     25  C   UNL     1      17.600  25.650   8.977  1.00  0.00    -0.006 C 
ATOM     26  C   UNL     1      19.197  26.655  10.744  1.00  0.00     0.033 C 
ATOM     27  C   UNL     1      18.988  25.557   9.693  1.00  0.00     0.120 C 
ATOM     28  C   UNL     1      17.584  24.603   7.823  1.00  0.00     0.014 C 
ATOM     29  C   UNL     1      16.452  25.214   9.937  1.00  0.00     0.014 C 
ENDROOT
BRANCH   1  30
ATOM     30  C   UNL     1      16.492  34.317   8.429  1.00  0.00     0.048 C 
ATOM     31  O   UNL     1      17.285  34.533   9.385  1.00  0.00    -0.550 OA
ATOM     32  O   UNL     1      15.136  34.229   8.712  1.00  0.00    -0.550 OA
ENDBRANCH   1  30
BRANCH  27  33
ATOM     33  O   UNL     1      19.139  24.308  10.322  1.00  0.00    -0.393 OA
ATOM     34  H   UNL     1      19.764  23.770   9.769  1.00  0.00     0.210 HD
ENDBRANCH  27  33
TORSDOF 2
ENDMDL
MODEL 7
REMARK VINA RESULT:    -8.108      2.220      7.830
REMARK INTER + INTRA:          -8.543
REMARK INTER:                  -8.840
REMARK INTRA:                   0.296
REMARK UNBOUND:                 0.276
REMARK SMILES C[C@@H]1[C@@H](C)CC[C@]2(C(=O)[O-])CC[C@]3(C)C(=CC[C@H]4[C@]5(C)CC[C@@H](O)C(C)(C)[C@@H]5CC[C@]43C)[C@@H]12
REMARK SMILES IDX 7 1 6 2 11 3 33 4 5 5 12 6 15 7 2 8 3 9 13 10 16 11 1 12
REMARK SMILES IDX 4 13 14 14 31 15 17 16 18 17 30 18 32 19 19 20 29 21 28 22
REMARK SMILES IDX 21 23 20 24 25 25 22 26 23 27 26 28 27 29 8 30 9 31 10 32
REMARK SMILES IDX 24 33
REMARK H PARENT 24 34
REMARK Flexibility Score: inf
ROOT
ATOM      1  C   UNL     1      16.322  28.345   8.812  1.00  0.00     0.017 C 
ATOM      2  C   UNL     1      15.409  27.166   8.397  1.00  0.00     0.014 C 
ATOM      3  C   UNL     1      15.870  29.617   8.031  1.00  0.00     0.014 C 
ATOM      4  C   UNL     1      17.794  28.037   8.384  1.00  0.00     0.030 C 
ATOM      5  C   UNL     1      15.915  25.822   8.934  1.00  0.00     0.004 C 
ATOM      6  C   UNL     1      16.816  30.834   8.217  1.00  0.00     0.013 C 
ATOM      7  C   UNL     1      18.656  29.272   8.708  1.00  0.00    -0.063 C 
ATOM      8  C   UNL     1      18.332  26.637   8.840  1.00  0.00    -0.003 C 
ATOM      9  C   UNL     1      17.335  25.513   8.426  1.00  0.00    -0.011 C 
ATOM     10  C   UNL     1      18.341  30.554   7.926  1.00  0.00    -0.006 C 
ATOM     11  C   UNL     1      19.314  29.315   9.874  1.00  0.00    -0.027 C 
ATOM     12  C   UNL     1      19.728  26.383   8.229  1.00  0.00     0.008 C 
ATOM     13  C   UNL     1      17.767  24.131   8.948  1.00  0.00     0.008 C 
ATOM     14  C   UNL     1      18.529  30.249   6.399  1.00  0.00     0.017 C 
ATOM     15  C   UNL     1      19.270  31.824   8.340  1.00  0.00    -0.020 C 
ATOM     16  C   UNL     1      19.967  30.519  10.442  1.00  0.00     0.032 C 
ATOM     17  C   UNL     1      19.480  31.905   9.908  1.00  0.00     0.006 C 
ATOM     18  C   UNL     1      20.695  31.715   7.721  1.00  0.00     0.008 C 
ATOM     19  C   UNL     1      18.572  33.109   7.771  1.00  0.00     0.012 C 
ATOM     20  C   UNL     1      20.474  33.054  10.458  1.00  0.00    -0.025 C 
ATOM     21  C   UNL     1      21.668  32.827   8.158  1.00  0.00     0.005 C 
ATOM     22  C   UNL     1      21.865  33.002   9.696  1.00  0.00     0.003 C 
ATOM     23  C   UNL     1      19.853  34.486  10.352  1.00  0.00     0.010 C 
ATOM     24  C   UNL     1      20.662  32.792  11.994  1.00  0.00     0.012 C 
ATOM     25  C   UNL     1      22.856  34.214  10.026  1.00  0.00    -0.006 C 
ATOM     26  C   UNL     1      20.810  35.626  10.735  1.00  0.00     0.033 C 
ATOM     27  C   UNL     1      22.110  35.584   9.920  1.00  0.00     0.120 C 
ATOM     28  C   UNL     1      24.050  34.238   9.025  1.00  0.00     0.014 C 
ATOM     29  C   UNL     1      23.509  34.047  11.432  1.00  0.00     0.014 C 
ENDROOT
BRANCH   1  30
ATOM     30  C   UNL     1      16.153  28.589  10.315  1.00  0.00     0.048 C 
ATOM     31  O   UNL     1      15.264  29.378  10.733  1.00  0.00    -0.550 OA
ATOM     32  O   UNL     1      16.893  27.881  11.252  1.00  0.00    -0.550 OA
ENDBRANCH   1  30
BRANCH  27  33
ATOM     33  O   UNL     1      22.938  36.635  10.354  1.00  0.00    -0.393 OA
ATOM     34  H   UNL     1      22.404  37.471  10.312  1.00  0.00     0.210 HD
ENDBRANCH  27  33
TORSDOF 2
ENDMDL
MODEL 8
REMARK VINA RESULT:    -8.008      2.522      7.972
REMARK INTER + INTRA:          -8.435
REMARK INTER:                  -8.715
REMARK INTRA:                   0.281
REMARK UNBOUND:                 0.276
REMARK SMILES C[C@@H]1[C@@H](C)CC[C@]2(C(=O)[O-])CC[C@]3(C)C(=CC[C@H]4[C@]5(C)CC[C@@H](O)C(C)(C)[C@@H]5CC[C@]43C)[C@@H]12
REMARK SMILES IDX 7 1 6 2 11 3 33 4 5 5 12 6 15 7 2 8 3 9 13 10 16 11 1 12
REMARK SMILES IDX 4 13 14 14 31 15 17 16 18 17 30 18 32 19 19 20 29 21 28 22
REMARK SMILES IDX 21 23 20 24 25 25 22 26 23 27 26 28 27 29 8 30 9 31 10 32
REMARK SMILES IDX 24 33
REMARK H PARENT 24 34
REMARK Flexibility Score: inf
ROOT
ATOM      1  C   UNL     1      18.405  28.053   7.474  1.00  0.00     0.017 C 
ATOM      2  C   UNL     1      18.762  26.757   6.708  1.00  0.00     0.014 C 
ATOM      3  C   UNL     1      19.615  28.440   8.379  1.00  0.00     0.014 C 
ATOM      4  C   UNL     1      17.189  27.779   8.418  1.00  0.00     0.030 C 
ATOM      5  C   UNL     1      17.557  26.168   5.967  1.00  0.00     0.004 C 
ATOM      6  C   UNL     1      19.323  29.624   9.340  1.00  0.00     0.013 C 
ATOM      7  C   UNL     1      16.929  29.052   9.246  1.00  0.00    -0.063 C 
ATOM      8  C   UNL     1      15.957  27.101   7.724  1.00  0.00    -0.003 C 
ATOM      9  C   UNL     1      16.409  25.833   6.938  1.00  0.00    -0.011 C 
ATOM     10  C   UNL     1      18.030  29.468  10.231  1.00  0.00    -0.006 C 
ATOM     11  C   UNL     1      16.018  29.933   8.812  1.00  0.00    -0.027 C 
ATOM     12  C   UNL     1      14.890  26.739   8.779  1.00  0.00     0.008 C 
ATOM     13  C   UNL     1      15.252  25.195   6.149  1.00  0.00     0.008 C 
ATOM     14  C   UNL     1      18.241  28.292  11.247  1.00  0.00     0.017 C 
ATOM     15  C   UNL     1      17.701  30.834  11.050  1.00  0.00    -0.020 C 
ATOM     16  C   UNL     1      15.836  31.305   9.344  1.00  0.00     0.032 C 
ATOM     17  C   UNL     1      17.045  31.931  10.113  1.00  0.00     0.006 C 
ATOM     18  C   UNL     1      16.677  30.581  12.195  1.00  0.00     0.008 C 
ATOM     19  C   UNL     1      19.049  31.328  11.681  1.00  0.00     0.012 C 
ATOM     20  C   UNL     1      16.562  33.304  10.814  1.00  0.00    -0.025 C 
ATOM     21  C   UNL     1      16.231  31.850  12.947  1.00  0.00     0.005 C 
ATOM     22  C   UNL     1      15.639  32.996  12.069  1.00  0.00     0.003 C 
ATOM     23  C   UNL     1      17.760  34.216  11.236  1.00  0.00     0.010 C 
ATOM     24  C   UNL     1      15.779  34.118   9.725  1.00  0.00     0.012 C 
ATOM     25  C   UNL     1      15.259  34.275  12.951  1.00  0.00    -0.006 C 
ATOM     26  C   UNL     1      17.359  35.470  12.030  1.00  0.00     0.033 C 
ATOM     27  C   UNL     1      16.534  35.122  13.276  1.00  0.00     0.120 C 
ATOM     28  C   UNL     1      14.614  33.841  14.302  1.00  0.00     0.014 C 
ATOM     29  C   UNL     1      14.178  35.151  12.247  1.00  0.00     0.014 C 
ENDROOT
BRANCH   1  30
ATOM     30  C   UNL     1      18.158  29.171   6.456  1.00  0.00     0.048 C 
ATOM     31  O   UNL     1      19.075  29.991   6.180  1.00  0.00    -0.550 OA
ATOM     32  O   UNL     1      16.972  29.251   5.740  1.00  0.00    -0.550 OA
ENDBRANCH   1  30
BRANCH  27  33
ATOM     33  O   UNL     1      16.182  36.321  13.922  1.00  0.00    -0.393 OA
ATOM     34  H   UNL     1      15.191  36.387  13.907  1.00  0.00     0.210 HD
ENDBRANCH  27  33
TORSDOF 2
ENDMDL
MODEL 9
REMARK VINA RESULT:    -7.949      2.786      8.159
REMARK INTER + INTRA:          -8.370
REMARK INTER:                  -8.661
REMARK INTRA:                   0.291
REMARK UNBOUND:                 0.276
REMARK SMILES C[C@@H]1[C@@H](C)CC[C@]2(C(=O)[O-])CC[C@]3(C)C(=CC[C@H]4[C@]5(C)CC[C@@H](O)C(C)(C)[C@@H]5CC[C@]43C)[C@@H]12
REMARK SMILES IDX 7 1 6 2 11 3 33 4 5 5 12 6 15 7 2 8 3 9 13 10 16 11 1 12
REMARK SMILES IDX 4 13 14 14 31 15 17 16 18 17 30 18 32 19 19 20 29 21 28 22
REMARK SMILES IDX 21 23 20 24 25 25 22 26 23 27 26 28 27 29 8 30 9 31 10 32
REMARK SMILES IDX 24 33
REMARK H PARENT 24 34
REMARK Flexibility Score: inf
ROOT
ATOM      1  C   UNL     1      18.785  29.007  10.075  1.00  0.00     0.017 C 
ATOM      2  C   UNL     1      19.304  27.623  10.535  1.00  0.00     0.014 C 
ATOM      3  C   UNL     1      19.554  30.110  10.864  1.00  0.00     0.014 C 
ATOM      4  C   UNL     1      17.271  29.142  10.446  1.00  0.00     0.030 C 
ATOM      5  C   UNL     1      18.454  26.471   9.988  1.00  0.00     0.004 C 
ATOM      6  C   UNL     1      19.005  31.543  10.631  1.00  0.00     0.013 C 
ATOM      7  C   UNL     1      16.813  30.566  10.078  1.00  0.00    -0.063 C 
ATOM      8  C   UNL     1      16.371  27.947   9.979  1.00  0.00    -0.003 C 
ATOM      9  C   UNL     1      16.987  26.592  10.441  1.00  0.00    -0.011 C 
ATOM     10  C   UNL     1      17.454  31.718  10.862  1.00  0.00    -0.006 C 
ATOM     11  C   UNL     1      16.238  30.774   8.886  1.00  0.00    -0.027 C 
ATOM     12  C   UNL     1      14.940  28.115  10.535  1.00  0.00     0.008 C 
ATOM     13  C   UNL     1      16.195  25.382   9.912  1.00  0.00     0.008 C 
ATOM     14  C   UNL     1      17.132  31.508  12.383  1.00  0.00     0.017 C 
ATOM     15  C   UNL     1      16.945  33.193  10.403  1.00  0.00    -0.020 C 
ATOM     16  C   UNL     1      15.980  32.104   8.284  1.00  0.00     0.032 C 
ATOM     17  C   UNL     1      16.825  33.302   8.826  1.00  0.00     0.006 C 
ATOM     18  C   UNL     1      15.528  33.509  10.964  1.00  0.00     0.008 C 
ATOM     19  C   UNL     1      17.962  34.234  10.989  1.00  0.00     0.012 C 
ATOM     20  C   UNL     1      16.223  34.678   8.228  1.00  0.00    -0.025 C 
ATOM     21  C   UNL     1      14.931  34.845  10.480  1.00  0.00     0.005 C 
ATOM     22  C   UNL     1      14.849  35.041   8.935  1.00  0.00     0.003 C 
ATOM     23  C   UNL     1      17.225  35.873   8.348  1.00  0.00     0.010 C 
ATOM     24  C   UNL     1      16.024  34.452   6.688  1.00  0.00     0.012 C 
ATOM     25  C   UNL     1      14.260  36.479   8.555  1.00  0.00    -0.006 C 
ATOM     26  C   UNL     1      16.651  37.232   7.919  1.00  0.00     0.033 C 
ATOM     27  C   UNL     1      15.364  37.580   8.681  1.00  0.00     0.120 C 
ATOM     28  C   UNL     1      13.089  36.863   9.508  1.00  0.00     0.014 C 
ATOM     29  C   UNL     1      13.639  36.480   7.125  1.00  0.00     0.014 C 
ENDROOT
BRANCH   1  30
ATOM     30  C   UNL     1      19.071  29.164   8.578  1.00  0.00     0.048 C 
ATOM     31  O   UNL     1      20.046  29.861   8.190  1.00  0.00    -0.550 OA
ATOM     32  O   UNL     1      18.340  28.470   7.623  1.00  0.00    -0.550 OA
ENDBRANCH   1  30
BRANCH  27  33
ATOM     33  O   UNL     1      14.890  38.816   8.206  1.00  0.00    -0.393 OA
ATOM     34  H   UNL     1      14.805  38.743   7.220  1.00  0.00     0.210 HD
ENDBRANCH  27  33
TORSDOF 2
ENDMDL
