MODEL 1
REMARK VINA RESULT:    -3.817      0.000      0.000
REMARK INTER + INTRA:          -5.097
REMARK INTER:                  -4.932
REMARK INTRA:                  -0.165
REMARK UNBOUND:                -0.165
REMARK SMILES CCCCCCC=O
REMARK SMILES IDX 4 1 3 2 2 3 1 4 5 5 6 6 7 7 8 8
REMARK H PARENT
REMARK Flexibility Score: inf
ROOT
ATOM      1  C   UNL     1      25.061  57.889  -8.717  1.00  0.00     0.000 C 
ENDROOT
BRANCH   1   2
ATOM      2  C   UNL     1      26.002  59.024  -9.144  1.00  0.00    -0.000 C 
BRANCH   2   3
ATOM      3  C   UNL     1      27.036  58.572 -10.188  1.00  0.00    -0.003 C 
ATOM      4  C   UNL     1      28.236  59.515 -10.279  1.00  0.00     0.004 C 
ENDBRANCH   2   3
ENDBRANCH   1   2
BRANCH   1   5
ATOM      5  C   UNL     1      25.783  56.533  -8.756  1.00  0.00     0.008 C 
BRANCH   5   6
ATOM      6  C   UNL     1      25.092  55.483  -7.876  1.00  0.00     0.072 C 
BRANCH   6   7
ATOM      7  C   UNL     1      23.598  55.523  -8.015  1.00  0.00     0.224 C 
ATOM      8  O   UNL     1      22.882  55.066  -7.139  1.00  0.00    -0.303 OA
ENDBRANCH   6   7
ENDBRANCH   5   6
ENDBRANCH   1   5
TORSDOF 5
ENDMDL
MODEL 2
REMARK VINA RESULT:    -3.714      2.874      5.142
REMARK INTER + INTRA:          -4.964
REMARK INTER:                  -4.893
REMARK INTRA:                  -0.071
REMARK UNBOUND:                -0.165
REMARK SMILES CCCCCCC=O
REMARK SMILES IDX 4 1 3 2 2 3 1 4 5 5 6 6 7 7 8 8
REMARK H PARENT
REMARK Flexibility Score: inf
ROOT
ATOM      1  C   UNL     1      25.162  57.627  -8.569  1.00  0.00     0.000 C 
ENDROOT
BRANCH   1   2
ATOM      2  C   UNL     1      25.456  56.218  -8.035  1.00  0.00    -0.000 C 
BRANCH   2   3
ATOM      3  C   UNL     1      24.349  55.211  -8.385  1.00  0.00    -0.003 C 
ATOM      4  C   UNL     1      23.202  55.217  -7.375  1.00  0.00     0.004 C 
ENDBRANCH   2   3
ENDBRANCH   1   2
BRANCH   1   5
ATOM      5  C   UNL     1      26.285  58.106  -9.500  1.00  0.00     0.008 C 
BRANCH   5   6
ATOM      6  C   UNL     1      26.579  59.603  -9.332  1.00  0.00     0.072 C 
BRANCH   6   7
ATOM      7  C   UNL     1      27.943  59.971  -9.837  1.00  0.00     0.224 C 
ATOM      8  O   UNL     1      28.533  59.241 -10.618  1.00  0.00    -0.303 OA
ENDBRANCH   6   7
ENDBRANCH   5   6
ENDBRANCH   1   5
TORSDOF 5
ENDMDL
MODEL 3
REMARK VINA RESULT:    -3.702      0.967      1.237
REMARK INTER + INTRA:          -4.949
REMARK INTER:                  -4.842
REMARK INTRA:                  -0.107
REMARK UNBOUND:                -0.165
REMARK SMILES CCCCCCC=O
REMARK SMILES IDX 4 1 3 2 2 3 1 4 5 5 6 6 7 7 8 8
REMARK H PARENT
REMARK Flexibility Score: inf
ROOT
ATOM      1  C   UNL     1      25.871  58.320  -9.135  1.00  0.00     0.000 C 
ENDROOT
BRANCH   1   2
ATOM      2  C   UNL     1      26.972  58.482 -10.193  1.00  0.00    -0.000 C 
BRANCH   2   3
ATOM      3  C   UNL     1      27.707  59.827 -10.079  1.00  0.00    -0.003 C 
ATOM      4  C   UNL     1      27.191  60.688  -8.927  1.00  0.00     0.004 C 
ENDBRANCH   2   3
ENDBRANCH   1   2
BRANCH   1   5
ATOM      5  C   UNL     1      25.783  56.865  -8.652  1.00  0.00     0.008 C 
BRANCH   5   6
ATOM      6  C   UNL     1      24.357  56.307  -8.747  1.00  0.00     0.072 C 
BRANCH   6   7
ATOM      7  C   UNL     1      24.005  55.452  -7.565  1.00  0.00     0.224 C 
ATOM      8  O   UNL     1      22.874  55.013  -7.433  1.00  0.00    -0.303 OA
ENDBRANCH   6   7
ENDBRANCH   5   6
ENDBRANCH   1   5
TORSDOF 5
ENDMDL
MODEL 4
REMARK VINA RESULT:    -3.574      2.641      5.212
REMARK INTER + INTRA:          -4.783
REMARK INTER:                  -4.709
REMARK INTRA:                  -0.074
REMARK UNBOUND:                -0.165
REMARK SMILES CCCCCCC=O
REMARK SMILES IDX 4 1 3 2 2 3 1 4 5 5 6 6 7 7 8 8
REMARK H PARENT
REMARK Flexibility Score: inf
ROOT
ATOM      1  C   UNL     1      24.480  56.161  -8.801  1.00  0.00     0.000 C 
ENDROOT
BRANCH   1   2
ATOM      2  C   UNL     1      24.241  55.571  -7.404  1.00  0.00    -0.000 C 
BRANCH   2   3
ATOM      3  C   UNL     1      22.854  54.922  -7.267  1.00  0.00    -0.003 C 
ATOM      4  C   UNL     1      22.519  54.541  -5.825  1.00  0.00     0.004 C 
ENDBRANCH   2   3
ENDBRANCH   1   2
BRANCH   1   5
ATOM      5  C   UNL     1      25.785  56.970  -8.839  1.00  0.00     0.008 C 
BRANCH   5   6
ATOM      6  C   UNL     1      25.528  58.481  -8.913  1.00  0.00     0.072 C 
BRANCH   6   7
ATOM      7  C   UNL     1      26.653  59.214  -9.583  1.00  0.00     0.224 C 
ATOM      8  O   UNL     1      27.385  58.637 -10.373  1.00  0.00    -0.303 OA
ENDBRANCH   6   7
ENDBRANCH   5   6
ENDBRANCH   1   5
TORSDOF 5
ENDMDL
MODEL 5
REMARK VINA RESULT:    -3.487     16.970     18.246
REMARK INTER + INTRA:          -4.671
REMARK INTER:                  -4.445
REMARK INTRA:                  -0.226
REMARK UNBOUND:                -0.165
REMARK SMILES CCCCCCC=O
REMARK SMILES IDX 4 1 3 2 2 3 1 4 5 5 6 6 7 7 8 8
REMARK H PARENT
REMARK Flexibility Score: inf
ROOT
ATOM      1  C   UNL     1      17.555  44.614   0.102  1.00  0.00     0.000 C 
ENDROOT
BRANCH   1   2
ATOM      2  C   UNL     1      17.015  43.977   1.391  1.00  0.00    -0.000 C 
BRANCH   2   3
ATOM      3  C   UNL     1      15.698  44.616   1.858  1.00  0.00    -0.003 C 
ATOM      4  C   UNL     1      15.031  45.459   0.772  1.00  0.00     0.004 C 
ENDBRANCH   2   3
ENDBRANCH   1   2
BRANCH   1   5
ATOM      5  C   UNL     1      19.091  44.659   0.114  1.00  0.00     0.008 C 
BRANCH   5   6
ATOM      6  C   UNL     1      19.673  44.195   1.456  1.00  0.00     0.072 C 
BRANCH   6   7
ATOM      7  C   UNL     1      20.665  43.081   1.286  1.00  0.00     0.224 C 
ATOM      8  O   UNL     1      20.836  42.565   0.193  1.00  0.00    -0.303 OA
ENDBRANCH   6   7
ENDBRANCH   5   6
ENDBRANCH   1   5
TORSDOF 5
ENDMDL
MODEL 6
REMARK VINA RESULT:    -3.353     15.199     16.890
REMARK INTER + INTRA:          -4.497
REMARK INTER:                  -4.381
REMARK INTRA:                  -0.116
REMARK UNBOUND:                -0.165
REMARK SMILES CCCCCCC=O
REMARK SMILES IDX 4 1 3 2 2 3 1 4 5 5 6 6 7 7 8 8
REMARK H PARENT
REMARK Flexibility Score: inf
ROOT
ATOM      1  C   UNL     1      31.864  45.213   0.991  1.00  0.00     0.000 C 
ENDROOT
BRANCH   1   2
ATOM      2  C   UNL     1      30.339  45.306   1.139  1.00  0.00    -0.000 C 
BRANCH   2   3
ATOM      3  C   UNL     1      29.597  44.971  -0.166  1.00  0.00    -0.003 C 
ATOM      4  C   UNL     1      28.218  45.624  -0.246  1.00  0.00     0.004 C 
ENDBRANCH   2   3
ENDBRANCH   1   2
BRANCH   1   5
ATOM      5  C   UNL     1      32.557  45.341   2.356  1.00  0.00     0.008 C 
BRANCH   5   6
ATOM      6  C   UNL     1      33.045  46.771   2.626  1.00  0.00     0.072 C 
BRANCH   6   7
ATOM      7  C   UNL     1      32.529  47.307   3.930  1.00  0.00     0.224 C 
ATOM      8  O   UNL     1      31.459  47.893   3.979  1.00  0.00    -0.303 OA
ENDBRANCH   6   7
ENDBRANCH   5   6
ENDBRANCH   1   5
TORSDOF 5
ENDMDL
MODEL 7
REMARK VINA RESULT:    -3.334     16.343     17.912
REMARK INTER + INTRA:          -4.473
REMARK INTER:                  -4.194
REMARK INTRA:                  -0.279
REMARK UNBOUND:                -0.165
REMARK SMILES CCCCCCC=O
REMARK SMILES IDX 4 1 3 2 2 3 1 4 5 5 6 6 7 7 8 8
REMARK H PARENT
REMARK Flexibility Score: inf
ROOT
ATOM      1  C   UNL     1      17.152  43.782   1.106  1.00  0.00     0.000 C 
ENDROOT
BRANCH   1   2
ATOM      2  C   UNL     1      18.391  43.859   2.009  1.00  0.00    -0.000 C 
BRANCH   2   3
ATOM      3  C   UNL     1      19.652  44.296   1.246  1.00  0.00    -0.003 C 
ATOM      4  C   UNL     1      19.331  45.074  -0.030  1.00  0.00     0.004 C 
ENDBRANCH   2   3
ENDBRANCH   1   2
BRANCH   1   5
ATOM      5  C   UNL     1      15.950  44.480   1.762  1.00  0.00     0.008 C 
BRANCH   5   6
ATOM      6  C   UNL     1      15.181  45.362   0.770  1.00  0.00     0.072 C 
BRANCH   6   7
ATOM      7  C   UNL     1      15.634  45.150  -0.645  1.00  0.00     0.224 C 
ATOM      8  O   UNL     1      16.120  46.069  -1.284  1.00  0.00    -0.303 OA
ENDBRANCH   6   7
ENDBRANCH   5   6
ENDBRANCH   1   5
TORSDOF 5
ENDMDL
MODEL 8
REMARK VINA RESULT:    -3.334     15.499     16.710
REMARK INTER + INTRA:          -4.473
REMARK INTER:                  -4.323
REMARK INTRA:                  -0.150
REMARK UNBOUND:                -0.165
REMARK SMILES CCCCCCC=O
REMARK SMILES IDX 4 1 3 2 2 3 1 4 5 5 6 6 7 7 8 8
REMARK H PARENT
REMARK Flexibility Score: inf
ROOT
ATOM      1  C   UNL     1      32.435  45.107   2.110  1.00  0.00     0.000 C 
ENDROOT
BRANCH   1   2
ATOM      2  C   UNL     1      32.984  46.495   2.472  1.00  0.00    -0.000 C 
BRANCH   2   3
ATOM      3  C   UNL     1      32.799  46.834   3.960  1.00  0.00    -0.003 C 
ATOM      4  C   UNL     1      31.908  48.055   4.182  1.00  0.00     0.004 C 
ENDBRANCH   2   3
ENDBRANCH   1   2
BRANCH   1   5
ATOM      5  C   UNL     1      31.618  45.162   0.810  1.00  0.00     0.008 C 
BRANCH   5   6
ATOM      6  C   UNL     1      30.112  45.279   1.077  1.00  0.00     0.072 C 
BRANCH   6   7
ATOM      7  C   UNL     1      29.298  45.022  -0.158  1.00  0.00     0.224 C 
ATOM      8  O   UNL     1      28.244  45.611  -0.338  1.00  0.00    -0.303 OA
ENDBRANCH   6   7
ENDBRANCH   5   6
ENDBRANCH   1   5
TORSDOF 5
ENDMDL
MODEL 9
REMARK VINA RESULT:    -3.206     17.048     18.352
REMARK INTER + INTRA:          -4.307
REMARK INTER:                  -3.948
REMARK INTRA:                  -0.359
REMARK UNBOUND:                -0.165
REMARK SMILES CCCCCCC=O
REMARK SMILES IDX 4 1 3 2 2 3 1 4 5 5 6 6 7 7 8 8
REMARK H PARENT
REMARK Flexibility Score: inf
ROOT
ATOM      1  C   UNL     1      16.417  43.127   1.071  1.00  0.00     0.000 C 
ENDROOT
BRANCH   1   2
ATOM      2  C   UNL     1      16.000  44.439   1.751  1.00  0.00    -0.000 C 
BRANCH   2   3
ATOM      3  C   UNL     1      15.224  45.372   0.809  1.00  0.00    -0.003 C 
ATOM      4  C   UNL     1      15.877  45.501  -0.567  1.00  0.00     0.004 C 
ENDBRANCH   2   3
ENDBRANCH   1   2
BRANCH   1   5
ATOM      5  C   UNL     1      17.841  42.723   1.483  1.00  0.00     0.008 C 
BRANCH   5   6
ATOM      6  C   UNL     1      18.753  43.940   1.684  1.00  0.00     0.072 C 
BRANCH   6   7
ATOM      7  C   UNL     1      19.571  44.241   0.463  1.00  0.00     0.224 C 
ATOM      8  O   UNL     1      19.326  45.222  -0.221  1.00  0.00    -0.303 OA
ENDBRANCH   6   7
ENDBRANCH   5   6
ENDBRANCH   1   5
TORSDOF 5
ENDMDL
