MODEL 1
REMARK VINA RESULT:    -6.006      0.000      0.000
REMARK INTER + INTRA:          -7.562
REMARK INTER:                  -7.235
REMARK INTRA:                  -0.327
REMARK UNBOUND:                -0.327
REMARK SMILES O=c1c(O)c(-c2ccc(O)cc2O)oc2cc(O)cc(O)c12
REMARK SMILES IDX 5 1 3 2 2 3 1 4 22 5 20 6 19 7 17 8 16 9 15 10 14 11 6 12
REMARK SMILES IDX 8 13 7 14 9 15 11 16 12 17 10 18 13 20 4 22 21 24 18 26
REMARK H PARENT 10 19 13 21 4 23 21 25 18 27
REMARK Flexibility Score: inf
ROOT
ATOM      1  C   UNL     1      35.236  50.062  16.927  1.00  0.00     0.184 A 
ATOM      2  C   UNL     1      35.918  48.832  16.991  1.00  0.00     0.208 A 
ATOM      3  C   UNL     1      37.163  48.780  17.635  1.00  0.00     0.238 A 
ATOM      4  O   UNL     1      37.788  47.685  17.691  1.00  0.00    -0.285 OA
ATOM      5  C   UNL     1      37.697  49.948  18.217  1.00  0.00     0.111 A 
ATOM      6  C   UNL     1      38.944  49.979  18.888  1.00  0.00     0.134 A 
ATOM      7  C   UNL     1      39.402  51.182  19.446  1.00  0.00     0.093 A 
ATOM      8  C   UNL     1      38.639  52.351  19.347  1.00  0.00     0.123 A 
ATOM      9  C   UNL     1      37.410  52.324  18.687  1.00  0.00     0.094 A 
ATOM     10  C   UNL     1      36.936  51.137  18.122  1.00  0.00     0.146 A 
ATOM     11  O   UNL     1      35.764  51.141  17.495  1.00  0.00    -0.451 OA
ENDROOT
BRANCH   1  12
ATOM     12  C   UNL     1      33.927  50.194  16.247  1.00  0.00     0.063 A 
ATOM     13  C   UNL     1      32.553  49.961  14.251  1.00  0.00     0.047 A 
ATOM     14  C   UNL     1      33.781  49.811  14.901  1.00  0.00     0.020 A 
ATOM     15  C   UNL     1      31.458  50.506  14.931  1.00  0.00     0.119 A 
ATOM     16  C   UNL     1      31.598  50.902  16.264  1.00  0.00     0.093 A 
ATOM     17  C   UNL     1      32.826  50.753  16.926  1.00  0.00     0.130 A 
BRANCH  15  18
ATOM     18  O   UNL     1      30.230  50.660  14.292  1.00  0.00    -0.508 OA
ATOM     19  H   UNL     1      30.059  51.426  13.652  1.00  0.00     0.293 HD
ENDBRANCH  15  18
BRANCH  17  20
ATOM     20  O   UNL     1      32.948  51.147  18.258  1.00  0.00    -0.507 OA
ATOM     21  H   UNL     1      32.255  50.897  18.953  1.00  0.00     0.293 HD
ENDBRANCH  17  20
ENDBRANCH   1  12
BRANCH   2  22
ATOM     22  O   UNL     1      35.347  47.682  16.442  1.00  0.00    -0.502 OA
ATOM     23  H   UNL     1      34.480  47.287  16.789  1.00  0.00     0.293 HD
ENDBRANCH   2  22
BRANCH   6  24
ATOM     24  O   UNL     1      39.726  48.831  19.002  1.00  0.00    -0.507 OA
ATOM     25  H   UNL     1      39.405  48.014  19.511  1.00  0.00     0.293 HD
ENDBRANCH   6  24
BRANCH   8  26
ATOM     26  O   UNL     1      39.095  53.544  19.904  1.00  0.00    -0.508 OA
ATOM     27  H   UNL     1      38.485  54.143  20.448  1.00  0.00     0.293 HD
ENDBRANCH   8  26
TORSDOF 6
ENDMDL
MODEL 2
REMARK VINA RESULT:    -5.641      2.285      8.059
REMARK INTER + INTRA:          -7.123
REMARK INTER:                  -7.017
REMARK INTRA:                  -0.106
REMARK UNBOUND:                -0.327
REMARK SMILES O=c1c(O)c(-c2ccc(O)cc2O)oc2cc(O)cc(O)c12
REMARK SMILES IDX 5 1 3 2 2 3 1 4 22 5 20 6 19 7 17 8 16 9 15 10 14 11 6 12
REMARK SMILES IDX 8 13 7 14 9 15 11 16 12 17 10 18 13 20 4 22 21 24 18 26
REMARK H PARENT 10 19 13 21 4 23 21 25 18 27
REMARK Flexibility Score: inf
ROOT
ATOM      1  C   UNL     1      32.585  50.492  15.524  1.00  0.00     0.184 A 
ATOM      2  C   UNL     1      31.620  51.184  16.280  1.00  0.00     0.208 A 
ATOM      3  C   UNL     1      30.388  51.495  15.684  1.00  0.00     0.238 A 
ATOM      4  O   UNL     1      29.518  52.121  16.349  1.00  0.00    -0.285 OA
ATOM      5  C   UNL     1      30.136  51.096  14.355  1.00  0.00     0.111 A 
ATOM      6  C   UNL     1      28.919  51.367  13.683  1.00  0.00     0.134 A 
ATOM      7  C   UNL     1      28.743  50.931  12.361  1.00  0.00     0.093 A 
ATOM      8  C   UNL     1      29.759  50.231  11.700  1.00  0.00     0.123 A 
ATOM      9  C   UNL     1      30.959  49.962  12.359  1.00  0.00     0.094 A 
ATOM     10  C   UNL     1      31.155  50.389  13.675  1.00  0.00     0.146 A 
ATOM     11  O   UNL     1      32.309  50.123  14.277  1.00  0.00    -0.451 OA
ENDROOT
BRANCH   1  12
ATOM     12  C   UNL     1      33.913  50.147  16.083  1.00  0.00     0.063 A 
ATOM     13  C   UNL     1      35.887  50.765  17.366  1.00  0.00     0.047 A 
ATOM     14  C   UNL     1      34.622  51.079  16.863  1.00  0.00     0.020 A 
ATOM     15  C   UNL     1      36.466  49.521  17.090  1.00  0.00     0.119 A 
ATOM     16  C   UNL     1      35.775  48.595  16.303  1.00  0.00     0.093 A 
ATOM     17  C   UNL     1      34.504  48.900  15.795  1.00  0.00     0.130 A 
BRANCH  15  18
ATOM     18  O   UNL     1      37.726  49.198  17.587  1.00  0.00    -0.508 OA
ATOM     19  H   UNL     1      37.856  48.445  18.251  1.00  0.00     0.293 HD
ENDBRANCH  15  18
BRANCH  17  20
ATOM     20  O   UNL     1      33.824  47.963  15.018  1.00  0.00    -0.507 OA
ATOM     21  H   UNL     1      33.433  47.120  15.421  1.00  0.00     0.293 HD
ENDBRANCH  17  20
ENDBRANCH   1  12
BRANCH   2  22
ATOM     22  O   UNL     1      31.881  51.529  17.607  1.00  0.00    -0.502 OA
ATOM     23  H   UNL     1      31.143  51.740  18.269  1.00  0.00     0.293 HD
ENDBRANCH   2  22
BRANCH   6  24
ATOM     24  O   UNL     1      27.889  52.063  14.315  1.00  0.00    -0.507 OA
ATOM     25  H   UNL     1      27.686  53.032  14.097  1.00  0.00     0.293 HD
ENDBRANCH   6  24
BRANCH   8  26
ATOM     26  O   UNL     1      29.582  49.797  10.388  1.00  0.00    -0.508 OA
ATOM     27  H   UNL     1      28.721  49.968   9.884  1.00  0.00     0.293 HD
ENDBRANCH   8  26
TORSDOF 6
ENDMDL
MODEL 3
REMARK VINA RESULT:    -5.454      1.702      7.319
REMARK INTER + INTRA:          -6.897
REMARK INTER:                  -6.534
REMARK INTRA:                  -0.363
REMARK UNBOUND:                -0.327
REMARK SMILES O=c1c(O)c(-c2ccc(O)cc2O)oc2cc(O)cc(O)c12
REMARK SMILES IDX 5 1 3 2 2 3 1 4 22 5 20 6 19 7 17 8 16 9 15 10 14 11 6 12
REMARK SMILES IDX 8 13 7 14 9 15 11 16 12 17 10 18 13 20 4 22 21 24 18 26
REMARK H PARENT 10 19 13 21 4 23 21 25 18 27
REMARK Flexibility Score: inf
ROOT
ATOM      1  C   UNL     1      33.839  50.304  16.621  1.00  0.00     0.184 A 
ATOM      2  C   UNL     1      32.855  50.870  17.453  1.00  0.00     0.208 A 
ATOM      3  C   UNL     1      31.598  51.171  16.907  1.00  0.00     0.238 A 
ATOM      4  O   UNL     1      30.710  51.686  17.641  1.00  0.00    -0.285 OA
ATOM      5  C   UNL     1      31.341  50.887  15.550  1.00  0.00     0.111 A 
ATOM      6  C   UNL     1      30.099  51.157  14.924  1.00  0.00     0.134 A 
ATOM      7  C   UNL     1      29.921  50.839  13.569  1.00  0.00     0.093 A 
ATOM      8  C   UNL     1      30.958  50.257  12.831  1.00  0.00     0.123 A 
ATOM      9  C   UNL     1      32.182  49.990  13.444  1.00  0.00     0.094 A 
ATOM     10  C   UNL     1      32.382  50.301  14.791  1.00  0.00     0.146 A 
ATOM     11  O   UNL     1      33.559  50.041  15.349  1.00  0.00    -0.451 OA
ENDROOT
BRANCH   1  12
ATOM     12  C   UNL     1      35.193  49.978  17.126  1.00  0.00     0.063 A 
ATOM     13  C   UNL     1      37.299  50.682  18.126  1.00  0.00     0.047 A 
ATOM     14  C   UNL     1      36.010  50.983  17.675  1.00  0.00     0.020 A 
ATOM     15  C   UNL     1      37.793  49.376  18.024  1.00  0.00     0.119 A 
ATOM     16  C   UNL     1      36.994  48.374  17.466  1.00  0.00     0.093 A 
ATOM     17  C   UNL     1      35.698  48.667  17.013  1.00  0.00     0.130 A 
BRANCH  15  18
ATOM     18  O   UNL     1      39.075  49.065  18.469  1.00  0.00    -0.508 OA
ATOM     19  H   UNL     1      39.748  49.789  18.692  1.00  0.00     0.293 HD
ENDBRANCH  15  18
BRANCH  17  20
ATOM     20  O   UNL     1      34.910  47.655  16.465  1.00  0.00    -0.507 OA
ATOM     21  H   UNL     1      34.257  47.839  15.713  1.00  0.00     0.293 HD
ENDBRANCH  17  20
ENDBRANCH   1  12
BRANCH   2  22
ATOM     22  O   UNL     1      33.123  51.102  18.804  1.00  0.00    -0.502 OA
ATOM     23  H   UNL     1      32.417  51.436  19.448  1.00  0.00     0.293 HD
ENDBRANCH   2  22
BRANCH   6  24
ATOM     24  O   UNL     1      29.047  51.735  15.635  1.00  0.00    -0.507 OA
ATOM     25  H   UNL     1      29.133  51.971  16.617  1.00  0.00     0.293 HD
ENDBRANCH   6  24
BRANCH   8  26
ATOM     26  O   UNL     1      30.779  49.940  11.486  1.00  0.00    -0.508 OA
ATOM     27  H   UNL     1      30.746  48.979  11.167  1.00  0.00     0.293 HD
ENDBRANCH   8  26
TORSDOF 6
ENDMDL
MODEL 4
REMARK VINA RESULT:    -5.377      2.289      3.354
REMARK INTER + INTRA:          -6.805
REMARK INTER:                  -6.722
REMARK INTRA:                  -0.082
REMARK UNBOUND:                -0.327
REMARK SMILES O=c1c(O)c(-c2ccc(O)cc2O)oc2cc(O)cc(O)c12
REMARK SMILES IDX 5 1 3 2 2 3 1 4 22 5 20 6 19 7 17 8 16 9 15 10 14 11 6 12
REMARK SMILES IDX 8 13 7 14 9 15 11 16 12 17 10 18 13 20 4 22 21 24 18 26
REMARK H PARENT 10 19 13 21 4 23 21 25 18 27
REMARK Flexibility Score: inf
ROOT
ATOM      1  C   UNL     1      32.899  50.564  16.148  1.00  0.00     0.184 A 
ATOM      2  C   UNL     1      34.212  50.152  15.851  1.00  0.00     0.208 A 
ATOM      3  C   UNL     1      35.164  50.128  16.881  1.00  0.00     0.238 A 
ATOM      4  O   UNL     1      36.346  49.768  16.626  1.00  0.00    -0.285 OA
ATOM      5  C   UNL     1      34.787  50.498  18.188  1.00  0.00     0.111 A 
ATOM      6  C   UNL     1      35.685  50.498  19.283  1.00  0.00     0.134 A 
ATOM      7  C   UNL     1      35.230  50.875  20.555  1.00  0.00     0.093 A 
ATOM      8  C   UNL     1      33.896  51.250  20.753  1.00  0.00     0.123 A 
ATOM      9  C   UNL     1      33.008  51.252  19.677  1.00  0.00     0.094 A 
ATOM     10  C   UNL     1      33.441  50.882  18.401  1.00  0.00     0.146 A 
ATOM     11  O   UNL     1      32.576  50.897  17.394  1.00  0.00    -0.451 OA
ENDROOT
BRANCH   1  12
ATOM     12  C   UNL     1      31.848  50.631  15.106  1.00  0.00     0.063 A 
ATOM     13  C   UNL     1      30.758  49.688  13.144  1.00  0.00     0.047 A 
ATOM     14  C   UNL     1      31.732  49.611  14.144  1.00  0.00     0.020 A 
ATOM     15  C   UNL     1      29.896  50.788  13.084  1.00  0.00     0.119 A 
ATOM     16  C   UNL     1      30.013  51.814  14.027  1.00  0.00     0.093 A 
ATOM     17  C   UNL     1      30.986  51.744  15.036  1.00  0.00     0.130 A 
BRANCH  15  18
ATOM     18  O   UNL     1      28.922  50.874  12.092  1.00  0.00    -0.508 OA
ATOM     19  H   UNL     1      28.194  51.577  12.125  1.00  0.00     0.293 HD
ENDBRANCH  15  18
BRANCH  17  20
ATOM     20  O   UNL     1      31.087  52.771  15.974  1.00  0.00    -0.507 OA
ATOM     21  H   UNL     1      31.109  52.583  16.969  1.00  0.00     0.293 HD
ENDBRANCH  17  20
ENDBRANCH   1  12
BRANCH   2  22
ATOM     22  O   UNL     1      34.547  49.751  14.556  1.00  0.00    -0.502 OA
ATOM     23  H   UNL     1      34.914  48.829  14.351  1.00  0.00     0.293 HD
ENDBRANCH   2  22
BRANCH   6  24
ATOM     24  O   UNL     1      37.020  50.129  19.117  1.00  0.00    -0.507 OA
ATOM     25  H   UNL     1      37.741  50.811  18.910  1.00  0.00     0.293 HD
ENDBRANCH   6  24
BRANCH   8  26
ATOM     26  O   UNL     1      33.444  51.622  22.018  1.00  0.00    -0.508 OA
ATOM     27  H   UNL     1      33.675  52.523  22.420  1.00  0.00     0.293 HD
ENDBRANCH   8  26
TORSDOF 6
ENDMDL
MODEL 5
REMARK VINA RESULT:    -5.335      3.019      8.761
REMARK INTER + INTRA:          -6.754
REMARK INTER:                  -6.705
REMARK INTRA:                  -0.050
REMARK UNBOUND:                -0.327
REMARK SMILES O=c1c(O)c(-c2ccc(O)cc2O)oc2cc(O)cc(O)c12
REMARK SMILES IDX 5 1 3 2 2 3 1 4 22 5 20 6 19 7 17 8 16 9 15 10 14 11 6 12
REMARK SMILES IDX 8 13 7 14 9 15 11 16 12 17 10 18 13 20 4 22 21 24 18 26
REMARK H PARENT 10 19 13 21 4 23 21 25 18 27
REMARK Flexibility Score: inf
ROOT
ATOM      1  C   UNL     1      31.457  50.941  14.929  1.00  0.00     0.184 A 
ATOM      2  C   UNL     1      30.577  52.040  14.934  1.00  0.00     0.208 A 
ATOM      3  C   UNL     1      29.628  52.153  13.907  1.00  0.00     0.238 A 
ATOM      4  O   UNL     1      28.839  53.138  13.896  1.00  0.00    -0.285 OA
ATOM      5  C   UNL     1      29.562  51.163  12.906  1.00  0.00     0.111 A 
ATOM      6  C   UNL     1      28.632  51.200  11.838  1.00  0.00     0.134 A 
ATOM      7  C   UNL     1      28.627  50.171  10.885  1.00  0.00     0.093 A 
ATOM      8  C   UNL     1      29.532  49.107  10.979  1.00  0.00     0.123 A 
ATOM      9  C   UNL     1      30.449  49.066  12.029  1.00  0.00     0.094 A 
ATOM     10  C   UNL     1      30.473  50.082  12.988  1.00  0.00     0.146 A 
ATOM     11  O   UNL     1      31.360  50.021  13.975  1.00  0.00    -0.451 OA
ENDROOT
BRANCH   1  12
ATOM     12  C   UNL     1      32.495  50.769  15.971  1.00  0.00     0.063 A 
ATOM     13  C   UNL     1      33.199  50.932  18.296  1.00  0.00     0.047 A 
ATOM     14  C   UNL     1      32.212  51.067  17.316  1.00  0.00     0.020 A 
ATOM     15  C   UNL     1      34.486  50.507  17.945  1.00  0.00     0.119 A 
ATOM     16  C   UNL     1      34.781  50.223  16.608  1.00  0.00     0.093 A 
ATOM     17  C   UNL     1      33.795  50.354  15.618  1.00  0.00     0.130 A 
BRANCH  15  18
ATOM     18  O   UNL     1      35.477  50.369  18.913  1.00  0.00    -0.508 OA
ATOM     19  H   UNL     1      36.334  50.908  18.874  1.00  0.00     0.293 HD
ENDBRANCH  15  18
BRANCH  17  20
ATOM     20  O   UNL     1      34.103  50.059  14.290  1.00  0.00    -0.507 OA
ATOM     21  H   UNL     1      34.888  50.491  13.817  1.00  0.00     0.293 HD
ENDBRANCH  17  20
ENDBRANCH   1  12
BRANCH   2  22
ATOM     22  O   UNL     1      30.637  52.985  15.961  1.00  0.00    -0.502 OA
ATOM     23  H   UNL     1      30.321  52.784  16.902  1.00  0.00     0.293 HD
ENDBRANCH   2  22
BRANCH   6  24
ATOM     24  O   UNL     1      27.719  52.247  11.719  1.00  0.00    -0.507 OA
ATOM     25  H   UNL     1      27.111  52.336  10.912  1.00  0.00     0.293 HD
ENDBRANCH   6  24
BRANCH   8  26
ATOM     26  O   UNL     1      29.524  48.084  10.032  1.00  0.00    -0.508 OA
ATOM     27  H   UNL     1      30.325  47.906   9.438  1.00  0.00     0.293 HD
ENDBRANCH   8  26
TORSDOF 6
ENDMDL
MODEL 6
REMARK VINA RESULT:    -5.322      4.108      9.732
REMARK INTER + INTRA:          -6.738
REMARK INTER:                  -6.264
REMARK INTRA:                  -0.474
REMARK UNBOUND:                -0.327
REMARK SMILES O=c1c(O)c(-c2ccc(O)cc2O)oc2cc(O)cc(O)c12
REMARK SMILES IDX 5 1 3 2 2 3 1 4 22 5 20 6 19 7 17 8 16 9 15 10 14 11 6 12
REMARK SMILES IDX 8 13 7 14 9 15 11 16 12 17 10 18 13 20 4 22 21 24 18 26
REMARK H PARENT 10 19 13 21 4 23 21 25 18 27
REMARK Flexibility Score: inf
ROOT
ATOM      1  C   UNL     1      29.841  49.673  13.980  1.00  0.00     0.184 A 
ATOM      2  C   UNL     1      29.508  49.798  12.618  1.00  0.00     0.208 A 
ATOM      3  C   UNL     1      28.258  49.333  12.181  1.00  0.00     0.238 A 
ATOM      4  O   UNL     1      27.951  49.432  10.962  1.00  0.00    -0.285 OA
ATOM      5  C   UNL     1      27.360  48.768  13.110  1.00  0.00     0.111 A 
ATOM      6  C   UNL     1      26.080  48.279  12.752  1.00  0.00     0.134 A 
ATOM      7  C   UNL     1      25.242  47.737  13.738  1.00  0.00     0.093 A 
ATOM      8  C   UNL     1      25.659  47.676  15.073  1.00  0.00     0.123 A 
ATOM      9  C   UNL     1      26.919  48.157  15.430  1.00  0.00     0.094 A 
ATOM     10  C   UNL     1      27.770  48.698  14.463  1.00  0.00     0.146 A 
ATOM     11  O   UNL     1      28.966  49.145  14.830  1.00  0.00    -0.451 OA
ENDROOT
BRANCH   1  12
ATOM     12  C   UNL     1      31.149  50.126  14.508  1.00  0.00     0.063 A 
ATOM     13  C   UNL     1      33.549  49.803  14.759  1.00  0.00     0.047 A 
ATOM     14  C   UNL     1      32.319  49.392  14.238  1.00  0.00     0.020 A 
ATOM     15  C   UNL     1      33.626  50.945  15.564  1.00  0.00     0.119 A 
ATOM     16  C   UNL     1      32.467  51.673  15.849  1.00  0.00     0.093 A 
ATOM     17  C   UNL     1      31.228  51.269  15.329  1.00  0.00     0.130 A 
BRANCH  15  18
ATOM     18  O   UNL     1      34.847  51.364  16.088  1.00  0.00    -0.508 OA
ATOM     19  H   UNL     1      35.602  50.710  16.258  1.00  0.00     0.293 HD
ENDBRANCH  15  18
BRANCH  17  20
ATOM     20  O   UNL     1      30.081  52.008  15.616  1.00  0.00    -0.507 OA
ATOM     21  H   UNL     1      29.962  52.482  16.504  1.00  0.00     0.293 HD
ENDBRANCH  17  20
ENDBRANCH   1  12
BRANCH   2  22
ATOM     22  O   UNL     1      30.400  50.399  11.728  1.00  0.00    -0.502 OA
ATOM     23  H   UNL     1      31.344  50.652  11.994  1.00  0.00     0.293 HD
ENDBRANCH   2  22
BRANCH   6  24
ATOM     24  O   UNL     1      25.638  48.327  11.430  1.00  0.00    -0.507 OA
ATOM     25  H   UNL     1      24.787  47.861  11.134  1.00  0.00     0.293 HD
ENDBRANCH   6  24
BRANCH   8  26
ATOM     26  O   UNL     1      24.825  47.139  16.051  1.00  0.00    -0.508 OA
ATOM     27  H   UNL     1      24.108  46.460  15.824  1.00  0.00     0.293 HD
ENDBRANCH   8  26
TORSDOF 6
ENDMDL
MODEL 7
REMARK VINA RESULT:    -5.314      3.976      8.773
REMARK INTER + INTRA:          -6.729
REMARK INTER:                  -6.411
REMARK INTRA:                  -0.317
REMARK UNBOUND:                -0.327
REMARK SMILES O=c1c(O)c(-c2ccc(O)cc2O)oc2cc(O)cc(O)c12
REMARK SMILES IDX 5 1 3 2 2 3 1 4 22 5 20 6 19 7 17 8 16 9 15 10 14 11 6 12
REMARK SMILES IDX 8 13 7 14 9 15 11 16 12 17 10 18 13 20 4 22 21 24 18 26
REMARK H PARENT 10 19 13 21 4 23 21 25 18 27
REMARK Flexibility Score: inf
ROOT
ATOM      1  C   UNL     1      29.877  51.341  16.534  1.00  0.00     0.184 A 
ATOM      2  C   UNL     1      29.112  52.273  15.807  1.00  0.00     0.208 A 
ATOM      3  C   UNL     1      27.852  52.646  16.301  1.00  0.00     0.238 A 
ATOM      4  O   UNL     1      27.153  53.474  15.655  1.00  0.00    -0.285 OA
ATOM      5  C   UNL     1      27.388  52.098  17.514  1.00  0.00     0.111 A 
ATOM      6  C   UNL     1      26.132  52.425  18.082  1.00  0.00     0.134 A 
ATOM      7  C   UNL     1      25.746  51.840  19.297  1.00  0.00     0.093 A 
ATOM      8  C   UNL     1      26.589  50.937  19.954  1.00  0.00     0.123 A 
ATOM      9  C   UNL     1      27.827  50.613  19.399  1.00  0.00     0.094 A 
ATOM     10  C   UNL     1      28.231  51.182  18.188  1.00  0.00     0.146 A 
ATOM     11  O   UNL     1      29.413  50.852  17.679  1.00  0.00    -0.451 OA
ENDROOT
BRANCH   1  12
ATOM     12  C   UNL     1      31.207  50.888  16.062  1.00  0.00     0.063 A 
ATOM     13  C   UNL     1      32.605  49.878  14.345  1.00  0.00     0.047 A 
ATOM     14  C   UNL     1      31.357  50.331  14.779  1.00  0.00     0.020 A 
ATOM     15  C   UNL     1      33.718  49.963  15.189  1.00  0.00     0.119 A 
ATOM     16  C   UNL     1      33.576  50.502  16.471  1.00  0.00     0.093 A 
ATOM     17  C   UNL     1      32.327  50.962  16.915  1.00  0.00     0.130 A 
BRANCH  15  18
ATOM     18  O   UNL     1      34.967  49.515  14.766  1.00  0.00    -0.508 OA
ATOM     19  H   UNL     1      35.084  48.608  14.330  1.00  0.00     0.293 HD
ENDBRANCH  15  18
BRANCH  17  20
ATOM     20  O   UNL     1      32.201  51.503  18.194  1.00  0.00    -0.507 OA
ATOM     21  H   UNL     1      31.311  51.834  18.547  1.00  0.00     0.293 HD
ENDBRANCH  17  20
ENDBRANCH   1  12
BRANCH   2  22
ATOM     22  O   UNL     1      29.614  52.831  14.630  1.00  0.00    -0.502 OA
ATOM     23  H   UNL     1      29.705  53.832  14.499  1.00  0.00     0.293 HD
ENDBRANCH   2  22
BRANCH   6  24
ATOM     24  O   UNL     1      25.271  53.321  17.450  1.00  0.00    -0.507 OA
ATOM     25  H   UNL     1      24.271  53.312  17.622  1.00  0.00     0.293 HD
ENDBRANCH   6  24
BRANCH   8  26
ATOM     26  O   UNL     1      26.205  50.358  21.162  1.00  0.00    -0.508 OA
ATOM     27  H   UNL     1      26.838  50.309  21.952  1.00  0.00     0.293 HD
ENDBRANCH   8  26
TORSDOF 6
ENDMDL
MODEL 8
REMARK VINA RESULT:    -5.247      4.413     10.042
REMARK INTER + INTRA:          -6.647
REMARK INTER:                  -6.367
REMARK INTRA:                  -0.280
REMARK UNBOUND:                -0.327
REMARK SMILES O=c1c(O)c(-c2ccc(O)cc2O)oc2cc(O)cc(O)c12
REMARK SMILES IDX 5 1 3 2 2 3 1 4 22 5 20 6 19 7 17 8 16 9 15 10 14 11 6 12
REMARK SMILES IDX 8 13 7 14 9 15 11 16 12 17 10 18 13 20 4 22 21 24 18 26
REMARK H PARENT 10 19 13 21 4 23 21 25 18 27
REMARK Flexibility Score: inf
ROOT
ATOM      1  C   UNL     1      29.346  51.206  14.261  1.00  0.00     0.184 A 
ATOM      2  C   UNL     1      28.390  51.098  15.288  1.00  0.00     0.208 A 
ATOM      3  C   UNL     1      27.065  51.475  15.023  1.00  0.00     0.238 A 
ATOM      4  O   UNL     1      26.200  51.391  15.938  1.00  0.00    -0.285 OA
ATOM      5  C   UNL     1      26.715  51.936  13.737  1.00  0.00     0.111 A 
ATOM      6  C   UNL     1      25.401  52.333  13.387  1.00  0.00     0.134 A 
ATOM      7  C   UNL     1      25.133  52.774  12.083  1.00  0.00     0.093 A 
ATOM      8  C   UNL     1      26.151  52.826  11.124  1.00  0.00     0.123 A 
ATOM      9  C   UNL     1      27.447  52.437  11.464  1.00  0.00     0.094 A 
ATOM     10  C   UNL     1      27.736  51.996  12.759  1.00  0.00     0.146 A 
ATOM     11  O   UNL     1      28.979  51.635  13.057  1.00  0.00    -0.451 OA
ENDROOT
BRANCH   1  12
ATOM     12  C   UNL     1      30.766  50.843  14.476  1.00  0.00     0.063 A 
ATOM     13  C   UNL     1      32.641  49.338  14.093  1.00  0.00     0.047 A 
ATOM     14  C   UNL     1      31.309  49.696  13.868  1.00  0.00     0.020 A 
ATOM     15  C   UNL     1      33.446  50.112  14.936  1.00  0.00     0.119 A 
ATOM     16  C   UNL     1      32.911  51.245  15.556  1.00  0.00     0.093 A 
ATOM     17  C   UNL     1      31.576  51.615  15.334  1.00  0.00     0.130 A 
BRANCH  15  18
ATOM     18  O   UNL     1      34.774  49.764  15.167  1.00  0.00    -0.508 OA
ATOM     19  H   UNL     1      35.537  50.279  14.746  1.00  0.00     0.293 HD
ENDBRANCH  15  18
BRANCH  17  20
ATOM     20  O   UNL     1      31.058  52.751  15.954  1.00  0.00    -0.507 OA
ATOM     21  H   UNL     1      31.089  53.661  15.509  1.00  0.00     0.293 HD
ENDBRANCH  17  20
ENDBRANCH   1  12
BRANCH   2  22
ATOM     22  O   UNL     1      28.756  50.599  16.540  1.00  0.00    -0.502 OA
ATOM     23  H   UNL     1      28.106  50.551  17.316  1.00  0.00     0.293 HD
ENDBRANCH   2  22
BRANCH   6  24
ATOM     24  O   UNL     1      24.366  52.291  14.321  1.00  0.00    -0.507 OA
ATOM     25  H   UNL     1      24.151  51.449  14.843  1.00  0.00     0.293 HD
ENDBRANCH   6  24
BRANCH   8  26
ATOM     26  O   UNL     1      25.883  53.263   9.828  1.00  0.00    -0.508 OA
ATOM     27  H   UNL     1      26.624  53.570   9.208  1.00  0.00     0.293 HD
ENDBRANCH   8  26
TORSDOF 6
ENDMDL
MODEL 9
REMARK VINA RESULT:    -5.168      4.417      8.086
REMARK INTER + INTRA:          -6.553
REMARK INTER:                  -6.095
REMARK INTRA:                  -0.458
REMARK UNBOUND:                -0.327
REMARK SMILES O=c1c(O)c(-c2ccc(O)cc2O)oc2cc(O)cc(O)c12
REMARK SMILES IDX 5 1 3 2 2 3 1 4 22 5 20 6 19 7 17 8 16 9 15 10 14 11 6 12
REMARK SMILES IDX 8 13 7 14 9 15 11 16 12 17 10 18 13 20 4 22 21 24 18 26
REMARK H PARENT 10 19 13 21 4 23 21 25 18 27
REMARK Flexibility Score: inf
ROOT
ATOM      1  C   UNL     1      29.281  49.300  12.764  1.00  0.00     0.184 A 
ATOM      2  C   UNL     1      28.655  50.463  13.252  1.00  0.00     0.208 A 
ATOM      3  C   UNL     1      29.370  51.304  14.120  1.00  0.00     0.238 A 
ATOM      4  O   UNL     1      28.817  52.345  14.570  1.00  0.00    -0.285 OA
ATOM      5  C   UNL     1      30.696  50.979  14.470  1.00  0.00     0.111 A 
ATOM      6  C   UNL     1      31.486  51.775  15.335  1.00  0.00     0.134 A 
ATOM      7  C   UNL     1      32.801  51.386  15.630  1.00  0.00     0.093 A 
ATOM      8  C   UNL     1      33.341  50.219  15.076  1.00  0.00     0.123 A 
ATOM      9  C   UNL     1      32.566  49.432  14.224  1.00  0.00     0.094 A 
ATOM     10  C   UNL     1      31.253  49.800  13.919  1.00  0.00     0.146 A 
ATOM     11  O   UNL     1      30.536  49.030  13.108  1.00  0.00    -0.451 OA
ENDROOT
BRANCH   1  12
ATOM     12  C   UNL     1      28.580  48.359  11.861  1.00  0.00     0.063 A 
ATOM     13  C   UNL     1      26.874  46.661  11.492  1.00  0.00     0.047 A 
ATOM     14  C   UNL     1      27.517  47.570  12.337  1.00  0.00     0.020 A 
ATOM     15  C   UNL     1      27.290  46.520  10.164  1.00  0.00     0.119 A 
ATOM     16  C   UNL     1      28.355  47.289   9.685  1.00  0.00     0.093 A 
ATOM     17  C   UNL     1      29.005  48.205  10.525  1.00  0.00     0.130 A 
BRANCH  15  18
ATOM     18  O   UNL     1      26.656  45.617   9.313  1.00  0.00    -0.508 OA
ATOM     19  H   UNL     1      27.135  45.214   8.518  1.00  0.00     0.293 HD
ENDBRANCH  15  18
BRANCH  17  20
ATOM     20  O   UNL     1      30.061  48.971  10.032  1.00  0.00    -0.507 OA
ATOM     21  H   UNL     1      30.164  49.950  10.268  1.00  0.00     0.293 HD
ENDBRANCH  17  20
ENDBRANCH   1  12
BRANCH   2  22
ATOM     22  O   UNL     1      27.355  50.782  12.856  1.00  0.00    -0.502 OA
ATOM     23  H   UNL     1      26.568  50.167  13.029  1.00  0.00     0.293 HD
ENDBRANCH   2  22
BRANCH   6  24
ATOM     24  O   UNL     1      30.976  52.943  15.901  1.00  0.00    -0.507 OA
ATOM     25  H   UNL     1      31.540  53.537  16.498  1.00  0.00     0.293 HD
ENDBRANCH   6  24
BRANCH   8  26
ATOM     26  O   UNL     1      34.648  49.834  15.368  1.00  0.00    -0.508 OA
ATOM     27  H   UNL     1      35.096  50.094  16.239  1.00  0.00     0.293 HD
ENDBRANCH   8  26
TORSDOF 6
ENDMDL
