MODEL 1
REMARK VINA RESULT:    -6.444      0.000      0.000
REMARK INTER + INTRA:          -7.132
REMARK INTER:                  -7.009
REMARK INTRA:                  -0.123
REMARK UNBOUND:                -0.123
REMARK SMILES CC(=O)[C@@H]1CC[C@@H]2[C@@H]3CC=C4C[C@H](O)CC[C@@]4(C)[C@@H]3CC[C@]21C
REMARK SMILES IDX 4 1 5 2 6 3 7 4 22 5 21 6 20 7 19 8 8 9 9 10 10 11 11 12
REMARK SMILES IDX 17 13 16 14 15 15 13 16 12 17 18 18 23 19 2 20 1 21 3 22
REMARK SMILES IDX 14 23
REMARK H PARENT 14 24
REMARK Flexibility Score: inf
ROOT
ATOM      1  C   UNL     1       7.701 -21.119 -36.427  1.00  0.00     0.062 C 
ATOM      2  C   UNL     1       8.316 -21.337 -35.017  1.00  0.00     0.012 C 
ATOM      3  C   UNL     1       9.732 -21.909 -35.242  1.00  0.00     0.005 C 
ATOM      4  C   UNL     1       9.823 -22.067 -36.754  1.00  0.00    -0.001 C 
ATOM      5  C   UNL     1       8.941 -20.952 -37.347  1.00  0.00    -0.020 C 
ATOM      6  C   UNL     1       8.707 -21.282 -38.840  1.00  0.00     0.008 C 
ATOM      7  C   UNL     1      10.042 -21.516 -39.600  1.00  0.00     0.005 C 
ATOM      8  C   UNL     1      10.942 -22.619 -38.947  1.00  0.00     0.003 C 
ATOM      9  C   UNL     1      11.184 -22.327 -37.438  1.00  0.00     0.000 C 
ATOM     10  C   UNL     1      12.242 -21.231 -37.259  1.00  0.00     0.031 C 
ATOM     11  C   UNL     1      13.517 -21.634 -37.919  1.00  0.00    -0.027 C 
ATOM     12  C   UNL     1      13.556 -22.356 -39.059  1.00  0.00    -0.065 C 
ATOM     13  C   UNL     1      12.300 -22.977 -39.706  1.00  0.00    -0.008 C 
ATOM     14  C   UNL     1      12.488 -24.529 -39.645  1.00  0.00     0.014 C 
ATOM     15  C   UNL     1      13.848 -25.030 -40.171  1.00  0.00     0.033 C 
ATOM     16  C   UNL     1      15.024 -24.325 -39.469  1.00  0.00     0.118 C 
ATOM     17  C   UNL     1      14.909 -22.797 -39.582  1.00  0.00     0.063 C 
ATOM     18  C   UNL     1      12.234 -22.544 -41.196  1.00  0.00     0.016 C 
ATOM     19  C   UNL     1       9.512 -19.503 -37.194  1.00  0.00     0.012 C 
ENDROOT
BRANCH   1  20
ATOM     20  C   UNL     1       6.642 -20.034 -36.537  1.00  0.00     0.133 C 
ATOM     21  C   UNL     1       5.644 -19.981 -37.659  1.00  0.00     0.088 C 
ATOM     22  O   UNL     1       6.608 -19.160 -35.683  1.00  0.00    -0.300 OA
ENDBRANCH   1  20
BRANCH  16  23
ATOM     23  O   UNL     1      16.251 -24.771 -39.987  1.00  0.00    -0.393 OA
ATOM     24  H   UNL     1      16.638 -25.412 -39.335  1.00  0.00     0.210 HD
ENDBRANCH  16  23
TORSDOF 2
ENDMDL
MODEL 2
REMARK VINA RESULT:    -6.269      2.746      8.281
REMARK INTER + INTRA:          -6.942
REMARK INTER:                  -6.814
REMARK INTRA:                  -0.128
REMARK UNBOUND:                -0.123
REMARK SMILES CC(=O)[C@@H]1CC[C@@H]2[C@@H]3CC=C4C[C@H](O)CC[C@@]4(C)[C@@H]3CC[C@]21C
REMARK SMILES IDX 4 1 5 2 6 3 7 4 22 5 21 6 20 7 19 8 8 9 9 10 10 11 11 12
REMARK SMILES IDX 17 13 16 14 15 15 13 16 12 17 18 18 23 19 2 20 1 21 3 22
REMARK SMILES IDX 14 23
REMARK H PARENT 14 24
REMARK Flexibility Score: inf
ROOT
ATOM      1  C   UNL     1      10.222 -21.698 -36.350  1.00  0.00     0.062 C 
ATOM      2  C   UNL     1       9.422 -22.847 -35.675  1.00  0.00     0.012 C 
ATOM      3  C   UNL     1       7.962 -22.360 -35.568  1.00  0.00     0.005 C 
ATOM      4  C   UNL     1       8.016 -20.935 -36.104  1.00  0.00    -0.001 C 
ATOM      5  C   UNL     1       9.143 -20.924 -37.155  1.00  0.00    -0.020 C 
ATOM      6  C   UNL     1       9.482 -19.446 -37.465  1.00  0.00     0.008 C 
ATOM      7  C   UNL     1       8.220 -18.633 -37.869  1.00  0.00     0.005 C 
ATOM      8  C   UNL     1       7.071 -18.703 -36.806  1.00  0.00     0.003 C 
ATOM      9  C   UNL     1       6.717 -20.177 -36.458  1.00  0.00     0.000 C 
ATOM     10  C   UNL     1       5.856 -20.805 -37.561  1.00  0.00     0.031 C 
ATOM     11  C   UNL     1       4.612 -20.006 -37.761  1.00  0.00    -0.027 C 
ATOM     12  C   UNL     1       4.575 -18.664 -37.632  1.00  0.00    -0.065 C 
ATOM     13  C   UNL     1       5.766 -17.835 -37.106  1.00  0.00    -0.008 C 
ATOM     14  C   UNL     1       5.300 -17.190 -35.758  1.00  0.00     0.014 C 
ATOM     15  C   UNL     1       3.941 -16.466 -35.832  1.00  0.00     0.033 C 
ATOM     16  C   UNL     1       2.837 -17.383 -36.391  1.00  0.00     0.118 C 
ATOM     17  C   UNL     1       3.233 -17.969 -37.755  1.00  0.00     0.063 C 
ATOM     18  C   UNL     1       6.075 -16.698 -38.118  1.00  0.00     0.016 C 
ATOM     19  C   UNL     1       8.824 -21.697 -38.478  1.00  0.00     0.012 C 
ENDROOT
BRANCH   1  20
ATOM     20  C   UNL     1      11.461 -22.110 -37.127  1.00  0.00     0.133 C 
ATOM     21  C   UNL     1      12.556 -21.144 -37.483  1.00  0.00     0.088 C 
ATOM     22  O   UNL     1      11.568 -23.272 -37.489  1.00  0.00    -0.300 OA
ENDBRANCH   1  20
BRANCH  16  23
ATOM     23  O   UNL     1       1.617 -16.693 -36.481  1.00  0.00    -0.393 OA
ATOM     24  H   UNL     1       1.821 -15.722 -36.510  1.00  0.00     0.210 HD
ENDBRANCH  16  23
TORSDOF 2
ENDMDL
MODEL 3
REMARK VINA RESULT:    -5.908      3.892      6.811
REMARK INTER + INTRA:          -6.549
REMARK INTER:                  -6.412
REMARK INTRA:                  -0.137
REMARK UNBOUND:                -0.123
REMARK SMILES CC(=O)[C@@H]1CC[C@@H]2[C@@H]3CC=C4C[C@H](O)CC[C@@]4(C)[C@@H]3CC[C@]21C
REMARK SMILES IDX 4 1 5 2 6 3 7 4 22 5 21 6 20 7 19 8 8 9 9 10 10 11 11 12
REMARK SMILES IDX 17 13 16 14 15 15 13 16 12 17 18 18 23 19 2 20 1 21 3 22
REMARK SMILES IDX 14 23
REMARK H PARENT 14 24
REMARK Flexibility Score: inf
ROOT
ATOM      1  C   UNL     1       3.425 -15.379 -36.345  1.00  0.00     0.062 C 
ATOM      2  C   UNL     1       4.426 -14.242 -35.999  1.00  0.00     0.012 C 
ATOM      3  C   UNL     1       5.829 -14.884 -35.981  1.00  0.00     0.005 C 
ATOM      4  C   UNL     1       5.553 -16.360 -36.231  1.00  0.00    -0.001 C 
ATOM      5  C   UNL     1       4.294 -16.410 -37.116  1.00  0.00    -0.020 C 
ATOM      6  C   UNL     1       3.765 -17.863 -37.101  1.00  0.00     0.008 C 
ATOM      7  C   UNL     1       4.866 -18.887 -37.496  1.00  0.00     0.005 C 
ATOM      8  C   UNL     1       6.156 -18.781 -36.613  1.00  0.00     0.003 C 
ATOM      9  C   UNL     1       6.705 -17.326 -36.592  1.00  0.00     0.000 C 
ATOM     10  C   UNL     1       7.460 -17.011 -37.889  1.00  0.00     0.031 C 
ATOM     11  C   UNL     1       8.574 -17.982 -38.086  1.00  0.00    -0.027 C 
ATOM     12  C   UNL     1       8.492 -19.277 -37.713  1.00  0.00    -0.065 C 
ATOM     13  C   UNL     1       7.309 -19.846 -36.901  1.00  0.00    -0.008 C 
ATOM     14  C   UNL     1       7.893 -20.303 -35.524  1.00  0.00     0.014 C 
ATOM     15  C   UNL     1       9.147 -21.196 -35.625  1.00  0.00     0.033 C 
ATOM     16  C   UNL     1      10.248 -20.534 -36.475  1.00  0.00     0.118 C 
ATOM     17  C   UNL     1       9.725 -20.145 -37.866  1.00  0.00     0.063 C 
ATOM     18  C   UNL     1       6.745 -21.091 -37.638  1.00  0.00     0.016 C 
ATOM     19  C   UNL     1       4.499 -15.921 -38.589  1.00  0.00     0.012 C 
ENDROOT
BRANCH   1  20
ATOM     20  C   UNL     1       2.136 -14.953 -37.030  1.00  0.00     0.133 C 
ATOM     21  C   UNL     1       0.930 -15.845 -37.119  1.00  0.00     0.088 C 
ATOM     22  O   UNL     1       2.081 -13.844 -37.539  1.00  0.00    -0.300 OA
ENDBRANCH   1  20
BRANCH  16  23
ATOM     23  O   UNL     1      11.366 -21.378 -36.582  1.00  0.00    -0.393 OA
ATOM     24  H   UNL     1      11.997 -20.962 -37.227  1.00  0.00     0.210 HD
ENDBRANCH  16  23
TORSDOF 2
ENDMDL
MODEL 4
REMARK VINA RESULT:    -5.782      2.525      4.406
REMARK INTER + INTRA:          -6.411
REMARK INTER:                  -6.245
REMARK INTRA:                  -0.167
REMARK UNBOUND:                -0.123
REMARK SMILES CC(=O)[C@@H]1CC[C@@H]2[C@@H]3CC=C4C[C@H](O)CC[C@@]4(C)[C@@H]3CC[C@]21C
REMARK SMILES IDX 4 1 5 2 6 3 7 4 22 5 21 6 20 7 19 8 8 9 9 10 10 11 11 12
REMARK SMILES IDX 17 13 16 14 15 15 13 16 12 17 18 18 23 19 2 20 1 21 3 22
REMARK SMILES IDX 14 23
REMARK H PARENT 14 24
REMARK Flexibility Score: inf
ROOT
ATOM      1  C   UNL     1       5.331 -18.021 -38.151  1.00  0.00     0.062 C 
ATOM      2  C   UNL     1       4.149 -19.024 -38.054  1.00  0.00     0.012 C 
ATOM      3  C   UNL     1       4.776 -20.427 -37.912  1.00  0.00     0.005 C 
ATOM      4  C   UNL     1       6.272 -20.166 -38.020  1.00  0.00    -0.001 C 
ATOM      5  C   UNL     1       6.497 -18.758 -37.438  1.00  0.00    -0.020 C 
ATOM      6  C   UNL     1       7.918 -18.301 -37.847  1.00  0.00     0.008 C 
ATOM      7  C   UNL     1       9.001 -19.341 -37.446  1.00  0.00     0.005 C 
ATOM      8  C   UNL     1       8.721 -20.776 -38.009  1.00  0.00     0.003 C 
ATOM      9  C   UNL     1       7.292 -21.259 -37.630  1.00  0.00     0.000 C 
ATOM     10  C   UNL     1       7.246 -21.727 -36.170  1.00  0.00     0.031 C 
ATOM     11  C   UNL     1       8.239 -22.817 -35.946  1.00  0.00    -0.027 C 
ATOM     12  C   UNL     1       9.431 -22.862 -36.576  1.00  0.00    -0.065 C 
ATOM     13  C   UNL     1       9.824 -21.890 -37.708  1.00  0.00    -0.008 C 
ATOM     14  C   UNL     1       9.995 -22.755 -39.000  1.00  0.00     0.014 C 
ATOM     15  C   UNL     1      10.891 -23.997 -38.824  1.00  0.00     0.033 C 
ATOM     16  C   UNL     1      10.416 -24.879 -37.653  1.00  0.00     0.118 C 
ATOM     17  C   UNL     1      10.315 -24.073 -36.349  1.00  0.00     0.063 C 
ATOM     18  C   UNL     1      11.191 -21.240 -37.362  1.00  0.00     0.016 C 
ATOM     19  C   UNL     1       6.316 -18.645 -35.887  1.00  0.00     0.012 C 
ENDROOT
BRANCH   1  20
ATOM     20  C   UNL     1       5.050 -16.605 -37.673  1.00  0.00     0.133 C 
ATOM     21  C   UNL     1       3.821 -16.240 -36.889  1.00  0.00     0.088 C 
ATOM     22  O   UNL     1       5.851 -15.724 -37.946  1.00  0.00    -0.300 OA
ENDBRANCH   1  20
BRANCH  16  23
ATOM     23  O   UNL     1      11.266 -25.986 -37.489  1.00  0.00    -0.393 OA
ATOM     24  H   UNL     1      10.825 -26.614 -36.859  1.00  0.00     0.210 HD
ENDBRANCH  16  23
TORSDOF 2
ENDMDL
MODEL 5
REMARK VINA RESULT:    -5.732      2.427      6.927
REMARK INTER + INTRA:          -6.357
REMARK INTER:                  -6.247
REMARK INTRA:                  -0.110
REMARK UNBOUND:                -0.123
REMARK SMILES CC(=O)[C@@H]1CC[C@@H]2[C@@H]3CC=C4C[C@H](O)CC[C@@]4(C)[C@@H]3CC[C@]21C
REMARK SMILES IDX 4 1 5 2 6 3 7 4 22 5 21 6 20 7 19 8 8 9 9 10 10 11 11 12
REMARK SMILES IDX 17 13 16 14 15 15 13 16 12 17 18 18 23 19 2 20 1 21 3 22
REMARK SMILES IDX 14 23
REMARK H PARENT 14 24
REMARK Flexibility Score: inf
ROOT
ATOM      1  C   UNL     1      15.446 -20.341 -41.166  1.00  0.00     0.062 C 
ATOM      2  C   UNL     1      16.466 -21.154 -40.321  1.00  0.00     0.012 C 
ATOM      3  C   UNL     1      15.690 -21.697 -39.103  1.00  0.00     0.005 C 
ATOM      4  C   UNL     1      14.298 -21.101 -39.267  1.00  0.00    -0.001 C 
ATOM      5  C   UNL     1      14.075 -20.963 -40.784  1.00  0.00    -0.020 C 
ATOM      6  C   UNL     1      12.849 -20.043 -40.998  1.00  0.00     0.008 C 
ATOM      7  C   UNL     1      11.605 -20.541 -40.210  1.00  0.00     0.005 C 
ATOM      8  C   UNL     1      11.874 -20.722 -38.678  1.00  0.00     0.003 C 
ATOM      9  C   UNL     1      13.112 -21.629 -38.427  1.00  0.00     0.000 C 
ATOM     10  C   UNL     1      12.755 -23.106 -38.630  1.00  0.00     0.031 C 
ATOM     11  C   UNL     1      11.636 -23.494 -37.722  1.00  0.00    -0.027 C 
ATOM     12  C   UNL     1      10.635 -22.652 -37.392  1.00  0.00    -0.065 C 
ATOM     13  C   UNL     1      10.628 -21.159 -37.780  1.00  0.00    -0.008 C 
ATOM     14  C   UNL     1      10.695 -20.350 -36.443  1.00  0.00     0.014 C 
ATOM     15  C   UNL     1       9.666 -20.785 -35.380  1.00  0.00     0.033 C 
ATOM     16  C   UNL     1       9.753 -22.296 -35.091  1.00  0.00     0.118 C 
ATOM     17  C   UNL     1       9.610 -23.122 -36.378  1.00  0.00     0.063 C 
ATOM     18  C   UNL     1       9.287 -20.830 -38.492  1.00  0.00     0.016 C 
ATOM     19  C   UNL     1      13.882 -22.313 -41.552  1.00  0.00     0.012 C 
ENDROOT
BRANCH   1  20
ATOM     20  C   UNL     1      15.738 -20.241 -42.655  1.00  0.00     0.133 C 
ATOM     21  C   UNL     1      14.919 -19.395 -43.589  1.00  0.00     0.088 C 
ATOM     22  O   UNL     1      16.669 -20.884 -43.115  1.00  0.00    -0.300 OA
ENDBRANCH   1  20
BRANCH  16  23
ATOM     23  O   UNL     1       8.786 -22.677 -34.146  1.00  0.00    -0.393 OA
ATOM     24  H   UNL     1       7.916 -22.290 -34.431  1.00  0.00     0.210 HD
ENDBRANCH  16  23
TORSDOF 2
ENDMDL
MODEL 6
REMARK VINA RESULT:    -5.599      3.570      5.861
REMARK INTER + INTRA:          -6.212
REMARK INTER:                  -6.075
REMARK INTRA:                  -0.137
REMARK UNBOUND:                -0.123
REMARK SMILES CC(=O)[C@@H]1CC[C@@H]2[C@@H]3CC=C4C[C@H](O)CC[C@@]4(C)[C@@H]3CC[C@]21C
REMARK SMILES IDX 4 1 5 2 6 3 7 4 22 5 21 6 20 7 19 8 8 9 9 10 10 11 11 12
REMARK SMILES IDX 17 13 16 14 15 15 13 16 12 17 18 18 23 19 2 20 1 21 3 22
REMARK SMILES IDX 14 23
REMARK H PARENT 14 24
REMARK Flexibility Score: inf
ROOT
ATOM      1  C   UNL     1       7.253 -16.995 -40.950  1.00  0.00     0.062 C 
ATOM      2  C   UNL     1       5.834 -17.627 -40.993  1.00  0.00     0.012 C 
ATOM      3  C   UNL     1       5.862 -18.831 -40.028  1.00  0.00     0.005 C 
ATOM      4  C   UNL     1       7.307 -18.876 -39.549  1.00  0.00    -0.001 C 
ATOM      5  C   UNL     1       7.801 -17.417 -39.559  1.00  0.00    -0.020 C 
ATOM      6  C   UNL     1       9.343 -17.441 -39.435  1.00  0.00     0.008 C 
ATOM      7  C   UNL     1       9.814 -18.269 -38.206  1.00  0.00     0.005 C 
ATOM      8  C   UNL     1       9.256 -19.733 -38.195  1.00  0.00     0.003 C 
ATOM      9  C   UNL     1       7.707 -19.746 -38.336  1.00  0.00     0.000 C 
ATOM     10  C   UNL     1       7.037 -19.385 -37.005  1.00  0.00     0.031 C 
ATOM     11  C   UNL     1       7.468 -20.334 -35.937  1.00  0.00    -0.027 C 
ATOM     12  C   UNL     1       8.708 -20.864 -35.885  1.00  0.00    -0.065 C 
ATOM     13  C   UNL     1       9.752 -20.677 -37.007  1.00  0.00    -0.008 C 
ATOM     14  C   UNL     1      10.022 -22.097 -37.605  1.00  0.00     0.014 C 
ATOM     15  C   UNL     1      10.331 -23.185 -36.557  1.00  0.00     0.033 C 
ATOM     16  C   UNL     1       9.233 -23.264 -35.479  1.00  0.00     0.118 C 
ATOM     17  C   UNL     1       9.000 -21.898 -34.816  1.00  0.00     0.063 C 
ATOM     18  C   UNL     1      11.070 -20.143 -36.385  1.00  0.00     0.016 C 
ATOM     19  C   UNL     1       7.181 -16.500 -38.453  1.00  0.00     0.012 C 
ENDROOT
BRANCH   1  20
ATOM     20  C   UNL     1       7.336 -15.511 -41.272  1.00  0.00     0.133 C 
ATOM     21  C   UNL     1       8.629 -14.825 -41.613  1.00  0.00     0.088 C 
ATOM     22  O   UNL     1       6.312 -14.846 -41.242  1.00  0.00    -0.300 OA
ENDBRANCH   1  20
BRANCH  16  23
ATOM     23  O   UNL     1       9.551 -24.236 -34.517  1.00  0.00    -0.393 OA
ATOM     24  H   UNL     1       9.859 -23.763 -33.700  1.00  0.00     0.210 HD
ENDBRANCH  16  23
TORSDOF 2
ENDMDL
MODEL 7
REMARK VINA RESULT:    -5.594     11.619     13.458
REMARK INTER + INTRA:          -6.207
REMARK INTER:                  -6.056
REMARK INTRA:                  -0.151
REMARK UNBOUND:                -0.123
REMARK SMILES CC(=O)[C@@H]1CC[C@@H]2[C@@H]3CC=C4C[C@H](O)CC[C@@]4(C)[C@@H]3CC[C@]21C
REMARK SMILES IDX 4 1 5 2 6 3 7 4 22 5 21 6 20 7 19 8 8 9 9 10 10 11 11 12
REMARK SMILES IDX 17 13 16 14 15 15 13 16 12 17 18 18 23 19 2 20 1 21 3 22
REMARK SMILES IDX 14 23
REMARK H PARENT 14 24
REMARK Flexibility Score: inf
ROOT
ATOM      1  C   UNL     1      10.272 -10.954 -45.322  1.00  0.00     0.062 C 
ATOM      2  C   UNL     1       8.922 -10.237 -45.044  1.00  0.00     0.012 C 
ATOM      3  C   UNL     1       7.841 -11.026 -45.812  1.00  0.00     0.005 C 
ATOM      4  C   UNL     1       8.633 -12.095 -46.553  1.00  0.00    -0.001 C 
ATOM      5  C   UNL     1       9.851 -12.409 -45.664  1.00  0.00    -0.020 C 
ATOM      6  C   UNL     1      10.864 -13.207 -46.519  1.00  0.00     0.008 C 
ATOM      7  C   UNL     1      10.212 -14.456 -47.177  1.00  0.00     0.005 C 
ATOM      8  C   UNL     1       8.946 -14.114 -48.034  1.00  0.00     0.003 C 
ATOM      9  C   UNL     1       7.913 -13.295 -47.209  1.00  0.00     0.000 C 
ATOM     10  C   UNL     1       7.132 -14.208 -46.256  1.00  0.00     0.031 C 
ATOM     11  C   UNL     1       6.444 -15.286 -47.024  1.00  0.00    -0.027 C 
ATOM     12  C   UNL     1       6.973 -15.850 -48.130  1.00  0.00    -0.065 C 
ATOM     13  C   UNL     1       8.258 -15.329 -48.808  1.00  0.00    -0.008 C 
ATOM     14  C   UNL     1       7.838 -14.817 -50.225  1.00  0.00     0.014 C 
ATOM     15  C   UNL     1       6.989 -15.813 -51.040  1.00  0.00     0.033 C 
ATOM     16  C   UNL     1       5.748 -16.278 -50.255  1.00  0.00     0.118 C 
ATOM     17  C   UNL     1       6.137 -16.862 -48.888  1.00  0.00     0.063 C 
ATOM     18  C   UNL     1       9.250 -16.511 -48.983  1.00  0.00     0.016 C 
ATOM     19  C   UNL     1       9.526 -13.183 -44.343  1.00  0.00     0.012 C 
ENDROOT
BRANCH   1  20
ATOM     20  C   UNL     1      11.342 -10.808 -44.252  1.00  0.00     0.133 C 
ATOM     21  C   UNL     1      11.082 -10.151 -42.926  1.00  0.00     0.088 C 
ATOM     22  O   UNL     1      12.465 -11.231 -44.483  1.00  0.00    -0.300 OA
ENDBRANCH   1  20
BRANCH  16  23
ATOM     23  O   UNL     1       5.009 -17.211 -51.002  1.00  0.00    -0.393 OA
ATOM     24  H   UNL     1       4.065 -17.160 -50.698  1.00  0.00     0.210 HD
ENDBRANCH  16  23
TORSDOF 2
ENDMDL
MODEL 8
REMARK VINA RESULT:    -5.590      1.462      2.694
REMARK INTER + INTRA:          -6.203
REMARK INTER:                  -6.125
REMARK INTRA:                  -0.078
REMARK UNBOUND:                -0.123
REMARK SMILES CC(=O)[C@@H]1CC[C@@H]2[C@@H]3CC=C4C[C@H](O)CC[C@@]4(C)[C@@H]3CC[C@]21C
REMARK SMILES IDX 4 1 5 2 6 3 7 4 22 5 21 6 20 7 19 8 8 9 9 10 10 11 11 12
REMARK SMILES IDX 17 13 16 14 15 15 13 16 12 17 18 18 23 19 2 20 1 21 3 22
REMARK SMILES IDX 14 23
REMARK H PARENT 14 24
REMARK Flexibility Score: inf
ROOT
ATOM      1  C   UNL     1       7.982 -19.105 -38.441  1.00  0.00     0.062 C 
ATOM      2  C   UNL     1       7.226 -20.229 -39.201  1.00  0.00     0.012 C 
ATOM      3  C   UNL     1       8.279 -21.299 -39.561  1.00  0.00     0.005 C 
ATOM      4  C   UNL     1       9.588 -20.697 -39.067  1.00  0.00    -0.001 C 
ATOM      5  C   UNL     1       9.220 -19.831 -37.847  1.00  0.00    -0.020 C 
ATOM      6  C   UNL     1      10.432 -18.923 -37.531  1.00  0.00     0.008 C 
ATOM      7  C   UNL     1      11.743 -19.741 -37.364  1.00  0.00     0.005 C 
ATOM      8  C   UNL     1      12.067 -20.651 -38.598  1.00  0.00     0.003 C 
ATOM      9  C   UNL     1      10.861 -21.566 -38.954  1.00  0.00     0.000 C 
ATOM     10  C   UNL     1      10.775 -22.754 -37.988  1.00  0.00     0.031 C 
ATOM     11  C   UNL     1      12.045 -23.535 -38.019  1.00  0.00    -0.027 C 
ATOM     12  C   UNL     1      13.254 -22.962 -38.193  1.00  0.00    -0.065 C 
ATOM     13  C   UNL     1      13.436 -21.470 -38.542  1.00  0.00    -0.008 C 
ATOM     14  C   UNL     1      14.081 -21.420 -39.967  1.00  0.00     0.014 C 
ATOM     15  C   UNL     1      15.322 -22.320 -40.139  1.00  0.00     0.033 C 
ATOM     16  C   UNL     1      15.026 -23.778 -39.741  1.00  0.00     0.118 C 
ATOM     17  C   UNL     1      14.465 -23.866 -38.313  1.00  0.00     0.063 C 
ATOM     18  C   UNL     1      14.425 -20.832 -37.529  1.00  0.00     0.016 C 
ATOM     19  C   UNL     1       8.793 -20.631 -36.571  1.00  0.00     0.012 C 
ENDROOT
BRANCH   1  20
ATOM     20  C   UNL     1       7.158 -18.288 -37.458  1.00  0.00     0.133 C 
ATOM     21  C   UNL     1       5.972 -18.851 -36.727  1.00  0.00     0.088 C 
ATOM     22  O   UNL     1       7.464 -17.122 -37.262  1.00  0.00    -0.300 OA
ENDBRANCH   1  20
BRANCH  16  23
ATOM     23  O   UNL     1      16.178 -24.572 -39.873  1.00  0.00    -0.393 OA
ATOM     24  H   UNL     1      16.183 -25.222 -39.122  1.00  0.00     0.210 HD
ENDBRANCH  16  23
TORSDOF 2
ENDMDL
MODEL 9
REMARK VINA RESULT:    -5.572      6.678      9.752
REMARK INTER + INTRA:          -6.184
REMARK INTER:                  -6.047
REMARK INTRA:                  -0.137
REMARK UNBOUND:                -0.123
REMARK SMILES CC(=O)[C@@H]1CC[C@@H]2[C@@H]3CC=C4C[C@H](O)CC[C@@]4(C)[C@@H]3CC[C@]21C
REMARK SMILES IDX 4 1 5 2 6 3 7 4 22 5 21 6 20 7 19 8 8 9 9 10 10 11 11 12
REMARK SMILES IDX 17 13 16 14 15 15 13 16 12 17 18 18 23 19 2 20 1 21 3 22
REMARK SMILES IDX 14 23
REMARK H PARENT 14 24
REMARK Flexibility Score: inf
ROOT
ATOM      1  C   UNL     1       7.281 -16.161 -41.640  1.00  0.00     0.062 C 
ATOM      2  C   UNL     1       8.750 -16.359 -41.173  1.00  0.00     0.012 C 
ATOM      3  C   UNL     1       8.716 -16.401 -39.630  1.00  0.00     0.005 C 
ATOM      4  C   UNL     1       7.254 -16.141 -39.294  1.00  0.00    -0.001 C 
ATOM      5  C   UNL     1       6.442 -16.729 -40.463  1.00  0.00    -0.020 C 
ATOM      6  C   UNL     1       4.998 -16.183 -40.355  1.00  0.00     0.008 C 
ATOM      7  C   UNL     1       4.382 -16.443 -38.952  1.00  0.00     0.005 C 
ATOM      8  C   UNL     1       5.253 -15.879 -37.779  1.00  0.00     0.003 C 
ATOM      9  C   UNL     1       6.717 -16.396 -37.867  1.00  0.00     0.000 C 
ATOM     10  C   UNL     1       6.815 -17.841 -37.364  1.00  0.00     0.031 C 
ATOM     11  C   UNL     1       6.317 -17.933 -35.961  1.00  0.00    -0.027 C 
ATOM     12  C   UNL     1       5.299 -17.180 -35.494  1.00  0.00    -0.065 C 
ATOM     13  C   UNL     1       4.657 -16.036 -36.306  1.00  0.00    -0.008 C 
ATOM     14  C   UNL     1       4.955 -14.713 -35.526  1.00  0.00     0.014 C 
ATOM     15  C   UNL     1       4.609 -14.765 -34.024  1.00  0.00     0.033 C 
ATOM     16  C   UNL     1       5.288 -15.958 -33.325  1.00  0.00     0.118 C 
ATOM     17  C   UNL     1       4.948 -17.284 -34.023  1.00  0.00     0.063 C 
ATOM     18  C   UNL     1       3.119 -16.250 -36.349  1.00  0.00     0.016 C 
ATOM     19  C   UNL     1       6.427 -18.292 -40.540  1.00  0.00     0.012 C 
ENDROOT
BRANCH   1  20
ATOM     20  C   UNL     1       6.938 -16.699 -43.020  1.00  0.00     0.133 C 
ATOM     21  C   UNL     1       5.690 -16.304 -43.759  1.00  0.00     0.088 C 
ATOM     22  O   UNL     1       7.701 -17.494 -43.546  1.00  0.00    -0.300 OA
ENDBRANCH   1  20
BRANCH  16  23
ATOM     23  O   UNL     1       4.933 -16.005 -31.967  1.00  0.00    -0.393 OA
ATOM     24  H   UNL     1       4.489 -16.878 -31.801  1.00  0.00     0.210 HD
ENDBRANCH  16  23
TORSDOF 2
ENDMDL
