MODEL 1
REMARK VINA RESULT:    -3.124      0.000      0.000
REMARK INTER + INTRA:          -7.392
REMARK INTER:                  -5.499
REMARK INTRA:                  -1.893
REMARK UNBOUND:                -1.893
REMARK SMILES CCCCCCC=CCCCCCCCC(=O)[O-]
REMARK SMILES IDX 10 1 11 2 12 3 13 4 14 5 15 6 16 7 17 8 18 9 9 10 8 11 7 12
REMARK SMILES IDX 6 13 5 14 4 15 3 16 2 17 1 18
REMARK H PARENT
REMARK Flexibility Score: inf
ROOT
ATOM      1  C   UNL     1      37.147 -41.915  -3.676  1.00  0.00     0.004 C 
ENDROOT
BRANCH   1   2
ATOM      2  C   UNL     1      36.285 -43.113  -4.112  1.00  0.00     0.000 C 
BRANCH   2   3
ATOM      3  C   UNL     1      34.830 -42.996  -3.611  1.00  0.00     0.000 C 
BRANCH   3   4
ATOM      4  C   UNL     1      33.941 -42.111  -4.500  1.00  0.00     0.000 C 
BRANCH   4   5
ATOM      5  C   UNL     1      33.149 -41.064  -3.699  1.00  0.00     0.006 C 
BRANCH   5   6
ATOM      6  C   UNL     1      34.062 -40.010  -3.061  1.00  0.00     0.053 C 
BRANCH   6   7
ATOM      7  C   UNL     1      33.860 -39.920  -1.579  1.00  0.00     0.041 C 
ATOM      8  O   UNL     1      34.847 -39.985  -0.801  1.00  0.00    -0.550 OA
ATOM      9  O   UNL     1      32.579 -39.794  -1.057  1.00  0.00    -0.550 OA
ENDBRANCH   6   7
ENDBRANCH   5   6
ENDBRANCH   4   5
ENDBRANCH   3   4
ENDBRANCH   2   3
ENDBRANCH   1   2
BRANCH   1  10
ATOM     10  C   UNL     1      37.298 -40.872  -4.791  1.00  0.00     0.027 C 
BRANCH  10  11
ATOM     11  C   UNL     1      37.606 -39.508  -4.235  1.00  0.00    -0.031 C 
ATOM     12  C   UNL     1      37.714 -39.294  -2.914  1.00  0.00    -0.031 C 
BRANCH  12  13
ATOM     13  C   UNL     1      37.966 -37.919  -2.359  1.00  0.00     0.027 C 
BRANCH  13  14
ATOM     14  C   UNL     1      38.863 -37.100  -3.295  1.00  0.00     0.004 C 
BRANCH  14  15
ATOM     15  C   UNL     1      40.341 -37.251  -2.911  1.00  0.00     0.000 C 
BRANCH  15  16
ATOM     16  C   UNL     1      41.149 -37.854  -4.069  1.00  0.00    -0.000 C 
BRANCH  16  17
ATOM     17  C   UNL     1      41.857 -39.160  -3.678  1.00  0.00    -0.003 C 
ATOM     18  C   UNL     1      41.098 -40.405  -4.137  1.00  0.00     0.004 C 
ENDBRANCH  16  17
ENDBRANCH  15  16
ENDBRANCH  14  15
ENDBRANCH  13  14
ENDBRANCH  12  13
ENDBRANCH  10  11
ENDBRANCH   1  10
TORSDOF 13
ENDMDL
MODEL 2
REMARK VINA RESULT:    -3.044      2.147      3.627
REMARK INTER + INTRA:          -7.250
REMARK INTER:                  -6.102
REMARK INTRA:                  -1.148
REMARK UNBOUND:                -1.893
REMARK SMILES CCCCCCC=CCCCCCCCC(=O)[O-]
REMARK SMILES IDX 10 1 11 2 12 3 13 4 14 5 15 6 16 7 17 8 18 9 9 10 8 11 7 12
REMARK SMILES IDX 6 13 5 14 4 15 3 16 2 17 1 18
REMARK H PARENT
REMARK Flexibility Score: inf
ROOT
ATOM      1  C   UNL     1      38.307 -38.058  -3.129  1.00  0.00     0.004 C 
ENDROOT
BRANCH   1   2
ATOM      2  C   UNL     1      37.380 -39.123  -2.519  1.00  0.00     0.000 C 
BRANCH   2   3
ATOM      3  C   UNL     1      36.641 -39.940  -3.600  1.00  0.00     0.000 C 
BRANCH   3   4
ATOM      4  C   UNL     1      35.196 -40.302  -3.218  1.00  0.00     0.000 C 
BRANCH   4   5
ATOM      5  C   UNL     1      34.518 -41.220  -4.249  1.00  0.00     0.006 C 
BRANCH   5   6
ATOM      6  C   UNL     1      33.000 -41.298  -4.046  1.00  0.00     0.053 C 
BRANCH   6   7
ATOM      7  C   UNL     1      32.498 -42.708  -4.116  1.00  0.00     0.041 C 
ATOM      8  O   UNL     1      33.306 -43.660  -4.282  1.00  0.00    -0.550 OA
ATOM      9  O   UNL     1      31.137 -42.969  -4.029  1.00  0.00    -0.550 OA
ENDBRANCH   6   7
ENDBRANCH   5   6
ENDBRANCH   4   5
ENDBRANCH   3   4
ENDBRANCH   2   3
ENDBRANCH   1   2
BRANCH   1  10
ATOM     10  C   UNL     1      38.133 -36.687  -2.463  1.00  0.00     0.027 C 
BRANCH  10  11
ATOM     11  C   UNL     1      39.459 -36.093  -2.066  1.00  0.00    -0.031 C 
ATOM     12  C   UNL     1      40.615 -36.555  -2.567  1.00  0.00    -0.031 C 
BRANCH  12  13
ATOM     13  C   UNL     1      41.940 -35.997  -2.125  1.00  0.00     0.027 C 
BRANCH  13  14
ATOM     14  C   UNL     1      43.096 -36.622  -2.915  1.00  0.00     0.004 C 
BRANCH  14  15
ATOM     15  C   UNL     1      42.625 -37.102  -4.294  1.00  0.00     0.000 C 
BRANCH  15  16
ATOM     16  C   UNL     1      42.955 -38.587  -4.501  1.00  0.00    -0.000 C 
BRANCH  16  17
ATOM     17  C   UNL     1      41.706 -39.481  -4.467  1.00  0.00    -0.003 C 
ATOM     18  C   UNL     1      41.494 -40.149  -3.109  1.00  0.00     0.004 C 
ENDBRANCH  16  17
ENDBRANCH  15  16
ENDBRANCH  14  15
ENDBRANCH  13  14
ENDBRANCH  12  13
ENDBRANCH  10  11
ENDBRANCH   1  10
TORSDOF 13
ENDMDL
MODEL 3
REMARK VINA RESULT:    -3.013     10.432     12.771
REMARK INTER + INTRA:          -7.196
REMARK INTER:                  -5.528
REMARK INTRA:                  -1.668
REMARK UNBOUND:                -1.893
REMARK SMILES CCCCCCC=CCCCCCCCC(=O)[O-]
REMARK SMILES IDX 10 1 11 2 12 3 13 4 14 5 15 6 16 7 17 8 18 9 9 10 8 11 7 12
REMARK SMILES IDX 6 13 5 14 4 15 3 16 2 17 1 18
REMARK H PARENT
REMARK Flexibility Score: inf
ROOT
ATOM      1  C   UNL     1      31.862 -36.517   6.904  1.00  0.00     0.004 C 
ENDROOT
BRANCH   1   2
ATOM      2  C   UNL     1      32.062 -37.120   8.306  1.00  0.00     0.000 C 
BRANCH   2   3
ATOM      3  C   UNL     1      33.032 -36.282   9.166  1.00  0.00     0.000 C 
BRANCH   3   4
ATOM      4  C   UNL     1      34.110 -37.121   9.873  1.00  0.00     0.000 C 
BRANCH   4   5
ATOM      5  C   UNL     1      34.036 -37.017  11.406  1.00  0.00     0.006 C 
BRANCH   5   6
ATOM      6  C   UNL     1      33.700 -38.362  12.062  1.00  0.00     0.053 C 
BRANCH   6   7
ATOM      7  C   UNL     1      34.431 -38.550  13.357  1.00  0.00     0.041 C 
ATOM      8  O   UNL     1      35.125 -37.614  13.833  1.00  0.00    -0.550 OA
ATOM      9  O   UNL     1      34.368 -39.768  14.021  1.00  0.00    -0.550 OA
ENDBRANCH   6   7
ENDBRANCH   5   6
ENDBRANCH   4   5
ENDBRANCH   3   4
ENDBRANCH   2   3
ENDBRANCH   1   2
BRANCH   1  10
ATOM     10  C   UNL     1      30.908 -37.355   6.043  1.00  0.00     0.027 C 
BRANCH  10  11
ATOM     11  C   UNL     1      31.564 -37.797   4.762  1.00  0.00    -0.031 C 
ATOM     12  C   UNL     1      32.588 -37.117   4.224  1.00  0.00    -0.031 C 
BRANCH  12  13
ATOM     13  C   UNL     1      33.203 -37.530   2.915  1.00  0.00     0.027 C 
BRANCH  13  14
ATOM     14  C   UNL     1      34.678 -37.115   2.841  1.00  0.00     0.004 C 
BRANCH  14  15
ATOM     15  C   UNL     1      35.126 -36.438   4.142  1.00  0.00     0.000 C 
BRANCH  15  16
ATOM     16  C   UNL     1      36.070 -37.349   4.938  1.00  0.00    -0.000 C 
BRANCH  16  17
ATOM     17  C   UNL     1      35.623 -37.535   6.397  1.00  0.00    -0.003 C 
ATOM     18  C   UNL     1      34.924 -38.873   6.635  1.00  0.00     0.004 C 
ENDBRANCH  16  17
ENDBRANCH  15  16
ENDBRANCH  14  15
ENDBRANCH  13  14
ENDBRANCH  12  13
ENDBRANCH  10  11
ENDBRANCH   1  10
TORSDOF 13
ENDMDL
MODEL 4
REMARK VINA RESULT:    -3.003      1.128      2.161
REMARK INTER + INTRA:          -7.179
REMARK INTER:                  -5.337
REMARK INTRA:                  -1.843
REMARK UNBOUND:                -1.893
REMARK SMILES CCCCCCC=CCCCCCCCC(=O)[O-]
REMARK SMILES IDX 10 1 11 2 12 3 13 4 14 5 15 6 16 7 17 8 18 9 9 10 8 11 7 12
REMARK SMILES IDX 6 13 5 14 4 15 3 16 2 17 1 18
REMARK H PARENT
REMARK Flexibility Score: inf
ROOT
ATOM      1  C   UNL     1      36.159 -44.046  -3.580  1.00  0.00     0.004 C 
ENDROOT
BRANCH   1   2
ATOM      2  C   UNL     1      34.691 -44.216  -4.009  1.00  0.00     0.000 C 
BRANCH   2   3
ATOM      3  C   UNL     1      33.765 -43.180  -3.338  1.00  0.00     0.000 C 
BRANCH   3   4
ATOM      4  C   UNL     1      33.328 -42.044  -4.278  1.00  0.00     0.000 C 
BRANCH   4   5
ATOM      5  C   UNL     1      33.682 -40.649  -3.734  1.00  0.00     0.006 C 
BRANCH   5   6
ATOM      6  C   UNL     1      33.998 -40.676  -2.233  1.00  0.00     0.053 C 
BRANCH   6   7
ATOM      7  C   UNL     1      32.830 -40.225  -1.409  1.00  0.00     0.041 C 
ATOM      8  O   UNL     1      32.851 -39.099  -0.846  1.00  0.00    -0.550 OA
ATOM      9  O   UNL     1      31.734 -41.060  -1.238  1.00  0.00    -0.550 OA
ENDBRANCH   6   7
ENDBRANCH   5   6
ENDBRANCH   4   5
ENDBRANCH   3   4
ENDBRANCH   2   3
ENDBRANCH   1   2
BRANCH   1  10
ATOM     10  C   UNL     1      36.959 -43.196  -4.575  1.00  0.00     0.027 C 
BRANCH  10  11
ATOM     11  C   UNL     1      37.336 -41.862  -3.986  1.00  0.00    -0.031 C 
ATOM     12  C   UNL     1      37.157 -40.718  -4.663  1.00  0.00    -0.031 C 
BRANCH  12  13
ATOM     13  C   UNL     1      37.585 -39.393  -4.093  1.00  0.00     0.027 C 
BRANCH  13  14
ATOM     14  C   UNL     1      37.743 -39.470  -2.569  1.00  0.00     0.004 C 
BRANCH  14  15
ATOM     15  C   UNL     1      37.960 -38.076  -1.968  1.00  0.00     0.000 C 
BRANCH  15  16
ATOM     16  C   UNL     1      38.554 -37.116  -3.008  1.00  0.00    -0.000 C 
BRANCH  16  17
ATOM     17  C   UNL     1      40.019 -36.758  -2.714  1.00  0.00    -0.003 C 
ATOM     18  C   UNL     1      41.008 -37.638  -3.478  1.00  0.00     0.004 C 
ENDBRANCH  16  17
ENDBRANCH  15  16
ENDBRANCH  14  15
ENDBRANCH  13  14
ENDBRANCH  12  13
ENDBRANCH  10  11
ENDBRANCH   1  10
TORSDOF 13
ENDMDL
MODEL 5
REMARK VINA RESULT:    -2.996      2.376      3.393
REMARK INTER + INTRA:          -7.167
REMARK INTER:                  -5.585
REMARK INTRA:                  -1.582
REMARK UNBOUND:                -1.893
REMARK SMILES CCCCCCC=CCCCCCCCC(=O)[O-]
REMARK SMILES IDX 10 1 11 2 12 3 13 4 14 5 15 6 16 7 17 8 18 9 9 10 8 11 7 12
REMARK SMILES IDX 6 13 5 14 4 15 3 16 2 17 1 18
REMARK H PARENT
REMARK Flexibility Score: inf
ROOT
ATOM      1  C   UNL     1      36.194 -40.787  -3.752  1.00  0.00     0.004 C 
ENDROOT
BRANCH   1   2
ATOM      2  C   UNL     1      35.176 -39.935  -2.974  1.00  0.00     0.000 C 
BRANCH   2   3
ATOM      3  C   UNL     1      34.786 -40.580  -1.627  1.00  0.00     0.000 C 
BRANCH   3   4
ATOM      4  C   UNL     1      35.848 -40.404  -0.529  1.00  0.00     0.000 C 
BRANCH   4   5
ATOM      5  C   UNL     1      35.608 -39.158   0.340  1.00  0.00     0.006 C 
BRANCH   5   6
ATOM      6  C   UNL     1      36.874 -38.307   0.497  1.00  0.00     0.053 C 
BRANCH   6   7
ATOM      7  C   UNL     1      36.809 -37.426   1.707  1.00  0.00     0.041 C 
ATOM      8  O   UNL     1      36.473 -36.218   1.593  1.00  0.00    -0.550 OA
ATOM      9  O   UNL     1      37.150 -37.931   2.956  1.00  0.00    -0.550 OA
ENDBRANCH   6   7
ENDBRANCH   5   6
ENDBRANCH   4   5
ENDBRANCH   3   4
ENDBRANCH   2   3
ENDBRANCH   1   2
BRANCH   1  10
ATOM     10  C   UNL     1      37.520 -40.049  -3.973  1.00  0.00     0.027 C 
BRANCH  10  11
ATOM     11  C   UNL     1      37.505 -38.682  -3.341  1.00  0.00    -0.031 C 
ATOM     12  C   UNL     1      38.587 -37.888  -3.356  1.00  0.00    -0.031 C 
BRANCH  12  13
ATOM     13  C   UNL     1      38.584 -36.547  -2.674  1.00  0.00     0.027 C 
BRANCH  13  14
ATOM     14  C   UNL     1      39.958 -36.229  -2.071  1.00  0.00     0.004 C 
BRANCH  14  15
ATOM     15  C   UNL     1      40.973 -37.329  -2.405  1.00  0.00     0.000 C 
BRANCH  15  16
ATOM     16  C   UNL     1      42.146 -36.764  -3.219  1.00  0.00    -0.000 C 
BRANCH  16  17
ATOM     17  C   UNL     1      42.306 -37.454  -4.583  1.00  0.00    -0.003 C 
ATOM     18  C   UNL     1      41.914 -38.931  -4.548  1.00  0.00     0.004 C 
ENDBRANCH  16  17
ENDBRANCH  15  16
ENDBRANCH  14  15
ENDBRANCH  13  14
ENDBRANCH  12  13
ENDBRANCH  10  11
ENDBRANCH   1  10
TORSDOF 13
ENDMDL
MODEL 6
REMARK VINA RESULT:    -2.976      2.158      2.844
REMARK INTER + INTRA:          -7.131
REMARK INTER:                  -6.122
REMARK INTRA:                  -1.009
REMARK UNBOUND:                -1.893
REMARK SMILES CCCCCCC=CCCCCCCCC(=O)[O-]
REMARK SMILES IDX 10 1 11 2 12 3 13 4 14 5 15 6 16 7 17 8 18 9 9 10 8 11 7 12
REMARK SMILES IDX 6 13 5 14 4 15 3 16 2 17 1 18
REMARK H PARENT
REMARK Flexibility Score: inf
ROOT
ATOM      1  C   UNL     1      36.366 -40.996  -4.116  1.00  0.00     0.004 C 
ENDROOT
BRANCH   1   2
ATOM      2  C   UNL     1      35.395 -40.293  -3.152  1.00  0.00     0.000 C 
BRANCH   2   3
ATOM      3  C   UNL     1      33.935 -40.353  -3.650  1.00  0.00     0.000 C 
BRANCH   3   4
ATOM      4  C   UNL     1      33.134 -41.531  -3.071  1.00  0.00     0.000 C 
BRANCH   4   5
ATOM      5  C   UNL     1      32.871 -42.640  -4.104  1.00  0.00     0.006 C 
BRANCH   5   6
ATOM      6  C   UNL     1      31.383 -42.994  -4.208  1.00  0.00     0.053 C 
BRANCH   6   7
ATOM      7  C   UNL     1      30.887 -43.693  -2.978  1.00  0.00     0.041 C 
ATOM      8  O   UNL     1      31.152 -44.910  -2.793  1.00  0.00    -0.550 OA
ATOM      9  O   UNL     1      30.109 -43.009  -2.054  1.00  0.00    -0.550 OA
ENDBRANCH   6   7
ENDBRANCH   5   6
ENDBRANCH   4   5
ENDBRANCH   3   4
ENDBRANCH   2   3
ENDBRANCH   1   2
BRANCH   1  10
ATOM     10  C   UNL     1      37.720 -40.279  -4.201  1.00  0.00     0.027 C 
BRANCH  10  11
ATOM     11  C   UNL     1      37.676 -38.933  -3.527  1.00  0.00    -0.031 C 
ATOM     12  C   UNL     1      38.695 -38.065  -3.622  1.00  0.00    -0.031 C 
BRANCH  12  13
ATOM     13  C   UNL     1      38.671 -36.745  -2.902  1.00  0.00     0.027 C 
BRANCH  13  14
ATOM     14  C   UNL     1      40.060 -36.383  -2.362  1.00  0.00     0.004 C 
BRANCH  14  15
ATOM     15  C   UNL     1      41.057 -37.524  -2.599  1.00  0.00     0.000 C 
BRANCH  15  16
ATOM     16  C   UNL     1      42.231 -37.055  -3.470  1.00  0.00    -0.000 C 
BRANCH  16  17
ATOM     17  C   UNL     1      42.241 -37.718  -4.856  1.00  0.00    -0.003 C 
ATOM     18  C   UNL     1      42.130 -39.241  -4.784  1.00  0.00     0.004 C 
ENDBRANCH  16  17
ENDBRANCH  15  16
ENDBRANCH  14  15
ENDBRANCH  13  14
ENDBRANCH  12  13
ENDBRANCH  10  11
ENDBRANCH   1  10
TORSDOF 13
ENDMDL
MODEL 7
REMARK VINA RESULT:    -2.971      2.128      4.370
REMARK INTER + INTRA:          -7.122
REMARK INTER:                  -5.277
REMARK INTRA:                  -1.845
REMARK UNBOUND:                -1.893
REMARK SMILES CCCCCCC=CCCCCCCCC(=O)[O-]
REMARK SMILES IDX 10 1 11 2 12 3 13 4 14 5 15 6 16 7 17 8 18 9 9 10 8 11 7 12
REMARK SMILES IDX 6 13 5 14 4 15 3 16 2 17 1 18
REMARK H PARENT
REMARK Flexibility Score: inf
ROOT
ATOM      1  C   UNL     1      38.330 -37.026  -1.438  1.00  0.00     0.004 C 
ENDROOT
BRANCH   1   2
ATOM      2  C   UNL     1      38.687 -38.491  -1.743  1.00  0.00     0.000 C 
BRANCH   2   3
ATOM      3  C   UNL     1      37.546 -39.226  -2.479  1.00  0.00     0.000 C 
BRANCH   3   4
ATOM      4  C   UNL     1      37.687 -39.206  -4.010  1.00  0.00     0.000 C 
BRANCH   4   5
ATOM      5  C   UNL     1      37.325 -40.551  -4.661  1.00  0.00     0.006 C 
BRANCH   5   6
ATOM      6  C   UNL     1      36.762 -41.553  -3.646  1.00  0.00     0.053 C 
BRANCH   6   7
ATOM      7  C   UNL     1      35.520 -42.223  -4.151  1.00  0.00     0.041 C 
ATOM      8  O   UNL     1      34.612 -41.542  -4.697  1.00  0.00    -0.550 OA
ATOM      9  O   UNL     1      35.353 -43.592  -3.992  1.00  0.00    -0.550 OA
ENDBRANCH   6   7
ENDBRANCH   5   6
ENDBRANCH   4   5
ENDBRANCH   3   4
ENDBRANCH   2   3
ENDBRANCH   1   2
BRANCH   1  10
ATOM     10  C   UNL     1      39.433 -36.056  -1.883  1.00  0.00     0.027 C 
BRANCH  10  11
ATOM     11  C   UNL     1      40.446 -36.737  -2.765  1.00  0.00    -0.031 C 
ATOM     12  C   UNL     1      41.765 -36.595  -2.563  1.00  0.00    -0.031 C 
BRANCH  12  13
ATOM     13  C   UNL     1      42.772 -37.231  -3.480  1.00  0.00     0.027 C 
BRANCH  13  14
ATOM     14  C   UNL     1      42.111 -37.730  -4.771  1.00  0.00     0.004 C 
BRANCH  14  15
ATOM     15  C   UNL     1      42.266 -39.249  -4.917  1.00  0.00     0.000 C 
BRANCH  15  16
ATOM     16  C   UNL     1      41.312 -39.992  -3.970  1.00  0.00    -0.000 C 
BRANCH  16  17
ATOM     17  C   UNL     1      40.875 -41.357  -4.523  1.00  0.00    -0.003 C 
ATOM     18  C   UNL     1      40.566 -42.370  -3.421  1.00  0.00     0.004 C 
ENDBRANCH  16  17
ENDBRANCH  15  16
ENDBRANCH  14  15
ENDBRANCH  13  14
ENDBRANCH  12  13
ENDBRANCH  10  11
ENDBRANCH   1  10
TORSDOF 13
ENDMDL
MODEL 8
REMARK VINA RESULT:    -2.954      5.075      8.536
REMARK INTER + INTRA:          -7.093
REMARK INTER:                  -5.273
REMARK INTRA:                  -1.820
REMARK UNBOUND:                -1.893
REMARK SMILES CCCCCCC=CCCCCCCCC(=O)[O-]
REMARK SMILES IDX 10 1 11 2 12 3 13 4 14 5 15 6 16 7 17 8 18 9 9 10 8 11 7 12
REMARK SMILES IDX 6 13 5 14 4 15 3 16 2 17 1 18
REMARK H PARENT
REMARK Flexibility Score: inf
ROOT
ATOM      1  C   UNL     1      42.308 -39.832  -4.320  1.00  0.00     0.004 C 
ENDROOT
BRANCH   1   2
ATOM      2  C   UNL     1      43.588 -40.486  -3.771  1.00  0.00     0.000 C 
BRANCH   2   3
ATOM      3  C   UNL     1      44.858 -39.963  -4.475  1.00  0.00     0.000 C 
BRANCH   3   4
ATOM      4  C   UNL     1      45.841 -39.255  -3.528  1.00  0.00     0.000 C 
BRANCH   4   5
ATOM      5  C   UNL     1      45.185 -38.812  -2.209  1.00  0.00     0.006 C 
BRANCH   5   6
ATOM      6  C   UNL     1      45.246 -37.292  -2.013  1.00  0.00     0.053 C 
BRANCH   6   7
ATOM      7  C   UNL     1      46.402 -36.886  -1.150  1.00  0.00     0.041 C 
ATOM      8  O   UNL     1      47.566 -36.847  -1.629  1.00  0.00    -0.550 OA
ATOM      9  O   UNL     1      46.198 -36.580   0.189  1.00  0.00    -0.550 OA
ENDBRANCH   6   7
ENDBRANCH   5   6
ENDBRANCH   4   5
ENDBRANCH   3   4
ENDBRANCH   2   3
ENDBRANCH   1   2
BRANCH   1  10
ATOM     10  C   UNL     1      42.606 -38.558  -5.121  1.00  0.00     0.027 C 
BRANCH  10  11
ATOM     11  C   UNL     1      42.293 -37.319  -4.324  1.00  0.00    -0.031 C 
ATOM     12  C   UNL     1      41.656 -37.383  -3.144  1.00  0.00    -0.031 C 
BRANCH  12  13
ATOM     13  C   UNL     1      41.296 -36.140  -2.378  1.00  0.00     0.027 C 
BRANCH  13  14
ATOM     14  C   UNL     1      39.876 -36.232  -1.807  1.00  0.00     0.004 C 
BRANCH  14  15
ATOM     15  C   UNL     1      38.872 -36.644  -2.891  1.00  0.00     0.000 C 
BRANCH  15  16
ATOM     16  C   UNL     1      38.042 -37.855  -2.439  1.00  0.00    -0.000 C 
BRANCH  16  17
ATOM     17  C   UNL     1      38.535 -39.172  -3.056  1.00  0.00    -0.003 C 
ATOM     18  C   UNL     1      37.634 -39.670  -4.186  1.00  0.00     0.004 C 
ENDBRANCH  16  17
ENDBRANCH  15  16
ENDBRANCH  14  15
ENDBRANCH  13  14
ENDBRANCH  12  13
ENDBRANCH  10  11
ENDBRANCH   1  10
TORSDOF 13
ENDMDL
MODEL 9
REMARK VINA RESULT:    -2.951     13.117     15.194
REMARK INTER + INTRA:          -7.087
REMARK INTER:                  -5.023
REMARK INTRA:                  -2.065
REMARK UNBOUND:                -1.893
REMARK SMILES CCCCCCC=CCCCCCCCC(=O)[O-]
REMARK SMILES IDX 10 1 11 2 12 3 13 4 14 5 15 6 16 7 17 8 18 9 9 10 8 11 7 12
REMARK SMILES IDX 6 13 5 14 4 15 3 16 2 17 1 18
REMARK H PARENT
REMARK Flexibility Score: inf
ROOT
ATOM      1  C   UNL     1      34.681 -38.920  14.355  1.00  0.00     0.004 C 
ENDROOT
BRANCH   1   2
ATOM      2  C   UNL     1      35.795 -39.980  14.336  1.00  0.00     0.000 C 
BRANCH   2   3
ATOM      3  C   UNL     1      35.405 -41.219  13.502  1.00  0.00     0.000 C 
BRANCH   3   4
ATOM      4  C   UNL     1      35.049 -40.893  12.042  1.00  0.00     0.000 C 
BRANCH   4   5
ATOM      5  C   UNL     1      33.718 -41.522  11.597  1.00  0.00     0.006 C 
BRANCH   5   6
ATOM      6  C   UNL     1      32.706 -40.468  11.129  1.00  0.00     0.053 C 
BRANCH   6   7
ATOM      7  C   UNL     1      31.836 -39.992  12.252  1.00  0.00     0.041 C 
ATOM      8  O   UNL     1      31.188 -38.918  12.138  1.00  0.00    -0.550 OA
ATOM      9  O   UNL     1      31.763 -40.719  13.433  1.00  0.00    -0.550 OA
ENDBRANCH   6   7
ENDBRANCH   5   6
ENDBRANCH   4   5
ENDBRANCH   3   4
ENDBRANCH   2   3
ENDBRANCH   1   2
BRANCH   1  10
ATOM     10  C   UNL     1      35.146 -37.578  13.775  1.00  0.00     0.027 C 
BRANCH  10  11
ATOM     11  C   UNL     1      34.221 -37.093  12.691  1.00  0.00    -0.031 C 
ATOM     12  C   UNL     1      34.439 -37.381  11.398  1.00  0.00    -0.031 C 
BRANCH  12  13
ATOM     13  C   UNL     1      33.544 -36.848  10.314  1.00  0.00     0.027 C 
BRANCH  13  14
ATOM     14  C   UNL     1      34.038 -37.276   8.926  1.00  0.00     0.004 C 
BRANCH  14  15
ATOM     15  C   UNL     1      35.046 -38.428   9.033  1.00  0.00     0.000 C 
BRANCH  15  16
ATOM     16  C   UNL     1      35.354 -39.017   7.649  1.00  0.00    -0.000 C 
BRANCH  16  17
ATOM     17  C   UNL     1      35.076 -38.025   6.509  1.00  0.00    -0.003 C 
ATOM     18  C   UNL     1      36.354 -37.422   5.925  1.00  0.00     0.004 C 
ENDBRANCH  16  17
ENDBRANCH  15  16
ENDBRANCH  14  15
ENDBRANCH  13  14
ENDBRANCH  12  13
ENDBRANCH  10  11
ENDBRANCH   1  10
TORSDOF 13
ENDMDL
