MODEL 1
REMARK VINA RESULT:    -1.804      0.000      0.000
REMARK INTER + INTRA:          -1.804
REMARK INTER:                  -1.804
REMARK INTRA:                   0.000
REMARK UNBOUND:                 0.000
REMARK SMILES CC(=O)[O-]
REMARK SMILES IDX 1 1 2 2 3 3 4 4
REMARK H PARENT
REMARK Flexibility Score: inf
ROOT
ATOM      1  C   UNL     1     147.858 154.978 159.818  1.00  0.00     0.063 C 
ATOM      2  C   UNL     1     147.082 153.776 159.396  1.00  0.00     0.038 C 
ATOM      3  O   UNL     1     147.405 153.149 158.354  1.00  0.00    -0.550 OA
ATOM      4  O   UNL     1     145.969 153.375 160.124  1.00  0.00    -0.550 OA
ENDROOT
TORSDOF 0
ENDMDL
MODEL 2
REMARK VINA RESULT:    -1.784      0.172      1.629
REMARK INTER + INTRA:          -1.784
REMARK INTER:                  -1.784
REMARK INTRA:                   0.000
REMARK UNBOUND:                 0.000
REMARK SMILES CC(=O)[O-]
REMARK SMILES IDX 1 1 2 2 3 3 4 4
REMARK H PARENT
REMARK Flexibility Score: inf
ROOT
ATOM      1  C   UNL     1     147.852 154.863 160.108  1.00  0.00     0.063 C 
ATOM      2  C   UNL     1     147.014 153.779 159.518  1.00  0.00     0.038 C 
ATOM      3  O   UNL     1     145.978 153.386 160.114  1.00  0.00    -0.550 OA
ATOM      4  O   UNL     1     147.402 153.165 158.334  1.00  0.00    -0.550 OA
ENDROOT
TORSDOF 0
ENDMDL
MODEL 3
REMARK VINA RESULT:    -1.593      1.827      2.430
REMARK INTER + INTRA:          -1.593
REMARK INTER:                  -1.593
REMARK INTRA:                   0.000
REMARK UNBOUND:                 0.000
REMARK SMILES CC(=O)[O-]
REMARK SMILES IDX 1 1 2 2 3 3 4 4
REMARK H PARENT
REMARK Flexibility Score: inf
ROOT
ATOM      1  C   UNL     1     147.104 153.413 159.309  1.00  0.00     0.063 C 
ATOM      2  C   UNL     1     146.668 154.583 160.124  1.00  0.00     0.038 C 
ATOM      3  O   UNL     1     145.876 154.422 161.088  1.00  0.00    -0.550 OA
ATOM      4  O   UNL     1     147.094 155.862 159.788  1.00  0.00    -0.550 OA
ENDROOT
TORSDOF 0
ENDMDL
MODEL 4
REMARK VINA RESULT:    -1.571      1.149      1.379
REMARK INTER + INTRA:          -1.571
REMARK INTER:                  -1.571
REMARK INTRA:                   0.000
REMARK UNBOUND:                 0.000
REMARK SMILES CC(=O)[O-]
REMARK SMILES IDX 1 1 2 2 3 3 4 4
REMARK H PARENT
REMARK Flexibility Score: inf
ROOT
ATOM      1  C   UNL     1     147.954 154.948 159.778  1.00  0.00     0.063 C 
ATOM      2  C   UNL     1     146.599 154.416 160.102  1.00  0.00     0.038 C 
ATOM      3  O   UNL     1     145.984 153.701 159.269  1.00  0.00    -0.550 OA
ATOM      4  O   UNL     1     145.989 154.753 161.304  1.00  0.00    -0.550 OA
ENDROOT
TORSDOF 0
ENDMDL
MODEL 5
REMARK VINA RESULT:    -1.432     12.910     13.302
REMARK INTER + INTRA:          -1.432
REMARK INTER:                  -1.432
REMARK INTRA:                   0.000
REMARK UNBOUND:                 0.000
REMARK SMILES CC(=O)[O-]
REMARK SMILES IDX 1 1 2 2 3 3 4 4
REMARK H PARENT
REMARK Flexibility Score: inf
ROOT
ATOM      1  C   UNL     1     146.707 166.268 155.414  1.00  0.00     0.063 C 
ATOM      2  C   UNL     1     147.461 165.956 154.166  1.00  0.00     0.038 C 
ATOM      3  O   UNL     1     147.045 166.374 153.054  1.00  0.00    -0.550 OA
ATOM      4  O   UNL     1     148.596 165.158 154.220  1.00  0.00    -0.550 OA
ENDROOT
TORSDOF 0
ENDMDL
MODEL 6
REMARK VINA RESULT:    -1.429     12.410     12.654
REMARK INTER + INTRA:          -1.429
REMARK INTER:                  -1.429
REMARK INTRA:                   0.000
REMARK UNBOUND:                 0.000
REMARK SMILES CC(=O)[O-]
REMARK SMILES IDX 1 1 2 2 3 3 4 4
REMARK H PARENT
REMARK Flexibility Score: inf
ROOT
ATOM      1  C   UNL     1     146.033 165.213 153.774  1.00  0.00     0.063 C 
ATOM      2  C   UNL     1     146.187 165.611 155.203  1.00  0.00     0.038 C 
ATOM      3  O   UNL     1     146.643 166.747 155.497  1.00  0.00    -0.550 OA
ATOM      4  O   UNL     1     145.877 164.711 156.214  1.00  0.00    -0.550 OA
ENDROOT
TORSDOF 0
ENDMDL
MODEL 7
REMARK VINA RESULT:    -1.383     11.892     12.224
REMARK INTER + INTRA:          -1.383
REMARK INTER:                  -1.383
REMARK INTRA:                   0.000
REMARK UNBOUND:                 0.000
REMARK SMILES CC(=O)[O-]
REMARK SMILES IDX 1 1 2 2 3 3 4 4
REMARK H PARENT
REMARK Flexibility Score: inf
ROOT
ATOM      1  C   UNL     1     146.808 166.196 155.552  1.00  0.00     0.063 C 
ATOM      2  C   UNL     1     146.183 165.004 154.908  1.00  0.00     0.038 C 
ATOM      3  O   UNL     1     145.978 163.958 155.576  1.00  0.00    -0.550 OA
ATOM      4  O   UNL     1     145.875 165.028 153.554  1.00  0.00    -0.550 OA
ENDROOT
TORSDOF 0
ENDMDL
MODEL 8
REMARK VINA RESULT:    -1.282     13.616     13.975
REMARK INTER + INTRA:          -1.282
REMARK INTER:                  -1.282
REMARK INTRA:                   0.000
REMARK UNBOUND:                 0.000
REMARK SMILES CC(=O)[O-]
REMARK SMILES IDX 1 1 2 2 3 3 4 4
REMARK H PARENT
REMARK Flexibility Score: inf
ROOT
ATOM      1  C   UNL     1     146.167 164.883 150.923  1.00  0.00     0.063 C 
ATOM      2  C   UNL     1     146.471 165.540 152.227  1.00  0.00     0.038 C 
ATOM      3  O   UNL     1     145.875 165.174 153.273  1.00  0.00    -0.550 OA
ATOM      4  O   UNL     1     147.374 166.594 152.281  1.00  0.00    -0.550 OA
ENDROOT
TORSDOF 0
ENDMDL
