MODEL 1
REMARK VINA RESULT:    82.152      0.000      0.000
REMARK INTER + INTRA:          86.954
REMARK INTER:                  86.954
REMARK INTRA:                   0.000
REMARK UNBOUND:                 0.000
REMARK SMILES CC1(C)[C@@H](O)CC[C@]2(C)[C@H]1CC[C@]1(C)[C@H]2C=CC2=C(O)C(=O)C(=O)[C@@]21C
REMARK SMILES IDX 1 1 2 2 10 3 11 4 12 5 13 6 15 7 8 8 7 9 6 10 4 11 9 12
REMARK SMILES IDX 16 13 17 14 18 15 19 16 21 17 22 18 23 19 24 20 25 21 26 22
REMARK SMILES IDX 14 23 3 24 5 25 20 27
REMARK H PARENT 5 26 20 28
REMARK Flexibility Score: inf
ROOT
ATOM      1  C   UNL     1      14.117  12.998  24.824  1.00  0.00     0.014 C 
ATOM      2  C   UNL     1      15.626  12.675  25.043  1.00  0.00    -0.006 C 
ATOM      3  C   UNL     1      16.452  12.825  23.681  1.00  0.00     0.004 C 
ATOM      4  C   UNL     1      15.686  12.176  22.485  1.00  0.00     0.005 C 
ATOM      5  C   UNL     1      16.385  12.294  21.132  1.00  0.00     0.009 C 
ATOM      6  C   UNL     1      17.821  11.703  21.098  1.00  0.00    -0.009 C 
ATOM      7  C   UNL     1      18.638  12.355  22.305  1.00  0.00     0.025 C 
ATOM      8  C   UNL     1      17.940  12.292  23.756  1.00  0.00    -0.022 C 
ATOM      9  C   UNL     1      17.930  10.844  24.345  1.00  0.00     0.010 C 
ATOM     10  C   UNL     1      17.194  10.709  25.694  1.00  0.00     0.033 C 
ATOM     11  C   UNL     1      15.745  11.229  25.638  1.00  0.00     0.120 C 
ATOM     12  C   UNL     1      18.826  13.148  24.728  1.00  0.00     0.012 C 
ATOM     13  C   UNL     1      19.101  13.798  21.965  1.00  0.00    -0.022 C 
ATOM     14  C   UNL     1      19.117  14.335  20.744  1.00  0.00     0.005 C 
ATOM     15  C   UNL     1      18.648  13.565  19.605  1.00  0.00     0.012 C 
ATOM     16  C   UNL     1      18.107  14.075  18.494  1.00  0.00     0.171 C 
ATOM     17  C   UNL     1      17.502  13.015  17.727  1.00  0.00     0.264 C 
ATOM     18  O   UNL     1      16.899  13.140  16.629  1.00  0.00    -0.282 OA
ATOM     19  C   UNL     1      17.688  11.788  18.467  1.00  0.00     0.217 C 
ATOM     20  O   UNL     1      17.285  10.660  18.080  1.00  0.00    -0.289 OA
ATOM     21  C   UNL     1      18.512  12.067  19.710  1.00  0.00     0.069 C 
ATOM     22  C   UNL     1      19.916  11.439  19.531  1.00  0.00     0.026 C 
ATOM     23  C   UNL     1      17.763  10.144  21.198  1.00  0.00     0.013 C 
ATOM     24  C   UNL     1      16.094  13.714  26.104  1.00  0.00     0.014 C 
ENDROOT
BRANCH  11  25
ATOM     25  O   UNL     1      14.958  10.318  24.910  1.00  0.00    -0.393 OA
ATOM     26  H   UNL     1      15.209  10.410  23.953  1.00  0.00     0.210 HD
ENDBRANCH  11  25
BRANCH  16  27
ATOM     27  O   UNL     1      18.055  15.424  18.144  1.00  0.00    -0.504 OA
ATOM     28  H   UNL     1      17.189  15.946  18.128  1.00  0.00     0.293 HD
ENDBRANCH  16  27
TORSDOF 2
ENDMDL
MODEL 2
REMARK VINA RESULT:    84.384      1.337      6.431
REMARK INTER + INTRA:          89.318
REMARK INTER:                  89.318
REMARK INTRA:                   0.000
REMARK UNBOUND:                 0.000
REMARK SMILES CC1(C)[C@@H](O)CC[C@]2(C)[C@H]1CC[C@]1(C)[C@H]2C=CC2=C(O)C(=O)C(=O)[C@@]21C
REMARK SMILES IDX 1 1 2 2 10 3 11 4 12 5 13 6 15 7 8 8 7 9 6 10 4 11 9 12
REMARK SMILES IDX 16 13 17 14 18 15 19 16 21 17 22 18 23 19 24 20 25 21 26 22
REMARK SMILES IDX 14 23 3 24 5 25 20 27
REMARK H PARENT 5 26 20 28
REMARK Flexibility Score: inf
ROOT
ATOM      1  C   UNL     1      19.265   9.877  18.707  1.00  0.00     0.014 C 
ATOM      2  C   UNL     1      19.257  11.374  19.143  1.00  0.00    -0.006 C 
ATOM      3  C   UNL     1      18.787  11.528  20.665  1.00  0.00     0.004 C 
ATOM      4  C   UNL     1      17.547  10.627  20.964  1.00  0.00     0.005 C 
ATOM      5  C   UNL     1      17.040  10.686  22.404  1.00  0.00     0.009 C 
ATOM      6  C   UNL     1      16.668  12.111  22.895  1.00  0.00    -0.009 C 
ATOM      7  C   UNL     1      17.920  13.060  22.614  1.00  0.00     0.025 C 
ATOM      8  C   UNL     1      18.524  13.022  21.120  1.00  0.00    -0.022 C 
ATOM      9  C   UNL     1      17.578  13.708  20.082  1.00  0.00     0.010 C 
ATOM     10  C   UNL     1      18.063  13.621  18.621  1.00  0.00     0.033 C 
ATOM     11  C   UNL     1      18.329  12.173  18.165  1.00  0.00     0.120 C 
ATOM     12  C   UNL     1      19.840  13.875  21.136  1.00  0.00     0.012 C 
ATOM     13  C   UNL     1      19.035  12.861  23.676  1.00  0.00    -0.022 C 
ATOM     14  C   UNL     1      18.882  12.240  24.847  1.00  0.00     0.005 C 
ATOM     15  C   UNL     1      17.599  11.658  25.199  1.00  0.00     0.012 C 
ATOM     16  C   UNL     1      17.419  10.604  26.002  1.00  0.00     0.171 C 
ATOM     17  C   UNL     1      16.061  10.138  25.882  1.00  0.00     0.264 C 
ATOM     18  O   UNL     1      15.552   9.161  26.492  1.00  0.00    -0.282 OA
ATOM     19  C   UNL     1      15.402  10.979  24.911  1.00  0.00     0.217 C 
ATOM     20  O   UNL     1      14.196  10.853  24.567  1.00  0.00    -0.289 OA
ATOM     21  C   UNL     1      16.353  12.069  24.456  1.00  0.00     0.069 C 
ATOM     22  C   UNL     1      15.871  13.425  25.030  1.00  0.00     0.026 C 
ATOM     23  C   UNL     1      15.374  12.609  22.171  1.00  0.00     0.013 C 
ATOM     24  C   UNL     1      20.732  11.838  18.959  1.00  0.00     0.014 C 
ENDROOT
BRANCH  11  25
ATOM     25  O   UNL     1      17.099  11.516  17.986  1.00  0.00    -0.393 OA
ATOM     26  H   UNL     1      17.300  10.575  17.739  1.00  0.00     0.210 HD
ENDBRANCH  11  25
BRANCH  16  27
ATOM     27  O   UNL     1      18.395   9.986  26.784  1.00  0.00    -0.504 OA
ATOM     28  H   UNL     1      18.708  10.374  27.665  1.00  0.00     0.293 HD
ENDBRANCH  16  27
TORSDOF 2
ENDMDL
