MODEL 1
REMARK VINA RESULT:    -3.663      0.000      0.000
REMARK INTER + INTRA:          -5.161
REMARK INTER:                  -4.948
REMARK INTRA:                  -0.213
REMARK UNBOUND:                -0.213
REMARK SMILES CCCCCCCC(=O)[O-]
REMARK SMILES IDX 5 1 6 2 7 3 8 4 9 5 10 6 4 7 3 8 2 9 1 10
REMARK H PARENT
REMARK Flexibility Score: inf
ROOT
ATOM      1  C   UNL     1      46.368  27.512   6.840  1.00  0.00     0.000 C 
ENDROOT
BRANCH   1   2
ATOM      2  C   UNL     1      46.531  26.670   5.563  1.00  0.00     0.006 C 
BRANCH   2   3
ATOM      3  C   UNL     1      45.901  27.347   4.339  1.00  0.00     0.053 C 
BRANCH   3   4
ATOM      4  C   UNL     1      45.193  26.361   3.462  1.00  0.00     0.041 C 
ATOM      5  O   UNL     1      45.296  25.127   3.685  1.00  0.00    -0.550 OA
ATOM      6  O   UNL     1      44.392  26.808   2.417  1.00  0.00    -0.550 OA
ENDBRANCH   3   4
ENDBRANCH   2   3
ENDBRANCH   1   2
BRANCH   1   7
ATOM      7  C   UNL     1      45.972  26.663   8.059  1.00  0.00     0.000 C 
BRANCH   7   8
ATOM      8  C   UNL     1      45.440  27.516   9.224  1.00  0.00    -0.000 C 
BRANCH   8   9
ATOM      9  C   UNL     1      45.224  28.984   8.828  1.00  0.00    -0.003 C 
ATOM     10  C   UNL     1      44.640  29.823   9.963  1.00  0.00     0.004 C 
ENDBRANCH   8   9
ENDBRANCH   7   8
ENDBRANCH   1   7
TORSDOF 6
ENDMDL
MODEL 2
REMARK VINA RESULT:    -3.633      3.165      5.267
REMARK INTER + INTRA:          -5.120
REMARK INTER:                  -4.828
REMARK INTRA:                  -0.292
REMARK UNBOUND:                -0.213
REMARK SMILES CCCCCCCC(=O)[O-]
REMARK SMILES IDX 5 1 6 2 7 3 8 4 9 5 10 6 4 7 3 8 2 9 1 10
REMARK H PARENT
REMARK Flexibility Score: inf
ROOT
ATOM      1  C   UNL     1      46.253  27.773   5.164  1.00  0.00     0.000 C 
ENDROOT
BRANCH   1   2
ATOM      2  C   UNL     1      46.443  28.030   6.670  1.00  0.00     0.006 C 
BRANCH   2   3
ATOM      3  C   UNL     1      46.307  26.746   7.498  1.00  0.00     0.053 C 
BRANCH   3   4
ATOM      4  C   UNL     1      45.545  26.982   8.766  1.00  0.00     0.041 C 
ATOM      5  O   UNL     1      45.329  26.032   9.562  1.00  0.00    -0.550 OA
ATOM      6  O   UNL     1      45.103  28.261   9.084  1.00  0.00    -0.550 OA
ENDBRANCH   3   4
ENDBRANCH   2   3
ENDBRANCH   1   2
BRANCH   1   7
ATOM      7  C   UNL     1      46.029  26.286   4.845  1.00  0.00     0.000 C 
BRANCH   7   8
ATOM      8  C   UNL     1      45.023  26.073   3.700  1.00  0.00    -0.000 C 
BRANCH   8   9
ATOM      9  C   UNL     1      44.724  27.370   2.932  1.00  0.00    -0.003 C 
ATOM     10  C   UNL     1      43.418  27.301   2.142  1.00  0.00     0.004 C 
ENDBRANCH   8   9
ENDBRANCH   7   8
ENDBRANCH   1   7
TORSDOF 6
ENDMDL
MODEL 3
REMARK VINA RESULT:    -3.604      0.853      1.493
REMARK INTER + INTRA:          -5.081
REMARK INTER:                  -4.842
REMARK INTRA:                  -0.239
REMARK UNBOUND:                -0.213
REMARK SMILES CCCCCCCC(=O)[O-]
REMARK SMILES IDX 5 1 6 2 7 3 8 4 9 5 10 6 4 7 3 8 2 9 1 10
REMARK H PARENT
REMARK Flexibility Score: inf
ROOT
ATOM      1  C   UNL     1      46.237  26.786   7.030  1.00  0.00     0.000 C 
ENDROOT
BRANCH   1   2
ATOM      2  C   UNL     1      46.856  26.729   5.623  1.00  0.00     0.006 C 
BRANCH   2   3
ATOM      3  C   UNL     1      45.923  27.317   4.556  1.00  0.00     0.053 C 
BRANCH   3   4
ATOM      4  C   UNL     1      45.371  26.254   3.655  1.00  0.00     0.041 C 
ATOM      5  O   UNL     1      45.723  25.055   3.801  1.00  0.00    -0.550 OA
ATOM      6  O   UNL     1      44.442  26.586   2.676  1.00  0.00    -0.550 OA
ENDBRANCH   3   4
ENDBRANCH   2   3
ENDBRANCH   1   2
BRANCH   1   7
ATOM      7  C   UNL     1      46.034  28.227   7.526  1.00  0.00     0.000 C 
BRANCH   7   8
ATOM      8  C   UNL     1      45.323  28.287   8.890  1.00  0.00    -0.000 C 
BRANCH   8   9
ATOM      9  C   UNL     1      45.299  26.925   9.601  1.00  0.00    -0.003 C 
ATOM     10  C   UNL     1      46.409  26.781  10.640  1.00  0.00     0.004 C 
ENDBRANCH   8   9
ENDBRANCH   7   8
ENDBRANCH   1   7
TORSDOF 6
ENDMDL
MODEL 4
REMARK VINA RESULT:    -3.566      1.825      2.432
REMARK INTER + INTRA:          -5.030
REMARK INTER:                  -4.770
REMARK INTRA:                  -0.260
REMARK UNBOUND:                -0.213
REMARK SMILES CCCCCCCC(=O)[O-]
REMARK SMILES IDX 5 1 6 2 7 3 8 4 9 5 10 6 4 7 3 8 2 9 1 10
REMARK H PARENT
REMARK Flexibility Score: inf
ROOT
ATOM      1  C   UNL     1      46.056  26.330   5.231  1.00  0.00     0.000 C 
ENDROOT
BRANCH   1   2
ATOM      2  C   UNL     1      45.539  26.245   3.784  1.00  0.00     0.006 C 
BRANCH   2   3
ATOM      3  C   UNL     1      44.979  27.585   3.290  1.00  0.00     0.053 C 
BRANCH   3   4
ATOM      4  C   UNL     1      44.267  27.439   1.980  1.00  0.00     0.041 C 
ATOM      5  O   UNL     1      44.919  27.218   0.926  1.00  0.00    -0.550 OA
ATOM      6  O   UNL     1      42.880  27.513   1.929  1.00  0.00    -0.550 OA
ENDBRANCH   3   4
ENDBRANCH   2   3
ENDBRANCH   1   2
BRANCH   1   7
ATOM      7  C   UNL     1      46.269  27.780   5.696  1.00  0.00     0.000 C 
BRANCH   7   8
ATOM      8  C   UNL     1      46.262  27.916   7.229  1.00  0.00    -0.000 C 
BRANCH   8   9
ATOM      9  C   UNL     1      46.003  26.577   7.936  1.00  0.00    -0.003 C 
ATOM     10  C   UNL     1      45.431  26.752   9.342  1.00  0.00     0.004 C 
ENDBRANCH   8   9
ENDBRANCH   7   8
ENDBRANCH   1   7
TORSDOF 6
ENDMDL
MODEL 5
REMARK VINA RESULT:    -3.533      1.322      1.869
REMARK INTER + INTRA:          -4.986
REMARK INTER:                  -4.652
REMARK INTRA:                  -0.335
REMARK UNBOUND:                -0.213
REMARK SMILES CCCCCCCC(=O)[O-]
REMARK SMILES IDX 5 1 6 2 7 3 8 4 9 5 10 6 4 7 3 8 2 9 1 10
REMARK H PARENT
REMARK Flexibility Score: inf
ROOT
ATOM      1  C   UNL     1      46.444  27.743   5.411  1.00  0.00     0.000 C 
ENDROOT
BRANCH   1   2
ATOM      2  C   UNL     1      46.467  26.288   4.910  1.00  0.00     0.006 C 
BRANCH   2   3
ATOM      3  C   UNL     1      45.202  25.928   4.120  1.00  0.00     0.053 C 
BRANCH   3   4
ATOM      4  C   UNL     1      44.990  26.853   2.961  1.00  0.00     0.041 C 
ATOM      5  O   UNL     1      43.922  27.510   2.862  1.00  0.00    -0.550 OA
ATOM      6  O   UNL     1      45.989  27.013   2.007  1.00  0.00    -0.550 OA
ENDBRANCH   3   4
ENDBRANCH   2   3
ENDBRANCH   1   2
BRANCH   1   7
ATOM      7  C   UNL     1      46.146  27.843   6.916  1.00  0.00     0.000 C 
BRANCH   7   8
ATOM      8  C   UNL     1      46.364  26.508   7.650  1.00  0.00    -0.000 C 
BRANCH   8   9
ATOM      9  C   UNL     1      45.633  26.454   9.001  1.00  0.00    -0.003 C 
ATOM     10  C   UNL     1      45.217  27.836   9.503  1.00  0.00     0.004 C 
ENDBRANCH   8   9
ENDBRANCH   7   8
ENDBRANCH   1   7
TORSDOF 6
ENDMDL
MODEL 6
REMARK VINA RESULT:    -3.243      2.175      3.626
REMARK INTER + INTRA:          -4.594
REMARK INTER:                  -4.338
REMARK INTRA:                  -0.256
REMARK UNBOUND:                -0.213
REMARK SMILES CCCCCCCC(=O)[O-]
REMARK SMILES IDX 5 1 6 2 7 3 8 4 9 5 10 6 4 7 3 8 2 9 1 10
REMARK H PARENT
REMARK Flexibility Score: inf
ROOT
ATOM      1  C   UNL     1      44.894  26.243   3.588  1.00  0.00     0.000 C 
ENDROOT
BRANCH   1   2
ATOM      2  C   UNL     1      43.928  27.050   2.703  1.00  0.00     0.006 C 
BRANCH   2   3
ATOM      3  C   UNL     1      44.492  28.431   2.341  1.00  0.00     0.053 C 
BRANCH   3   4
ATOM      4  C   UNL     1      45.103  28.440   0.974  1.00  0.00     0.041 C 
ATOM      5  O   UNL     1      45.259  27.364   0.343  1.00  0.00    -0.550 OA
ATOM      6  O   UNL     1      45.468  29.645   0.384  1.00  0.00    -0.550 OA
ENDBRANCH   3   4
ENDBRANCH   2   3
ENDBRANCH   1   2
BRANCH   1   7
ATOM      7  C   UNL     1      45.820  27.143   4.423  1.00  0.00     0.000 C 
BRANCH   7   8
ATOM      8  C   UNL     1      46.696  26.342   5.402  1.00  0.00    -0.000 C 
BRANCH   8   9
ATOM      9  C   UNL     1      46.398  26.682   6.870  1.00  0.00    -0.003 C 
ATOM     10  C   UNL     1      46.161  28.175   7.095  1.00  0.00     0.004 C 
ENDBRANCH   8   9
ENDBRANCH   7   8
ENDBRANCH   1   7
TORSDOF 6
ENDMDL
MODEL 7
REMARK VINA RESULT:    -3.233      2.985      5.415
REMARK INTER + INTRA:          -4.581
REMARK INTER:                  -4.365
REMARK INTRA:                  -0.216
REMARK UNBOUND:                -0.213
REMARK SMILES CCCCCCCC(=O)[O-]
REMARK SMILES IDX 5 1 6 2 7 3 8 4 9 5 10 6 4 7 3 8 2 9 1 10
REMARK H PARENT
REMARK Flexibility Score: inf
ROOT
ATOM      1  C   UNL     1      46.319  27.274   2.712  1.00  0.00     0.000 C 
ENDROOT
BRANCH   1   2
ATOM      2  C   UNL     1      45.664  26.609   3.936  1.00  0.00     0.006 C 
BRANCH   2   3
ATOM      3  C   UNL     1      46.693  26.237   5.012  1.00  0.00     0.053 C 
BRANCH   3   4
ATOM      4  C   UNL     1      46.475  27.009   6.277  1.00  0.00     0.041 C 
ATOM      5  O   UNL     1      46.133  28.219   6.231  1.00  0.00    -0.550 OA
ATOM      6  O   UNL     1      46.618  26.380   7.509  1.00  0.00    -0.550 OA
ENDBRANCH   3   4
ENDBRANCH   2   3
ENDBRANCH   1   2
BRANCH   1   7
ATOM      7  C   UNL     1      45.285  27.794   1.701  1.00  0.00     0.000 C 
BRANCH   7   8
ATOM      8  C   UNL     1      44.027  28.360   2.382  1.00  0.00    -0.000 C 
BRANCH   8   9
ATOM      9  C   UNL     1      42.765  27.546   2.054  1.00  0.00    -0.003 C 
ATOM     10  C   UNL     1      41.490  28.190   2.596  1.00  0.00     0.004 C 
ENDBRANCH   8   9
ENDBRANCH   7   8
ENDBRANCH   1   7
TORSDOF 6
ENDMDL
MODEL 8
REMARK VINA RESULT:    -3.088      2.903      4.142
REMARK INTER + INTRA:          -4.385
REMARK INTER:                  -3.888
REMARK INTRA:                  -0.497
REMARK UNBOUND:                -0.213
REMARK SMILES CCCCCCCC(=O)[O-]
REMARK SMILES IDX 5 1 6 2 7 3 8 4 9 5 10 6 4 7 3 8 2 9 1 10
REMARK H PARENT
REMARK Flexibility Score: inf
ROOT
ATOM      1  C   UNL     1      46.595  28.818   3.489  1.00  0.00     0.000 C 
ENDROOT
BRANCH   1   2
ATOM      2  C   UNL     1      45.593  29.456   2.511  1.00  0.00     0.006 C 
BRANCH   2   3
ATOM      3  C   UNL     1      44.279  28.666   2.432  1.00  0.00     0.053 C 
BRANCH   3   4
ATOM      4  C   UNL     1      44.352  27.569   1.416  1.00  0.00     0.041 C 
ATOM      5  O   UNL     1      43.431  26.715   1.338  1.00  0.00    -0.550 OA
ATOM      6  O   UNL     1      45.423  27.509   0.532  1.00  0.00    -0.550 OA
ENDBRANCH   3   4
ENDBRANCH   2   3
ENDBRANCH   1   2
BRANCH   1   7
ATOM      7  C   UNL     1      46.010  28.638   4.899  1.00  0.00     0.000 C 
BRANCH   7   8
ATOM      8  C   UNL     1      46.411  27.297   5.538  1.00  0.00    -0.000 C 
BRANCH   8   9
ATOM      9  C   UNL     1      46.570  26.176   4.500  1.00  0.00    -0.003 C 
ATOM     10  C   UNL     1      45.247  25.488   4.166  1.00  0.00     0.004 C 
ENDBRANCH   8   9
ENDBRANCH   7   8
ENDBRANCH   1   7
TORSDOF 6
ENDMDL
MODEL 9
REMARK VINA RESULT:    -3.049      5.353      6.643
REMARK INTER + INTRA:          -4.332
REMARK INTER:                  -4.088
REMARK INTRA:                  -0.243
REMARK UNBOUND:                -0.213
REMARK SMILES CCCCCCCC(=O)[O-]
REMARK SMILES IDX 5 1 6 2 7 3 8 4 9 5 10 6 4 7 3 8 2 9 1 10
REMARK H PARENT
REMARK Flexibility Score: inf
ROOT
ATOM      1  C   UNL     1      44.994  29.224   1.011  1.00  0.00     0.000 C 
ENDROOT
BRANCH   1   2
ATOM      2  C   UNL     1      46.006  28.495   0.110  1.00  0.00     0.006 C 
BRANCH   2   3
ATOM      3  C   UNL     1      46.272  29.257  -1.195  1.00  0.00     0.053 C 
BRANCH   3   4
ATOM      4  C   UNL     1      46.085  28.382  -2.396  1.00  0.00     0.041 C 
ATOM      5  O   UNL     1      45.713  28.880  -3.490  1.00  0.00    -0.550 OA
ATOM      6  O   UNL     1      46.355  27.021  -2.315  1.00  0.00    -0.550 OA
ENDBRANCH   3   4
ENDBRANCH   2   3
ENDBRANCH   1   2
BRANCH   1   7
ATOM      7  C   UNL     1      45.029  28.722   2.464  1.00  0.00     0.000 C 
BRANCH   7   8
ATOM      8  C   UNL     1      44.289  27.385   2.644  1.00  0.00    -0.000 C 
BRANCH   8   9
ATOM      9  C   UNL     1      42.974  27.330   1.851  1.00  0.00    -0.003 C 
ATOM     10  C   UNL     1      41.832  28.066   2.549  1.00  0.00     0.004 C 
ENDBRANCH   8   9
ENDBRANCH   7   8
ENDBRANCH   1   7
TORSDOF 6
ENDMDL
