MODEL 1
REMARK VINA RESULT:    -4.778      0.000      0.000
REMARK INTER + INTRA:          -8.088
REMARK INTER:                  -7.572
REMARK INTRA:                  -0.516
REMARK UNBOUND:                -0.516
REMARK SMILES CCCCCCCCCCCC(=O)[O-]
REMARK SMILES IDX 7 1 8 2 9 3 10 4 11 5 12 6 13 7 14 8 6 9 5 10 4 11 3 12 2 13
REMARK SMILES IDX 1 14
REMARK H PARENT
REMARK Flexibility Score: inf
ROOT
ATOM      1  C   UNL     1      15.137   0.491  41.011  1.00  0.00     0.000 C 
ENDROOT
BRANCH   1   2
ATOM      2  C   UNL     1      15.048  -1.046  41.005  1.00  0.00     0.000 C 
BRANCH   2   3
ATOM      3  C   UNL     1      13.727  -1.562  40.408  1.00  0.00     0.000 C 
BRANCH   3   4
ATOM      4  C   UNL     1      12.891  -0.442  39.770  1.00  0.00     0.006 C 
BRANCH   4   5
ATOM      5  C   UNL     1      11.400  -0.550  40.115  1.00  0.00     0.053 C 
BRANCH   5   6
ATOM      6  C   UNL     1      11.129   0.055  41.455  1.00  0.00     0.041 C 
ATOM      7  O   UNL     1      10.372  -0.531  42.274  1.00  0.00    -0.550 OA
ATOM      8  O   UNL     1      11.752   1.242  41.822  1.00  0.00    -0.550 OA
ENDBRANCH   5   6
ENDBRANCH   4   5
ENDBRANCH   3   4
ENDBRANCH   2   3
ENDBRANCH   1   2
BRANCH   1   9
ATOM      9  C   UNL     1      16.473   1.068  40.502  1.00  0.00     0.000 C 
BRANCH   9  10
ATOM     10  C   UNL     1      17.048   2.224  41.342  1.00  0.00    -0.000 C 
BRANCH  10  11
ATOM     11  C   UNL     1      17.870   3.216  40.507  1.00  0.00    -0.000 C 
BRANCH  11  12
ATOM     12  C   UNL     1      19.320   2.739  40.359  1.00  0.00    -0.000 C 
BRANCH  12  13
ATOM     13  C   UNL     1      20.191   3.261  41.508  1.00  0.00    -0.003 C 
ATOM     14  C   UNL     1      21.470   2.440  41.646  1.00  0.00     0.004 C 
ENDBRANCH  12  13
ENDBRANCH  11  12
ENDBRANCH  10  11
ENDBRANCH   9  10
ENDBRANCH   1   9
TORSDOF 10
ENDMDL
MODEL 2
REMARK VINA RESULT:    -4.597      5.110      7.219
REMARK INTER + INTRA:          -7.801
REMARK INTER:                  -6.772
REMARK INTRA:                  -1.029
REMARK UNBOUND:                -0.516
REMARK SMILES CCCCCCCCCCCC(=O)[O-]
REMARK SMILES IDX 7 1 8 2 9 3 10 4 11 5 12 6 13 7 14 8 6 9 5 10 4 11 3 12 2 13
REMARK SMILES IDX 1 14
REMARK H PARENT
REMARK Flexibility Score: inf
ROOT
ATOM      1  C   UNL     1      15.272   5.610  42.237  1.00  0.00     0.000 C 
ENDROOT
BRANCH   1   2
ATOM      2  C   UNL     1      16.146   5.386  43.483  1.00  0.00     0.000 C 
BRANCH   2   3
ATOM      3  C   UNL     1      17.236   6.459  43.646  1.00  0.00     0.000 C 
BRANCH   3   4
ATOM      4  C   UNL     1      18.102   6.616  42.387  1.00  0.00     0.006 C 
BRANCH   4   5
ATOM      5  C   UNL     1      18.350   8.084  42.020  1.00  0.00     0.053 C 
BRANCH   5   6
ATOM      6  C   UNL     1      17.380   8.532  40.973  1.00  0.00     0.041 C 
ATOM      7  O   UNL     1      17.706   8.507  39.757  1.00  0.00    -0.550 OA
ATOM      8  O   UNL     1      16.099   8.928  41.335  1.00  0.00    -0.550 OA
ENDBRANCH   5   6
ENDBRANCH   4   5
ENDBRANCH   3   4
ENDBRANCH   2   3
ENDBRANCH   1   2
BRANCH   1   9
ATOM      9  C   UNL     1      15.182   4.406  41.277  1.00  0.00     0.000 C 
BRANCH   9  10
ATOM     10  C   UNL     1      16.467   4.104  40.485  1.00  0.00    -0.000 C 
BRANCH  10  11
ATOM     11  C   UNL     1      16.989   2.679  40.717  1.00  0.00    -0.000 C 
BRANCH  11  12
ATOM     12  C   UNL     1      18.253   2.692  41.584  1.00  0.00    -0.000 C 
BRANCH  12  13
ATOM     13  C   UNL     1      19.517   2.691  40.716  1.00  0.00    -0.003 C 
ATOM     14  C   UNL     1      20.700   3.295  41.465  1.00  0.00     0.004 C 
ENDBRANCH  12  13
ENDBRANCH  11  12
ENDBRANCH  10  11
ENDBRANCH   9  10
ENDBRANCH   1   9
TORSDOF 10
ENDMDL
MODEL 3
REMARK VINA RESULT:    -4.584      2.874      4.048
REMARK INTER + INTRA:          -7.780
REMARK INTER:                  -7.151
REMARK INTRA:                  -0.629
REMARK UNBOUND:                -0.516
REMARK SMILES CCCCCCCCCCCC(=O)[O-]
REMARK SMILES IDX 7 1 8 2 9 3 10 4 11 5 12 6 13 7 14 8 6 9 5 10 4 11 3 12 2 13
REMARK SMILES IDX 1 14
REMARK H PARENT
REMARK Flexibility Score: inf
ROOT
ATOM      1  C   UNL     1      15.537   0.312  40.975  1.00  0.00     0.000 C 
ENDROOT
BRANCH   1   2
ATOM      2  C   UNL     1      14.035   0.645  40.989  1.00  0.00     0.000 C 
BRANCH   2   3
ATOM      3  C   UNL     1      13.158  -0.572  41.332  1.00  0.00     0.000 C 
BRANCH   3   4
ATOM      4  C   UNL     1      13.058  -1.571  40.168  1.00  0.00     0.006 C 
BRANCH   4   5
ATOM      5  C   UNL     1      14.096  -2.696  40.266  1.00  0.00     0.053 C 
BRANCH   5   6
ATOM      6  C   UNL     1      13.601  -3.924  39.570  1.00  0.00     0.041 C 
ATOM      7  O   UNL     1      12.365  -4.130  39.448  1.00  0.00    -0.550 OA
ATOM      8  O   UNL     1      14.506  -4.818  39.010  1.00  0.00    -0.550 OA
ENDBRANCH   5   6
ENDBRANCH   4   5
ENDBRANCH   3   4
ENDBRANCH   2   3
ENDBRANCH   1   2
BRANCH   1   9
ATOM      9  C   UNL     1      16.460   1.479  40.570  1.00  0.00     0.000 C 
BRANCH   9  10
ATOM     10  C   UNL     1      16.969   2.346  41.735  1.00  0.00    -0.000 C 
BRANCH  10  11
ATOM     11  C   UNL     1      17.348   3.768  41.299  1.00  0.00    -0.000 C 
BRANCH  11  12
ATOM     12  C   UNL     1      16.143   4.496  40.692  1.00  0.00    -0.000 C 
BRANCH  12  13
ATOM     13  C   UNL     1      15.116   4.856  41.771  1.00  0.00    -0.003 C 
ATOM     14  C   UNL     1      13.718   4.385  41.380  1.00  0.00     0.004 C 
ENDBRANCH  12  13
ENDBRANCH  11  12
ENDBRANCH  10  11
ENDBRANCH   9  10
ENDBRANCH   1   9
TORSDOF 10
ENDMDL
MODEL 4
REMARK VINA RESULT:    -4.493      3.519      7.080
REMARK INTER + INTRA:          -7.636
REMARK INTER:                  -7.276
REMARK INTRA:                  -0.360
REMARK UNBOUND:                -0.516
REMARK SMILES CCCCCCCCCCCC(=O)[O-]
REMARK SMILES IDX 7 1 8 2 9 3 10 4 11 5 12 6 13 7 14 8 6 9 5 10 4 11 3 12 2 13
REMARK SMILES IDX 1 14
REMARK H PARENT
REMARK Flexibility Score: inf
ROOT
ATOM      1  C   UNL     1      17.219   1.739  40.603  1.00  0.00     0.000 C 
ENDROOT
BRANCH   1   2
ATOM      2  C   UNL     1      17.586   3.182  40.993  1.00  0.00     0.000 C 
BRANCH   2   3
ATOM      3  C   UNL     1      16.356   4.101  41.100  1.00  0.00     0.000 C 
BRANCH   3   4
ATOM      4  C   UNL     1      16.649   5.388  41.886  1.00  0.00     0.006 C 
BRANCH   4   5
ATOM      5  C   UNL     1      16.738   6.623  40.981  1.00  0.00     0.053 C 
BRANCH   5   6
ATOM      6  C   UNL     1      15.543   7.502  41.178  1.00  0.00     0.041 C 
ATOM      7  O   UNL     1      15.692   8.723  41.444  1.00  0.00    -0.550 OA
ATOM      8  O   UNL     1      14.264   6.983  41.017  1.00  0.00    -0.550 OA
ENDBRANCH   5   6
ENDBRANCH   4   5
ENDBRANCH   3   4
ENDBRANCH   2   3
ENDBRANCH   1   2
BRANCH   1   9
ATOM      9  C   UNL     1      15.717   1.401  40.696  1.00  0.00     0.000 C 
BRANCH   9  10
ATOM     10  C   UNL     1      15.395  -0.080  40.964  1.00  0.00    -0.000 C 
BRANCH  10  11
ATOM     11  C   UNL     1      13.896  -0.393  40.856  1.00  0.00    -0.000 C 
BRANCH  11  12
ATOM     12  C   UNL     1      13.644  -1.535  39.865  1.00  0.00    -0.000 C 
BRANCH  12  13
ATOM     13  C   UNL     1      14.076  -2.883  40.456  1.00  0.00    -0.003 C 
ATOM     14  C   UNL     1      13.864  -4.016  39.456  1.00  0.00     0.004 C 
ENDBRANCH  12  13
ENDBRANCH  11  12
ENDBRANCH  10  11
ENDBRANCH   9  10
ENDBRANCH   1   9
TORSDOF 10
ENDMDL
MODEL 5
REMARK VINA RESULT:    -4.400      1.327      2.406
REMARK INTER + INTRA:          -7.489
REMARK INTER:                  -6.968
REMARK INTRA:                  -0.521
REMARK UNBOUND:                -0.516
REMARK SMILES CCCCCCCCCCCC(=O)[O-]
REMARK SMILES IDX 7 1 8 2 9 3 10 4 11 5 12 6 13 7 14 8 6 9 5 10 4 11 3 12 2 13
REMARK SMILES IDX 1 14
REMARK H PARENT
REMARK Flexibility Score: inf
ROOT
ATOM      1  C   UNL     1      13.575  -0.892  41.400  1.00  0.00     0.000 C 
ENDROOT
BRANCH   1   2
ATOM      2  C   UNL     1      12.648  -1.315  40.247  1.00  0.00     0.000 C 
BRANCH   2   3
ATOM      3  C   UNL     1      11.977  -0.117  39.553  1.00  0.00     0.000 C 
BRANCH   3   4
ATOM      4  C   UNL     1      10.542   0.122  40.049  1.00  0.00     0.006 C 
BRANCH   4   5
ATOM      5  C   UNL     1       9.858  -1.168  40.517  1.00  0.00     0.053 C 
BRANCH   5   6
ATOM      6  C   UNL     1       9.358  -1.016  41.919  1.00  0.00     0.041 C 
ATOM      7  O   UNL     1       9.955  -0.255  42.724  1.00  0.00    -0.550 OA
ATOM      8  O   UNL     1       8.204  -1.676  42.321  1.00  0.00    -0.550 OA
ENDBRANCH   5   6
ENDBRANCH   4   5
ENDBRANCH   3   4
ENDBRANCH   2   3
ENDBRANCH   1   2
BRANCH   1   9
ATOM      9  C   UNL     1      14.993  -0.460  40.972  1.00  0.00     0.000 C 
BRANCH   9  10
ATOM     10  C   UNL     1      15.296   1.040  41.133  1.00  0.00    -0.000 C 
BRANCH  10  11
ATOM     11  C   UNL     1      16.714   1.414  40.680  1.00  0.00    -0.000 C 
BRANCH  11  12
ATOM     12  C   UNL     1      17.191   2.696  41.373  1.00  0.00    -0.000 C 
BRANCH  12  13
ATOM     13  C   UNL     1      18.723   2.771  41.395  1.00  0.00    -0.003 C 
ATOM     14  C   UNL     1      19.312   2.421  40.032  1.00  0.00     0.004 C 
ENDBRANCH  12  13
ENDBRANCH  11  12
ENDBRANCH  10  11
ENDBRANCH   9  10
ENDBRANCH   1   9
TORSDOF 10
ENDMDL
MODEL 6
REMARK VINA RESULT:    -4.353      1.888      2.738
REMARK INTER + INTRA:          -7.414
REMARK INTER:                  -6.843
REMARK INTRA:                  -0.572
REMARK UNBOUND:                -0.516
REMARK SMILES CCCCCCCCCCCC(=O)[O-]
REMARK SMILES IDX 7 1 8 2 9 3 10 4 11 5 12 6 13 7 14 8 6 9 5 10 4 11 3 12 2 13
REMARK SMILES IDX 1 14
REMARK H PARENT
REMARK Flexibility Score: inf
ROOT
ATOM      1  C   UNL     1      15.463  -0.050  41.006  1.00  0.00     0.000 C 
ENDROOT
BRANCH   1   2
ATOM      2  C   UNL     1      14.225  -0.648  40.315  1.00  0.00     0.000 C 
BRANCH   2   3
ATOM      3  C   UNL     1      13.127  -1.058  41.312  1.00  0.00     0.000 C 
BRANCH   3   4
ATOM      4  C   UNL     1      12.187   0.106  41.665  1.00  0.00     0.006 C 
BRANCH   4   5
ATOM      5  C   UNL     1      10.988   0.203  40.714  1.00  0.00     0.053 C 
BRANCH   5   6
ATOM      6  C   UNL     1      10.039  -0.929  40.953  1.00  0.00     0.041 C 
ATOM      7  O   UNL     1       9.333  -0.955  41.995  1.00  0.00    -0.550 OA
ATOM      8  O   UNL     1       9.897  -1.930  40.000  1.00  0.00    -0.550 OA
ENDBRANCH   5   6
ENDBRANCH   4   5
ENDBRANCH   3   4
ENDBRANCH   2   3
ENDBRANCH   1   2
BRANCH   1   9
ATOM      9  C   UNL     1      15.787   1.407  40.619  1.00  0.00     0.000 C 
BRANCH   9  10
ATOM     10  C   UNL     1      17.275   1.790  40.700  1.00  0.00    -0.000 C 
BRANCH  10  11
ATOM     11  C   UNL     1      17.544   3.235  40.256  1.00  0.00    -0.000 C 
BRANCH  11  12
ATOM     12  C   UNL     1      17.364   4.211  41.425  1.00  0.00    -0.000 C 
BRANCH  12  13
ATOM     13  C   UNL     1      16.502   5.410  41.013  1.00  0.00    -0.003 C 
ATOM     14  C   UNL     1      15.025   5.032  40.952  1.00  0.00     0.004 C 
ENDBRANCH  12  13
ENDBRANCH  11  12
ENDBRANCH  10  11
ENDBRANCH   9  10
ENDBRANCH   1   9
TORSDOF 10
ENDMDL
MODEL 7
REMARK VINA RESULT:    -4.353      3.652      7.104
REMARK INTER + INTRA:          -7.414
REMARK INTER:                  -6.858
REMARK INTRA:                  -0.556
REMARK UNBOUND:                -0.516
REMARK SMILES CCCCCCCCCCCC(=O)[O-]
REMARK SMILES IDX 7 1 8 2 9 3 10 4 11 5 12 6 13 7 14 8 6 9 5 10 4 11 3 12 2 13
REMARK SMILES IDX 1 14
REMARK H PARENT
REMARK Flexibility Score: inf
ROOT
ATOM      1  C   UNL     1      16.312   1.141  40.508  1.00  0.00     0.000 C 
ENDROOT
BRANCH   1   2
ATOM      2  C   UNL     1      16.916   2.297  41.327  1.00  0.00     0.000 C 
BRANCH   2   3
ATOM      3  C   UNL     1      17.061   3.592  40.508  1.00  0.00     0.000 C 
BRANCH   3   4
ATOM      4  C   UNL     1      15.953   4.611  40.816  1.00  0.00     0.006 C 
BRANCH   4   5
ATOM      5  C   UNL     1      16.438   6.061  40.703  1.00  0.00     0.053 C 
BRANCH   5   6
ATOM      6  C   UNL     1      16.941   6.549  42.025  1.00  0.00     0.041 C 
ATOM      7  O   UNL     1      16.159   7.126  42.826  1.00  0.00    -0.550 OA
ATOM      8  O   UNL     1      18.260   6.321  42.394  1.00  0.00    -0.550 OA
ENDBRANCH   5   6
ENDBRANCH   4   5
ENDBRANCH   3   4
ENDBRANCH   2   3
ENDBRANCH   1   2
BRANCH   1   9
ATOM      9  C   UNL     1      15.055   0.494  41.124  1.00  0.00     0.000 C 
BRANCH   9  10
ATOM     10  C   UNL     1      14.954  -1.032  40.953  1.00  0.00    -0.000 C 
BRANCH  10  11
ATOM     11  C   UNL     1      13.947  -1.446  39.871  1.00  0.00    -0.000 C 
BRANCH  11  12
ATOM     12  C   UNL     1      12.817  -0.418  39.750  1.00  0.00    -0.000 C 
BRANCH  12  13
ATOM     13  C   UNL     1      11.571  -0.876  40.517  1.00  0.00    -0.003 C 
ATOM     14  C   UNL     1      11.310   0.017  41.726  1.00  0.00     0.004 C 
ENDBRANCH  12  13
ENDBRANCH  11  12
ENDBRANCH  10  11
ENDBRANCH   9  10
ENDBRANCH   1   9
TORSDOF 10
ENDMDL
MODEL 8
REMARK VINA RESULT:    -4.321      3.987      5.565
REMARK INTER + INTRA:          -7.364
REMARK INTER:                  -6.526
REMARK INTRA:                  -0.839
REMARK UNBOUND:                -0.516
REMARK SMILES CCCCCCCCCCCC(=O)[O-]
REMARK SMILES IDX 7 1 8 2 9 3 10 4 11 5 12 6 13 7 14 8 6 9 5 10 4 11 3 12 2 13
REMARK SMILES IDX 1 14
REMARK H PARENT
REMARK Flexibility Score: inf
ROOT
ATOM      1  C   UNL     1      10.918   0.504  39.807  1.00  0.00     0.000 C 
ENDROOT
BRANCH   1   2
ATOM      2  C   UNL     1      10.225  -0.750  39.247  1.00  0.00     0.000 C 
BRANCH   2   3
ATOM      3  C   UNL     1       8.730  -0.525  38.958  1.00  0.00     0.000 C 
BRANCH   3   4
ATOM      4  C   UNL     1       7.825  -1.467  39.767  1.00  0.00     0.006 C 
BRANCH   4   5
ATOM      5  C   UNL     1       8.570  -2.155  40.917  1.00  0.00     0.053 C 
BRANCH   5   6
ATOM      6  C   UNL     1       8.122  -1.605  42.234  1.00  0.00     0.041 C 
ATOM      7  O   UNL     1       8.711  -1.941  43.294  1.00  0.00    -0.550 OA
ATOM      8  O   UNL     1       7.086  -0.681  42.284  1.00  0.00    -0.550 OA
ENDBRANCH   5   6
ENDBRANCH   4   5
ENDBRANCH   3   4
ENDBRANCH   2   3
ENDBRANCH   1   2
BRANCH   1   9
ATOM      9  C   UNL     1      11.211   0.466  41.321  1.00  0.00     0.000 C 
BRANCH   9  10
ATOM     10  C   UNL     1      12.558  -0.168  41.710  1.00  0.00    -0.000 C 
BRANCH  10  11
ATOM     11  C   UNL     1      13.548  -0.231  40.539  1.00  0.00    -0.000 C 
BRANCH  11  12
ATOM     12  C   UNL     1      14.817  -0.995  40.934  1.00  0.00    -0.000 C 
BRANCH  12  13
ATOM     13  C   UNL     1      14.535  -2.496  41.074  1.00  0.00    -0.003 C 
ATOM     14  C   UNL     1      13.729  -3.018  39.888  1.00  0.00     0.004 C 
ENDBRANCH  12  13
ENDBRANCH  11  12
ENDBRANCH  10  11
ENDBRANCH   9  10
ENDBRANCH   1   9
TORSDOF 10
ENDMDL
MODEL 9
REMARK VINA RESULT:    -4.290      4.619      6.231
REMARK INTER + INTRA:          -7.314
REMARK INTER:                  -6.313
REMARK INTRA:                  -1.001
REMARK UNBOUND:                -0.516
REMARK SMILES CCCCCCCCCCCC(=O)[O-]
REMARK SMILES IDX 7 1 8 2 9 3 10 4 11 5 12 6 13 7 14 8 6 9 5 10 4 11 3 12 2 13
REMARK SMILES IDX 1 14
REMARK H PARENT
REMARK Flexibility Score: inf
ROOT
ATOM      1  C   UNL     1      10.704   0.363  40.005  1.00  0.00     0.000 C 
ENDROOT
BRANCH   1   2
ATOM      2  C   UNL     1       9.851  -0.646  39.215  1.00  0.00     0.000 C 
BRANCH   2   3
ATOM      3  C   UNL     1       9.318  -1.791  40.094  1.00  0.00     0.000 C 
BRANCH   3   4
ATOM      4  C   UNL     1       9.973  -3.140  39.764  1.00  0.00     0.006 C 
BRANCH   4   5
ATOM      5  C   UNL     1       9.668  -3.610  38.336  1.00  0.00     0.053 C 
BRANCH   5   6
ATOM      6  C   UNL     1      10.096  -5.031  38.150  1.00  0.00     0.041 C 
ATOM      7  O   UNL     1      11.074  -5.488  38.798  1.00  0.00    -0.550 OA
ATOM      8  O   UNL     1       9.383  -5.866  37.300  1.00  0.00    -0.550 OA
ENDBRANCH   5   6
ENDBRANCH   4   5
ENDBRANCH   3   4
ENDBRANCH   2   3
ENDBRANCH   1   2
BRANCH   1   9
ATOM      9  C   UNL     1      11.073  -0.076  41.437  1.00  0.00     0.000 C 
BRANCH   9  10
ATOM     10  C   UNL     1      12.581  -0.233  41.705  1.00  0.00    -0.000 C 
BRANCH  10  11
ATOM     11  C   UNL     1      13.412  -0.304  40.416  1.00  0.00    -0.000 C 
BRANCH  11  12
ATOM     12  C   UNL     1      14.693  -1.117  40.633  1.00  0.00    -0.000 C 
BRANCH  12  13
ATOM     13  C   UNL     1      14.367  -2.558  41.044  1.00  0.00    -0.003 C 
ATOM     14  C   UNL     1      13.767  -3.341  39.880  1.00  0.00     0.004 C 
ENDBRANCH  12  13
ENDBRANCH  11  12
ENDBRANCH  10  11
ENDBRANCH   9  10
ENDBRANCH   1   9
TORSDOF 10
ENDMDL
