MODEL 1
REMARK VINA RESULT:    -5.265      0.000      0.000
REMARK INTER + INTRA:          -5.980
REMARK INTER:                  -5.573
REMARK INTRA:                  -0.407
REMARK UNBOUND:                -0.407
REMARK SMILES CC1=CC[C@@H]2[C@H]3[C@H](C(C)C)CC[C@]2(C)[C@@H]13
REMARK SMILES IDX 1 1 2 2 3 3 4 4 5 5 6 6 15 7 13 8 12 9 11 10 7 11 14 12 8 13
REMARK SMILES IDX 9 14 10 15
REMARK H PARENT
REMARK Flexibility Score: inf
ROOT
ATOM      1  C   UNL     1       1.866  12.791  14.822  1.00  0.00     0.039 C 
ATOM      2  C   UNL     1       1.098  13.658  15.775  1.00  0.00    -0.073 C 
ATOM      3  C   UNL     1       0.095  13.151  16.538  1.00  0.00    -0.027 C 
ATOM      4  C   UNL     1      -0.640  14.081  17.507  1.00  0.00     0.031 C 
ATOM      5  C   UNL     1      -0.079  15.537  17.398  1.00  0.00     0.003 C 
ATOM      6  C   UNL     1       0.026  15.883  15.894  1.00  0.00     0.004 C 
ATOM      7  C   UNL     1       1.394  15.152  15.919  1.00  0.00     0.024 C 
ATOM      8  C   UNL     1       1.470  15.551  17.413  1.00  0.00    -0.022 C 
ATOM      9  C   UNL     1       1.963  17.023  17.564  1.00  0.00     0.008 C 
ATOM     10  C   UNL     1       1.502  17.929  16.391  1.00  0.00     0.005 C 
ATOM     11  C   UNL     1       0.184  17.424  15.725  1.00  0.00    -0.005 C 
ATOM     12  C   UNL     1       2.211  14.616  18.398  1.00  0.00     0.012 C 
ENDROOT
BRANCH  11  13
ATOM     13  C   UNL     1      -0.004  17.878  14.246  1.00  0.00    -0.014 C 
ATOM     14  C   UNL     1       1.343  17.999  13.517  1.00  0.00     0.007 C 
ATOM     15  C   UNL     1      -0.974  17.003  13.435  1.00  0.00     0.007 C 
ENDBRANCH  11  13
TORSDOF 1
ENDMDL
MODEL 2
REMARK VINA RESULT:    -5.225      1.198      4.056
REMARK INTER + INTRA:          -5.938
REMARK INTER:                  -5.511
REMARK INTRA:                  -0.427
REMARK UNBOUND:                -0.407
REMARK SMILES CC1=CC[C@@H]2[C@H]3[C@H](C(C)C)CC[C@]2(C)[C@@H]13
REMARK SMILES IDX 1 1 2 2 3 3 4 4 5 5 6 6 15 7 13 8 12 9 11 10 7 11 14 12 8 13
REMARK SMILES IDX 9 14 10 15
REMARK H PARENT
REMARK Flexibility Score: inf
ROOT
ATOM      1  C   UNL     1      -0.304  17.705  14.438  1.00  0.00     0.039 C 
ATOM      2  C   UNL     1       0.461  16.904  15.448  1.00  0.00    -0.073 C 
ATOM      3  C   UNL     1       1.136  17.506  16.462  1.00  0.00    -0.027 C 
ATOM      4  C   UNL     1       1.884  16.634  17.474  1.00  0.00     0.031 C 
ATOM      5  C   UNL     1       1.745  15.122  17.099  1.00  0.00     0.003 C 
ATOM      6  C   UNL     1       2.023  14.992  15.583  1.00  0.00     0.004 C 
ATOM      7  C   UNL     1       0.536  15.377  15.374  1.00  0.00     0.024 C 
ATOM      8  C   UNL     1       0.278  14.751  16.767  1.00  0.00    -0.022 C 
ATOM      9  C   UNL     1       0.159  13.200  16.658  1.00  0.00     0.008 C 
ATOM     10  C   UNL     1       1.053  12.611  15.534  1.00  0.00     0.005 C 
ATOM     11  C   UNL     1       2.301  13.499  15.232  1.00  0.00    -0.005 C 
ATOM     12  C   UNL     1      -0.851  15.333  17.648  1.00  0.00     0.012 C 
ENDROOT
BRANCH  11  13
ATOM     13  C   UNL     1       2.879  13.328  13.795  1.00  0.00    -0.014 C 
ATOM     14  C   UNL     1       1.832  12.752  12.829  1.00  0.00     0.007 C 
ATOM     15  C   UNL     1       3.501  14.607  13.208  1.00  0.00     0.007 C 
ENDBRANCH  11  13
TORSDOF 1
ENDMDL
MODEL 3
REMARK VINA RESULT:    -5.058      1.339      4.123
REMARK INTER + INTRA:          -5.761
REMARK INTER:                  -5.522
REMARK INTRA:                  -0.239
REMARK UNBOUND:                -0.407
REMARK SMILES CC1=CC[C@@H]2[C@H]3[C@H](C(C)C)CC[C@]2(C)[C@@H]13
REMARK SMILES IDX 1 1 2 2 3 3 4 4 5 5 6 6 15 7 13 8 12 9 11 10 7 11 14 12 8 13
REMARK SMILES IDX 9 14 10 15
REMARK H PARENT
REMARK Flexibility Score: inf
ROOT
ATOM      1  C   UNL     1       0.609  17.893  15.722  1.00  0.00     0.039 C 
ATOM      2  C   UNL     1       1.081  16.617  16.353  1.00  0.00    -0.073 C 
ATOM      3  C   UNL     1       1.822  16.626  17.491  1.00  0.00    -0.027 C 
ATOM      4  C   UNL     1       2.259  15.290  18.100  1.00  0.00     0.031 C 
ATOM      5  C   UNL     1       1.763  14.099  17.215  1.00  0.00     0.003 C 
ATOM      6  C   UNL     1       2.092  14.445  15.744  1.00  0.00     0.004 C 
ATOM      7  C   UNL     1       0.768  15.252  15.736  1.00  0.00     0.024 C 
ATOM      8  C   UNL     1       0.274  14.265  16.822  1.00  0.00    -0.022 C 
ATOM      9  C   UNL     1      -0.230  12.940  16.171  1.00  0.00     0.008 C 
ATOM     10  C   UNL     1       0.552  12.576  14.881  1.00  0.00     0.005 C 
ATOM     11  C   UNL     1       2.001  13.156  14.873  1.00  0.00    -0.005 C 
ATOM     12  C   UNL     1      -0.723  14.770  17.891  1.00  0.00     0.012 C 
ENDROOT
BRANCH  11  13
ATOM     13  C   UNL     1       2.605  13.359  13.451  1.00  0.00    -0.014 C 
ATOM     14  C   UNL     1       4.063  13.838  13.518  1.00  0.00     0.007 C 
ATOM     15  C   UNL     1       2.488  12.129  12.534  1.00  0.00     0.007 C 
ENDBRANCH  11  13
TORSDOF 1
ENDMDL
MODEL 4
REMARK VINA RESULT:    -4.880      2.117      4.080
REMARK INTER + INTRA:          -5.573
REMARK INTER:                  -5.344
REMARK INTRA:                  -0.229
REMARK UNBOUND:                -0.407
REMARK SMILES CC1=CC[C@@H]2[C@H]3[C@H](C(C)C)CC[C@]2(C)[C@@H]13
REMARK SMILES IDX 1 1 2 2 3 3 4 4 5 5 6 6 15 7 13 8 12 9 11 10 7 11 14 12 8 13
REMARK SMILES IDX 9 14 10 15
REMARK H PARENT
REMARK Flexibility Score: inf
ROOT
ATOM      1  C   UNL     1      -0.388  12.364  19.341  1.00  0.00     0.039 C 
ATOM      2  C   UNL     1      -0.307  13.357  18.220  1.00  0.00    -0.073 C 
ATOM      3  C   UNL     1      -1.075  14.477  18.214  1.00  0.00    -0.027 C 
ATOM      4  C   UNL     1      -0.935  15.463  17.050  1.00  0.00     0.031 C 
ATOM      5  C   UNL     1       0.108  14.936  16.011  1.00  0.00     0.003 C 
ATOM      6  C   UNL     1      -0.207  13.444  15.751  1.00  0.00     0.004 C 
ATOM      7  C   UNL     1       0.625  13.145  17.025  1.00  0.00     0.024 C 
ATOM      8  C   UNL     1       1.403  14.445  16.705  1.00  0.00    -0.022 C 
ATOM      9  C   UNL     1       2.492  14.180  15.620  1.00  0.00     0.008 C 
ATOM     10  C   UNL     1       2.066  13.086  14.604  1.00  0.00     0.005 C 
ATOM     11  C   UNL     1       0.516  12.979  14.452  1.00  0.00    -0.005 C 
ATOM     12  C   UNL     1       1.979  15.276  17.875  1.00  0.00     0.012 C 
ENDROOT
BRANCH  11  13
ATOM     13  C   UNL     1       0.014  11.587  13.962  1.00  0.00    -0.014 C 
ATOM     14  C   UNL     1      -0.951  11.720  12.775  1.00  0.00     0.007 C 
ATOM     15  C   UNL     1       1.138  10.592  13.627  1.00  0.00     0.007 C 
ENDBRANCH  11  13
TORSDOF 1
ENDMDL
MODEL 5
REMARK VINA RESULT:    -4.650      1.232      4.737
REMARK INTER + INTRA:          -5.329
REMARK INTER:                  -5.064
REMARK INTRA:                  -0.265
REMARK UNBOUND:                -0.407
REMARK SMILES CC1=CC[C@@H]2[C@H]3[C@H](C(C)C)CC[C@]2(C)[C@@H]13
REMARK SMILES IDX 1 1 2 2 3 3 4 4 5 5 6 6 15 7 13 8 12 9 11 10 7 11 14 12 8 13
REMARK SMILES IDX 9 14 10 15
REMARK H PARENT
REMARK Flexibility Score: inf
ROOT
ATOM      1  C   UNL     1       2.138  18.364  17.048  1.00  0.00     0.039 C 
ATOM      2  C   UNL     1       1.237  17.427  16.301  1.00  0.00    -0.073 C 
ATOM      3  C   UNL     1       0.147  17.881  15.630  1.00  0.00    -0.027 C 
ATOM      4  C   UNL     1      -0.726  16.878  14.869  1.00  0.00     0.031 C 
ATOM      5  C   UNL     1      -0.174  15.426  15.054  1.00  0.00     0.003 C 
ATOM      6  C   UNL     1       0.128  15.232  16.559  1.00  0.00     0.004 C 
ATOM      7  C   UNL     1       1.490  15.918  16.276  1.00  0.00     0.024 C 
ATOM      8  C   UNL     1       1.358  15.367  14.835  1.00  0.00    -0.022 C 
ATOM      9  C   UNL     1       1.805  13.874  14.774  1.00  0.00     0.008 C 
ATOM     10  C   UNL     1       1.495  13.106  16.086  1.00  0.00     0.005 C 
ATOM     11  C   UNL     1       0.286  13.712  16.865  1.00  0.00    -0.005 C 
ATOM     12  C   UNL     1       1.971  16.177  13.668  1.00  0.00     0.012 C 
ENDROOT
BRANCH  11  13
ATOM     13  C   UNL     1       0.294  13.416  18.395  1.00  0.00    -0.014 C 
ATOM     14  C   UNL     1      -0.346  12.056  18.711  1.00  0.00     0.007 C 
ATOM     15  C   UNL     1       1.682  13.518  19.051  1.00  0.00     0.007 C 
ENDBRANCH  11  13
TORSDOF 1
ENDMDL
MODEL 6
REMARK VINA RESULT:    -4.545      1.845      3.872
REMARK INTER + INTRA:          -5.218
REMARK INTER:                  -4.829
REMARK INTRA:                  -0.389
REMARK UNBOUND:                -0.407
REMARK SMILES CC1=CC[C@@H]2[C@H]3[C@H](C(C)C)CC[C@]2(C)[C@@H]13
REMARK SMILES IDX 1 1 2 2 3 3 4 4 5 5 6 6 15 7 13 8 12 9 11 10 7 11 14 12 8 13
REMARK SMILES IDX 9 14 10 15
REMARK H PARENT
REMARK Flexibility Score: inf
ROOT
ATOM      1  C   UNL     1       1.959  16.872  17.717  1.00  0.00     0.039 C 
ATOM      2  C   UNL     1       0.994  16.399  16.671  1.00  0.00    -0.073 C 
ATOM      3  C   UNL     1      -0.140  15.731  17.009  1.00  0.00    -0.027 C 
ATOM      4  C   UNL     1      -1.097  15.290  15.897  1.00  0.00     0.031 C 
ATOM      5  C   UNL     1      -0.527  15.689  14.496  1.00  0.00     0.003 C 
ATOM      6  C   UNL     1       0.964  15.279  14.467  1.00  0.00     0.004 C 
ATOM      7  C   UNL     1       1.251  16.627  15.180  1.00  0.00     0.024 C 
ATOM      8  C   UNL     1      -0.027  17.155  14.483  1.00  0.00    -0.022 C 
ATOM      9  C   UNL     1       0.283  17.573  13.012  1.00  0.00     0.008 C 
ATOM     10  C   UNL     1       1.391  16.699  12.366  1.00  0.00     0.005 C 
ATOM     11  C   UNL     1       1.473  15.272  12.994  1.00  0.00    -0.005 C 
ATOM     12  C   UNL     1      -0.874  18.234  15.197  1.00  0.00     0.012 C 
ENDROOT
BRANCH  11  13
ATOM     13  C   UNL     1       2.866  14.587  12.853  1.00  0.00    -0.014 C 
ATOM     14  C   UNL     1       3.912  15.548  12.270  1.00  0.00     0.007 C 
ATOM     15  C   UNL     1       3.390  13.950  14.151  1.00  0.00     0.007 C 
ENDBRANCH  11  13
TORSDOF 1
ENDMDL
MODEL 7
REMARK VINA RESULT:    -4.502      1.728      3.778
REMARK INTER + INTRA:          -5.173
REMARK INTER:                  -4.764
REMARK INTRA:                  -0.409
REMARK UNBOUND:                -0.407
REMARK SMILES CC1=CC[C@@H]2[C@H]3[C@H](C(C)C)CC[C@]2(C)[C@@H]13
REMARK SMILES IDX 1 1 2 2 3 3 4 4 5 5 6 6 15 7 13 8 12 9 11 10 7 11 14 12 8 13
REMARK SMILES IDX 9 14 10 15
REMARK H PARENT
REMARK Flexibility Score: inf
ROOT
ATOM      1  C   UNL     1       4.171  13.882  13.375  1.00  0.00     0.039 C 
ATOM      2  C   UNL     1       2.675  13.813  13.426  1.00  0.00    -0.073 C 
ATOM      3  C   UNL     1       1.933  13.737  12.291  1.00  0.00    -0.027 C 
ATOM      4  C   UNL     1       0.408  13.649  12.407  1.00  0.00     0.031 C 
ATOM      5  C   UNL     1      -0.028  13.701  13.908  1.00  0.00     0.003 C 
ATOM      6  C   UNL     1       0.752  14.856  14.579  1.00  0.00     0.004 C 
ATOM      7  C   UNL     1       1.914  13.843  14.754  1.00  0.00     0.024 C 
ATOM      8  C   UNL     1       0.823  12.745  14.781  1.00  0.00    -0.022 C 
ATOM      9  C   UNL     1       0.180  12.644  16.199  1.00  0.00     0.008 C 
ATOM     10  C   UNL     1       0.128  14.014  16.927  1.00  0.00     0.005 C 
ATOM     11  C   UNL     1       0.079  15.219  15.937  1.00  0.00    -0.005 C 
ATOM     12  C   UNL     1       1.163  11.342  14.227  1.00  0.00     0.012 C 
ENDROOT
BRANCH  11  13
ATOM     13  C   UNL     1       0.619  16.558  16.525  1.00  0.00    -0.014 C 
ATOM     14  C   UNL     1       1.742  16.314  17.544  1.00  0.00     0.007 C 
ATOM     15  C   UNL     1       1.071  17.577  15.465  1.00  0.00     0.007 C 
ENDBRANCH  11  13
TORSDOF 1
ENDMDL
MODEL 8
REMARK VINA RESULT:    -4.310      2.309      4.013
REMARK INTER + INTRA:          -4.969
REMARK INTER:                  -4.706
REMARK INTRA:                  -0.263
REMARK UNBOUND:                -0.407
REMARK SMILES CC1=CC[C@@H]2[C@H]3[C@H](C(C)C)CC[C@]2(C)[C@@H]13
REMARK SMILES IDX 1 1 2 2 3 3 4 4 5 5 6 6 15 7 13 8 12 9 11 10 7 11 14 12 8 13
REMARK SMILES IDX 9 14 10 15
REMARK H PARENT
REMARK Flexibility Score: inf
ROOT
ATOM      1  C   UNL     1       2.705  14.596  18.799  1.00  0.00     0.039 C 
ATOM      2  C   UNL     1       1.483  13.925  18.249  1.00  0.00    -0.073 C 
ATOM      3  C   UNL     1       0.739  13.081  19.011  1.00  0.00    -0.027 C 
ATOM      4  C   UNL     1      -0.510  12.439  18.399  1.00  0.00     0.031 C 
ATOM      5  C   UNL     1      -0.677  12.882  16.909  1.00  0.00     0.003 C 
ATOM      6  C   UNL     1       0.703  12.739  16.224  1.00  0.00     0.004 C 
ATOM      7  C   UNL     1       1.029  14.140  16.804  1.00  0.00     0.024 C 
ATOM      8  C   UNL     1      -0.494  14.411  16.746  1.00  0.00    -0.022 C 
ATOM      9  C   UNL     1      -0.924  14.824  15.304  1.00  0.00     0.008 C 
ATOM     10  C   UNL     1      -0.068  14.135  14.208  1.00  0.00     0.005 C 
ATOM     11  C   UNL     1       0.522  12.768  14.677  1.00  0.00    -0.005 C 
ATOM     12  C   UNL     1      -1.125  15.349  17.801  1.00  0.00     0.012 C 
ENDROOT
BRANCH  11  13
ATOM     13  C   UNL     1       1.814  12.334  13.922  1.00  0.00    -0.014 C 
ATOM     14  C   UNL     1       1.512  11.284  12.842  1.00  0.00     0.007 C 
ATOM     15  C   UNL     1       2.618  13.501  13.323  1.00  0.00     0.007 C 
ENDBRANCH  11  13
TORSDOF 1
ENDMDL
