MODEL 1
REMARK VINA RESULT:    -5.350      0.000      0.000
REMARK INTER + INTRA:          -6.116
REMARK INTER:                  -6.288
REMARK INTRA:                   0.173
REMARK UNBOUND:                 0.173
REMARK SMILES O=c1c(O)c(-c2ccc(O)c(O)c2)oc2cc(O)ccc12
REMARK SMILES IDX 5 1 3 2 2 3 1 4 21 5 15 6 14 7 16 8 17 9 19 10 20 11 6 12
REMARK SMILES IDX 7 13 8 14 9 15 13 16 11 17 10 18 12 20 4 22 18 24
REMARK H PARENT 10 19 12 21 4 23 18 25
REMARK Flexibility Score: inf
ROOT
ATOM      1  C   UNL     1     148.146 153.066 157.709  1.00  0.00     0.180 A 
ATOM      2  C   UNL     1     147.003 153.866 157.920  1.00  0.00     0.208 A 
ATOM      3  C   UNL     1     147.149 155.261 157.948  1.00  0.00     0.235 A 
ATOM      4  O   UNL     1     146.140 155.998 158.124  1.00  0.00    -0.285 OA
ATOM      5  C   UNL     1     148.425 155.825 157.788  1.00  0.00     0.069 A 
ATOM      6  C   UNL     1     149.523 154.956 157.606  1.00  0.00     0.142 A 
ATOM      7  O   UNL     1     149.340 153.641 157.575  1.00  0.00    -0.452 OA
ATOM      8  C   UNL     1     150.811 155.479 157.451  1.00  0.00     0.094 A 
ATOM      9  C   UNL     1     151.019 156.862 157.477  1.00  0.00     0.119 A 
ATOM     10  C   UNL     1     149.932 157.728 157.656  1.00  0.00     0.047 A 
ATOM     11  C   UNL     1     148.640 157.215 157.812  1.00  0.00     0.020 A 
ENDROOT
BRANCH   1  12
ATOM     12  C   UNL     1     148.072 151.589 157.647  1.00  0.00     0.025 A 
ATOM     13  C   UNL     1     149.147 150.823 158.125  1.00  0.00     0.016 A 
ATOM     14  C   UNL     1     149.107 149.429 158.057  1.00  0.00     0.051 A 
ATOM     15  C   UNL     1     148.000 148.779 157.496  1.00  0.00     0.157 A 
ATOM     16  C   UNL     1     146.971 150.934 157.067  1.00  0.00     0.062 A 
ATOM     17  C   UNL     1     146.929 149.537 156.995  1.00  0.00     0.158 A 
BRANCH  15  18
ATOM     18  O   UNL     1     147.962 147.387 157.433  1.00  0.00    -0.504 OA
ATOM     19  H   UNL     1     147.166 146.862 157.775  1.00  0.00     0.293 HD
ENDBRANCH  15  18
BRANCH  17  20
ATOM     20  O   UNL     1     145.819 148.922 156.418  1.00  0.00    -0.504 OA
ATOM     21  H   UNL     1     144.933 148.846 156.904  1.00  0.00     0.293 HD
ENDBRANCH  17  20
ENDBRANCH   1  12
BRANCH   2  22
ATOM     22  O   UNL     1     145.754 153.274 158.125  1.00  0.00    -0.502 OA
ATOM     23  H   UNL     1     145.650 152.288 158.333  1.00  0.00     0.293 HD
ENDBRANCH   2  22
BRANCH   9  24
ATOM     24  O   UNL     1     152.309 157.366 157.321  1.00  0.00    -0.508 OA
ATOM     25  H   UNL     1     152.727 157.478 156.405  1.00  0.00     0.293 HD
ENDBRANCH   9  24
TORSDOF 5
ENDMDL
MODEL 2
REMARK VINA RESULT:    -4.344      7.245     13.181
REMARK INTER + INTRA:          -4.933
REMARK INTER:                  -4.880
REMARK INTRA:                  -0.053
REMARK UNBOUND:                 0.173
REMARK SMILES O=c1c(O)c(-c2ccc(O)c(O)c2)oc2cc(O)ccc12
REMARK SMILES IDX 5 1 3 2 2 3 1 4 21 5 15 6 14 7 16 8 17 9 19 10 20 11 6 12
REMARK SMILES IDX 7 13 8 14 9 15 13 16 11 17 10 18 12 20 4 22 18 24
REMARK H PARENT 10 19 12 21 4 23 18 25
REMARK Flexibility Score: inf
ROOT
ATOM      1  C   UNL     1     147.136 142.404 157.441  1.00  0.00     0.180 A 
ATOM      2  C   UNL     1     148.192 141.526 157.762  1.00  0.00     0.208 A 
ATOM      3  C   UNL     1     147.953 140.143 157.739  1.00  0.00     0.235 A 
ATOM      4  O   UNL     1     148.884 139.337 158.012  1.00  0.00    -0.285 OA
ATOM      5  C   UNL     1     146.671 139.669 157.419  1.00  0.00     0.069 A 
ATOM      6  C   UNL     1     145.661 140.613 157.134  1.00  0.00     0.142 A 
ATOM      7  O   UNL     1     145.931 141.913 157.157  1.00  0.00    -0.452 OA
ATOM      8  C   UNL     1     144.367 140.181 156.819  1.00  0.00     0.094 A 
ATOM      9  C   UNL     1     144.068 138.815 156.786  1.00  0.00     0.119 A 
ATOM     10  C   UNL     1     145.069 137.875 157.068  1.00  0.00     0.047 A 
ATOM     11  C   UNL     1     146.365 138.296 157.384  1.00  0.00     0.020 A 
ENDROOT
BRANCH   1  12
ATOM     12  C   UNL     1     147.313 143.874 157.424  1.00  0.00     0.025 A 
ATOM     13  C   UNL     1     146.408 144.686 158.125  1.00  0.00     0.016 A 
ATOM     14  C   UNL     1     146.543 146.076 158.106  1.00  0.00     0.051 A 
ATOM     15  C   UNL     1     147.576 146.676 157.374  1.00  0.00     0.157 A 
ATOM     16  C   UNL     1     148.336 144.480 156.674  1.00  0.00     0.062 A 
ATOM     17  C   UNL     1     148.474 145.873 156.651  1.00  0.00     0.158 A 
BRANCH  15  18
ATOM     18  O   UNL     1     147.710 148.064 157.359  1.00  0.00    -0.504 OA
ATOM     19  H   UNL     1     148.585 148.514 157.600  1.00  0.00     0.293 HD
ENDBRANCH  15  18
BRANCH  17  20
ATOM     20  O   UNL     1     149.504 146.439 155.901  1.00  0.00    -0.504 OA
ATOM     21  H   UNL     1     149.822 147.389 156.055  1.00  0.00     0.293 HD
ENDBRANCH  17  20
ENDBRANCH   1  12
BRANCH   2  22
ATOM     22  O   UNL     1     149.444 142.028 158.124  1.00  0.00    -0.502 OA
ATOM     23  H   UNL     1     150.300 141.503 157.984  1.00  0.00     0.293 HD
ENDBRANCH   2  22
BRANCH   9  24
ATOM     24  O   UNL     1     142.776 138.402 156.471  1.00  0.00    -0.508 OA
ATOM     25  H   UNL     1     142.584 137.461 156.147  1.00  0.00     0.293 HD
ENDBRANCH   9  24
TORSDOF 5
ENDMDL
MODEL 3
REMARK VINA RESULT:    -3.041      6.451     12.109
REMARK INTER + INTRA:          -3.401
REMARK INTER:                  -3.803
REMARK INTRA:                   0.402
REMARK UNBOUND:                 0.173
REMARK SMILES O=c1c(O)c(-c2ccc(O)c(O)c2)oc2cc(O)ccc12
REMARK SMILES IDX 5 1 3 2 2 3 1 4 21 5 15 6 14 7 16 8 17 9 19 10 20 11 6 12
REMARK SMILES IDX 7 13 8 14 9 15 13 16 11 17 10 18 12 20 4 22 18 24
REMARK H PARENT 10 19 12 21 4 23 18 25
REMARK Flexibility Score: inf
ROOT
ATOM      1  C   UNL     1     147.151 143.760 157.500  1.00  0.00     0.180 A 
ATOM      2  C   UNL     1     148.451 143.219 157.596  1.00  0.00     0.208 A 
ATOM      3  C   UNL     1     148.596 141.833 157.762  1.00  0.00     0.235 A 
ATOM      4  O   UNL     1     149.748 141.324 157.840  1.00  0.00    -0.285 OA
ATOM      5  C   UNL     1     147.452 141.024 157.850  1.00  0.00     0.069 A 
ATOM      6  C   UNL     1     146.186 141.644 157.770  1.00  0.00     0.142 A 
ATOM      7  O   UNL     1     146.092 142.958 157.603  1.00  0.00    -0.452 OA
ATOM      8  C   UNL     1     145.022 140.874 157.863  1.00  0.00     0.094 A 
ATOM      9  C   UNL     1     145.105 139.488 158.035  1.00  0.00     0.119 A 
ATOM     10  C   UNL     1     146.359 138.869 158.113  1.00  0.00     0.047 A 
ATOM     11  C   UNL     1     147.530 139.630 158.023  1.00  0.00     0.020 A 
ENDROOT
BRANCH   1  12
ATOM     12  C   UNL     1     146.914 145.208 157.305  1.00  0.00     0.025 A 
ATOM     13  C   UNL     1     145.624 145.728 157.492  1.00  0.00     0.016 A 
ATOM     14  C   UNL     1     145.373 147.087 157.293  1.00  0.00     0.051 A 
ATOM     15  C   UNL     1     146.404 147.945 156.888  1.00  0.00     0.157 A 
ATOM     16  C   UNL     1     147.942 146.067 156.879  1.00  0.00     0.062 A 
ATOM     17  C   UNL     1     147.694 147.430 156.676  1.00  0.00     0.158 A 
BRANCH  15  18
ATOM     18  O   UNL     1     146.152 149.302 156.693  1.00  0.00    -0.504 OA
ATOM     19  H   UNL     1     145.214 149.681 156.755  1.00  0.00     0.293 HD
ENDBRANCH  15  18
BRANCH  17  20
ATOM     20  O   UNL     1     148.739 148.254 156.259  1.00  0.00    -0.504 OA
ATOM     21  H   UNL     1     148.894 149.171 156.661  1.00  0.00     0.293 HD
ENDBRANCH  17  20
ENDBRANCH   1  12
BRANCH   2  22
ATOM     22  O   UNL     1     149.569 144.055 157.554  1.00  0.00    -0.502 OA
ATOM     23  H   UNL     1     150.269 144.060 158.287  1.00  0.00     0.293 HD
ENDBRANCH   2  22
BRANCH   9  24
ATOM     24  O   UNL     1     143.936 138.736 158.125  1.00  0.00    -0.508 OA
ATOM     25  H   UNL     1     143.259 138.896 158.862  1.00  0.00     0.293 HD
ENDBRANCH   9  24
TORSDOF 5
ENDMDL
MODEL 4
REMARK VINA RESULT:    -2.711      1.882      7.182
REMARK INTER + INTRA:          -3.014
REMARK INTER:                  -3.469
REMARK INTRA:                   0.455
REMARK UNBOUND:                 0.173
REMARK SMILES O=c1c(O)c(-c2ccc(O)c(O)c2)oc2cc(O)ccc12
REMARK SMILES IDX 5 1 3 2 2 3 1 4 21 5 15 6 14 7 16 8 17 9 19 10 20 11 6 12
REMARK SMILES IDX 7 13 8 14 9 15 13 16 11 17 10 18 12 20 4 22 18 24
REMARK H PARENT 10 19 12 21 4 23 18 25
REMARK Flexibility Score: inf
ROOT
ATOM      1  C   UNL     1     147.964 150.556 157.279  1.00  0.00     0.180 A 
ATOM      2  C   UNL     1     146.581 150.366 157.072  1.00  0.00     0.208 A 
ATOM      3  C   UNL     1     146.095 149.059 156.914  1.00  0.00     0.235 A 
ATOM      4  O   UNL     1     144.861 148.862 156.738  1.00  0.00    -0.285 OA
ATOM      5  C   UNL     1     146.992 147.980 156.945  1.00  0.00     0.069 A 
ATOM      6  C   UNL     1     148.364 148.255 157.132  1.00  0.00     0.142 A 
ATOM      7  O   UNL     1     148.782 149.506 157.287  1.00  0.00    -0.452 OA
ATOM      8  C   UNL     1     149.291 147.207 157.160  1.00  0.00     0.094 A 
ATOM      9  C   UNL     1     148.865 145.885 157.002  1.00  0.00     0.119 A 
ATOM     10  C   UNL     1     147.504 145.607 156.817  1.00  0.00     0.047 A 
ATOM     11  C   UNL     1     146.569 146.647 156.788  1.00  0.00     0.020 A 
ENDROOT
BRANCH   1  12
ATOM     12  C   UNL     1     148.552 151.901 157.473  1.00  0.00     0.025 A 
ATOM     13  C   UNL     1     149.879 152.016 157.915  1.00  0.00     0.016 A 
ATOM     14  C   UNL     1     150.448 153.275 158.125  1.00  0.00     0.051 A 
ATOM     15  C   UNL     1     149.695 154.436 157.912  1.00  0.00     0.157 A 
ATOM     16  C   UNL     1     147.792 153.068 157.280  1.00  0.00     0.062 A 
ATOM     17  C   UNL     1     148.359 154.331 157.491  1.00  0.00     0.158 A 
BRANCH  15  18
ATOM     18  O   UNL     1     150.266 155.691 158.120  1.00  0.00    -0.504 OA
ATOM     19  H   UNL     1     151.248 155.862 157.942  1.00  0.00     0.293 HD
ENDBRANCH  15  18
BRANCH  17  20
ATOM     20  O   UNL     1     147.577 155.467 157.284  1.00  0.00    -0.504 OA
ATOM     21  H   UNL     1     147.508 155.914 156.377  1.00  0.00     0.293 HD
ENDBRANCH  17  20
ENDBRANCH   1  12
BRANCH   2  22
ATOM     22  O   UNL     1     145.720 151.463 156.997  1.00  0.00    -0.502 OA
ATOM     23  H   UNL     1     146.052 152.401 156.807  1.00  0.00     0.293 HD
ENDBRANCH   2  22
BRANCH   9  24
ATOM     24  O   UNL     1     149.802 144.853 157.032  1.00  0.00    -0.508 OA
ATOM     25  H   UNL     1     149.524 143.883 156.940  1.00  0.00     0.293 HD
ENDBRANCH   9  24
TORSDOF 5
ENDMDL
MODEL 5
REMARK VINA RESULT:    -2.653      4.096      7.020
REMARK INTER + INTRA:          -2.946
REMARK INTER:                  -3.306
REMARK INTRA:                   0.360
REMARK UNBOUND:                 0.173
REMARK SMILES O=c1c(O)c(-c2ccc(O)c(O)c2)oc2cc(O)ccc12
REMARK SMILES IDX 5 1 3 2 2 3 1 4 21 5 15 6 14 7 16 8 17 9 19 10 20 11 6 12
REMARK SMILES IDX 7 13 8 14 9 15 13 16 11 17 10 18 12 20 4 22 18 24
REMARK H PARENT 10 19 12 21 4 23 18 25
REMARK Flexibility Score: inf
ROOT
ATOM      1  C   UNL     1     147.572 146.216 157.486  1.00  0.00     0.180 A 
ATOM      2  C   UNL     1     146.380 146.865 157.101  1.00  0.00     0.208 A 
ATOM      3  C   UNL     1     146.382 148.262 156.970  1.00  0.00     0.235 A 
ATOM      4  O   UNL     1     145.331 148.865 156.617  1.00  0.00    -0.285 OA
ATOM      5  C   UNL     1     147.557 148.980 157.244  1.00  0.00     0.069 A 
ATOM      6  C   UNL     1     148.702 148.259 157.648  1.00  0.00     0.142 A 
ATOM      7  O   UNL     1     148.661 146.936 157.750  1.00  0.00    -0.452 OA
ATOM      8  C   UNL     1     149.891 148.939 157.938  1.00  0.00     0.094 A 
ATOM      9  C   UNL     1     149.951 150.332 157.831  1.00  0.00     0.119 A 
ATOM     10  C   UNL     1     148.817 151.051 157.429  1.00  0.00     0.047 A 
ATOM     11  C   UNL     1     147.624 150.381 157.137  1.00  0.00     0.020 A 
ENDROOT
BRANCH   1  12
ATOM     12  C   UNL     1     147.657 144.745 157.627  1.00  0.00     0.025 A 
ATOM     13  C   UNL     1     146.505 144.017 157.963  1.00  0.00     0.016 A 
ATOM     14  C   UNL     1     146.565 142.630 158.121  1.00  0.00     0.051 A 
ATOM     15  C   UNL     1     147.781 141.952 157.961  1.00  0.00     0.157 A 
ATOM     16  C   UNL     1     148.879 144.065 157.487  1.00  0.00     0.062 A 
ATOM     17  C   UNL     1     148.944 142.675 157.647  1.00  0.00     0.158 A 
BRANCH  15  18
ATOM     18  O   UNL     1     147.838 140.568 158.117  1.00  0.00    -0.504 OA
ATOM     19  H   UNL     1     147.121 139.963 157.737  1.00  0.00     0.293 HD
ENDBRANCH  15  18
BRANCH  17  20
ATOM     20  O   UNL     1     150.172 142.033 157.495  1.00  0.00    -0.504 OA
ATOM     21  H   UNL     1     150.297 141.255 156.859  1.00  0.00     0.293 HD
ENDBRANCH  17  20
ENDBRANCH   1  12
BRANCH   2  22
ATOM     22  O   UNL     1     145.213 146.129 156.883  1.00  0.00    -0.502 OA
ATOM     23  H   UNL     1     144.386 146.242 157.458  1.00  0.00     0.293 HD
ENDBRANCH   2  22
BRANCH   9  24
ATOM     24  O   UNL     1     151.142 150.993 158.124  1.00  0.00    -0.508 OA
ATOM     25  H   UNL     1     151.690 151.443 157.400  1.00  0.00     0.293 HD
ENDBRANCH   9  24
TORSDOF 5
ENDMDL
MODEL 6
REMARK VINA RESULT:    -2.586      5.700      9.523
REMARK INTER + INTRA:          -2.867
REMARK INTER:                  -3.296
REMARK INTRA:                   0.429
REMARK UNBOUND:                 0.173
REMARK SMILES O=c1c(O)c(-c2ccc(O)c(O)c2)oc2cc(O)ccc12
REMARK SMILES IDX 5 1 3 2 2 3 1 4 21 5 15 6 14 7 16 8 17 9 19 10 20 11 6 12
REMARK SMILES IDX 7 13 8 14 9 15 13 16 11 17 10 18 12 20 4 22 18 24
REMARK H PARENT 10 19 12 21 4 23 18 25
REMARK Flexibility Score: inf
ROOT
ATOM      1  C   UNL     1     147.208 144.060 157.369  1.00  0.00     0.180 A 
ATOM      2  C   UNL     1     148.601 144.277 157.328  1.00  0.00     0.208 A 
ATOM      3  C   UNL     1     149.077 145.589 157.181  1.00  0.00     0.235 A 
ATOM      4  O   UNL     1     150.319 145.811 157.152  1.00  0.00    -0.285 OA
ATOM      5  C   UNL     1     148.161 146.646 157.056  1.00  0.00     0.069 A 
ATOM      6  C   UNL     1     146.782 146.343 157.082  1.00  0.00     0.142 A 
ATOM      7  O   UNL     1     146.374 145.089 157.233  1.00  0.00    -0.452 OA
ATOM      8  C   UNL     1     145.838 147.367 156.952  1.00  0.00     0.094 A 
ATOM      9  C   UNL     1     146.253 148.694 156.797  1.00  0.00     0.119 A 
ATOM     10  C   UNL     1     147.620 148.999 156.772  1.00  0.00     0.047 A 
ATOM     11  C   UNL     1     148.573 147.982 156.900  1.00  0.00     0.020 A 
ENDROOT
BRANCH   1  12
ATOM     12  C   UNL     1     146.628 142.709 157.542  1.00  0.00     0.025 A 
ATOM     13  C   UNL     1     145.287 142.579 157.936  1.00  0.00     0.016 A 
ATOM     14  C   UNL     1     144.725 141.314 158.125  1.00  0.00     0.051 A 
ATOM     15  C   UNL     1     145.498 140.161 157.938  1.00  0.00     0.157 A 
ATOM     16  C   UNL     1     147.406 141.550 157.374  1.00  0.00     0.062 A 
ATOM     17  C   UNL     1     146.847 140.281 157.565  1.00  0.00     0.158 A 
BRANCH  15  18
ATOM     18  O   UNL     1     144.933 138.900 158.125  1.00  0.00    -0.504 OA
ATOM     19  H   UNL     1     145.322 138.238 158.785  1.00  0.00     0.293 HD
ENDBRANCH  15  18
BRANCH  17  20
ATOM     20  O   UNL     1     147.648 139.154 157.385  1.00  0.00    -0.504 OA
ATOM     21  H   UNL     1     148.516 139.024 157.891  1.00  0.00     0.293 HD
ENDBRANCH  17  20
ENDBRANCH   1  12
BRANCH   2  22
ATOM     22  O   UNL     1     149.488 143.201 157.405  1.00  0.00    -0.502 OA
ATOM     23  H   UNL     1     150.485 143.328 157.535  1.00  0.00     0.293 HD
ENDBRANCH   2  22
BRANCH   9  24
ATOM     24  O   UNL     1     145.299 149.701 156.669  1.00  0.00    -0.508 OA
ATOM     25  H   UNL     1     145.531 150.602 156.266  1.00  0.00     0.293 HD
ENDBRANCH   9  24
TORSDOF 5
ENDMDL
MODEL 7
REMARK VINA RESULT:    -2.555      4.415      9.910
REMARK INTER + INTRA:          -2.830
REMARK INTER:                  -3.184
REMARK INTRA:                   0.354
REMARK UNBOUND:                 0.173
REMARK SMILES O=c1c(O)c(-c2ccc(O)c(O)c2)oc2cc(O)ccc12
REMARK SMILES IDX 5 1 3 2 2 3 1 4 21 5 15 6 14 7 16 8 17 9 19 10 20 11 6 12
REMARK SMILES IDX 7 13 8 14 9 15 13 16 11 17 10 18 12 20 4 22 18 24
REMARK H PARENT 10 19 12 21 4 23 18 25
REMARK Flexibility Score: inf
ROOT
ATOM      1  C   UNL     1     146.886 146.092 157.757  1.00  0.00     0.180 A 
ATOM      2  C   UNL     1     145.535 145.701 157.874  1.00  0.00     0.208 A 
ATOM      3  C   UNL     1     145.235 144.337 158.008  1.00  0.00     0.235 A 
ATOM      4  O   UNL     1     144.035 143.963 158.125  1.00  0.00    -0.285 OA
ATOM      5  C   UNL     1     146.277 143.396 158.001  1.00  0.00     0.069 A 
ATOM      6  C   UNL     1     147.601 143.865 157.855  1.00  0.00     0.142 A 
ATOM      7  O   UNL     1     147.843 145.166 157.741  1.00  0.00    -0.452 OA
ATOM      8  C   UNL     1     148.666 142.959 157.834  1.00  0.00     0.094 A 
ATOM      9  C   UNL     1     148.427 141.586 157.957  1.00  0.00     0.119 A 
ATOM     10  C   UNL     1     147.115 141.117 158.103  1.00  0.00     0.047 A 
ATOM     11  C   UNL     1     146.043 142.015 158.125  1.00  0.00     0.020 A 
ENDROOT
BRANCH   1  12
ATOM     12  C   UNL     1     147.286 147.512 157.632  1.00  0.00     0.025 A 
ATOM     13  C   UNL     1     148.562 147.909 158.059  1.00  0.00     0.016 A 
ATOM     14  C   UNL     1     148.954 149.247 157.970  1.00  0.00     0.051 A 
ATOM     15  C   UNL     1     148.070 150.211 157.467  1.00  0.00     0.157 A 
ATOM     16  C   UNL     1     146.394 148.484 157.147  1.00  0.00     0.062 A 
ATOM     17  C   UNL     1     146.782 149.827 157.058  1.00  0.00     0.158 A 
BRANCH  15  18
ATOM     18  O   UNL     1     148.464 151.545 157.377  1.00  0.00    -0.504 OA
ATOM     19  H   UNL     1     147.788 152.299 157.386  1.00  0.00     0.293 HD
ENDBRANCH  15  18
BRANCH  17  20
ATOM     20  O   UNL     1     145.873 150.763 156.566  1.00  0.00    -0.504 OA
ATOM     21  H   UNL     1     145.609 151.585 157.096  1.00  0.00     0.293 HD
ENDBRANCH  17  20
ENDBRANCH   1  12
BRANCH   2  22
ATOM     22  O   UNL     1     144.517 146.656 157.829  1.00  0.00    -0.502 OA
ATOM     23  H   UNL     1     144.483 147.379 157.119  1.00  0.00     0.293 HD
ENDBRANCH   2  22
BRANCH   9  24
ATOM     24  O   UNL     1     149.500 140.697 157.934  1.00  0.00    -0.508 OA
ATOM     25  H   UNL     1     150.388 140.950 157.516  1.00  0.00     0.293 HD
ENDBRANCH   9  24
TORSDOF 5
ENDMDL
MODEL 8
REMARK VINA RESULT:    -2.512      1.318      1.885
REMARK INTER + INTRA:          -2.780
REMARK INTER:                  -2.946
REMARK INTRA:                   0.166
REMARK UNBOUND:                 0.173
REMARK SMILES O=c1c(O)c(-c2ccc(O)c(O)c2)oc2cc(O)ccc12
REMARK SMILES IDX 5 1 3 2 2 3 1 4 21 5 15 6 14 7 16 8 17 9 19 10 20 11 6 12
REMARK SMILES IDX 7 13 8 14 9 15 13 16 11 17 10 18 12 20 4 22 18 24
REMARK H PARENT 10 19 12 21 4 23 18 25
REMARK Flexibility Score: inf
ROOT
ATOM      1  C   UNL     1     147.879 151.313 157.549  1.00  0.00     0.180 A 
ATOM      2  C   UNL     1     146.602 151.910 157.610  1.00  0.00     0.208 A 
ATOM      3  C   UNL     1     146.512 153.304 157.744  1.00  0.00     0.235 A 
ATOM      4  O   UNL     1     145.382 153.862 157.790  1.00  0.00    -0.285 OA
ATOM      5  C   UNL     1     147.687 154.066 157.836  1.00  0.00     0.069 A 
ATOM      6  C   UNL     1     148.927 153.392 157.791  1.00  0.00     0.142 A 
ATOM      7  O   UNL     1     148.969 152.072 157.654  1.00  0.00    -0.452 OA
ATOM      8  C   UNL     1     150.121 154.115 157.889  1.00  0.00     0.094 A 
ATOM      9  C   UNL     1     150.094 155.506 158.030  1.00  0.00     0.119 A 
ATOM     10  C   UNL     1     148.866 156.179 158.072  1.00  0.00     0.047 A 
ATOM     11  C   UNL     1     147.666 155.466 157.977  1.00  0.00     0.020 A 
ENDROOT
BRANCH   1  12
ATOM     12  C   UNL     1     148.058 149.853 157.389  1.00  0.00     0.025 A 
ATOM     13  C   UNL     1     149.150 149.219 158.002  1.00  0.00     0.016 A 
ATOM     14  C   UNL     1     149.350 147.846 157.848  1.00  0.00     0.051 A 
ATOM     15  C   UNL     1     148.470 147.087 157.064  1.00  0.00     0.157 A 
ATOM     16  C   UNL     1     147.189 149.092 156.587  1.00  0.00     0.062 A 
ATOM     17  C   UNL     1     147.387 147.715 156.428  1.00  0.00     0.158 A 
BRANCH  15  18
ATOM     18  O   UNL     1     148.671 145.715 156.913  1.00  0.00    -0.504 OA
ATOM     19  H   UNL     1     148.560 145.259 156.016  1.00  0.00     0.293 HD
ENDBRANCH  15  18
BRANCH  17  20
ATOM     20  O   UNL     1     146.502 146.991 155.630  1.00  0.00    -0.504 OA
ATOM     21  H   UNL     1     145.573 146.741 155.948  1.00  0.00     0.293 HD
ENDBRANCH  17  20
ENDBRANCH   1  12
BRANCH   2  22
ATOM     22  O   UNL     1     145.450 151.121 157.565  1.00  0.00    -0.502 OA
ATOM     23  H   UNL     1     144.937 150.865 158.401  1.00  0.00     0.293 HD
ENDBRANCH   2  22
BRANCH   9  24
ATOM     24  O   UNL     1     151.292 156.211 158.125  1.00  0.00    -0.508 OA
ATOM     25  H   UNL     1     152.188 155.738 158.096  1.00  0.00     0.293 HD
ENDBRANCH   9  24
TORSDOF 5
ENDMDL
MODEL 9
REMARK VINA RESULT:    -2.383      6.193      9.712
REMARK INTER + INTRA:          -2.629
REMARK INTER:                  -3.013
REMARK INTRA:                   0.384
REMARK UNBOUND:                 0.173
REMARK SMILES O=c1c(O)c(-c2ccc(O)c(O)c2)oc2cc(O)ccc12
REMARK SMILES IDX 5 1 3 2 2 3 1 4 21 5 15 6 14 7 16 8 17 9 19 10 20 11 6 12
REMARK SMILES IDX 7 13 8 14 9 15 13 16 11 17 10 18 12 20 4 22 18 24
REMARK H PARENT 10 19 12 21 4 23 18 25
REMARK Flexibility Score: inf
ROOT
ATOM      1  C   UNL     1     146.750 143.482 157.678  1.00  0.00     0.180 A 
ATOM      2  C   UNL     1     145.437 143.981 157.811  1.00  0.00     0.208 A 
ATOM      3  C   UNL     1     145.217 145.358 157.652  1.00  0.00     0.235 A 
ATOM      4  O   UNL     1     144.051 145.827 157.757  1.00  0.00    -0.285 OA
ATOM      5  C   UNL     1     146.305 146.205 157.386  1.00  0.00     0.069 A 
ATOM      6  C   UNL     1     147.592 145.631 157.291  1.00  0.00     0.142 A 
ATOM      7  O   UNL     1     147.755 144.322 157.439  1.00  0.00    -0.452 OA
ATOM      8  C   UNL     1     148.703 146.443 157.036  1.00  0.00     0.094 A 
ATOM      9  C   UNL     1     148.546 147.823 156.874  1.00  0.00     0.119 A 
ATOM     10  C   UNL     1     147.270 148.396 156.966  1.00  0.00     0.047 A 
ATOM     11  C   UNL     1     146.153 147.594 157.221  1.00  0.00     0.020 A 
ENDROOT
BRANCH   1  12
ATOM     12  C   UNL     1     147.060 142.041 157.812  1.00  0.00     0.025 A 
ATOM     13  C   UNL     1     148.393 141.635 157.981  1.00  0.00     0.016 A 
ATOM     14  C   UNL     1     148.712 140.280 158.089  1.00  0.00     0.051 A 
ATOM     15  C   UNL     1     147.706 139.308 158.014  1.00  0.00     0.157 A 
ATOM     16  C   UNL     1     146.055 141.063 157.717  1.00  0.00     0.062 A 
ATOM     17  C   UNL     1     146.371 139.703 157.823  1.00  0.00     0.158 A 
BRANCH  15  18
ATOM     18  O   UNL     1     148.026 137.956 158.125  1.00  0.00    -0.504 OA
ATOM     19  H   UNL     1     148.095 137.359 157.309  1.00  0.00     0.293 HD
ENDBRANCH  15  18
BRANCH  17  20
ATOM     20  O   UNL     1     145.347 138.761 157.729  1.00  0.00    -0.504 OA
ATOM     21  H   UNL     1     145.053 138.206 158.525  1.00  0.00     0.293 HD
ENDBRANCH  17  20
ENDBRANCH   1  12
BRANCH   2  22
ATOM     22  O   UNL     1     144.382 143.121 158.125  1.00  0.00    -0.502 OA
ATOM     23  H   UNL     1     143.418 143.435 158.156  1.00  0.00     0.293 HD
ENDBRANCH   2  22
BRANCH   9  24
ATOM     24  O   UNL     1     149.663 148.616 156.620  1.00  0.00    -0.508 OA
ATOM     25  H   UNL     1     150.449 148.644 157.259  1.00  0.00     0.293 HD
ENDBRANCH   9  24
TORSDOF 5
ENDMDL
