MODEL 1
REMARK VINA RESULT:    -7.807      0.000      0.000
REMARK INTER + INTRA:          -7.807
REMARK INTER:                  -7.807
REMARK INTRA:                   0.000
REMARK UNBOUND:                 0.000
REMARK SMILES C=C1CCC[C@@]2(C)CC(=O)C(=C(C)C)C[C@H]12
REMARK SMILES IDX 13 1 12 2 11 3 15 4 16 5 2 6 1 7 3 8 4 9 5 10 6 11 8 12 9 13
REMARK SMILES IDX 10 14 7 15 14 16
REMARK H PARENT
REMARK Flexibility Score: inf
ROOT
ATOM      1  C   UNL     1      -8.358  31.693  27.887  1.00  0.00     0.039 C 
ATOM      2  C   UNL     1      -8.366  30.737  26.716  1.00  0.00    -0.070 C 
ATOM      3  C   UNL     1      -8.460  31.190  25.431  1.00  0.00    -0.006 C 
ATOM      4  C   UNL     1      -8.537  32.680  25.124  1.00  0.00     0.047 C 
ATOM      5  C   UNL     1      -7.909  33.045  23.757  1.00  0.00     0.025 C 
ATOM      6  C   UNL     1      -7.994  34.524  23.377  1.00  0.00    -0.073 C 
ATOM      7  C   UNL     1      -8.573  35.468  24.143  1.00  0.00     0.008 C 
ATOM      8  C   UNL     1      -7.336  34.917  22.075  1.00  0.00     0.031 C 
ATOM      9  C   UNL     1      -7.852  34.039  20.931  1.00  0.00     0.005 C 
ATOM     10  C   UNL     1      -7.739  32.543  21.268  1.00  0.00     0.008 C 
ATOM     11  C   UNL     1      -8.459  32.158  22.595  1.00  0.00    -0.018 C 
ATOM     12  C   UNL     1      -8.135  30.677  22.908  1.00  0.00     0.088 C 
ATOM     13  C   UNL     1      -8.617  30.266  24.269  1.00  0.00     0.159 C 
ATOM     14  O   UNL     1      -9.164  29.139  24.400  1.00  0.00    -0.295 OA
ATOM     15  C   UNL     1      -9.994  32.322  22.420  1.00  0.00     0.012 C 
ATOM     16  C   UNL     1      -8.229  29.265  27.033  1.00  0.00     0.039 C 
ENDROOT
TORSDOF 0
ENDMDL
MODEL 2
REMARK VINA RESULT:    -6.941      1.826      5.446
REMARK INTER + INTRA:          -6.941
REMARK INTER:                  -6.941
REMARK INTRA:                   0.000
REMARK UNBOUND:                 0.000
REMARK SMILES C=C1CCC[C@@]2(C)CC(=O)C(=C(C)C)C[C@H]12
REMARK SMILES IDX 13 1 12 2 11 3 15 4 16 5 2 6 1 7 3 8 4 9 5 10 6 11 8 12 9 13
REMARK SMILES IDX 10 14 7 15 14 16
REMARK H PARENT
REMARK Flexibility Score: inf
ROOT
ATOM      1  C   UNL     1      -7.877  32.708  20.604  1.00  0.00     0.039 C 
ATOM      2  C   UNL     1      -7.877  33.631  21.802  1.00  0.00    -0.070 C 
ATOM      3  C   UNL     1      -8.153  33.166  23.056  1.00  0.00    -0.006 C 
ATOM      4  C   UNL     1      -8.451  31.693  23.302  1.00  0.00     0.047 C 
ATOM      5  C   UNL     1      -8.012  31.218  24.709  1.00  0.00     0.025 C 
ATOM      6  C   UNL     1      -8.323  29.755  25.028  1.00  0.00    -0.073 C 
ATOM      7  C   UNL     1      -8.942  28.913  24.179  1.00  0.00     0.008 C 
ATOM      8  C   UNL     1      -7.852  29.251  26.371  1.00  0.00     0.031 C 
ATOM      9  C   UNL     1      -8.360  30.163  27.491  1.00  0.00     0.005 C 
ATOM     10  C   UNL     1      -8.023  31.639  27.218  1.00  0.00     0.008 C 
ATOM     11  C   UNL     1      -8.554  32.144  25.844  1.00  0.00    -0.018 C 
ATOM     12  C   UNL     1      -8.013  33.576  25.614  1.00  0.00     0.088 C 
ATOM     13  C   UNL     1      -8.302  34.077  24.228  1.00  0.00     0.159 C 
ATOM     14  O   UNL     1      -8.685  35.268  24.086  1.00  0.00    -0.295 OA
ATOM     15  C   UNL     1     -10.107  32.179  25.868  1.00  0.00     0.012 C 
ATOM     16  C   UNL     1      -7.521  35.079  21.549  1.00  0.00     0.039 C 
ENDROOT
TORSDOF 0
ENDMDL
MODEL 3
REMARK VINA RESULT:    -6.915      1.325      4.929
REMARK INTER + INTRA:          -6.915
REMARK INTER:                  -6.915
REMARK INTRA:                   0.000
REMARK UNBOUND:                 0.000
REMARK SMILES C=C1CCC[C@@]2(C)CC(=O)C(=C(C)C)C[C@H]12
REMARK SMILES IDX 13 1 12 2 11 3 15 4 16 5 2 6 1 7 3 8 4 9 5 10 6 11 8 12 9 13
REMARK SMILES IDX 10 14 7 15 14 16
REMARK H PARENT
REMARK Flexibility Score: inf
ROOT
ATOM      1  C   UNL     1      -7.854  34.861  23.126  1.00  0.00     0.039 C 
ATOM      2  C   UNL     1      -8.166  33.458  22.659  1.00  0.00    -0.070 C 
ATOM      3  C   UNL     1      -8.311  32.430  23.547  1.00  0.00    -0.006 C 
ATOM      4  C   UNL     1      -8.184  32.661  25.047  1.00  0.00     0.047 C 
ATOM      5  C   UNL     1      -9.056  31.688  25.880  1.00  0.00     0.025 C 
ATOM      6  C   UNL     1      -8.939  31.847  27.396  1.00  0.00    -0.073 C 
ATOM      7  C   UNL     1      -8.139  32.746  28.001  1.00  0.00     0.008 C 
ATOM      8  C   UNL     1      -9.823  30.951  28.230  1.00  0.00     0.031 C 
ATOM      9  C   UNL     1      -9.629  29.486  27.828  1.00  0.00     0.005 C 
ATOM     10  C   UNL     1      -9.784  29.289  26.310  1.00  0.00     0.008 C 
ATOM     11  C   UNL     1      -8.833  30.197  25.475  1.00  0.00    -0.018 C 
ATOM     12  C   UNL     1      -9.198  30.030  23.980  1.00  0.00     0.088 C 
ATOM     13  C   UNL     1      -8.474  31.014  23.106  1.00  0.00     0.159 C 
ATOM     14  O   UNL     1      -8.000  30.611  22.010  1.00  0.00    -0.295 OA
ATOM     15  C   UNL     1      -7.361  29.751  25.697  1.00  0.00     0.012 C 
ATOM     16  C   UNL     1      -8.348  33.257  21.171  1.00  0.00     0.039 C 
ENDROOT
TORSDOF 0
ENDMDL
MODEL 4
REMARK VINA RESULT:    -6.626      2.045      4.087
REMARK INTER + INTRA:          -6.626
REMARK INTER:                  -6.626
REMARK INTRA:                   0.000
REMARK UNBOUND:                 0.000
REMARK SMILES C=C1CCC[C@@]2(C)CC(=O)C(=C(C)C)C[C@H]12
REMARK SMILES IDX 13 1 12 2 11 3 15 4 16 5 2 6 1 7 3 8 4 9 5 10 6 11 8 12 9 13
REMARK SMILES IDX 10 14 7 15 14 16
REMARK H PARENT
REMARK Flexibility Score: inf
ROOT
ATOM      1  C   UNL     1      -8.993  36.085  24.492  1.00  0.00     0.039 C 
ATOM      2  C   UNL     1      -8.614  35.046  25.523  1.00  0.00    -0.070 C 
ATOM      3  C   UNL     1      -8.681  33.711  25.243  1.00  0.00    -0.006 C 
ATOM      4  C   UNL     1      -9.120  33.215  23.872  1.00  0.00     0.047 C 
ATOM      5  C   UNL     1      -8.464  31.867  23.483  1.00  0.00     0.025 C 
ATOM      6  C   UNL     1      -8.898  31.298  22.132  1.00  0.00    -0.073 C 
ATOM      7  C   UNL     1      -9.791  31.890  21.316  1.00  0.00     0.008 C 
ATOM      8  C   UNL     1      -8.228  30.015  21.702  1.00  0.00     0.031 C 
ATOM      9  C   UNL     1      -8.359  28.952  22.797  1.00  0.00     0.005 C 
ATOM     10  C   UNL     1      -7.888  29.483  24.162  1.00  0.00     0.008 C 
ATOM     11  C   UNL     1      -8.622  30.786  24.599  1.00  0.00    -0.018 C 
ATOM     12  C   UNL     1      -7.951  31.307  25.892  1.00  0.00     0.088 C 
ATOM     13  C   UNL     1      -8.454  32.667  26.284  1.00  0.00     0.159 C 
ATOM     14  O   UNL     1      -8.691  32.894  27.501  1.00  0.00    -0.295 OA
ATOM     15  C   UNL     1     -10.116  30.469  24.888  1.00  0.00     0.012 C 
ATOM     16  C   UNL     1      -8.124  35.557  26.859  1.00  0.00     0.039 C 
ENDROOT
TORSDOF 0
ENDMDL
MODEL 5
REMARK VINA RESULT:    -6.506     17.709     19.596
REMARK INTER + INTRA:          -6.506
REMARK INTER:                  -6.506
REMARK INTRA:                   0.000
REMARK UNBOUND:                 0.000
REMARK SMILES C=C1CCC[C@@]2(C)CC(=O)C(=C(C)C)C[C@H]12
REMARK SMILES IDX 13 1 12 2 11 3 15 4 16 5 2 6 1 7 3 8 4 9 5 10 6 11 8 12 9 13
REMARK SMILES IDX 10 14 7 15 14 16
REMARK H PARENT
REMARK Flexibility Score: inf
ROOT
ATOM      1  C   UNL     1      -2.624  45.000   9.906  1.00  0.00     0.039 C 
ATOM      2  C   UNL     1      -3.285  46.142  10.645  1.00  0.00    -0.070 C 
ATOM      3  C   UNL     1      -2.953  46.439  11.936  1.00  0.00    -0.006 C 
ATOM      4  C   UNL     1      -1.886  45.645  12.677  1.00  0.00     0.047 C 
ATOM      5  C   UNL     1      -1.132  46.491  13.733  1.00  0.00     0.025 C 
ATOM      6  C   UNL     1      -0.074  45.736  14.538  1.00  0.00    -0.073 C 
ATOM      7  C   UNL     1       0.203  44.427  14.378  1.00  0.00     0.008 C 
ATOM      8  C   UNL     1       0.717  46.552  15.532  1.00  0.00     0.031 C 
ATOM      9  C   UNL     1      -0.228  47.311  16.468  1.00  0.00     0.005 C 
ATOM     10  C   UNL     1      -1.277  48.117  15.684  1.00  0.00     0.008 C 
ATOM     11  C   UNL     1      -2.105  47.244  14.695  1.00  0.00    -0.018 C 
ATOM     12  C   UNL     1      -3.001  48.186  13.854  1.00  0.00     0.088 C 
ATOM     13  C   UNL     1      -3.690  47.462  12.733  1.00  0.00     0.159 C 
ATOM     14  O   UNL     1      -4.899  47.728  12.497  1.00  0.00    -0.295 OA
ATOM     15  C   UNL     1      -3.002  46.260  15.495  1.00  0.00     0.012 C 
ATOM     16  C   UNL     1      -4.300  46.958   9.875  1.00  0.00     0.039 C 
ENDROOT
TORSDOF 0
ENDMDL
MODEL 6
REMARK VINA RESULT:    -6.364      2.199      4.415
REMARK INTER + INTRA:          -6.364
REMARK INTER:                  -6.364
REMARK INTRA:                   0.000
REMARK UNBOUND:                 0.000
REMARK SMILES C=C1CCC[C@@]2(C)CC(=O)C(=C(C)C)C[C@H]12
REMARK SMILES IDX 13 1 12 2 11 3 15 4 16 5 2 6 1 7 3 8 4 9 5 10 6 11 8 12 9 13
REMARK SMILES IDX 10 14 7 15 14 16
REMARK H PARENT
REMARK Flexibility Score: inf
ROOT
ATOM      1  C   UNL     1      -8.323  34.792  26.542  1.00  0.00     0.039 C 
ATOM      2  C   UNL     1      -8.564  34.967  25.060  1.00  0.00    -0.070 C 
ATOM      3  C   UNL     1      -8.497  33.908  24.200  1.00  0.00    -0.006 C 
ATOM      4  C   UNL     1      -8.199  32.502  24.703  1.00  0.00     0.047 C 
ATOM      5  C   UNL     1      -8.862  31.402  23.839  1.00  0.00     0.025 C 
ATOM      6  C   UNL     1      -8.565  29.966  24.274  1.00  0.00    -0.073 C 
ATOM      7  C   UNL     1      -7.780  29.642  25.319  1.00  0.00     0.008 C 
ATOM      8  C   UNL     1      -9.247  28.875  23.484  1.00  0.00     0.031 C 
ATOM      9  C   UNL     1      -8.973  29.049  21.987  1.00  0.00     0.005 C 
ATOM     10  C   UNL     1      -9.305  30.474  21.512  1.00  0.00     0.008 C 
ATOM     11  C   UNL     1      -8.558  31.578  22.318  1.00  0.00    -0.018 C 
ATOM     12  C   UNL     1      -9.096  32.956  21.862  1.00  0.00     0.088 C 
ATOM     13  C   UNL     1      -8.585  34.077  22.720  1.00  0.00     0.159 C 
ATOM     14  O   UNL     1      -8.222  35.146  22.161  1.00  0.00    -0.295 OA
ATOM     15  C   UNL     1      -7.035  31.498  22.020  1.00  0.00     0.012 C 
ATOM     16  C   UNL     1      -8.917  36.358  24.584  1.00  0.00     0.039 C 
ENDROOT
TORSDOF 0
ENDMDL
MODEL 7
REMARK VINA RESULT:    -6.130     17.827     19.909
REMARK INTER + INTRA:          -6.130
REMARK INTER:                  -6.130
REMARK INTRA:                   0.000
REMARK UNBOUND:                 0.000
REMARK SMILES C=C1CCC[C@@]2(C)CC(=O)C(=C(C)C)C[C@H]12
REMARK SMILES IDX 13 1 12 2 11 3 15 4 16 5 2 6 1 7 3 8 4 9 5 10 6 11 8 12 9 13
REMARK SMILES IDX 10 14 7 15 14 16
REMARK H PARENT
REMARK Flexibility Score: inf
ROOT
ATOM      1  C   UNL     1       0.007  43.857  14.372  1.00  0.00     0.039 C 
ATOM      2  C   UNL     1       0.170  45.351  14.542  1.00  0.00    -0.070 C 
ATOM      3  C   UNL     1      -0.592  46.233  13.831  1.00  0.00    -0.006 C 
ATOM      4  C   UNL     1      -1.653  45.748  12.852  1.00  0.00     0.047 C 
ATOM      5  C   UNL     1      -2.845  46.728  12.723  1.00  0.00     0.025 C 
ATOM      6  C   UNL     1      -3.924  46.311  11.723  1.00  0.00    -0.073 C 
ATOM      7  C   UNL     1      -3.872  45.188  10.981  1.00  0.00     0.008 C 
ATOM      8  C   UNL     1      -5.126  47.220  11.622  1.00  0.00     0.031 C 
ATOM      9  C   UNL     1      -4.683  48.663  11.363  1.00  0.00     0.005 C 
ATOM     10  C   UNL     1      -3.628  49.124  12.383  1.00  0.00     0.008 C 
ATOM     11  C   UNL     1      -2.382  48.191  12.438  1.00  0.00    -0.018 C 
ATOM     12  C   UNL     1      -1.480  48.661  13.605  1.00  0.00     0.088 C 
ATOM     13  C   UNL     1      -0.352  47.706  13.871  1.00  0.00     0.159 C 
ATOM     14  O   UNL     1       0.792  48.175  14.110  1.00  0.00    -0.295 OA
ATOM     15  C   UNL     1      -1.593  48.298  11.104  1.00  0.00     0.012 C 
ATOM     16  C   UNL     1       1.186  45.816  15.561  1.00  0.00     0.039 C 
ENDROOT
TORSDOF 0
ENDMDL
MODEL 8
REMARK VINA RESULT:    -5.972     18.065     18.890
REMARK INTER + INTRA:          -5.972
REMARK INTER:                  -5.972
REMARK INTRA:                   0.000
REMARK UNBOUND:                 0.000
REMARK SMILES C=C1CCC[C@@]2(C)CC(=O)C(=C(C)C)C[C@H]12
REMARK SMILES IDX 13 1 12 2 11 3 15 4 16 5 2 6 1 7 3 8 4 9 5 10 6 11 8 12 9 13
REMARK SMILES IDX 10 14 7 15 14 16
REMARK H PARENT
REMARK Flexibility Score: inf
ROOT
ATOM      1  C   UNL     1       1.501  47.934  21.012  1.00  0.00     0.039 C 
ATOM      2  C   UNL     1       0.094  48.088  20.481  1.00  0.00    -0.070 C 
ATOM      3  C   UNL     1      -0.178  47.980  19.147  1.00  0.00    -0.006 C 
ATOM      4  C   UNL     1       0.925  47.679  18.141  1.00  0.00     0.047 C 
ATOM      5  C   UNL     1       0.416  46.888  16.911  1.00  0.00     0.025 C 
ATOM      6  C   UNL     1       1.472  46.591  15.846  1.00  0.00    -0.073 C 
ATOM      7  C   UNL     1       2.759  46.981  15.930  1.00  0.00     0.008 C 
ATOM      8  C   UNL     1       1.015  45.769  14.664  1.00  0.00     0.031 C 
ATOM      9  C   UNL     1      -0.226  46.398  14.026  1.00  0.00     0.005 C 
ATOM     10  C   UNL     1      -1.325  46.668  15.068  1.00  0.00     0.008 C 
ATOM     11  C   UNL     1      -0.837  47.550  16.256  1.00  0.00    -0.018 C 
ATOM     12  C   UNL     1      -1.971  47.611  17.308  1.00  0.00     0.088 C 
ATOM     13  C   UNL     1      -1.528  48.271  18.583  1.00  0.00     0.159 C 
ATOM     14  O   UNL     1      -2.312  49.079  19.147  1.00  0.00    -0.295 OA
ATOM     15  C   UNL     1      -0.532  48.986  15.747  1.00  0.00     0.012 C 
ATOM     16  C   UNL     1      -0.998  48.327  21.499  1.00  0.00     0.039 C 
ENDROOT
TORSDOF 0
ENDMDL
MODEL 9
REMARK VINA RESULT:    -5.684     18.107     19.905
REMARK INTER + INTRA:          -5.684
REMARK INTER:                  -5.684
REMARK INTRA:                   0.000
REMARK UNBOUND:                 0.000
REMARK SMILES C=C1CCC[C@@]2(C)CC(=O)C(=C(C)C)C[C@H]12
REMARK SMILES IDX 13 1 12 2 11 3 15 4 16 5 2 6 1 7 3 8 4 9 5 10 6 11 8 12 9 13
REMARK SMILES IDX 10 14 7 15 14 16
REMARK H PARENT
REMARK Flexibility Score: inf
ROOT
ATOM      1  C   UNL     1       1.869  48.060  14.220  1.00  0.00     0.039 C 
ATOM      2  C   UNL     1       0.698  47.401  14.913  1.00  0.00    -0.070 C 
ATOM      3  C   UNL     1      -0.512  47.269  14.294  1.00  0.00    -0.006 C 
ATOM      4  C   UNL     1      -0.724  47.760  12.868  1.00  0.00     0.047 C 
ATOM      5  C   UNL     1      -1.780  46.929  12.098  1.00  0.00     0.025 C 
ATOM      6  C   UNL     1      -2.065  47.401  10.671  1.00  0.00    -0.073 C 
ATOM      7  C   UNL     1      -1.470  48.464  10.096  1.00  0.00     0.008 C 
ATOM      8  C   UNL     1      -3.046  46.572   9.878  1.00  0.00     0.031 C 
ATOM      9  C   UNL     1      -4.353  46.403  10.657  1.00  0.00     0.005 C 
ATOM     10  C   UNL     1      -4.100  45.886  12.084  1.00  0.00     0.008 C 
ATOM     11  C   UNL     1      -3.115  46.781  12.893  1.00  0.00    -0.018 C 
ATOM     12  C   UNL     1      -2.815  46.074  14.237  1.00  0.00     0.088 C 
ATOM     13  C   UNL     1      -1.720  46.757  15.005  1.00  0.00     0.159 C 
ATOM     14  O   UNL     1      -1.854  46.899  16.249  1.00  0.00    -0.295 OA
ATOM     15  C   UNL     1      -3.776  48.159  13.174  1.00  0.00     0.012 C 
ATOM     16  C   UNL     1       0.942  46.866  16.307  1.00  0.00     0.039 C 
ENDROOT
TORSDOF 0
ENDMDL
