MODEL 1
REMARK VINA RESULT:    -3.749      0.000      0.000
REMARK INTER + INTRA:          -5.866
REMARK INTER:                  -5.502
REMARK INTRA:                  -0.364
REMARK UNBOUND:                -0.364
REMARK SMILES O=C([O-])CCCCCCCC(=O)[O-]
REMARK SMILES IDX 7 1 6 2 5 3 4 4 2 5 1 6 3 7 8 8 9 9 10 10 11 11 12 12 13 13
REMARK H PARENT
REMARK Flexibility Score: inf
ROOT
ATOM      1  C   UNL     1       3.703  -4.145  -0.004  1.00  0.00     0.000 C 
ENDROOT
BRANCH   1   2
ATOM      2  C   UNL     1       4.467  -3.283   1.021  1.00  0.00     0.000 C 
BRANCH   2   3
ATOM      3  C   UNL     1       5.122  -2.014   0.446  1.00  0.00     0.006 C 
BRANCH   3   4
ATOM      4  C   UNL     1       5.259  -2.052  -1.081  1.00  0.00     0.053 C 
BRANCH   4   5
ATOM      5  C   UNL     1       5.622  -0.700  -1.606  1.00  0.00     0.041 C 
ATOM      6  O   UNL     1       4.928  -0.164  -2.510  1.00  0.00    -0.550 OA
ATOM      7  O   UNL     1       6.700  -0.011  -1.065  1.00  0.00    -0.550 OA
ENDBRANCH   4   5
ENDBRANCH   3   4
ENDBRANCH   2   3
ENDBRANCH   1   2
BRANCH   1   8
ATOM      8  C   UNL     1       2.346  -4.688   0.479  1.00  0.00     0.000 C 
BRANCH   8   9
ATOM      9  C   UNL     1       2.035  -4.306   1.937  1.00  0.00     0.006 C 
BRANCH   9  10
ATOM     10  C   UNL     1       1.127  -5.335   2.623  1.00  0.00     0.053 C 
BRANCH  10  11
ATOM     11  C   UNL     1       1.917  -6.348   3.393  1.00  0.00     0.041 C 
ATOM     12  O   UNL     1       1.349  -7.363   3.874  1.00  0.00    -0.550 OA
ATOM     13  O   UNL     1       3.277  -6.156   3.602  1.00  0.00    -0.550 OA
ENDBRANCH  10  11
ENDBRANCH   9  10
ENDBRANCH   8   9
ENDBRANCH   1   8
TORSDOF 8
ENDMDL
MODEL 2
REMARK VINA RESULT:    -3.658      1.406      7.081
REMARK INTER + INTRA:          -5.734
REMARK INTER:                  -5.433
REMARK INTRA:                  -0.301
REMARK UNBOUND:                -0.364
REMARK SMILES O=C([O-])CCCCCCCC(=O)[O-]
REMARK SMILES IDX 7 1 6 2 5 3 4 4 2 5 1 6 3 7 8 8 9 9 10 10 11 11 12 12 13 13
REMARK H PARENT
REMARK Flexibility Score: inf
ROOT
ATOM      1  C   UNL     1       5.382  -3.701   1.122  1.00  0.00     0.000 C 
ENDROOT
BRANCH   1   2
ATOM      2  C   UNL     1       4.304  -4.548   1.828  1.00  0.00     0.000 C 
BRANCH   2   3
ATOM      3  C   UNL     1       2.864  -4.026   1.681  1.00  0.00     0.006 C 
BRANCH   3   4
ATOM      4  C   UNL     1       1.923  -4.556   2.771  1.00  0.00     0.053 C 
BRANCH   4   5
ATOM      5  C   UNL     1       1.107  -5.694   2.247  1.00  0.00     0.041 C 
ATOM      6  O   UNL     1       1.088  -5.944   1.013  1.00  0.00    -0.550 OA
ATOM      7  O   UNL     1       0.404  -6.508   3.126  1.00  0.00    -0.550 OA
ENDBRANCH   4   5
ENDBRANCH   3   4
ENDBRANCH   2   3
ENDBRANCH   1   2
BRANCH   1   8
ATOM      8  C   UNL     1       4.894  -2.919  -0.112  1.00  0.00     0.000 C 
BRANCH   8   9
ATOM      9  C   UNL     1       5.204  -1.414  -0.025  1.00  0.00     0.006 C 
BRANCH   9  10
ATOM     10  C   UNL     1       6.394  -1.016  -0.909  1.00  0.00     0.053 C 
BRANCH  10  11
ATOM     11  C   UNL     1       6.007   0.002  -1.937  1.00  0.00     0.041 C 
ATOM     12  O   UNL     1       4.940  -0.131  -2.592  1.00  0.00    -0.550 OA
ATOM     13  O   UNL     1       6.841   1.083  -2.192  1.00  0.00    -0.550 OA
ENDBRANCH  10  11
ENDBRANCH   9  10
ENDBRANCH   8   9
ENDBRANCH   1   8
TORSDOF 8
ENDMDL
MODEL 3
REMARK VINA RESULT:    -3.637      1.564      6.259
REMARK INTER + INTRA:          -5.702
REMARK INTER:                  -5.024
REMARK INTRA:                  -0.677
REMARK UNBOUND:                -0.364
REMARK SMILES O=C([O-])CCCCCCCC(=O)[O-]
REMARK SMILES IDX 7 1 6 2 5 3 4 4 2 5 1 6 3 7 8 8 9 9 10 10 11 11 12 12 13 13
REMARK H PARENT
REMARK Flexibility Score: inf
ROOT
ATOM      1  C   UNL     1       5.469  -4.761   0.867  1.00  0.00     0.000 C 
ENDROOT
BRANCH   1   2
ATOM      2  C   UNL     1       4.569  -5.047  -0.352  1.00  0.00     0.000 C 
BRANCH   2   3
ATOM      3  C   UNL     1       3.265  -5.802  -0.037  1.00  0.00     0.006 C 
BRANCH   3   4
ATOM      4  C   UNL     1       2.070  -4.864   0.179  1.00  0.00     0.053 C 
BRANCH   4   5
ATOM      5  C   UNL     1       1.769  -4.730   1.638  1.00  0.00     0.041 C 
ATOM      6  O   UNL     1       2.315  -3.821   2.316  1.00  0.00    -0.550 OA
ATOM      7  O   UNL     1       0.850  -5.580   2.239  1.00  0.00    -0.550 OA
ENDBRANCH   4   5
ENDBRANCH   3   4
ENDBRANCH   2   3
ENDBRANCH   1   2
BRANCH   1   8
ATOM      8  C   UNL     1       5.921  -3.297   1.018  1.00  0.00     0.000 C 
BRANCH   8   9
ATOM      9  C   UNL     1       4.905  -2.296   0.441  1.00  0.00     0.006 C 
BRANCH   9  10
ATOM     10  C   UNL     1       5.590  -1.124  -0.274  1.00  0.00     0.053 C 
BRANCH  10  11
ATOM     11  C   UNL     1       5.450  -1.222  -1.762  1.00  0.00     0.041 C 
ATOM     12  O   UNL     1       4.995  -0.251  -2.423  1.00  0.00    -0.550 OA
ATOM     13  O   UNL     1       5.795  -2.398  -2.417  1.00  0.00    -0.550 OA
ENDBRANCH  10  11
ENDBRANCH   9  10
ENDBRANCH   8   9
ENDBRANCH   1   8
TORSDOF 8
ENDMDL
MODEL 4
REMARK VINA RESULT:    -3.622      2.120      3.156
REMARK INTER + INTRA:          -5.680
REMARK INTER:                  -5.150
REMARK INTRA:                  -0.530
REMARK UNBOUND:                -0.364
REMARK SMILES O=C([O-])CCCCCCCC(=O)[O-]
REMARK SMILES IDX 7 1 6 2 5 3 4 4 2 5 1 6 3 7 8 8 9 9 10 10 11 11 12 12 13 13
REMARK H PARENT
REMARK Flexibility Score: inf
ROOT
ATOM      1  C   UNL     1       5.811  -3.337  -1.274  1.00  0.00     0.000 C 
ENDROOT
BRANCH   1   2
ATOM      2  C   UNL     1       5.937  -2.150  -2.250  1.00  0.00     0.000 C 
BRANCH   2   3
ATOM      3  C   UNL     1       5.266  -0.847  -1.782  1.00  0.00     0.006 C 
BRANCH   3   4
ATOM      4  C   UNL     1       6.068   0.406  -2.157  1.00  0.00     0.053 C 
BRANCH   4   5
ATOM      5  C   UNL     1       7.394   0.403  -1.467  1.00  0.00     0.041 C 
ATOM      6  O   UNL     1       7.458   0.251  -0.218  1.00  0.00    -0.550 OA
ATOM      7  O   UNL     1       8.563   0.519  -2.207  1.00  0.00    -0.550 OA
ENDBRANCH   4   5
ENDBRANCH   3   4
ENDBRANCH   2   3
ENDBRANCH   1   2
BRANCH   1   8
ATOM      8  C   UNL     1       5.787  -2.958   0.218  1.00  0.00     0.000 C 
BRANCH   8   9
ATOM      9  C   UNL     1       4.418  -3.206   0.875  1.00  0.00     0.006 C 
BRANCH   9  10
ATOM     10  C   UNL     1       3.565  -4.202   0.077  1.00  0.00     0.053 C 
BRANCH  10  11
ATOM     11  C   UNL     1       2.286  -4.530   0.783  1.00  0.00     0.041 C 
ATOM     12  O   UNL     1       1.452  -5.313   0.257  1.00  0.00    -0.550 OA
ATOM     13  O   UNL     1       2.001  -3.947   2.012  1.00  0.00    -0.550 OA
ENDBRANCH  10  11
ENDBRANCH   9  10
ENDBRANCH   8   9
ENDBRANCH   1   8
TORSDOF 8
ENDMDL
MODEL 5
REMARK VINA RESULT:    -3.616      0.518      6.787
REMARK INTER + INTRA:          -5.671
REMARK INTER:                  -5.216
REMARK INTRA:                  -0.455
REMARK UNBOUND:                -0.364
REMARK SMILES O=C([O-])CCCCCCCC(=O)[O-]
REMARK SMILES IDX 7 1 6 2 5 3 4 4 2 5 1 6 3 7 8 8 9 9 10 10 11 11 12 12 13 13
REMARK H PARENT
REMARK Flexibility Score: inf
ROOT
ATOM      1  C   UNL     1       4.168  -4.459   0.014  1.00  0.00     0.000 C 
ENDROOT
BRANCH   1   2
ATOM      2  C   UNL     1       2.740  -4.820   0.471  1.00  0.00     0.000 C 
BRANCH   2   3
ATOM      3  C   UNL     1       2.252  -4.081   1.730  1.00  0.00     0.006 C 
BRANCH   3   4
ATOM      4  C   UNL     1       1.506  -4.998   2.707  1.00  0.00     0.053 C 
BRANCH   4   5
ATOM      5  C   UNL     1       2.471  -5.875   3.440  1.00  0.00     0.041 C 
ATOM      6  O   UNL     1       2.194  -7.085   3.650  1.00  0.00    -0.550 OA
ATOM      7  O   UNL     1       3.697  -5.368   3.850  1.00  0.00    -0.550 OA
ENDBRANCH   4   5
ENDBRANCH   3   4
ENDBRANCH   2   3
ENDBRANCH   1   2
BRANCH   1   8
ATOM      8  C   UNL     1       4.917  -3.472   0.928  1.00  0.00     0.000 C 
BRANCH   8   9
ATOM      9  C   UNL     1       4.948  -2.041   0.364  1.00  0.00     0.006 C 
BRANCH   9  10
ATOM     10  C   UNL     1       5.395  -2.007  -1.103  1.00  0.00     0.053 C 
BRANCH  10  11
ATOM     11  C   UNL     1       5.703  -0.613  -1.559  1.00  0.00     0.041 C 
ATOM     12  O   UNL     1       6.624   0.046  -1.009  1.00  0.00    -0.550 OA
ATOM     13  O   UNL     1       4.952  -0.032  -2.573  1.00  0.00    -0.550 OA
ENDBRANCH  10  11
ENDBRANCH   9  10
ENDBRANCH   8   9
ENDBRANCH   1   8
TORSDOF 8
ENDMDL
MODEL 6
REMARK VINA RESULT:    -3.612      1.065      1.415
REMARK INTER + INTRA:          -5.666
REMARK INTER:                  -5.189
REMARK INTRA:                  -0.477
REMARK UNBOUND:                -0.364
REMARK SMILES O=C([O-])CCCCCCCC(=O)[O-]
REMARK SMILES IDX 7 1 6 2 5 3 4 4 2 5 1 6 3 7 8 8 9 9 10 10 11 11 12 12 13 13
REMARK H PARENT
REMARK Flexibility Score: inf
ROOT
ATOM      1  C   UNL     1       4.683  -4.535   0.003  1.00  0.00     0.000 C 
ENDROOT
BRANCH   1   2
ATOM      2  C   UNL     1       4.302  -3.194   0.661  1.00  0.00     0.000 C 
BRANCH   2   3
ATOM      3  C   UNL     1       5.149  -1.987   0.220  1.00  0.00     0.006 C 
BRANCH   3   4
ATOM      4  C   UNL     1       5.434  -1.976  -1.287  1.00  0.00     0.053 C 
BRANCH   4   5
ATOM      5  C   UNL     1       5.705  -0.583  -1.757  1.00  0.00     0.041 C 
ATOM      6  O   UNL     1       4.975  -0.058  -2.638  1.00  0.00    -0.550 OA
ATOM      7  O   UNL     1       6.736   0.154  -1.188  1.00  0.00    -0.550 OA
ENDBRANCH   4   5
ENDBRANCH   3   4
ENDBRANCH   2   3
ENDBRANCH   1   2
BRANCH   1   8
ATOM      8  C   UNL     1       3.550  -5.575  -0.068  1.00  0.00     0.000 C 
BRANCH   8   9
ATOM      9  C   UNL     1       2.152  -4.942   0.041  1.00  0.00     0.006 C 
BRANCH   9  10
ATOM     10  C   UNL     1       1.255  -5.689   1.038  1.00  0.00     0.053 C 
BRANCH  10  11
ATOM     11  C   UNL     1       1.633  -5.391   2.457  1.00  0.00     0.041 C 
ATOM     12  O   UNL     1       1.775  -4.200   2.840  1.00  0.00    -0.550 OA
ATOM     13  O   UNL     1       1.856  -6.432   3.350  1.00  0.00    -0.550 OA
ENDBRANCH  10  11
ENDBRANCH   9  10
ENDBRANCH   8   9
ENDBRANCH   1   8
TORSDOF 8
ENDMDL
MODEL 7
REMARK VINA RESULT:    -3.593      1.871      2.228
REMARK INTER + INTRA:          -5.637
REMARK INTER:                  -5.201
REMARK INTRA:                  -0.436
REMARK UNBOUND:                -0.364
REMARK SMILES O=C([O-])CCCCCCCC(=O)[O-]
REMARK SMILES IDX 7 1 6 2 5 3 4 4 2 5 1 6 3 7 8 8 9 9 10 10 11 11 12 12 13 13
REMARK H PARENT
REMARK Flexibility Score: inf
ROOT
ATOM      1  C   UNL     1       5.231  -4.192   1.306  1.00  0.00     0.000 C 
ENDROOT
BRANCH   1   2
ATOM      2  C   UNL     1       4.840  -3.754  -0.119  1.00  0.00     0.000 C 
BRANCH   2   3
ATOM      3  C   UNL     1       4.989  -2.248  -0.403  1.00  0.00     0.006 C 
BRANCH   3   4
ATOM      4  C   UNL     1       5.759  -1.958  -1.697  1.00  0.00     0.053 C 
BRANCH   4   5
ATOM      5  C   UNL     1       5.841  -0.484  -1.935  1.00  0.00     0.041 C 
ATOM      6  O   UNL     1       4.971   0.094  -2.639  1.00  0.00    -0.550 OA
ATOM      7  O   UNL     1       6.853   0.261  -1.342  1.00  0.00    -0.550 OA
ENDBRANCH   4   5
ENDBRANCH   3   4
ENDBRANCH   2   3
ENDBRANCH   1   2
BRANCH   1   8
ATOM      8  C   UNL     1       4.112  -4.879   2.109  1.00  0.00     0.000 C 
BRANCH   8   9
ATOM      9  C   UNL     1       2.798  -4.079   2.108  1.00  0.00     0.006 C 
BRANCH   9  10
ATOM     10  C   UNL     1       1.569  -4.987   1.965  1.00  0.00     0.053 C 
BRANCH  10  11
ATOM     11  C   UNL     1       1.420  -5.508   0.569  1.00  0.00     0.041 C 
ATOM     12  O   UNL     1       1.467  -4.719  -0.412  1.00  0.00    -0.550 OA
ATOM     13  O   UNL     1       1.202  -6.862   0.352  1.00  0.00    -0.550 OA
ENDBRANCH  10  11
ENDBRANCH   9  10
ENDBRANCH   8   9
ENDBRANCH   1   8
TORSDOF 8
ENDMDL
MODEL 8
REMARK VINA RESULT:    -3.591      2.364      6.767
REMARK INTER + INTRA:          -5.635
REMARK INTER:                  -5.071
REMARK INTRA:                  -0.564
REMARK UNBOUND:                -0.364
REMARK SMILES O=C([O-])CCCCCCCC(=O)[O-]
REMARK SMILES IDX 7 1 6 2 5 3 4 4 2 5 1 6 3 7 8 8 9 9 10 10 11 11 12 12 13 13
REMARK H PARENT
REMARK Flexibility Score: inf
ROOT
ATOM      1  C   UNL     1       6.115  -2.221  -2.275  1.00  0.00     0.000 C 
ENDROOT
BRANCH   1   2
ATOM      2  C   UNL     1       5.673  -3.232  -1.198  1.00  0.00     0.000 C 
BRANCH   2   3
ATOM      3  C   UNL     1       4.810  -2.646  -0.067  1.00  0.00     0.006 C 
BRANCH   3   4
ATOM      4  C   UNL     1       4.464  -3.676   1.016  1.00  0.00     0.053 C 
BRANCH   4   5
ATOM      5  C   UNL     1       3.017  -4.047   0.939  1.00  0.00     0.041 C 
ATOM      6  O   UNL     1       2.560  -4.609  -0.091  1.00  0.00    -0.550 OA
ATOM      7  O   UNL     1       2.182  -3.814   2.025  1.00  0.00    -0.550 OA
ENDBRANCH   4   5
ENDBRANCH   3   4
ENDBRANCH   2   3
ENDBRANCH   1   2
BRANCH   1   8
ATOM      8  C   UNL     1       5.231  -0.967  -2.396  1.00  0.00     0.000 C 
BRANCH   8   9
ATOM      9  C   UNL     1       5.980   0.329  -2.041  1.00  0.00     0.006 C 
BRANCH   9  10
ATOM     10  C   UNL     1       7.474   0.083  -1.787  1.00  0.00     0.053 C 
BRANCH  10  11
ATOM     11  C   UNL     1       7.856   0.393  -0.372  1.00  0.00     0.041 C 
ATOM     12  O   UNL     1       7.314  -0.226   0.581  1.00  0.00    -0.550 OA
ATOM     13  O   UNL     1       8.791   1.385  -0.106  1.00  0.00    -0.550 OA
ENDBRANCH  10  11
ENDBRANCH   9  10
ENDBRANCH   8   9
ENDBRANCH   1   8
TORSDOF 8
ENDMDL
MODEL 9
REMARK VINA RESULT:    -3.590      1.729      6.983
REMARK INTER + INTRA:          -5.634
REMARK INTER:                  -5.261
REMARK INTRA:                  -0.373
REMARK UNBOUND:                -0.364
REMARK SMILES O=C([O-])CCCCCCCC(=O)[O-]
REMARK SMILES IDX 7 1 6 2 5 3 4 4 2 5 1 6 3 7 8 8 9 9 10 10 11 11 12 12 13 13
REMARK H PARENT
REMARK Flexibility Score: inf
ROOT
ATOM      1  C   UNL     1       5.076  -2.666   0.613  1.00  0.00     0.000 C 
ENDROOT
BRANCH   1   2
ATOM      2  C   UNL     1       4.377  -3.636  -0.360  1.00  0.00     0.000 C 
BRANCH   2   3
ATOM      3  C   UNL     1       3.741  -4.874   0.297  1.00  0.00     0.006 C 
BRANCH   3   4
ATOM      4  C   UNL     1       2.208  -4.829   0.295  1.00  0.00     0.053 C 
BRANCH   4   5
ATOM      5  C   UNL     1       1.683  -4.864   1.695  1.00  0.00     0.041 C 
ATOM      6  O   UNL     1       0.810  -5.710   2.024  1.00  0.00    -0.550 OA
ATOM      7  O   UNL     1       2.193  -3.994   2.650  1.00  0.00    -0.550 OA
ENDBRANCH   4   5
ENDBRANCH   3   4
ENDBRANCH   2   3
ENDBRANCH   1   2
BRANCH   1   8
ATOM      8  C   UNL     1       5.183  -1.211   0.123  1.00  0.00     0.000 C 
BRANCH   8   9
ATOM      9  C   UNL     1       5.278  -1.103  -1.409  1.00  0.00     0.006 C 
BRANCH   9  10
ATOM     10  C   UNL     1       6.095   0.118  -1.854  1.00  0.00     0.053 C 
BRANCH  10  11
ATOM     11  C   UNL     1       7.522   0.024  -1.408  1.00  0.00     0.041 C 
ATOM     12  O   UNL     1       7.968   0.817  -0.538  1.00  0.00    -0.550 OA
ATOM     13  O   UNL     1       8.366  -0.922  -1.975  1.00  0.00    -0.550 OA
ENDBRANCH  10  11
ENDBRANCH   9  10
ENDBRANCH   8   9
ENDBRANCH   1   8
TORSDOF 8
ENDMDL
