MODEL 1
REMARK VINA RESULT:    -5.920      0.000      0.000
REMARK INTER + INTRA:          -7.082
REMARK INTER:                  -6.959
REMARK INTRA:                  -0.123
REMARK UNBOUND:                -0.123
REMARK SMILES O=C([O-])C=Cc1ccc(O)c(O)c1
REMARK SMILES IDX 6 1 13 2 7 3 11 4 8 5 9 6 5 7 4 8 2 9 1 10 3 11 12 12 10 14
REMARK H PARENT 12 13 10 15
REMARK Flexibility Score: inf
ROOT
ATOM      1  C   UNL     1      10.910   9.744  13.458  1.00  0.00    -0.022 A 
ATOM      2  C   UNL     1      10.527  10.486  14.593  1.00  0.00     0.058 A 
ATOM      3  C   UNL     1       9.931   9.017  12.763  1.00  0.00     0.012 A 
ATOM      4  C   UNL     1       9.198  10.481  15.035  1.00  0.00     0.157 A 
ATOM      5  C   UNL     1       8.605   9.008  13.202  1.00  0.00     0.051 A 
ATOM      6  C   UNL     1       8.233   9.735  14.339  1.00  0.00     0.157 A 
ENDROOT
BRANCH   1   7
ATOM      7  C   UNL     1      12.302   9.729  12.947  1.00  0.00     0.010 C 
ATOM      8  C   UNL     1      13.359   9.339  13.674  1.00  0.00     0.025 C 
BRANCH   8   9
ATOM      9  C   UNL     1      14.722   9.329  13.121  1.00  0.00     0.064 C 
ATOM     10  O   UNL     1      15.230   8.244  12.737  1.00  0.00    -0.545 OA
ATOM     11  O   UNL     1      15.463  10.502  13.018  1.00  0.00    -0.545 OA
ENDBRANCH   8   9
ENDBRANCH   1   7
BRANCH   4  12
ATOM     12  O   UNL     1       8.856  11.226  16.163  1.00  0.00    -0.504 OA
ATOM     13  H   UNL     1       8.357  12.106  16.097  1.00  0.00     0.293 HD
ENDBRANCH   4  12
BRANCH   6  14
ATOM     14  O   UNL     1       6.909   9.723  14.776  1.00  0.00    -0.504 OA
ATOM     15  H   UNL     1       6.459  10.558  15.132  1.00  0.00     0.293 HD
ENDBRANCH   6  14
TORSDOF 4
ENDMDL
MODEL 2
REMARK VINA RESULT:    -5.639      1.051      2.197
REMARK INTER + INTRA:          -6.751
REMARK INTER:                  -6.602
REMARK INTRA:                  -0.149
REMARK UNBOUND:                -0.123
REMARK SMILES O=C([O-])C=Cc1ccc(O)c(O)c1
REMARK SMILES IDX 6 1 13 2 7 3 11 4 8 5 9 6 5 7 4 8 2 9 1 10 3 11 12 12 10 14
REMARK H PARENT 12 13 10 15
REMARK Flexibility Score: inf
ROOT
ATOM      1  C   UNL     1      10.702   9.414  13.417  1.00  0.00    -0.022 A 
ATOM      2  C   UNL     1       9.710   9.024  12.494  1.00  0.00     0.058 A 
ATOM      3  C   UNL     1      10.314   9.764  14.720  1.00  0.00     0.012 A 
ATOM      4  C   UNL     1       8.359   9.007  12.863  1.00  0.00     0.157 A 
ATOM      5  C   UNL     1       8.967   9.751  15.090  1.00  0.00     0.051 A 
ATOM      6  C   UNL     1       7.985   9.376  14.164  1.00  0.00     0.157 A 
ENDROOT
BRANCH   1   7
ATOM      7  C   UNL     1      12.145   9.436  13.075  1.00  0.00     0.010 C 
ATOM      8  C   UNL     1      13.127   9.448  13.987  1.00  0.00     0.025 C 
BRANCH   8   9
ATOM      9  C   UNL     1      14.547   9.458  13.602  1.00  0.00     0.064 C 
ATOM     10  O   UNL     1      15.181  10.545  13.590  1.00  0.00    -0.545 OA
ATOM     11  O   UNL     1      15.203   8.284  13.248  1.00  0.00    -0.545 OA
ENDBRANCH   8   9
ENDBRANCH   1   7
BRANCH   4  12
ATOM     12  O   UNL     1       7.406   8.617  11.923  1.00  0.00    -0.504 OA
ATOM     13  H   UNL     1       7.191   7.643  11.746  1.00  0.00     0.293 HD
ENDBRANCH   4  12
BRANCH   6  14
ATOM     14  O   UNL     1       6.641   9.366  14.536  1.00  0.00    -0.504 OA
ATOM     15  H   UNL     1       5.905   9.195  13.861  1.00  0.00     0.293 HD
ENDBRANCH   6  14
TORSDOF 4
ENDMDL
MODEL 3
REMARK VINA RESULT:    -5.348      1.391      2.340
REMARK INTER + INTRA:          -6.409
REMARK INTER:                  -6.283
REMARK INTRA:                  -0.126
REMARK UNBOUND:                -0.123
REMARK SMILES O=C([O-])C=Cc1ccc(O)c(O)c1
REMARK SMILES IDX 6 1 13 2 7 3 11 4 8 5 9 6 5 7 4 8 2 9 1 10 3 11 12 12 10 14
REMARK H PARENT 12 13 10 15
REMARK Flexibility Score: inf
ROOT
ATOM      1  C   UNL     1      11.994  10.251  13.557  1.00  0.00    -0.022 A 
ATOM      2  C   UNL     1      11.002   9.349  13.991  1.00  0.00     0.058 A 
ATOM      3  C   UNL     1      11.915  11.593  13.964  1.00  0.00     0.012 A 
ATOM      4  C   UNL     1       9.942   9.787  14.796  1.00  0.00     0.157 A 
ATOM      5  C   UNL     1      10.858  12.032  14.765  1.00  0.00     0.051 A 
ATOM      6  C   UNL     1       9.867  11.135  15.181  1.00  0.00     0.157 A 
ENDROOT
BRANCH   1   7
ATOM      7  C   UNL     1      13.141   9.831  12.715  1.00  0.00     0.010 C 
ATOM      8  C   UNL     1      14.113   9.010  13.134  1.00  0.00     0.025 C 
BRANCH   8   9
ATOM      9  C   UNL     1      15.226   8.610  12.259  1.00  0.00     0.064 C 
ATOM     10  O   UNL     1      15.882   9.492  11.646  1.00  0.00    -0.545 OA
ATOM     11  O   UNL     1      15.565   7.272  12.095  1.00  0.00    -0.545 OA
ENDBRANCH   8   9
ENDBRANCH   1   7
BRANCH   4  12
ATOM     12  O   UNL     1       8.978   8.866  15.204  1.00  0.00    -0.504 OA
ATOM     13  H   UNL     1       8.730   8.743  16.179  1.00  0.00     0.293 HD
ENDBRANCH   4  12
BRANCH   6  14
ATOM     14  O   UNL     1       8.811  11.577  15.978  1.00  0.00    -0.504 OA
ATOM     15  H   UNL     1       7.985  11.010  16.127  1.00  0.00     0.293 HD
ENDBRANCH   6  14
TORSDOF 4
ENDMDL
MODEL 4
REMARK VINA RESULT:    -5.318      1.884      2.612
REMARK INTER + INTRA:          -6.374
REMARK INTER:                  -6.242
REMARK INTRA:                  -0.132
REMARK UNBOUND:                -0.123
REMARK SMILES O=C([O-])C=Cc1ccc(O)c(O)c1
REMARK SMILES IDX 6 1 13 2 7 3 11 4 8 5 9 6 5 7 4 8 2 9 1 10 3 11 12 12 10 14
REMARK H PARENT 12 13 10 15
REMARK Flexibility Score: inf
ROOT
ATOM      1  C   UNL     1      12.871   9.821  13.902  1.00  0.00    -0.022 A 
ATOM      2  C   UNL     1      13.103  10.942  14.724  1.00  0.00     0.058 A 
ATOM      3  C   UNL     1      11.546   9.442  13.632  1.00  0.00     0.012 A 
ATOM      4  C   UNL     1      12.033  11.653  15.282  1.00  0.00     0.157 A 
ATOM      5  C   UNL     1      10.477  10.147  14.189  1.00  0.00     0.051 A 
ATOM      6  C   UNL     1      10.714  11.251  15.017  1.00  0.00     0.157 A 
ENDROOT
BRANCH   1   7
ATOM      7  C   UNL     1      13.972   9.046  13.280  1.00  0.00     0.010 C 
ATOM      8  C   UNL     1      14.413   9.247  12.030  1.00  0.00     0.025 C 
BRANCH   8   9
ATOM      9  C   UNL     1      15.517   8.461  11.458  1.00  0.00     0.064 C 
ATOM     10  O   UNL     1      15.721   7.288  11.864  1.00  0.00    -0.545 OA
ATOM     11  O   UNL     1      16.343   8.994  10.475  1.00  0.00    -0.545 OA
ENDBRANCH   8   9
ENDBRANCH   1   7
BRANCH   4  12
ATOM     12  O   UNL     1      12.302  12.755  16.092  1.00  0.00    -0.504 OA
ATOM     13  H   UNL     1      12.945  12.705  16.874  1.00  0.00     0.293 HD
ENDBRANCH   4  12
BRANCH   6  14
ATOM     14  O   UNL     1       9.644  11.952  15.573  1.00  0.00    -0.504 OA
ATOM     15  H   UNL     1       9.522  12.025  16.577  1.00  0.00     0.293 HD
ENDBRANCH   6  14
TORSDOF 4
ENDMDL
MODEL 5
REMARK VINA RESULT:    -5.172      1.485      5.719
REMARK INTER + INTRA:          -6.202
REMARK INTER:                  -6.076
REMARK INTRA:                  -0.126
REMARK UNBOUND:                -0.123
REMARK SMILES O=C([O-])C=Cc1ccc(O)c(O)c1
REMARK SMILES IDX 6 1 13 2 7 3 11 4 8 5 9 6 5 7 4 8 2 9 1 10 3 11 12 12 10 14
REMARK H PARENT 12 13 10 15
REMARK Flexibility Score: inf
ROOT
ATOM      1  C   UNL     1      11.948   9.781  12.701  1.00  0.00    -0.022 A 
ATOM      2  C   UNL     1      12.553   9.840  13.972  1.00  0.00     0.058 A 
ATOM      3  C   UNL     1      12.754   9.920  11.560  1.00  0.00     0.012 A 
ATOM      4  C   UNL     1      13.931  10.056  14.097  1.00  0.00     0.157 A 
ATOM      5  C   UNL     1      14.128  10.138  11.682  1.00  0.00     0.051 A 
ATOM      6  C   UNL     1      14.722  10.211  12.948  1.00  0.00     0.157 A 
ENDROOT
BRANCH   1   7
ATOM      7  C   UNL     1      10.495   9.542  12.519  1.00  0.00     0.010 C 
ATOM      8  C   UNL     1       9.648   9.295  13.528  1.00  0.00     0.025 C 
BRANCH   8   9
ATOM      9  C   UNL     1       8.211   9.075  13.303  1.00  0.00     0.064 C 
ATOM     10  O   UNL     1       7.817   8.631  12.193  1.00  0.00    -0.545 OA
ATOM     11  O   UNL     1       7.278   9.351  14.296  1.00  0.00    -0.545 OA
ENDBRANCH   8   9
ENDBRANCH   1   7
BRANCH   4  12
ATOM     12  O   UNL     1      14.495  10.111  15.372  1.00  0.00    -0.504 OA
ATOM     13  H   UNL     1      15.077   9.365  15.735  1.00  0.00     0.293 HD
ENDBRANCH   4  12
BRANCH   6  14
ATOM     14  O   UNL     1      16.094  10.431  13.066  1.00  0.00    -0.504 OA
ATOM     15  H   UNL     1      16.623  10.890  12.333  1.00  0.00     0.293 HD
ENDBRANCH   6  14
TORSDOF 4
ENDMDL
MODEL 6
REMARK VINA RESULT:    -5.020     16.039     17.252
REMARK INTER + INTRA:          -6.024
REMARK INTER:                  -5.895
REMARK INTRA:                  -0.129
REMARK UNBOUND:                -0.123
REMARK SMILES O=C([O-])C=Cc1ccc(O)c(O)c1
REMARK SMILES IDX 6 1 13 2 7 3 11 4 8 5 9 6 5 7 4 8 2 9 1 10 3 11 12 12 10 14
REMARK H PARENT 12 13 10 15
REMARK Flexibility Score: inf
ROOT
ATOM      1  C   UNL     1      17.301  -6.488  15.754  1.00  0.00    -0.022 A 
ATOM      2  C   UNL     1      17.265  -5.449  16.706  1.00  0.00     0.058 A 
ATOM      3  C   UNL     1      16.100  -7.116  15.391  1.00  0.00     0.012 A 
ATOM      4  C   UNL     1      16.055  -5.064  17.296  1.00  0.00     0.157 A 
ATOM      5  C   UNL     1      14.892  -6.736  15.980  1.00  0.00     0.051 A 
ATOM      6  C   UNL     1      14.863  -5.713  16.936  1.00  0.00     0.157 A 
ENDROOT
BRANCH   1   7
ATOM      7  C   UNL     1      18.557  -6.921  15.094  1.00  0.00     0.010 C 
ATOM      8  C   UNL     1      18.984  -6.443  13.917  1.00  0.00     0.025 C 
BRANCH   8   9
ATOM      9  C   UNL     1      20.243  -6.893  13.304  1.00  0.00     0.064 C 
ATOM     10  O   UNL     1      21.255  -7.082  14.029  1.00  0.00    -0.545 OA
ATOM     11  O   UNL     1      20.337  -7.113  11.934  1.00  0.00    -0.545 OA
ENDBRANCH   8   9
ENDBRANCH   1   7
BRANCH   4  12
ATOM     12  O   UNL     1      16.057  -4.033  18.236  1.00  0.00    -0.504 OA
ATOM     13  H   UNL     1      16.905  -3.735  18.705  1.00  0.00     0.293 HD
ENDBRANCH   4  12
BRANCH   6  14
ATOM     14  O   UNL     1      13.656  -5.337  17.524  1.00  0.00    -0.504 OA
ATOM     15  H   UNL     1      13.172  -4.490  17.249  1.00  0.00     0.293 HD
ENDBRANCH   6  14
TORSDOF 4
ENDMDL
MODEL 7
REMARK VINA RESULT:    -4.819      1.234      6.152
REMARK INTER + INTRA:          -5.787
REMARK INTER:                  -5.659
REMARK INTRA:                  -0.128
REMARK UNBOUND:                -0.123
REMARK SMILES O=C([O-])C=Cc1ccc(O)c(O)c1
REMARK SMILES IDX 6 1 13 2 7 3 11 4 8 5 9 6 5 7 4 8 2 9 1 10 3 11 12 12 10 14
REMARK H PARENT 12 13 10 15
REMARK Flexibility Score: inf
ROOT
ATOM      1  C   UNL     1      12.946  10.218  13.569  1.00  0.00    -0.022 A 
ATOM      2  C   UNL     1      13.663   9.035  13.838  1.00  0.00     0.058 A 
ATOM      3  C   UNL     1      13.450  11.113  12.612  1.00  0.00     0.012 A 
ATOM      4  C   UNL     1      14.870   8.767  13.180  1.00  0.00     0.157 A 
ATOM      5  C   UNL     1      14.655  10.850  11.957  1.00  0.00     0.051 A 
ATOM      6  C   UNL     1      15.371   9.680  12.239  1.00  0.00     0.157 A 
ENDROOT
BRANCH   1   7
ATOM      7  C   UNL     1      11.658  10.538  14.232  1.00  0.00     0.010 C 
ATOM      8  C   UNL     1      10.524   9.852  14.030  1.00  0.00     0.025 C 
BRANCH   8   9
ATOM      9  C   UNL     1       9.272  10.199  14.718  1.00  0.00     0.064 C 
ATOM     10  O   UNL     1       9.216  11.240  15.423  1.00  0.00    -0.545 OA
ATOM     11  O   UNL     1       8.144   9.393  14.605  1.00  0.00    -0.545 OA
ENDBRANCH   8   9
ENDBRANCH   1   7
BRANCH   4  12
ATOM     12  O   UNL     1      15.554   7.587  13.474  1.00  0.00    -0.504 OA
ATOM     13  H   UNL     1      15.169   6.882  14.091  1.00  0.00     0.293 HD
ENDBRANCH   4  12
BRANCH   6  14
ATOM     14  O   UNL     1      16.575   9.421  11.584  1.00  0.00    -0.504 OA
ATOM     15  H   UNL     1      16.682   8.626  10.964  1.00  0.00     0.293 HD
ENDBRANCH   6  14
TORSDOF 4
ENDMDL
MODEL 8
REMARK VINA RESULT:    -4.687      1.907      2.393
REMARK INTER + INTRA:          -5.632
REMARK INTER:                  -5.508
REMARK INTRA:                  -0.124
REMARK UNBOUND:                -0.123
REMARK SMILES O=C([O-])C=Cc1ccc(O)c(O)c1
REMARK SMILES IDX 6 1 13 2 7 3 11 4 8 5 9 6 5 7 4 8 2 9 1 10 3 11 12 12 10 14
REMARK H PARENT 12 13 10 15
REMARK Flexibility Score: inf
ROOT
ATOM      1  C   UNL     1      12.698  10.450  12.945  1.00  0.00    -0.022 A 
ATOM      2  C   UNL     1      12.451  10.630  14.321  1.00  0.00     0.058 A 
ATOM      3  C   UNL     1      11.718   9.823  12.158  1.00  0.00     0.012 A 
ATOM      4  C   UNL     1      11.261  10.173  14.899  1.00  0.00     0.157 A 
ATOM      5  C   UNL     1      10.531   9.364  12.733  1.00  0.00     0.051 A 
ATOM      6  C   UNL     1      10.298   9.532  14.103  1.00  0.00     0.157 A 
ENDROOT
BRANCH   1   7
ATOM      7  C   UNL     1      13.938  10.928  12.287  1.00  0.00     0.010 C 
ATOM      8  C   UNL     1      15.157  10.437  12.546  1.00  0.00     0.025 C 
BRANCH   8   9
ATOM      9  C   UNL     1      16.360  10.934  11.860  1.00  0.00     0.064 C 
ATOM     10  O   UNL     1      17.341  11.337  12.538  1.00  0.00    -0.545 OA
ATOM     11  O   UNL     1      16.431  10.970  10.472  1.00  0.00    -0.545 OA
ENDBRANCH   8   9
ENDBRANCH   1   7
BRANCH   4  12
ATOM     12  O   UNL     1      11.053  10.367  16.264  1.00  0.00    -0.504 OA
ATOM     13  H   UNL     1      10.582  11.189  16.626  1.00  0.00     0.293 HD
ENDBRANCH   4  12
BRANCH   6  14
ATOM     14  O   UNL     1       9.112   9.070  14.674  1.00  0.00    -0.504 OA
ATOM     15  H   UNL     1       8.441   8.531  14.140  1.00  0.00     0.293 HD
ENDBRANCH   6  14
TORSDOF 4
ENDMDL
