MODEL 1
REMARK VINA RESULT:    -4.812      0.000      0.000
REMARK INTER + INTRA:          -4.812
REMARK INTER:                  -4.812
REMARK INTRA:                   0.000
REMARK UNBOUND:                 0.000
REMARK SMILES CC(C)=C1CC[C@H](C)CC1=O
REMARK SMILES IDX 8 1 7 2 6 3 5 4 4 5 2 6 1 7 3 8 10 9 11 10 9 11
REMARK H PARENT
REMARK Flexibility Score: inf
ROOT
ATOM      1  C   UNL     1      19.886  -9.272  66.644  1.00  0.00     0.008 C 
ATOM      2  C   UNL     1      18.843 -10.241  66.076  1.00  0.00    -0.006 C 
ATOM      3  C   UNL     1      17.524 -10.134  66.858  1.00  0.00     0.008 C 
ATOM      4  C   UNL     1      16.500 -11.169  66.370  1.00  0.00     0.039 C 
ATOM      5  C   UNL     1      16.293 -11.119  64.863  1.00  0.00    -0.006 C 
ATOM      6  C   UNL     1      15.086 -11.423  64.302  1.00  0.00    -0.070 C 
ATOM      7  C   UNL     1      14.852 -11.323  62.812  1.00  0.00     0.039 C 
ATOM      8  C   UNL     1      13.909 -11.840  65.155  1.00  0.00     0.039 C 
ATOM      9  C   UNL     1      17.509 -10.835  64.042  1.00  0.00     0.159 C 
ATOM     10  O   UNL     1      17.650 -11.326  62.890  1.00  0.00    -0.295 OA
ATOM     11  C   UNL     1      18.595  -9.955  64.588  1.00  0.00     0.084 C 
ENDROOT
TORSDOF 0
ENDMDL
MODEL 2
REMARK VINA RESULT:    -4.739      1.004      4.043
REMARK INTER + INTRA:          -4.739
REMARK INTER:                  -4.739
REMARK INTRA:                   0.000
REMARK UNBOUND:                 0.000
REMARK SMILES CC(C)=C1CC[C@H](C)CC1=O
REMARK SMILES IDX 8 1 7 2 6 3 5 4 4 5 2 6 1 7 3 8 10 9 11 10 9 11
REMARK H PARENT
REMARK Flexibility Score: inf
ROOT
ATOM      1  C   UNL     1      14.155 -12.189  64.935  1.00  0.00     0.008 C 
ATOM      2  C   UNL     1      15.287 -11.160  65.020  1.00  0.00    -0.006 C 
ATOM      3  C   UNL     1      16.176 -11.434  66.243  1.00  0.00     0.008 C 
ATOM      4  C   UNL     1      17.254 -10.354  66.404  1.00  0.00     0.039 C 
ATOM      5  C   UNL     1      18.061 -10.141  65.130  1.00  0.00    -0.006 C 
ATOM      6  C   UNL     1      19.375  -9.771  65.175  1.00  0.00    -0.070 C 
ATOM      7  C   UNL     1      20.201  -9.611  63.920  1.00  0.00     0.039 C 
ATOM      8  C   UNL     1      20.078  -9.539  66.493  1.00  0.00     0.039 C 
ATOM      9  C   UNL     1      17.302 -10.247  63.847  1.00  0.00     0.159 C 
ATOM     10  O   UNL     1      17.618  -9.557  62.842  1.00  0.00    -0.295 OA
ATOM     11  C   UNL     1      16.135 -11.184  63.739  1.00  0.00     0.084 C 
ENDROOT
TORSDOF 0
ENDMDL
MODEL 3
REMARK VINA RESULT:    -4.724      2.794      4.026
REMARK INTER + INTRA:          -4.724
REMARK INTER:                  -4.724
REMARK INTRA:                   0.000
REMARK UNBOUND:                 0.000
REMARK SMILES CC(C)=C1CC[C@H](C)CC1=O
REMARK SMILES IDX 8 1 7 2 6 3 5 4 4 5 2 6 1 7 3 8 10 9 11 10 9 11
REMARK H PARENT
REMARK Flexibility Score: inf
ROOT
ATOM      1  C   UNL     1      21.757  -9.625  63.234  1.00  0.00     0.008 C 
ATOM      2  C   UNL     1      20.802  -9.669  64.431  1.00  0.00    -0.006 C 
ATOM      3  C   UNL     1      19.388 -10.068  63.979  1.00  0.00     0.008 C 
ATOM      4  C   UNL     1      18.393 -10.018  65.147  1.00  0.00     0.039 C 
ATOM      5  C   UNL     1      18.869 -10.817  66.353  1.00  0.00    -0.006 C 
ATOM      6  C   UNL     1      17.984 -11.438  67.188  1.00  0.00    -0.070 C 
ATOM      7  C   UNL     1      18.446 -12.280  68.354  1.00  0.00     0.039 C 
ATOM      8  C   UNL     1      16.493 -11.342  66.958  1.00  0.00     0.039 C 
ATOM      9  C   UNL     1      20.337 -10.780  66.627  1.00  0.00     0.159 C 
ATOM     10  O   UNL     1      20.786 -10.845  67.803  1.00  0.00    -0.295 OA
ATOM     11  C   UNL     1      21.311 -10.657  65.491  1.00  0.00     0.084 C 
ENDROOT
TORSDOF 0
ENDMDL
MODEL 4
REMARK VINA RESULT:    -4.682      1.699      2.406
REMARK INTER + INTRA:          -4.682
REMARK INTER:                  -4.682
REMARK INTRA:                   0.000
REMARK UNBOUND:                 0.000
REMARK SMILES CC(C)=C1CC[C@H](C)CC1=O
REMARK SMILES IDX 8 1 7 2 6 3 5 4 4 5 2 6 1 7 3 8 10 9 11 10 9 11
REMARK H PARENT
REMARK Flexibility Score: inf
ROOT
ATOM      1  C   UNL     1      20.559 -10.118  64.746  1.00  0.00     0.008 C 
ATOM      2  C   UNL     1      19.055  -9.937  64.971  1.00  0.00    -0.006 C 
ATOM      3  C   UNL     1      18.344  -9.621  63.646  1.00  0.00     0.008 C 
ATOM      4  C   UNL     1      16.852  -9.336  63.866  1.00  0.00     0.039 C 
ATOM      5  C   UNL     1      16.157 -10.437  64.655  1.00  0.00    -0.006 C 
ATOM      6  C   UNL     1      14.844 -10.744  64.441  1.00  0.00    -0.070 C 
ATOM      7  C   UNL     1      14.159 -11.872  65.177  1.00  0.00     0.039 C 
ATOM      8  C   UNL     1      14.020  -9.989  63.422  1.00  0.00     0.039 C 
ATOM      9  C   UNL     1      16.960 -11.070  65.744  1.00  0.00     0.159 C 
ATOM     10  O   UNL     1      16.413 -11.500  66.795  1.00  0.00    -0.295 OA
ATOM     11  C   UNL     1      18.449 -11.198  65.604  1.00  0.00     0.084 C 
ENDROOT
TORSDOF 0
ENDMDL
MODEL 5
REMARK VINA RESULT:    -4.681      2.523      4.897
REMARK INTER + INTRA:          -4.681
REMARK INTER:                  -4.681
REMARK INTRA:                   0.000
REMARK UNBOUND:                 0.000
REMARK SMILES CC(C)=C1CC[C@H](C)CC1=O
REMARK SMILES IDX 8 1 7 2 6 3 5 4 4 5 2 6 1 7 3 8 10 9 11 10 9 11
REMARK H PARENT
REMARK Flexibility Score: inf
ROOT
ATOM      1  C   UNL     1      16.079 -11.933  64.298  1.00  0.00     0.008 C 
ATOM      2  C   UNL     1      17.272 -11.478  65.145  1.00  0.00    -0.006 C 
ATOM      3  C   UNL     1      16.799 -10.622  66.330  1.00  0.00     0.008 C 
ATOM      4  C   UNL     1      17.986 -10.072  67.132  1.00  0.00     0.039 C 
ATOM      5  C   UNL     1      18.962 -11.162  67.551  1.00  0.00    -0.006 C 
ATOM      6  C   UNL     1      19.671 -11.073  68.715  1.00  0.00    -0.070 C 
ATOM      7  C   UNL     1      20.600 -12.174  69.169  1.00  0.00     0.039 C 
ATOM      8  C   UNL     1      19.528  -9.875  69.628  1.00  0.00     0.039 C 
ATOM      9  C   UNL     1      19.179 -12.264  66.565  1.00  0.00     0.159 C 
ATOM     10  O   UNL     1      20.292 -12.847  66.470  1.00  0.00    -0.295 OA
ATOM     11  C   UNL     1      18.063 -12.691  65.657  1.00  0.00     0.084 C 
ENDROOT
TORSDOF 0
ENDMDL
MODEL 6
REMARK VINA RESULT:    -4.639      1.164      4.188
REMARK INTER + INTRA:          -4.639
REMARK INTER:                  -4.639
REMARK INTRA:                   0.000
REMARK UNBOUND:                 0.000
REMARK SMILES CC(C)=C1CC[C@H](C)CC1=O
REMARK SMILES IDX 8 1 7 2 6 3 5 4 4 5 2 6 1 7 3 8 10 9 11 10 9 11
REMARK H PARENT
REMARK Flexibility Score: inf
ROOT
ATOM      1  C   UNL     1      15.051 -12.597  64.044  1.00  0.00     0.008 C 
ATOM      2  C   UNL     1      16.035 -11.504  64.476  1.00  0.00    -0.006 C 
ATOM      3  C   UNL     1      16.124 -11.432  66.009  1.00  0.00     0.008 C 
ATOM      4  C   UNL     1      17.027 -10.276  66.462  1.00  0.00     0.039 C 
ATOM      5  C   UNL     1      18.396 -10.309  65.796  1.00  0.00    -0.006 C 
ATOM      6  C   UNL     1      19.510  -9.854  66.442  1.00  0.00    -0.070 C 
ATOM      7  C   UNL     1      20.882  -9.934  65.814  1.00  0.00     0.039 C 
ATOM      8  C   UNL     1      19.427  -9.281  67.838  1.00  0.00     0.039 C 
ATOM      9  C   UNL     1      18.422 -10.756  64.371  1.00  0.00     0.159 C 
ATOM     10  O   UNL     1      19.267 -10.296  63.557  1.00  0.00    -0.295 OA
ATOM     11  C   UNL     1      17.426 -11.766  63.881  1.00  0.00     0.084 C 
ENDROOT
TORSDOF 0
ENDMDL
MODEL 7
REMARK VINA RESULT:    -4.622     12.002     12.757
REMARK INTER + INTRA:          -4.622
REMARK INTER:                  -4.622
REMARK INTRA:                   0.000
REMARK UNBOUND:                 0.000
REMARK SMILES CC(C)=C1CC[C@H](C)CC1=O
REMARK SMILES IDX 8 1 7 2 6 3 5 4 4 5 2 6 1 7 3 8 10 9 11 10 9 11
REMARK H PARENT
REMARK Flexibility Score: inf
ROOT
ATOM      1  C   UNL     1       5.674  -8.218  58.645  1.00  0.00     0.008 C 
ATOM      2  C   UNL     1       6.617  -8.304  57.440  1.00  0.00    -0.006 C 
ATOM      3  C   UNL     1       7.803  -7.343  57.613  1.00  0.00     0.008 C 
ATOM      4  C   UNL     1       8.705  -7.339  56.371  1.00  0.00     0.039 C 
ATOM      5  C   UNL     1       9.141  -8.739  55.962  1.00  0.00    -0.006 C 
ATOM      6  C   UNL     1      10.352  -8.962  55.372  1.00  0.00    -0.070 C 
ATOM      7  C   UNL     1      10.820 -10.353  55.014  1.00  0.00     0.039 C 
ATOM      8  C   UNL     1      11.303  -7.822  55.084  1.00  0.00     0.039 C 
ATOM      9  C   UNL     1       8.125  -9.821  56.139  1.00  0.00     0.159 C 
ATOM     10  O   UNL     1       8.079 -10.808  55.358  1.00  0.00    -0.295 OA
ATOM     11  C   UNL     1       7.128  -9.741  57.257  1.00  0.00     0.084 C 
ENDROOT
TORSDOF 0
ENDMDL
MODEL 8
REMARK VINA RESULT:    -4.603      1.708      4.630
REMARK INTER + INTRA:          -4.603
REMARK INTER:                  -4.603
REMARK INTRA:                   0.000
REMARK UNBOUND:                 0.000
REMARK SMILES CC(C)=C1CC[C@H](C)CC1=O
REMARK SMILES IDX 8 1 7 2 6 3 5 4 4 5 2 6 1 7 3 8 10 9 11 10 9 11
REMARK H PARENT
REMARK Flexibility Score: inf
ROOT
ATOM      1  C   UNL     1      14.339 -11.543  65.054  1.00  0.00     0.008 C 
ATOM      2  C   UNL     1      15.868 -11.608  64.971  1.00  0.00    -0.006 C 
ATOM      3  C   UNL     1      16.395 -10.615  63.922  1.00  0.00     0.008 C 
ATOM      4  C   UNL     1      17.915 -10.737  63.751  1.00  0.00     0.039 C 
ATOM      5  C   UNL     1      18.661 -10.640  65.075  1.00  0.00    -0.006 C 
ATOM      6  C   UNL     1      19.912 -10.098  65.147  1.00  0.00    -0.070 C 
ATOM      7  C   UNL     1      20.639  -9.944  66.462  1.00  0.00     0.039 C 
ATOM      8  C   UNL     1      20.617  -9.588  63.910  1.00  0.00     0.039 C 
ATOM      9  C   UNL     1      17.993 -11.273  66.252  1.00  0.00     0.159 C 
ATOM     10  O   UNL     1      18.665 -11.793  67.183  1.00  0.00    -0.295 OA
ATOM     11  C   UNL     1      16.496 -11.306  66.340  1.00  0.00     0.084 C 
ENDROOT
TORSDOF 0
ENDMDL
MODEL 9
REMARK VINA RESULT:    -4.587     16.315     17.319
REMARK INTER + INTRA:          -4.587
REMARK INTER:                  -4.587
REMARK INTRA:                   0.000
REMARK UNBOUND:                 0.000
REMARK SMILES CC(C)=C1CC[C@H](C)CC1=O
REMARK SMILES IDX 8 1 7 2 6 3 5 4 4 5 2 6 1 7 3 8 10 9 11 10 9 11
REMARK H PARENT
REMARK Flexibility Score: inf
ROOT
ATOM      1  C   UNL     1       6.401  -1.477  62.976  1.00  0.00     0.008 C 
ATOM      2  C   UNL     1       6.666  -0.038  63.432  1.00  0.00    -0.006 C 
ATOM      3  C   UNL     1       7.305   0.779  62.299  1.00  0.00     0.008 C 
ATOM      4  C   UNL     1       7.672   2.194  62.768  1.00  0.00     0.039 C 
ATOM      5  C   UNL     1       6.500   2.914  63.420  1.00  0.00    -0.006 C 
ATOM      6  C   UNL     1       6.360   4.270  63.330  1.00  0.00    -0.070 C 
ATOM      7  C   UNL     1       5.172   4.990  63.924  1.00  0.00     0.039 C 
ATOM      8  C   UNL     1       7.376   5.114  62.593  1.00  0.00     0.039 C 
ATOM      9  C   UNL     1       5.590   2.070  64.251  1.00  0.00     0.159 C 
ATOM     10  O   UNL     1       5.006   2.539  65.265  1.00  0.00    -0.295 OA
ATOM     11  C   UNL     1       5.361   0.631  63.890  1.00  0.00     0.084 C 
ENDROOT
TORSDOF 0
ENDMDL
