MODEL 1
REMARK VINA RESULT:    -4.399      0.000      0.000
REMARK INTER + INTRA:          -8.183
REMARK INTER:                  -6.971
REMARK INTRA:                  -1.213
REMARK UNBOUND:                -1.213
REMARK SMILES CCCCCCCCCCCC(=O)[O-]
REMARK SMILES IDX 7 1 8 2 9 3 10 4 11 5 12 6 13 7 14 8 6 9 5 10 4 11 3 12 2 13
REMARK SMILES IDX 1 14
REMARK H PARENT
REMARK Flexibility Score: inf
ROOT
ATOM      1  C   UNL     1     100.552  88.484  86.392  1.00  0.00     0.000 C 
ENDROOT
BRANCH   1   2
ATOM      2  C   UNL     1      99.576  88.173  87.533  1.00  0.00     0.000 C 
BRANCH   2   3
ATOM      3  C   UNL     1     100.293  88.172  88.888  1.00  0.00     0.000 C 
BRANCH   3   4
ATOM      4  C   UNL     1     100.096  89.509  89.615  1.00  0.00     0.006 C 
BRANCH   4   5
ATOM      5  C   UNL     1      99.904  89.326  91.126  1.00  0.00     0.053 C 
BRANCH   5   6
ATOM      6  C   UNL     1      98.765  90.149  91.645  1.00  0.00     0.041 C 
ATOM      7  O   UNL     1      98.827  90.670  92.790  1.00  0.00    -0.550 OA
ATOM      8  O   UNL     1      97.620  90.315  90.875  1.00  0.00    -0.550 OA
ENDBRANCH   5   6
ENDBRANCH   4   5
ENDBRANCH   3   4
ENDBRANCH   2   3
ENDBRANCH   1   2
BRANCH   1   9
ATOM      9  C   UNL     1     100.049  89.660  85.542  1.00  0.00     0.000 C 
BRANCH   9  10
ATOM     10  C   UNL     1     100.888  90.933  85.733  1.00  0.00    -0.000 C 
BRANCH  10  11
ATOM     11  C   UNL     1     100.028  92.174  86.014  1.00  0.00    -0.000 C 
BRANCH  11  12
ATOM     12  C   UNL     1      98.628  91.772  86.501  1.00  0.00    -0.000 C 
BRANCH  12  13
ATOM     13  C   UNL     1      98.333  92.265  87.926  1.00  0.00    -0.003 C 
ATOM     14  C   UNL     1      99.540  92.935  88.582  1.00  0.00     0.004 C 
ENDBRANCH  12  13
ENDBRANCH  11  12
ENDBRANCH  10  11
ENDBRANCH   9  10
ENDBRANCH   1   9
TORSDOF 10
ENDMDL
MODEL 2
REMARK VINA RESULT:    -4.261      1.785      2.068
REMARK INTER + INTRA:          -7.965
REMARK INTER:                  -6.886
REMARK INTRA:                  -1.079
REMARK UNBOUND:                -1.213
REMARK SMILES CCCCCCCCCCCC(=O)[O-]
REMARK SMILES IDX 7 1 8 2 9 3 10 4 11 5 12 6 13 7 14 8 6 9 5 10 4 11 3 12 2 13
REMARK SMILES IDX 1 14
REMARK H PARENT
REMARK Flexibility Score: inf
ROOT
ATOM      1  C   UNL     1     100.297  88.495  86.146  1.00  0.00     0.000 C 
ENDROOT
BRANCH   1   2
ATOM      2  C   UNL     1      99.985  87.886  87.519  1.00  0.00     0.000 C 
BRANCH   2   3
ATOM      3  C   UNL     1     101.002  88.348  88.571  1.00  0.00     0.000 C 
BRANCH   3   4
ATOM      4  C   UNL     1     100.878  87.518  89.856  1.00  0.00     0.006 C 
BRANCH   4   5
ATOM      5  C   UNL     1     101.752  88.071  90.990  1.00  0.00     0.053 C 
BRANCH   5   6
ATOM      6  C   UNL     1     101.005  88.128  92.288  1.00  0.00     0.041 C 
ATOM      7  O   UNL     1     101.121  89.129  93.043  1.00  0.00    -0.550 OA
ATOM      8  O   UNL     1     100.207  87.060  92.678  1.00  0.00    -0.550 OA
ENDBRANCH   5   6
ENDBRANCH   4   5
ENDBRANCH   3   4
ENDBRANCH   2   3
ENDBRANCH   1   2
BRANCH   1   9
ATOM      9  C   UNL     1      99.238  89.535  85.752  1.00  0.00     0.000 C 
BRANCH   9  10
ATOM     10  C   UNL     1      99.856  90.850  85.252  1.00  0.00    -0.000 C 
BRANCH  10  11
ATOM     11  C   UNL     1     100.346  91.748  86.397  1.00  0.00    -0.000 C 
BRANCH  11  12
ATOM     12  C   UNL     1      99.201  92.069  87.370  1.00  0.00    -0.000 C 
BRANCH  12  13
ATOM     13  C   UNL     1      99.649  92.043  88.840  1.00  0.00    -0.003 C 
ATOM     14  C   UNL     1      98.847  91.052  89.684  1.00  0.00     0.004 C 
ENDBRANCH  12  13
ENDBRANCH  11  12
ENDBRANCH  10  11
ENDBRANCH   9  10
ENDBRANCH   1   9
TORSDOF 10
ENDMDL
MODEL 3
REMARK VINA RESULT:    -4.242      2.298      5.284
REMARK INTER + INTRA:          -7.935
REMARK INTER:                  -7.128
REMARK INTRA:                  -0.808
REMARK UNBOUND:                -1.213
REMARK SMILES CCCCCCCCCCCC(=O)[O-]
REMARK SMILES IDX 7 1 8 2 9 3 10 4 11 5 12 6 13 7 14 8 6 9 5 10 4 11 3 12 2 13
REMARK SMILES IDX 1 14
REMARK H PARENT
REMARK Flexibility Score: inf
ROOT
ATOM      1  C   UNL     1      99.743  92.534  88.223  1.00  0.00     0.000 C 
ENDROOT
BRANCH   1   2
ATOM      2  C   UNL     1     100.058  92.064  86.797  1.00  0.00     0.000 C 
BRANCH   2   3
ATOM      3  C   UNL     1      98.772  91.741  86.027  1.00  0.00     0.000 C 
BRANCH   3   4
ATOM      4  C   UNL     1      98.883  90.384  85.318  1.00  0.00     0.006 C 
BRANCH   4   5
ATOM      5  C   UNL     1     100.176  89.642  85.683  1.00  0.00     0.053 C 
BRANCH   5   6
ATOM      6  C   UNL     1      99.895  88.373  86.428  1.00  0.00     0.041 C 
ATOM      7  O   UNL     1      99.052  88.359  87.363  1.00  0.00    -0.550 OA
ATOM      8  O   UNL     1     100.589  87.212  86.108  1.00  0.00    -0.550 OA
ENDBRANCH   5   6
ENDBRANCH   4   5
ENDBRANCH   3   4
ENDBRANCH   2   3
ENDBRANCH   1   2
BRANCH   1   9
ATOM      9  C   UNL     1      98.628  91.683  88.849  1.00  0.00     0.000 C 
BRANCH   9  10
ATOM     10  C   UNL     1      99.135  90.786  89.988  1.00  0.00    -0.000 C 
BRANCH  10  11
ATOM     11  C   UNL     1      98.042  90.457  91.016  1.00  0.00    -0.000 C 
BRANCH  11  12
ATOM     12  C   UNL     1      98.658  89.970  92.336  1.00  0.00    -0.000 C 
BRANCH  12  13
ATOM     13  C   UNL     1      99.692  88.853  92.129  1.00  0.00    -0.003 C 
ATOM     14  C   UNL     1     101.023  89.143  92.822  1.00  0.00     0.004 C 
ENDBRANCH  12  13
ENDBRANCH  11  12
ENDBRANCH  10  11
ENDBRANCH   9  10
ENDBRANCH   1   9
TORSDOF 10
ENDMDL
MODEL 4
REMARK VINA RESULT:    -4.023     10.200     12.130
REMARK INTER + INTRA:          -7.588
REMARK INTER:                  -6.734
REMARK INTRA:                  -0.854
REMARK UNBOUND:                -1.213
REMARK SMILES CCCCCCCCCCCC(=O)[O-]
REMARK SMILES IDX 7 1 8 2 9 3 10 4 11 5 12 6 13 7 14 8 6 9 5 10 4 11 3 12 2 13
REMARK SMILES IDX 1 14
REMARK H PARENT
REMARK Flexibility Score: inf
ROOT
ATOM      1  C   UNL     1     103.700  95.804  98.397  1.00  0.00     0.000 C 
ENDROOT
BRANCH   1   2
ATOM      2  C   UNL     1     103.987  97.067  97.576  1.00  0.00     0.000 C 
BRANCH   2   3
ATOM      3  C   UNL     1     105.148  96.840  96.600  1.00  0.00     0.000 C 
BRANCH   3   4
ATOM      4  C   UNL     1     104.953  97.656  95.314  1.00  0.00     0.006 C 
BRANCH   4   5
ATOM      5  C   UNL     1     103.588  98.356  95.272  1.00  0.00     0.053 C 
BRANCH   5   6
ATOM      6  C   UNL     1     103.690  99.734  94.694  1.00  0.00     0.041 C 
ATOM      7  O   UNL     1     102.651 100.350  94.336  1.00  0.00    -0.550 OA
ATOM      8  O   UNL     1     104.935 100.326  94.522  1.00  0.00    -0.550 OA
ENDBRANCH   5   6
ENDBRANCH   4   5
ENDBRANCH   3   4
ENDBRANCH   2   3
ENDBRANCH   1   2
BRANCH   1   9
ATOM      9  C   UNL     1     102.242  95.779  98.878  1.00  0.00     0.000 C 
BRANCH   9  10
ATOM     10  C   UNL     1     101.485  97.074  98.547  1.00  0.00    -0.000 C 
BRANCH  10  11
ATOM     11  C   UNL     1     100.147  96.814  97.839  1.00  0.00    -0.000 C 
BRANCH  11  12
ATOM     12  C   UNL     1     100.287  96.989  96.319  1.00  0.00    -0.000 C 
BRANCH  12  13
ATOM     13  C   UNL     1      99.170  96.281  95.537  1.00  0.00    -0.003 C 
ATOM     14  C   UNL     1      97.774  96.761  95.934  1.00  0.00     0.004 C 
ENDBRANCH  12  13
ENDBRANCH  11  12
ENDBRANCH  10  11
ENDBRANCH   9  10
ENDBRANCH   1   9
TORSDOF 10
ENDMDL
MODEL 5
REMARK VINA RESULT:    -3.991     11.731     12.808
REMARK INTER + INTRA:          -7.537
REMARK INTER:                  -6.371
REMARK INTRA:                  -1.166
REMARK UNBOUND:                -1.213
REMARK SMILES CCCCCCCCCCCC(=O)[O-]
REMARK SMILES IDX 7 1 8 2 9 3 10 4 11 5 12 6 13 7 14 8 6 9 5 10 4 11 3 12 2 13
REMARK SMILES IDX 1 14
REMARK H PARENT
REMARK Flexibility Score: inf
ROOT
ATOM      1  C   UNL     1     104.291  96.914  97.327  1.00  0.00     0.000 C 
ENDROOT
BRANCH   1   2
ATOM      2  C   UNL     1     105.552  97.002  96.457  1.00  0.00     0.000 C 
BRANCH   2   3
ATOM      3  C   UNL     1     105.234  97.609  95.085  1.00  0.00     0.000 C 
BRANCH   3   4
ATOM      4  C   UNL     1     103.858  98.292  95.092  1.00  0.00     0.006 C 
BRANCH   4   5
ATOM      5  C   UNL     1     103.963  99.810  94.898  1.00  0.00     0.053 C 
BRANCH   5   6
ATOM      6  C   UNL     1     104.674 100.468  96.040  1.00  0.00     0.041 C 
ATOM      7  O   UNL     1     104.105 100.589  97.157  1.00  0.00    -0.550 OA
ATOM      8  O   UNL     1     105.954 100.976  95.861  1.00  0.00    -0.550 OA
ENDBRANCH   5   6
ENDBRANCH   4   5
ENDBRANCH   3   4
ENDBRANCH   2   3
ENDBRANCH   1   2
BRANCH   1   9
ATOM      9  C   UNL     1     104.217  95.562  98.053  1.00  0.00     0.000 C 
BRANCH   9  10
ATOM     10  C   UNL     1     102.948  95.416  98.906  1.00  0.00    -0.000 C 
BRANCH  10  11
ATOM     11  C   UNL     1     102.021  96.636  98.803  1.00  0.00    -0.000 C 
BRANCH  11  12
ATOM     12  C   UNL     1     100.719  96.277  98.071  1.00  0.00    -0.000 C 
BRANCH  12  13
ATOM     13  C   UNL     1     100.404  97.240  96.917  1.00  0.00    -0.003 C 
ATOM     14  C   UNL     1     100.930  98.654  97.165  1.00  0.00     0.004 C 
ENDBRANCH  12  13
ENDBRANCH  11  12
ENDBRANCH  10  11
ENDBRANCH   9  10
ENDBRANCH   1   9
TORSDOF 10
ENDMDL
MODEL 6
REMARK VINA RESULT:    -3.980     11.744     13.064
REMARK INTER + INTRA:          -7.520
REMARK INTER:                  -6.251
REMARK INTRA:                  -1.269
REMARK UNBOUND:                -1.213
REMARK SMILES CCCCCCCCCCCC(=O)[O-]
REMARK SMILES IDX 7 1 8 2 9 3 10 4 11 5 12 6 13 7 14 8 6 9 5 10 4 11 3 12 2 13
REMARK SMILES IDX 1 14
REMARK H PARENT
REMARK Flexibility Score: inf
ROOT
ATOM      1  C   UNL     1     101.455  98.571  96.551  1.00  0.00     0.000 C 
ENDROOT
BRANCH   1   2
ATOM      2  C   UNL     1     102.628  98.309  95.598  1.00  0.00     0.000 C 
BRANCH   2   3
ATOM      3  C   UNL     1     103.964  98.326  96.351  1.00  0.00     0.000 C 
BRANCH   3   4
ATOM      4  C   UNL     1     105.068  97.651  95.525  1.00  0.00     0.006 C 
BRANCH   4   5
ATOM      5  C   UNL     1     106.356  97.446  96.335  1.00  0.00     0.053 C 
BRANCH   5   6
ATOM      6  C   UNL     1     107.288  98.611  96.198  1.00  0.00     0.041 C 
ATOM      7  O   UNL     1     107.877  99.075  97.210  1.00  0.00    -0.550 OA
ATOM      8  O   UNL     1     107.480  99.205  94.957  1.00  0.00    -0.550 OA
ENDBRANCH   5   6
ENDBRANCH   4   5
ENDBRANCH   3   4
ENDBRANCH   2   3
ENDBRANCH   1   2
BRANCH   1   9
ATOM      9  C   UNL     1     100.539  97.341  96.648  1.00  0.00     0.000 C 
BRANCH   9  10
ATOM     10  C   UNL     1     100.580  96.679  98.033  1.00  0.00    -0.000 C 
BRANCH  10  11
ATOM     11  C   UNL     1     101.387  97.493  99.056  1.00  0.00    -0.000 C 
BRANCH  11  12
ATOM     12  C   UNL     1     102.647  96.731  99.492  1.00  0.00    -0.000 C 
BRANCH  12  13
ATOM     13  C   UNL     1     102.746  95.336  98.856  1.00  0.00    -0.003 C 
ATOM     14  C   UNL     1     104.110  95.071  98.220  1.00  0.00     0.004 C 
ENDBRANCH  12  13
ENDBRANCH  11  12
ENDBRANCH  10  11
ENDBRANCH   9  10
ENDBRANCH   1   9
TORSDOF 10
ENDMDL
MODEL 7
REMARK VINA RESULT:    -3.959      9.761     11.616
REMARK INTER + INTRA:          -7.486
REMARK INTER:                  -6.473
REMARK INTRA:                  -1.013
REMARK UNBOUND:                -1.213
REMARK SMILES CCCCCCCCCCCC(=O)[O-]
REMARK SMILES IDX 7 1 8 2 9 3 10 4 11 5 12 6 13 7 14 8 6 9 5 10 4 11 3 12 2 13
REMARK SMILES IDX 1 14
REMARK H PARENT
REMARK Flexibility Score: inf
ROOT
ATOM      1  C   UNL     1     102.710  96.923  99.357  1.00  0.00     0.000 C 
ENDROOT
BRANCH   1   2
ATOM      2  C   UNL     1     101.316  97.298  98.840  1.00  0.00     0.000 C 
BRANCH   2   3
ATOM      3  C   UNL     1     100.705  96.153  98.023  1.00  0.00     0.000 C 
BRANCH   3   4
ATOM      4  C   UNL     1      99.843  96.697  96.875  1.00  0.00     0.006 C 
BRANCH   4   5
ATOM      5  C   UNL     1      98.966  95.609  96.241  1.00  0.00     0.053 C 
BRANCH   5   6
ATOM      6  C   UNL     1      98.411  94.674  97.272  1.00  0.00     0.041 C 
ATOM      7  O   UNL     1      98.735  93.457  97.264  1.00  0.00    -0.550 OA
ATOM      8  O   UNL     1      97.512  95.141  98.222  1.00  0.00    -0.550 OA
ENDBRANCH   5   6
ENDBRANCH   4   5
ENDBRANCH   3   4
ENDBRANCH   2   3
ENDBRANCH   1   2
BRANCH   1   9
ATOM      9  C   UNL     1     103.145  95.550  98.822  1.00  0.00     0.000 C 
BRANCH   9  10
ATOM     10  C   UNL     1     104.395  95.629  97.932  1.00  0.00    -0.000 C 
BRANCH  10  11
ATOM     11  C   UNL     1     104.690  97.058  97.450  1.00  0.00    -0.000 C 
BRANCH  11  12
ATOM     12  C   UNL     1     105.101  97.064  95.970  1.00  0.00    -0.000 C 
BRANCH  12  13
ATOM     13  C   UNL     1     104.388  98.159  95.163  1.00  0.00    -0.003 C 
ATOM     14  C   UNL     1     102.961  98.415  95.646  1.00  0.00     0.004 C 
ENDBRANCH  12  13
ENDBRANCH  11  12
ENDBRANCH  10  11
ENDBRANCH   9  10
ENDBRANCH   1   9
TORSDOF 10
ENDMDL
MODEL 8
REMARK VINA RESULT:    -3.898     11.036     11.988
REMARK INTER + INTRA:          -7.390
REMARK INTER:                  -6.436
REMARK INTRA:                  -0.954
REMARK UNBOUND:                -1.213
REMARK SMILES CCCCCCCCCCCC(=O)[O-]
REMARK SMILES IDX 7 1 8 2 9 3 10 4 11 5 12 6 13 7 14 8 6 9 5 10 4 11 3 12 2 13
REMARK SMILES IDX 1 14
REMARK H PARENT
REMARK Flexibility Score: inf
ROOT
ATOM      1  C   UNL     1     102.883  95.693  99.017  1.00  0.00     0.000 C 
ENDROOT
BRANCH   1   2
ATOM      2  C   UNL     1     101.802  96.675  98.550  1.00  0.00     0.000 C 
BRANCH   2   3
ATOM      3  C   UNL     1     100.527  95.934  98.130  1.00  0.00     0.000 C 
BRANCH   3   4
ATOM      4  C   UNL     1      99.853  96.632  96.940  1.00  0.00     0.006 C 
BRANCH   4   5
ATOM      5  C   UNL     1     100.783  97.642  96.256  1.00  0.00     0.053 C 
BRANCH   5   6
ATOM      6  C   UNL     1     100.158  99.000  96.167  1.00  0.00     0.041 C 
ATOM      7  O   UNL     1     100.811 100.023  96.503  1.00  0.00    -0.550 OA
ATOM      8  O   UNL     1      98.841  99.133  95.742  1.00  0.00    -0.550 OA
ENDBRANCH   5   6
ENDBRANCH   4   5
ENDBRANCH   3   4
ENDBRANCH   2   3
ENDBRANCH   1   2
BRANCH   1   9
ATOM      9  C   UNL     1     104.065  95.667  98.035  1.00  0.00     0.000 C 
BRANCH   9  10
ATOM     10  C   UNL     1     104.343  97.040  97.405  1.00  0.00    -0.000 C 
BRANCH  10  11
ATOM     11  C   UNL     1     105.613  97.050  96.542  1.00  0.00    -0.000 C 
BRANCH  11  12
ATOM     12  C   UNL     1     105.325  97.627  95.148  1.00  0.00    -0.000 C 
BRANCH  12  13
ATOM     13  C   UNL     1     103.956  98.317  95.065  1.00  0.00    -0.003 C 
ATOM     14  C   UNL     1     104.066  99.836  94.926  1.00  0.00     0.004 C 
ENDBRANCH  12  13
ENDBRANCH  11  12
ENDBRANCH  10  11
ENDBRANCH   9  10
ENDBRANCH   1   9
TORSDOF 10
ENDMDL
MODEL 9
REMARK VINA RESULT:    -3.787     10.840     12.370
REMARK INTER + INTRA:          -7.213
REMARK INTER:                  -6.252
REMARK INTRA:                  -0.961
REMARK UNBOUND:                -1.213
REMARK SMILES CCCCCCCCCCCC(=O)[O-]
REMARK SMILES IDX 7 1 8 2 9 3 10 4 11 5 12 6 13 7 14 8 6 9 5 10 4 11 3 12 2 13
REMARK SMILES IDX 1 14
REMARK H PARENT
REMARK Flexibility Score: inf
ROOT
ATOM      1  C   UNL     1     104.009  97.344  97.660  1.00  0.00     0.000 C 
ENDROOT
BRANCH   1   2
ATOM      2  C   UNL     1     105.192  97.169  96.700  1.00  0.00     0.000 C 
BRANCH   2   3
ATOM      3  C   UNL     1     104.911  97.842  95.351  1.00  0.00     0.000 C 
BRANCH   3   4
ATOM      4  C   UNL     1     103.419  98.175  95.204  1.00  0.00     0.006 C 
BRANCH   4   5
ATOM      5  C   UNL     1     103.189  99.630  94.774  1.00  0.00     0.053 C 
BRANCH   5   6
ATOM      6  C   UNL     1     102.170 100.309  95.637  1.00  0.00     0.041 C 
ATOM      7  O   UNL     1     102.371 100.440  96.874  1.00  0.00    -0.550 OA
ATOM      8  O   UNL     1     100.983 100.769  95.081  1.00  0.00    -0.550 OA
ENDBRANCH   5   6
ENDBRANCH   4   5
ENDBRANCH   3   4
ENDBRANCH   2   3
ENDBRANCH   1   2
BRANCH   1   9
ATOM      9  C   UNL     1     103.679  96.024  98.374  1.00  0.00     0.000 C 
BRANCH   9  10
ATOM     10  C   UNL     1     102.190  95.899  98.731  1.00  0.00    -0.000 C 
BRANCH  10  11
ATOM     11  C   UNL     1     101.360  97.094  98.239  1.00  0.00    -0.000 C 
BRANCH  11  12
ATOM     12  C   UNL     1     100.257  96.636  97.274  1.00  0.00    -0.000 C 
BRANCH  12  13
ATOM     13  C   UNL     1      99.087  95.950  97.995  1.00  0.00    -0.003 C 
ATOM     14  C   UNL     1      98.890  94.499  97.557  1.00  0.00     0.004 C 
ENDBRANCH  12  13
ENDBRANCH  11  12
ENDBRANCH  10  11
ENDBRANCH   9  10
ENDBRANCH   1   9
TORSDOF 10
ENDMDL
