MODEL 1
REMARK VINA RESULT:    -8.283      0.000      0.000
REMARK INTER + INTRA:         -10.026
REMARK INTER:                  -9.735
REMARK INTRA:                  -0.291
REMARK UNBOUND:                -0.291
REMARK SMILES O=c1cc(-c2ccc(O)c(O)c2)oc2cc(O)cc(O)c12
REMARK SMILES IDX 4 1 3 2 2 3 1 4 21 5 19 6 18 7 16 8 15 9 14 10 13 11 5 12
REMARK SMILES IDX 6 13 7 14 8 15 12 16 10 17 9 18 11 20 20 22 17 24
REMARK H PARENT 9 19 11 21 20 23 17 25
REMARK Flexibility Score: inf
ROOT
ATOM      1  C   UNL     1      11.481  55.048   3.130  1.00  0.00     0.138 A 
ATOM      2  C   UNL     1      10.207  54.624   3.528  1.00  0.00     0.100 A 
ATOM      3  C   UNL     1       9.842  54.703   4.872  1.00  0.00     0.197 A 
ATOM      4  O   UNL     1       8.714  54.257   5.208  1.00  0.00    -0.289 OA
ATOM      5  C   UNL     1      10.749  55.237   5.818  1.00  0.00     0.107 A 
ATOM      6  C   UNL     1      10.471  55.403   7.208  1.00  0.00     0.134 A 
ATOM      7  C   UNL     1      11.487  55.836   8.067  1.00  0.00     0.093 A 
ATOM      8  C   UNL     1      12.752  56.166   7.581  1.00  0.00     0.123 A 
ATOM      9  C   UNL     1      13.019  56.059   6.216  1.00  0.00     0.094 A 
ATOM     10  C   UNL     1      12.036  55.597   5.337  1.00  0.00     0.146 A 
ATOM     11  O   UNL     1      12.335  55.496   4.046  1.00  0.00    -0.456 OA
ENDROOT
BRANCH   1  12
ATOM     12  C   UNL     1      11.921  54.988   1.713  1.00  0.00     0.021 A 
ATOM     13  C   UNL     1      13.294  54.929   1.416  1.00  0.00     0.016 A 
ATOM     14  C   UNL     1      13.733  54.880   0.091  1.00  0.00     0.051 A 
ATOM     15  C   UNL     1      12.810  54.899  -0.961  1.00  0.00     0.157 A 
ATOM     16  C   UNL     1      10.998  55.020   0.649  1.00  0.00     0.062 A 
ATOM     17  C   UNL     1      11.436  54.973  -0.679  1.00  0.00     0.158 A 
BRANCH  15  18
ATOM     18  O   UNL     1      13.252  54.848  -2.283  1.00  0.00    -0.504 OA
ATOM     19  H   UNL     1      12.875  54.178  -2.942  1.00  0.00     0.293 HD
ENDBRANCH  15  18
BRANCH  17  20
ATOM     20  O   UNL     1      10.491  55.005  -1.705  1.00  0.00    -0.504 OA
ATOM     21  H   UNL     1       9.899  55.811  -1.866  1.00  0.00     0.293 HD
ENDBRANCH  17  20
ENDBRANCH   1  12
BRANCH   6  22
ATOM     22  O   UNL     1       9.216  55.183   7.785  1.00  0.00    -0.507 OA
ATOM     23  H   UNL     1       8.801  55.761   8.499  1.00  0.00     0.293 HD
ENDBRANCH   6  22
BRANCH   8  24
ATOM     24  O   UNL     1      13.735  56.608   8.464  1.00  0.00    -0.508 OA
ATOM     25  H   UNL     1      14.656  56.187   8.485  1.00  0.00     0.293 HD
ENDBRANCH   8  24
TORSDOF 5
ENDMDL
MODEL 2
REMARK VINA RESULT:    -7.854      1.113      2.714
REMARK INTER + INTRA:          -9.522
REMARK INTER:                  -9.216
REMARK INTRA:                  -0.306
REMARK UNBOUND:                -0.291
REMARK SMILES O=c1cc(-c2ccc(O)c(O)c2)oc2cc(O)cc(O)c12
REMARK SMILES IDX 4 1 3 2 2 3 1 4 21 5 19 6 18 7 16 8 15 9 14 10 13 11 5 12
REMARK SMILES IDX 6 13 7 14 8 15 12 16 10 17 9 18 11 20 20 22 17 24
REMARK H PARENT 9 19 11 21 20 23 17 25
REMARK Flexibility Score: inf
ROOT
ATOM      1  C   UNL     1      12.728  55.471   2.862  1.00  0.00     0.138 A 
ATOM      2  C   UNL     1      13.830  56.044   3.510  1.00  0.00     0.100 A 
ATOM      3  C   UNL     1      13.781  56.269   4.887  1.00  0.00     0.197 A 
ATOM      4  O   UNL     1      14.761  56.842   5.431  1.00  0.00    -0.289 OA
ATOM      5  C   UNL     1      12.632  55.891   5.621  1.00  0.00     0.107 A 
ATOM      6  C   UNL     1      12.486  56.035   7.034  1.00  0.00     0.134 A 
ATOM      7  C   UNL     1      11.258  55.732   7.634  1.00  0.00     0.093 A 
ATOM      8  C   UNL     1      10.192  55.233   6.886  1.00  0.00     0.123 A 
ATOM      9  C   UNL     1      10.341  55.037   5.513  1.00  0.00     0.094 A 
ATOM     10  C   UNL     1      11.543  55.363   4.878  1.00  0.00     0.146 A 
ATOM     11  O   UNL     1      11.640  55.175   3.566  1.00  0.00    -0.456 OA
ENDROOT
BRANCH   1  12
ATOM     12  C   UNL     1      12.727  55.208   1.401  1.00  0.00     0.021 A 
ATOM     13  C   UNL     1      13.942  54.944   0.745  1.00  0.00     0.016 A 
ATOM     14  C   UNL     1      13.968  54.700  -0.630  1.00  0.00     0.051 A 
ATOM     15  C   UNL     1      12.783  54.727  -1.377  1.00  0.00     0.157 A 
ATOM     16  C   UNL     1      11.540  55.246   0.643  1.00  0.00     0.062 A 
ATOM     17  C   UNL     1      11.565  55.005  -0.735  1.00  0.00     0.158 A 
BRANCH  15  18
ATOM     18  O   UNL     1      12.813  54.483  -2.749  1.00  0.00    -0.504 OA
ATOM     19  H   UNL     1      11.964  54.327  -3.278  1.00  0.00     0.293 HD
ENDBRANCH  15  18
BRANCH  17  20
ATOM     20  O   UNL     1      10.369  55.051  -1.452  1.00  0.00    -0.504 OA
ATOM     21  H   UNL     1       9.559  54.507  -1.182  1.00  0.00     0.293 HD
ENDBRANCH  17  20
ENDBRANCH   1  12
BRANCH   6  22
ATOM     22  O   UNL     1      13.515  56.444   7.887  1.00  0.00    -0.507 OA
ATOM     23  H   UNL     1      14.472  56.134   7.827  1.00  0.00     0.293 HD
ENDBRANCH   6  22
BRANCH   8  24
ATOM     24  O   UNL     1       8.990  54.927   7.520  1.00  0.00    -0.508 OA
ATOM     25  H   UNL     1       8.674  53.970   7.624  1.00  0.00     0.293 HD
ENDBRANCH   8  24
TORSDOF 5
ENDMDL
MODEL 3
REMARK VINA RESULT:    -7.505      4.040      7.147
REMARK INTER + INTRA:          -9.113
REMARK INTER:                  -8.848
REMARK INTRA:                  -0.264
REMARK UNBOUND:                -0.291
REMARK SMILES O=c1cc(-c2ccc(O)c(O)c2)oc2cc(O)cc(O)c12
REMARK SMILES IDX 4 1 3 2 2 3 1 4 21 5 19 6 18 7 16 8 15 9 14 10 13 11 5 12
REMARK SMILES IDX 6 13 7 14 8 15 12 16 10 17 9 18 11 20 20 22 17 24
REMARK H PARENT 9 19 11 21 20 23 17 25
REMARK Flexibility Score: inf
ROOT
ATOM      1  C   UNL     1      13.645  53.185  -2.844  1.00  0.00     0.138 A 
ATOM      2  C   UNL     1      14.918  53.177  -2.259  1.00  0.00     0.100 A 
ATOM      3  C   UNL     1      15.094  53.710  -0.982  1.00  0.00     0.197 A 
ATOM      4  O   UNL     1      16.260  53.745  -0.508  1.00  0.00    -0.289 OA
ATOM      5  C   UNL     1      13.982  54.228  -0.275  1.00  0.00     0.107 A 
ATOM      6  C   UNL     1      14.036  54.760   1.048  1.00  0.00     0.134 A 
ATOM      7  C   UNL     1      12.893  55.350   1.600  1.00  0.00     0.093 A 
ATOM      8  C   UNL     1      11.684  55.374   0.904  1.00  0.00     0.123 A 
ATOM      9  C   UNL     1      11.607  54.808  -0.369  1.00  0.00     0.094 A 
ATOM     10  C   UNL     1      12.739  54.243  -0.962  1.00  0.00     0.146 A 
ATOM     11  O   UNL     1      12.627  53.727  -2.182  1.00  0.00    -0.456 OA
ENDROOT
BRANCH   1  12
ATOM     12  C   UNL     1      13.400  52.629  -4.199  1.00  0.00     0.021 A 
ATOM     13  C   UNL     1      13.090  51.266  -4.342  1.00  0.00     0.016 A 
ATOM     14  C   UNL     1      12.863  50.718  -5.606  1.00  0.00     0.051 A 
ATOM     15  C   UNL     1      12.952  51.519  -6.751  1.00  0.00     0.157 A 
ATOM     16  C   UNL     1      13.501  53.428  -5.355  1.00  0.00     0.062 A 
ATOM     17  C   UNL     1      13.276  52.880  -6.623  1.00  0.00     0.158 A 
BRANCH  15  18
ATOM     18  O   UNL     1      12.723  50.969  -8.012  1.00  0.00    -0.504 OA
ATOM     19  H   UNL     1      12.773  49.971  -8.172  1.00  0.00     0.293 HD
ENDBRANCH  15  18
BRANCH  17  20
ATOM     20  O   UNL     1      13.383  53.703  -7.745  1.00  0.00    -0.504 OA
ATOM     21  H   UNL     1      13.883  54.583  -7.721  1.00  0.00     0.293 HD
ENDBRANCH  17  20
ENDBRANCH   1  12
BRANCH   6  22
ATOM     22  O   UNL     1      15.170  54.712   1.864  1.00  0.00    -0.507 OA
ATOM     23  H   UNL     1      16.046  55.169   1.661  1.00  0.00     0.293 HD
ENDBRANCH   6  22
BRANCH   8  24
ATOM     24  O   UNL     1      10.563  55.955   1.492  1.00  0.00    -0.508 OA
ATOM     25  H   UNL     1       9.624  55.681   1.229  1.00  0.00     0.293 HD
ENDBRANCH   8  24
TORSDOF 5
ENDMDL
MODEL 4
REMARK VINA RESULT:    -7.503      7.309      9.312
REMARK INTER + INTRA:          -9.110
REMARK INTER:                  -8.802
REMARK INTRA:                  -0.308
REMARK UNBOUND:                -0.291
REMARK SMILES O=c1cc(-c2ccc(O)c(O)c2)oc2cc(O)cc(O)c12
REMARK SMILES IDX 4 1 3 2 2 3 1 4 21 5 19 6 18 7 16 8 15 9 14 10 13 11 5 12
REMARK SMILES IDX 6 13 7 14 8 15 12 16 10 17 9 18 11 20 20 22 17 24
REMARK H PARENT 9 19 11 21 20 23 17 25
REMARK Flexibility Score: inf
ROOT
ATOM      1  C   UNL     1      13.302  51.773  -3.926  1.00  0.00     0.138 A 
ATOM      2  C   UNL     1      13.241  52.732  -4.946  1.00  0.00     0.100 A 
ATOM      3  C   UNL     1      13.925  53.939  -4.801  1.00  0.00     0.197 A 
ATOM      4  O   UNL     1      13.801  54.806  -5.705  1.00  0.00    -0.289 OA
ATOM      5  C   UNL     1      14.700  54.174  -3.639  1.00  0.00     0.107 A 
ATOM      6  C   UNL     1      15.473  55.350  -3.401  1.00  0.00     0.134 A 
ATOM      7  C   UNL     1      16.106  55.520  -2.165  1.00  0.00     0.093 A 
ATOM      8  C   UNL     1      16.047  54.532  -1.181  1.00  0.00     0.123 A 
ATOM      9  C   UNL     1      15.339  53.354  -1.424  1.00  0.00     0.094 A 
ATOM     10  C   UNL     1      14.667  53.170  -2.635  1.00  0.00     0.146 A 
ATOM     11  O   UNL     1      13.993  52.040  -2.822  1.00  0.00    -0.456 OA
ENDROOT
BRANCH   1  12
ATOM     12  C   UNL     1      12.595  50.472  -4.029  1.00  0.00     0.021 A 
ATOM     13  C   UNL     1      12.340  49.922  -5.297  1.00  0.00     0.016 A 
ATOM     14  C   UNL     1      11.669  48.703  -5.420  1.00  0.00     0.051 A 
ATOM     15  C   UNL     1      11.232  48.017  -4.280  1.00  0.00     0.157 A 
ATOM     16  C   UNL     1      12.142  49.784  -2.886  1.00  0.00     0.062 A 
ATOM     17  C   UNL     1      11.468  48.563  -3.008  1.00  0.00     0.158 A 
BRANCH  15  18
ATOM     18  O   UNL     1      10.565  46.799  -4.407  1.00  0.00    -0.504 OA
ATOM     19  H   UNL     1      11.066  45.932  -4.556  1.00  0.00     0.293 HD
ENDBRANCH  15  18
BRANCH  17  20
ATOM     20  O   UNL     1      11.035  47.910  -1.853  1.00  0.00    -0.504 OA
ATOM     21  H   UNL     1      11.655  47.333  -1.298  1.00  0.00     0.293 HD
ENDBRANCH  17  20
ENDBRANCH   1  12
BRANCH   6  22
ATOM     22  O   UNL     1      15.668  56.361  -4.347  1.00  0.00    -0.507 OA
ATOM     23  H   UNL     1      14.959  56.709  -4.974  1.00  0.00     0.293 HD
ENDBRANCH   6  22
BRANCH   8  24
ATOM     24  O   UNL     1      16.703  54.729   0.032  1.00  0.00    -0.508 OA
ATOM     25  H   UNL     1      16.464  55.500   0.644  1.00  0.00     0.293 HD
ENDBRANCH   8  24
TORSDOF 5
ENDMDL
MODEL 5
REMARK VINA RESULT:    -7.479      5.316     10.152
REMARK INTER + INTRA:          -9.081
REMARK INTER:                  -8.816
REMARK INTRA:                  -0.266
REMARK UNBOUND:                -0.291
REMARK SMILES O=c1cc(-c2ccc(O)c(O)c2)oc2cc(O)cc(O)c12
REMARK SMILES IDX 4 1 3 2 2 3 1 4 21 5 19 6 18 7 16 8 15 9 14 10 13 11 5 12
REMARK SMILES IDX 6 13 7 14 8 15 12 16 10 17 9 18 11 20 20 22 17 24
REMARK H PARENT 9 19 11 21 20 23 17 25
REMARK Flexibility Score: inf
ROOT
ATOM      1  C   UNL     1      14.600  53.149  -2.388  1.00  0.00     0.138 A 
ATOM      2  C   UNL     1      14.885  54.007  -3.459  1.00  0.00     0.100 A 
ATOM      3  C   UNL     1      14.455  53.673  -4.744  1.00  0.00     0.197 A 
ATOM      4  O   UNL     1      14.778  54.431  -5.695  1.00  0.00    -0.289 OA
ATOM      5  C   UNL     1      13.710  52.487  -4.951  1.00  0.00     0.107 A 
ATOM      6  C   UNL     1      13.185  52.067  -6.209  1.00  0.00     0.134 A 
ATOM      7  C   UNL     1      12.563  50.817  -6.314  1.00  0.00     0.093 A 
ATOM      8  C   UNL     1      12.392  50.000  -5.196  1.00  0.00     0.123 A 
ATOM      9  C   UNL     1      12.854  50.425  -3.950  1.00  0.00     0.094 A 
ATOM     10  C   UNL     1      13.510  51.652  -3.820  1.00  0.00     0.146 A 
ATOM     11  O   UNL     1      13.947  52.015  -2.618  1.00  0.00    -0.456 OA
ENDROOT
BRANCH   1  12
ATOM     12  C   UNL     1      15.033  53.456  -1.001  1.00  0.00     0.021 A 
ATOM     13  C   UNL     1      14.260  54.325  -0.212  1.00  0.00     0.016 A 
ATOM     14  C   UNL     1      14.649  54.635   1.093  1.00  0.00     0.051 A 
ATOM     15  C   UNL     1      15.823  54.091   1.629  1.00  0.00     0.157 A 
ATOM     16  C   UNL     1      16.219  52.922  -0.461  1.00  0.00     0.062 A 
ATOM     17  C   UNL     1      16.612  53.233   0.846  1.00  0.00     0.158 A 
BRANCH  15  18
ATOM     18  O   UNL     1      16.208  54.401   2.933  1.00  0.00    -0.504 OA
ATOM     19  H   UNL     1      16.118  53.731   3.686  1.00  0.00     0.293 HD
ENDBRANCH  15  18
BRANCH  17  20
ATOM     20  O   UNL     1      17.793  52.684   1.347  1.00  0.00    -0.504 OA
ATOM     21  H   UNL     1      18.240  51.885   0.915  1.00  0.00     0.293 HD
ENDBRANCH  17  20
ENDBRANCH   1  12
BRANCH   6  22
ATOM     22  O   UNL     1      13.226  52.843  -7.372  1.00  0.00    -0.507 OA
ATOM     23  H   UNL     1      12.419  53.121  -7.908  1.00  0.00     0.293 HD
ENDBRANCH   6  22
BRANCH   8  24
ATOM     24  O   UNL     1      11.755  48.769  -5.335  1.00  0.00    -0.508 OA
ATOM     25  H   UNL     1      10.762  48.664  -5.161  1.00  0.00     0.293 HD
ENDBRANCH   8  24
TORSDOF 5
ENDMDL
MODEL 6
REMARK VINA RESULT:    -7.470      3.128      4.356
REMARK INTER + INTRA:          -9.071
REMARK INTER:                  -8.806
REMARK INTRA:                  -0.265
REMARK UNBOUND:                -0.291
REMARK SMILES O=c1cc(-c2ccc(O)c(O)c2)oc2cc(O)cc(O)c12
REMARK SMILES IDX 4 1 3 2 2 3 1 4 21 5 19 6 18 7 16 8 15 9 14 10 13 11 5 12
REMARK SMILES IDX 6 13 7 14 8 15 12 16 10 17 9 18 11 20 20 22 17 24
REMARK H PARENT 9 19 11 21 20 23 17 25
REMARK Flexibility Score: inf
ROOT
ATOM      1  C   UNL     1      13.631  57.510   3.818  1.00  0.00     0.138 A 
ATOM      2  C   UNL     1      14.389  57.611   4.991  1.00  0.00     0.100 A 
ATOM      3  C   UNL     1      13.927  57.013   6.165  1.00  0.00     0.197 A 
ATOM      4  O   UNL     1      14.599  57.173   7.217  1.00  0.00    -0.289 OA
ATOM      5  C   UNL     1      12.713  56.285   6.154  1.00  0.00     0.107 A 
ATOM      6  C   UNL     1      12.166  55.601   7.280  1.00  0.00     0.134 A 
ATOM      7  C   UNL     1      10.900  55.011   7.180  1.00  0.00     0.093 A 
ATOM      8  C   UNL     1      10.189  55.028   5.980  1.00  0.00     0.123 A 
ATOM      9  C   UNL     1      10.738  55.648   4.858  1.00  0.00     0.094 A 
ATOM     10  C   UNL     1      11.984  56.276   4.935  1.00  0.00     0.146 A 
ATOM     11  O   UNL     1      12.467  56.867   3.847  1.00  0.00    -0.456 OA
ENDROOT
BRANCH   1  12
ATOM     12  C   UNL     1      14.075  58.125   2.541  1.00  0.00     0.021 A 
ATOM     13  C   UNL     1      14.971  57.428   1.713  1.00  0.00     0.016 A 
ATOM     14  C   UNL     1      15.409  57.989   0.511  1.00  0.00     0.051 A 
ATOM     15  C   UNL     1      14.969  59.259   0.120  1.00  0.00     0.157 A 
ATOM     16  C   UNL     1      13.645  59.408   2.150  1.00  0.00     0.062 A 
ATOM     17  C   UNL     1      14.085  59.973   0.947  1.00  0.00     0.158 A 
BRANCH  15  18
ATOM     18  O   UNL     1      15.407  59.815  -1.081  1.00  0.00    -0.504 OA
ATOM     19  H   UNL     1      15.470  60.818  -1.209  1.00  0.00     0.293 HD
ENDBRANCH  15  18
BRANCH  17  20
ATOM     20  O   UNL     1      13.637  61.245   0.592  1.00  0.00    -0.504 OA
ATOM     21  H   UNL     1      12.972  61.392  -0.157  1.00  0.00     0.293 HD
ENDBRANCH  17  20
ENDBRANCH   1  12
BRANCH   6  22
ATOM     22  O   UNL     1      12.830  55.450   8.501  1.00  0.00    -0.507 OA
ATOM     23  H   UNL     1      12.704  54.676   9.135  1.00  0.00     0.293 HD
ENDBRANCH   6  22
BRANCH   8  24
ATOM     24  O   UNL     1       8.938  54.418   5.913  1.00  0.00    -0.508 OA
ATOM     25  H   UNL     1       8.647  53.731   6.598  1.00  0.00     0.293 HD
ENDBRANCH   8  24
TORSDOF 5
ENDMDL
MODEL 7
REMARK VINA RESULT:    -7.383      2.490      6.741
REMARK INTER + INTRA:          -8.969
REMARK INTER:                  -8.657
REMARK INTRA:                  -0.312
REMARK UNBOUND:                -0.291
REMARK SMILES O=c1cc(-c2ccc(O)c(O)c2)oc2cc(O)cc(O)c12
REMARK SMILES IDX 4 1 3 2 2 3 1 4 21 5 19 6 18 7 16 8 15 9 14 10 13 11 5 12
REMARK SMILES IDX 6 13 7 14 8 15 12 16 10 17 9 18 11 20 20 22 17 24
REMARK H PARENT 9 19 11 21 20 23 17 25
REMARK Flexibility Score: inf
ROOT
ATOM      1  C   UNL     1      12.892  56.728   6.631  1.00  0.00     0.138 A 
ATOM      2  C   UNL     1      11.904  56.129   7.424  1.00  0.00     0.100 A 
ATOM      3  C   UNL     1      10.819  55.496   6.815  1.00  0.00     0.197 A 
ATOM      4  O   UNL     1       9.918  55.021   7.554  1.00  0.00    -0.289 OA
ATOM      5  C   UNL     1      10.741  55.438   5.403  1.00  0.00     0.107 A 
ATOM      6  C   UNL     1       9.703  54.784   4.674  1.00  0.00     0.134 A 
ATOM      7  C   UNL     1       9.668  54.891   3.278  1.00  0.00     0.093 A 
ATOM      8  C   UNL     1      10.664  55.575   2.582  1.00  0.00     0.123 A 
ATOM      9  C   UNL     1      11.714  56.173   3.282  1.00  0.00     0.094 A 
ATOM     10  C   UNL     1      11.758  56.113   4.677  1.00  0.00     0.146 A 
ATOM     11  O   UNL     1      12.766  56.706   5.308  1.00  0.00    -0.456 OA
ENDROOT
BRANCH   1  12
ATOM     12  C   UNL     1      14.067  57.413   7.226  1.00  0.00     0.021 A 
ATOM     13  C   UNL     1      14.458  57.102   8.539  1.00  0.00     0.016 A 
ATOM     14  C   UNL     1      15.555  57.738   9.124  1.00  0.00     0.051 A 
ATOM     15  C   UNL     1      16.275  58.704   8.411  1.00  0.00     0.157 A 
ATOM     16  C   UNL     1      14.788  58.395   6.518  1.00  0.00     0.062 A 
ATOM     17  C   UNL     1      15.886  59.035   7.102  1.00  0.00     0.158 A 
BRANCH  15  18
ATOM     18  O   UNL     1      17.371  59.336   8.996  1.00  0.00    -0.504 OA
ATOM     19  H   UNL     1      17.902  60.043   8.502  1.00  0.00     0.293 HD
ENDBRANCH  15  18
BRANCH  17  20
ATOM     20  O   UNL     1      16.576  60.001   6.369  1.00  0.00    -0.504 OA
ATOM     21  H   UNL     1      16.312  60.979   6.386  1.00  0.00     0.293 HD
ENDBRANCH  17  20
ENDBRANCH   1  12
BRANCH   6  22
ATOM     22  O   UNL     1       8.705  54.003   5.265  1.00  0.00    -0.507 OA
ATOM     23  H   UNL     1       7.837  53.744   4.822  1.00  0.00     0.293 HD
ENDBRANCH   6  22
BRANCH   8  24
ATOM     24  O   UNL     1      10.606  55.649   1.192  1.00  0.00    -0.508 OA
ATOM     25  H   UNL     1      10.984  56.441   0.687  1.00  0.00     0.293 HD
ENDBRANCH   8  24
TORSDOF 5
ENDMDL
MODEL 8
REMARK VINA RESULT:    -7.375      4.862      7.067
REMARK INTER + INTRA:          -8.960
REMARK INTER:                  -8.696
REMARK INTRA:                  -0.264
REMARK UNBOUND:                -0.291
REMARK SMILES O=c1cc(-c2ccc(O)c(O)c2)oc2cc(O)cc(O)c12
REMARK SMILES IDX 4 1 3 2 2 3 1 4 21 5 19 6 18 7 16 8 15 9 14 10 13 11 5 12
REMARK SMILES IDX 6 13 7 14 8 15 12 16 10 17 9 18 11 20 20 22 17 24
REMARK H PARENT 9 19 11 21 20 23 17 25
REMARK Flexibility Score: inf
ROOT
ATOM      1  C   UNL     1      13.504  53.264  -2.809  1.00  0.00     0.138 A 
ATOM      2  C   UNL     1      12.524  54.040  -2.178  1.00  0.00     0.100 A 
ATOM      3  C   UNL     1      12.764  54.553  -0.902  1.00  0.00     0.197 A 
ATOM      4  O   UNL     1      11.841  55.194  -0.336  1.00  0.00    -0.289 OA
ATOM      5  C   UNL     1      14.006  54.309  -0.269  1.00  0.00     0.107 A 
ATOM      6  C   UNL     1      14.378  54.815   1.013  1.00  0.00     0.134 A 
ATOM      7  C   UNL     1      15.589  54.412   1.589  1.00  0.00     0.093 A 
ATOM      8  C   UNL     1      16.468  53.573   0.906  1.00  0.00     0.123 A 
ATOM      9  C   UNL     1      16.140  53.116  -0.371  1.00  0.00     0.094 A 
ATOM     10  C   UNL     1      14.923  53.472  -0.958  1.00  0.00     0.146 A 
ATOM     11  O   UNL     1      14.641  53.004  -2.170  1.00  0.00    -0.456 OA
ENDROOT
BRANCH   1  12
ATOM     12  C   UNL     1      13.302  52.696  -4.166  1.00  0.00     0.021 A 
ATOM     13  C   UNL     1      13.071  51.317  -4.311  1.00  0.00     0.016 A 
ATOM     14  C   UNL     1      12.885  50.758  -5.578  1.00  0.00     0.051 A 
ATOM     15  C   UNL     1      12.937  51.563  -6.722  1.00  0.00     0.157 A 
ATOM     16  C   UNL     1      13.365  53.499  -5.321  1.00  0.00     0.062 A 
ATOM     17  C   UNL     1      13.181  52.940  -6.591  1.00  0.00     0.158 A 
BRANCH  15  18
ATOM     18  O   UNL     1      12.749  51.002  -7.984  1.00  0.00    -0.504 OA
ATOM     19  H   UNL     1      12.108  50.232  -8.132  1.00  0.00     0.293 HD
ENDBRANCH  15  18
BRANCH  17  20
ATOM     20  O   UNL     1      13.250  53.768  -7.712  1.00  0.00    -0.504 OA
ATOM     21  H   UNL     1      14.056  53.778  -8.325  1.00  0.00     0.293 HD
ENDBRANCH  17  20
ENDBRANCH   1  12
BRANCH   6  22
ATOM     22  O   UNL     1      13.611  55.726   1.745  1.00  0.00    -0.507 OA
ATOM     23  H   UNL     1      13.939  56.244   2.546  1.00  0.00     0.293 HD
ENDBRANCH   6  22
BRANCH   8  24
ATOM     24  O   UNL     1      17.672  53.205   1.503  1.00  0.00    -0.508 OA
ATOM     25  H   UNL     1      18.521  53.098   0.962  1.00  0.00     0.293 HD
ENDBRANCH   8  24
TORSDOF 5
ENDMDL
MODEL 9
REMARK VINA RESULT:    -7.267      1.642      6.815
REMARK INTER + INTRA:          -8.833
REMARK INTER:                  -8.536
REMARK INTRA:                  -0.297
REMARK UNBOUND:                -0.291
REMARK SMILES O=c1cc(-c2ccc(O)c(O)c2)oc2cc(O)cc(O)c12
REMARK SMILES IDX 4 1 3 2 2 3 1 4 21 5 19 6 18 7 16 8 15 9 14 10 13 11 5 12
REMARK SMILES IDX 6 13 7 14 8 15 12 16 10 17 9 18 11 20 20 22 17 24
REMARK H PARENT 9 19 11 21 20 23 17 25
REMARK Flexibility Score: inf
ROOT
ATOM      1  C   UNL     1      11.672  54.898   2.274  1.00  0.00     0.138 A 
ATOM      2  C   UNL     1      10.985  54.963   1.055  1.00  0.00     0.100 A 
ATOM      3  C   UNL     1      11.698  54.907  -0.143  1.00  0.00     0.197 A 
ATOM      4  O   UNL     1      11.061  55.030  -1.221  1.00  0.00    -0.289 OA
ATOM      5  C   UNL     1      13.106  54.755  -0.117  1.00  0.00     0.107 A 
ATOM      6  C   UNL     1      13.932  54.646  -1.275  1.00  0.00     0.134 A 
ATOM      7  C   UNL     1      15.324  54.616  -1.128  1.00  0.00     0.093 A 
ATOM      8  C   UNL     1      15.917  54.629   0.134  1.00  0.00     0.123 A 
ATOM      9  C   UNL     1      15.116  54.682   1.275  1.00  0.00     0.094 A 
ATOM     10  C   UNL     1      13.725  54.748   1.161  1.00  0.00     0.146 A 
ATOM     11  O   UNL     1      12.998  54.811   2.272  1.00  0.00    -0.456 OA
ENDROOT
BRANCH   1  12
ATOM     12  C   UNL     1      10.962  54.952   3.578  1.00  0.00     0.021 A 
ATOM     13  C   UNL     1      11.707  55.010   4.769  1.00  0.00     0.016 A 
ATOM     14  C   UNL     1      11.063  55.054   6.007  1.00  0.00     0.051 A 
ATOM     15  C   UNL     1       9.665  55.029   6.080  1.00  0.00     0.157 A 
ATOM     16  C   UNL     1       9.556  54.914   3.657  1.00  0.00     0.062 A 
ATOM     17  C   UNL     1       8.909  54.955   4.897  1.00  0.00     0.158 A 
BRANCH  15  18
ATOM     18  O   UNL     1       9.025  55.074   7.318  1.00  0.00    -0.504 OA
ATOM     19  H   UNL     1       9.432  54.647   8.141  1.00  0.00     0.293 HD
ENDBRANCH  15  18
BRANCH  17  20
ATOM     20  O   UNL     1       7.515  54.917   4.936  1.00  0.00    -0.504 OA
ATOM     21  H   UNL     1       6.992  55.178   5.763  1.00  0.00     0.293 HD
ENDBRANCH  17  20
ENDBRANCH   1  12
BRANCH   6  22
ATOM     22  O   UNL     1      13.440  54.539  -2.580  1.00  0.00    -0.507 OA
ATOM     23  H   UNL     1      12.575  54.087  -2.834  1.00  0.00     0.293 HD
ENDBRANCH   6  22
BRANCH   8  24
ATOM     24  O   UNL     1      17.305  54.583   0.242  1.00  0.00    -0.508 OA
ATOM     25  H   UNL     1      17.824  55.312   0.717  1.00  0.00     0.293 HD
ENDBRANCH   8  24
TORSDOF 5
ENDMDL
