MODEL 1
REMARK VINA RESULT:    -2.912      0.000      0.000
REMARK INTER + INTRA:          -7.840
REMARK INTER:                  -5.126
REMARK INTRA:                  -2.715
REMARK UNBOUND:                -2.715
REMARK SMILES CCCCCCC=CCCCCCCCC(=O)[O-]
REMARK SMILES IDX 10 1 11 2 12 3 13 4 14 5 15 6 16 7 17 8 18 9 9 10 8 11 7 12
REMARK SMILES IDX 6 13 5 14 4 15 3 16 2 17 1 18
REMARK H PARENT
REMARK Flexibility Score: inf
ROOT
ATOM      1  C   UNL     1      12.617  41.741  68.955  1.00  0.00     0.004 C 
ENDROOT
BRANCH   1   2
ATOM      2  C   UNL     1      13.967  42.317  68.495  1.00  0.00     0.000 C 
BRANCH   2   3
ATOM      3  C   UNL     1      14.432  41.780  67.125  1.00  0.00     0.000 C 
BRANCH   3   4
ATOM      4  C   UNL     1      14.550  42.898  66.073  1.00  0.00     0.000 C 
BRANCH   4   5
ATOM      5  C   UNL     1      14.469  44.306  66.687  1.00  0.00     0.006 C 
BRANCH   5   6
ATOM      6  C   UNL     1      14.594  45.448  65.666  1.00  0.00     0.053 C 
BRANCH   6   7
ATOM      7  C   UNL     1      15.712  45.214  64.698  1.00  0.00     0.041 C 
ATOM      8  O   UNL     1      16.902  45.153  65.107  1.00  0.00    -0.550 OA
ATOM      9  O   UNL     1      15.438  45.031  63.349  1.00  0.00    -0.550 OA
ENDBRANCH   6   7
ENDBRANCH   5   6
ENDBRANCH   4   5
ENDBRANCH   3   4
ENDBRANCH   2   3
ENDBRANCH   1   2
BRANCH   1  10
ATOM     10  C   UNL     1      11.723  42.787  69.637  1.00  0.00     0.027 C 
BRANCH  10  11
ATOM     11  C   UNL     1      12.463  44.082  69.852  1.00  0.00    -0.031 C 
ATOM     12  C   UNL     1      12.041  45.290  69.432  1.00  0.00    -0.031 C 
BRANCH  12  13
ATOM     13  C   UNL     1      10.738  45.553  68.713  1.00  0.00     0.027 C 
BRANCH  13  14
ATOM     14  C   UNL     1      10.912  45.521  67.184  1.00  0.00     0.004 C 
BRANCH  14  15
ATOM     15  C   UNL     1      10.129  44.387  66.493  1.00  0.00     0.000 C 
BRANCH  15  16
ATOM     16  C   UNL     1      10.990  43.253  65.904  1.00  0.00    -0.000 C 
BRANCH  16  17
ATOM     17  C   UNL     1      10.402  41.840  66.064  1.00  0.00    -0.003 C 
ATOM     18  C   UNL     1      11.295  40.752  65.467  1.00  0.00     0.004 C 
ENDBRANCH  16  17
ENDBRANCH  15  16
ENDBRANCH  14  15
ENDBRANCH  13  14
ENDBRANCH  12  13
ENDBRANCH  10  11
ENDBRANCH   1  10
TORSDOF 13
ENDMDL
MODEL 2
REMARK VINA RESULT:    -2.904      3.245      4.998
REMARK INTER + INTRA:          -7.826
REMARK INTER:                  -5.418
REMARK INTRA:                  -2.408
REMARK UNBOUND:                -2.715
REMARK SMILES CCCCCCC=CCCCCCCCC(=O)[O-]
REMARK SMILES IDX 10 1 11 2 12 3 13 4 14 5 15 6 16 7 17 8 18 9 9 10 8 11 7 12
REMARK SMILES IDX 6 13 5 14 4 15 3 16 2 17 1 18
REMARK H PARENT
REMARK Flexibility Score: inf
ROOT
ATOM      1  C   UNL     1      12.512  44.074  67.438  1.00  0.00     0.004 C 
ENDROOT
BRANCH   1   2
ATOM      2  C   UNL     1      13.097  43.226  68.580  1.00  0.00     0.000 C 
BRANCH   2   3
ATOM      3  C   UNL     1      14.415  42.513  68.208  1.00  0.00     0.000 C 
BRANCH   3   4
ATOM      4  C   UNL     1      14.463  42.121  66.720  1.00  0.00     0.000 C 
BRANCH   4   5
ATOM      5  C   UNL     1      14.448  40.597  66.505  1.00  0.00     0.006 C 
BRANCH   5   6
ATOM      6  C   UNL     1      13.098  40.041  66.028  1.00  0.00     0.053 C 
BRANCH   6   7
ATOM      7  C   UNL     1      13.071  38.544  66.046  1.00  0.00     0.041 C 
ATOM      8  O   UNL     1      14.076  37.887  65.666  1.00  0.00    -0.550 OA
ATOM      9  O   UNL     1      11.948  37.873  66.514  1.00  0.00    -0.550 OA
ENDBRANCH   6   7
ENDBRANCH   5   6
ENDBRANCH   4   5
ENDBRANCH   3   4
ENDBRANCH   2   3
ENDBRANCH   1   2
BRANCH   1  10
ATOM     10  C   UNL     1      12.932  45.548  67.514  1.00  0.00     0.027 C 
BRANCH  10  11
ATOM     11  C   UNL     1      13.050  46.155  66.140  1.00  0.00    -0.031 C 
ATOM     12  C   UNL     1      14.185  46.209  65.415  1.00  0.00    -0.031 C 
BRANCH  12  13
ATOM     13  C   UNL     1      15.515  45.633  65.841  1.00  0.00     0.027 C 
BRANCH  13  14
ATOM     14  C   UNL     1      16.047  44.608  64.824  1.00  0.00     0.004 C 
BRANCH  14  15
ATOM     15  C   UNL     1      15.116  44.390  63.616  1.00  0.00     0.000 C 
BRANCH  15  16
ATOM     16  C   UNL     1      14.980  42.930  63.141  1.00  0.00    -0.000 C 
BRANCH  16  17
ATOM     17  C   UNL     1      13.540  42.385  63.118  1.00  0.00    -0.003 C 
ATOM     18  C   UNL     1      12.527  43.351  63.730  1.00  0.00     0.004 C 
ENDBRANCH  16  17
ENDBRANCH  15  16
ENDBRANCH  14  15
ENDBRANCH  13  14
ENDBRANCH  12  13
ENDBRANCH  10  11
ENDBRANCH   1  10
TORSDOF 13
ENDMDL
MODEL 3
REMARK VINA RESULT:    -2.865      3.439      5.314
REMARK INTER + INTRA:          -7.757
REMARK INTER:                  -5.322
REMARK INTRA:                  -2.435
REMARK UNBOUND:                -2.715
REMARK SMILES CCCCCCC=CCCCCCCCC(=O)[O-]
REMARK SMILES IDX 10 1 11 2 12 3 13 4 14 5 15 6 16 7 17 8 18 9 9 10 8 11 7 12
REMARK SMILES IDX 6 13 5 14 4 15 3 16 2 17 1 18
REMARK H PARENT
REMARK Flexibility Score: inf
ROOT
ATOM      1  C   UNL     1      13.455  44.345  67.174  1.00  0.00     0.004 C 
ENDROOT
BRANCH   1   2
ATOM      2  C   UNL     1      14.498  43.320  67.651  1.00  0.00     0.000 C 
BRANCH   2   3
ATOM      3  C   UNL     1      13.929  41.896  67.826  1.00  0.00     0.000 C 
BRANCH   3   4
ATOM      4  C   UNL     1      14.188  41.011  66.593  1.00  0.00     0.000 C 
BRANCH   4   5
ATOM      5  C   UNL     1      13.124  39.913  66.414  1.00  0.00     0.006 C 
BRANCH   5   6
ATOM      6  C   UNL     1      13.363  38.995  65.206  1.00  0.00     0.053 C 
BRANCH   6   7
ATOM      7  C   UNL     1      13.901  37.659  65.616  1.00  0.00     0.041 C 
ATOM      8  O   UNL     1      14.446  36.907  64.766  1.00  0.00    -0.550 OA
ATOM      9  O   UNL     1      13.830  37.258  66.944  1.00  0.00    -0.550 OA
ENDBRANCH   6   7
ENDBRANCH   5   6
ENDBRANCH   4   5
ENDBRANCH   3   4
ENDBRANCH   2   3
ENDBRANCH   1   2
BRANCH   1  10
ATOM     10  C   UNL     1      14.007  45.312  66.118  1.00  0.00     0.027 C 
BRANCH  10  11
ATOM     11  C   UNL     1      15.472  45.067  65.865  1.00  0.00    -0.031 C 
ATOM     12  C   UNL     1      15.983  44.538  64.736  1.00  0.00    -0.031 C 
BRANCH  12  13
ATOM     13  C   UNL     1      15.175  44.141  63.521  1.00  0.00     0.027 C 
BRANCH  13  14
ATOM     14  C   UNL     1      14.848  42.638  63.517  1.00  0.00     0.004 C 
BRANCH  14  15
ATOM     15  C   UNL     1      13.424  42.312  63.026  1.00  0.00     0.000 C 
BRANCH  15  16
ATOM     16  C   UNL     1      12.319  43.265  63.520  1.00  0.00    -0.000 C 
BRANCH  16  17
ATOM     17  C   UNL     1      11.453  42.718  64.669  1.00  0.00    -0.003 C 
ATOM     18  C   UNL     1      10.553  41.560  64.238  1.00  0.00     0.004 C 
ENDBRANCH  16  17
ENDBRANCH  15  16
ENDBRANCH  14  15
ENDBRANCH  13  14
ENDBRANCH  12  13
ENDBRANCH  10  11
ENDBRANCH   1  10
TORSDOF 13
ENDMDL
MODEL 4
REMARK VINA RESULT:    -2.863      2.511      4.604
REMARK INTER + INTRA:          -7.754
REMARK INTER:                  -5.516
REMARK INTRA:                  -2.239
REMARK UNBOUND:                -2.715
REMARK SMILES CCCCCCC=CCCCCCCCC(=O)[O-]
REMARK SMILES IDX 10 1 11 2 12 3 13 4 14 5 15 6 16 7 17 8 18 9 9 10 8 11 7 12
REMARK SMILES IDX 6 13 5 14 4 15 3 16 2 17 1 18
REMARK H PARENT
REMARK Flexibility Score: inf
ROOT
ATOM      1  C   UNL     1      14.878  42.995  65.726  1.00  0.00     0.004 C 
ENDROOT
BRANCH   1   2
ATOM      2  C   UNL     1      14.406  42.027  66.824  1.00  0.00     0.000 C 
BRANCH   2   3
ATOM      3  C   UNL     1      14.257  42.691  68.209  1.00  0.00     0.000 C 
BRANCH   3   4
ATOM      4  C   UNL     1      12.966  42.256  68.927  1.00  0.00     0.000 C 
BRANCH   4   5
ATOM      5  C   UNL     1      12.497  43.276  69.979  1.00  0.00     0.006 C 
BRANCH   5   6
ATOM      6  C   UNL     1      11.490  44.310  69.451  1.00  0.00     0.053 C 
BRANCH   6   7
ATOM      7  C   UNL     1      12.117  45.657  69.265  1.00  0.00     0.041 C 
ATOM      8  O   UNL     1      12.586  45.989  68.144  1.00  0.00    -0.550 OA
ATOM      9  O   UNL     1      12.154  46.559  70.321  1.00  0.00    -0.550 OA
ENDBRANCH   6   7
ENDBRANCH   5   6
ENDBRANCH   4   5
ENDBRANCH   3   4
ENDBRANCH   2   3
ENDBRANCH   1   2
BRANCH   1  10
ATOM     10  C   UNL     1      15.143  44.412  66.253  1.00  0.00     0.027 C 
BRANCH  10  11
ATOM     11  C   UNL     1      16.034  45.186  65.318  1.00  0.00    -0.031 C 
ATOM     12  C   UNL     1      15.612  46.128  64.452  1.00  0.00    -0.031 C 
BRANCH  12  13
ATOM     13  C   UNL     1      14.181  46.594  64.306  1.00  0.00     0.027 C 
BRANCH  13  14
ATOM     14  C   UNL     1      13.480  45.923  63.112  1.00  0.00     0.004 C 
BRANCH  14  15
ATOM     15  C   UNL     1      12.505  44.800  63.514  1.00  0.00     0.000 C 
BRANCH  15  16
ATOM     16  C   UNL     1      11.629  45.093  64.747  1.00  0.00    -0.000 C 
BRANCH  16  17
ATOM     17  C   UNL     1      11.322  43.872  65.632  1.00  0.00    -0.003 C 
ATOM     18  C   UNL     1      11.264  42.563  64.845  1.00  0.00     0.004 C 
ENDBRANCH  16  17
ENDBRANCH  15  16
ENDBRANCH  14  15
ENDBRANCH  13  14
ENDBRANCH  12  13
ENDBRANCH  10  11
ENDBRANCH   1  10
TORSDOF 13
ENDMDL
MODEL 5
REMARK VINA RESULT:    -2.818      2.056      3.672
REMARK INTER + INTRA:          -7.675
REMARK INTER:                  -5.607
REMARK INTRA:                  -2.068
REMARK UNBOUND:                -2.715
REMARK SMILES CCCCCCC=CCCCCCCCC(=O)[O-]
REMARK SMILES IDX 10 1 11 2 12 3 13 4 14 5 15 6 16 7 17 8 18 9 9 10 8 11 7 12
REMARK SMILES IDX 6 13 5 14 4 15 3 16 2 17 1 18
REMARK H PARENT
REMARK Flexibility Score: inf
ROOT
ATOM      1  C   UNL     1      13.023  45.717  67.181  1.00  0.00     0.004 C 
ENDROOT
BRANCH   1   2
ATOM      2  C   UNL     1      13.780  45.145  65.971  1.00  0.00     0.000 C 
BRANCH   2   3
ATOM      3  C   UNL     1      15.301  45.020  66.197  1.00  0.00     0.000 C 
BRANCH   3   4
ATOM      4  C   UNL     1      16.069  44.803  64.880  1.00  0.00     0.000 C 
BRANCH   4   5
ATOM      5  C   UNL     1      15.137  44.552  63.681  1.00  0.00     0.006 C 
BRANCH   5   6
ATOM      6  C   UNL     1      15.013  43.075  63.277  1.00  0.00     0.053 C 
BRANCH   6   7
ATOM      7  C   UNL     1      13.985  42.872  62.208  1.00  0.00     0.041 C 
ATOM      8  O   UNL     1      14.060  43.511  61.125  1.00  0.00    -0.550 OA
ATOM      9  O   UNL     1      12.960  41.953  62.394  1.00  0.00    -0.550 OA
ENDBRANCH   6   7
ENDBRANCH   5   6
ENDBRANCH   4   5
ENDBRANCH   3   4
ENDBRANCH   2   3
ENDBRANCH   1   2
BRANCH   1  10
ATOM     10  C   UNL     1      11.969  44.749  67.737  1.00  0.00     0.027 C 
BRANCH  10  11
ATOM     11  C   UNL     1      12.227  44.433  69.188  1.00  0.00    -0.031 C 
ATOM     12  C   UNL     1      12.667  43.248  69.653  1.00  0.00    -0.031 C 
BRANCH  12  13
ATOM     13  C   UNL     1      13.015  42.054  68.794  1.00  0.00     0.027 C 
BRANCH  13  14
ATOM     14  C   UNL     1      14.414  42.188  68.167  1.00  0.00     0.004 C 
BRANCH  14  15
ATOM     15  C   UNL     1      14.528  41.572  66.759  1.00  0.00     0.000 C 
BRANCH  15  16
ATOM     16  C   UNL     1      13.192  41.359  66.021  1.00  0.00    -0.000 C 
BRANCH  16  17
ATOM     17  C   UNL     1      13.033  39.984  65.349  1.00  0.00    -0.003 C 
ATOM     18  C   UNL     1      13.621  38.842  66.177  1.00  0.00     0.004 C 
ENDBRANCH  16  17
ENDBRANCH  15  16
ENDBRANCH  14  15
ENDBRANCH  13  14
ENDBRANCH  12  13
ENDBRANCH  10  11
ENDBRANCH   1  10
TORSDOF 13
ENDMDL
MODEL 6
REMARK VINA RESULT:    -2.814      1.902      3.643
REMARK INTER + INTRA:          -7.667
REMARK INTER:                  -5.395
REMARK INTRA:                  -2.272
REMARK UNBOUND:                -2.715
REMARK SMILES CCCCCCC=CCCCCCCCC(=O)[O-]
REMARK SMILES IDX 10 1 11 2 12 3 13 4 14 5 15 6 16 7 17 8 18 9 9 10 8 11 7 12
REMARK SMILES IDX 6 13 5 14 4 15 3 16 2 17 1 18
REMARK H PARENT
REMARK Flexibility Score: inf
ROOT
ATOM      1  C   UNL     1      13.751  45.139  65.907  1.00  0.00     0.004 C 
ENDROOT
BRANCH   1   2
ATOM      2  C   UNL     1      15.284  45.140  66.024  1.00  0.00     0.000 C 
BRANCH   2   3
ATOM      3  C   UNL     1      16.000  44.637  64.753  1.00  0.00     0.000 C 
BRANCH   3   4
ATOM      4  C   UNL     1      15.125  43.669  63.937  1.00  0.00     0.000 C 
BRANCH   4   5
ATOM      5  C   UNL     1      14.937  44.121  62.478  1.00  0.00     0.006 C 
BRANCH   5   6
ATOM      6  C   UNL     1      13.735  45.053  62.256  1.00  0.00     0.053 C 
BRANCH   6   7
ATOM      7  C   UNL     1      14.161  46.470  62.027  1.00  0.00     0.041 C 
ATOM      8  O   UNL     1      14.349  46.895  60.856  1.00  0.00    -0.550 OA
ATOM      9  O   UNL     1      14.320  47.332  63.105  1.00  0.00    -0.550 OA
ENDBRANCH   6   7
ENDBRANCH   5   6
ENDBRANCH   4   5
ENDBRANCH   3   4
ENDBRANCH   2   3
ENDBRANCH   1   2
BRANCH   1  10
ATOM     10  C   UNL     1      13.055  45.642  67.180  1.00  0.00     0.027 C 
BRANCH  10  11
ATOM     11  C   UNL     1      11.705  44.997  67.357  1.00  0.00    -0.031 C 
ATOM     12  C   UNL     1      11.396  44.104  68.317  1.00  0.00    -0.031 C 
BRANCH  12  13
ATOM     13  C   UNL     1      12.339  43.633  69.400  1.00  0.00     0.027 C 
BRANCH  13  14
ATOM     14  C   UNL     1      12.976  42.275  69.054  1.00  0.00     0.004 C 
BRANCH  14  15
ATOM     15  C   UNL     1      14.341  42.390  68.348  1.00  0.00     0.000 C 
BRANCH  15  16
ATOM     16  C   UNL     1      14.448  41.666  66.992  1.00  0.00    -0.000 C 
BRANCH  16  17
ATOM     17  C   UNL     1      13.113  41.470  66.253  1.00  0.00    -0.003 C 
ATOM     18  C   UNL     1      12.971  40.078  65.637  1.00  0.00     0.004 C 
ENDBRANCH  16  17
ENDBRANCH  15  16
ENDBRANCH  14  15
ENDBRANCH  13  14
ENDBRANCH  12  13
ENDBRANCH  10  11
ENDBRANCH   1  10
TORSDOF 13
ENDMDL
MODEL 7
REMARK VINA RESULT:    -2.796      2.441      3.862
REMARK INTER + INTRA:          -7.635
REMARK INTER:                  -5.478
REMARK INTRA:                  -2.158
REMARK UNBOUND:                -2.715
REMARK SMILES CCCCCCC=CCCCCCCCC(=O)[O-]
REMARK SMILES IDX 10 1 11 2 12 3 13 4 14 5 15 6 16 7 17 8 18 9 9 10 8 11 7 12
REMARK SMILES IDX 6 13 5 14 4 15 3 16 2 17 1 18
REMARK H PARENT
REMARK Flexibility Score: inf
ROOT
ATOM      1  C   UNL     1      13.459  42.411  64.829  1.00  0.00     0.004 C 
ENDROOT
BRANCH   1   2
ATOM      2  C   UNL     1      14.878  42.491  64.239  1.00  0.00     0.000 C 
BRANCH   2   3
ATOM      3  C   UNL     1      15.315  43.925  63.875  1.00  0.00     0.000 C 
BRANCH   3   4
ATOM      4  C   UNL     1      15.902  44.679  65.082  1.00  0.00     0.000 C 
BRANCH   4   5
ATOM      5  C   UNL     1      15.201  46.023  65.344  1.00  0.00     0.006 C 
BRANCH   5   6
ATOM      6  C   UNL     1      13.771  45.893  65.892  1.00  0.00     0.053 C 
BRANCH   6   7
ATOM      7  C   UNL     1      12.755  46.442  64.940  1.00  0.00     0.041 C 
ATOM      8  O   UNL     1      12.234  45.697  64.069  1.00  0.00    -0.550 OA
ATOM      9  O   UNL     1      12.359  47.770  65.035  1.00  0.00    -0.550 OA
ENDBRANCH   6   7
ENDBRANCH   5   6
ENDBRANCH   4   5
ENDBRANCH   3   4
ENDBRANCH   2   3
ENDBRANCH   1   2
BRANCH   1  10
ATOM     10  C   UNL     1      13.379  41.513  66.071  1.00  0.00     0.027 C 
BRANCH  10  11
ATOM     11  C   UNL     1      14.485  41.826  67.045  1.00  0.00    -0.031 C 
ATOM     12  C   UNL     1      14.366  42.644  68.109  1.00  0.00    -0.031 C 
BRANCH  12  13
ATOM     13  C   UNL     1      13.095  43.348  68.526  1.00  0.00     0.027 C 
BRANCH  13  14
ATOM     14  C   UNL     1      12.653  42.939  69.942  1.00  0.00     0.004 C 
BRANCH  14  15
ATOM     15  C   UNL     1      11.276  42.248  69.989  1.00  0.00     0.000 C 
BRANCH  15  16
ATOM     16  C   UNL     1      11.031  41.187  68.899  1.00  0.00    -0.000 C 
BRANCH  16  17
ATOM     17  C   UNL     1      11.825  39.880  69.073  1.00  0.00    -0.003 C 
ATOM     18  C   UNL     1      11.729  39.307  70.487  1.00  0.00     0.004 C 
ENDBRANCH  16  17
ENDBRANCH  15  16
ENDBRANCH  14  15
ENDBRANCH  13  14
ENDBRANCH  12  13
ENDBRANCH  10  11
ENDBRANCH   1  10
TORSDOF 13
ENDMDL
MODEL 8
REMARK VINA RESULT:    -2.785      2.853      5.228
REMARK INTER + INTRA:          -7.615
REMARK INTER:                  -5.216
REMARK INTRA:                  -2.400
REMARK UNBOUND:                -2.715
REMARK SMILES CCCCCCC=CCCCCCCCC(=O)[O-]
REMARK SMILES IDX 10 1 11 2 12 3 13 4 14 5 15 6 16 7 17 8 18 9 9 10 8 11 7 12
REMARK SMILES IDX 6 13 5 14 4 15 3 16 2 17 1 18
REMARK H PARENT
REMARK Flexibility Score: inf
ROOT
ATOM      1  C   UNL     1      16.093  45.369  65.429  1.00  0.00     0.004 C 
ENDROOT
BRANCH   1   2
ATOM      2  C   UNL     1      15.277  44.367  66.264  1.00  0.00     0.000 C 
BRANCH   2   3
ATOM      3  C   UNL     1      14.955  43.057  65.514  1.00  0.00     0.000 C 
BRANCH   3   4
ATOM      4  C   UNL     1      14.304  42.007  66.433  1.00  0.00     0.000 C 
BRANCH   4   5
ATOM      5  C   UNL     1      14.136  42.502  67.880  1.00  0.00     0.006 C 
BRANCH   5   6
ATOM      6  C   UNL     1      13.063  41.752  68.684  1.00  0.00     0.053 C 
BRANCH   6   7
ATOM      7  C   UNL     1      12.180  42.687  69.449  1.00  0.00     0.041 C 
ATOM      8  O   UNL     1      12.663  43.416  70.356  1.00  0.00    -0.550 OA
ATOM      9  O   UNL     1      10.829  42.778  69.140  1.00  0.00    -0.550 OA
ENDBRANCH   6   7
ENDBRANCH   5   6
ENDBRANCH   4   5
ENDBRANCH   3   4
ENDBRANCH   2   3
ENDBRANCH   1   2
BRANCH   1  10
ATOM     10  C   UNL     1      15.243  46.528  64.890  1.00  0.00     0.027 C 
BRANCH  10  11
ATOM     11  C   UNL     1      14.662  46.197  63.539  1.00  0.00    -0.031 C 
ATOM     12  C   UNL     1      13.349  46.031  63.285  1.00  0.00    -0.031 C 
BRANCH  12  13
ATOM     13  C   UNL     1      12.241  46.190  64.300  1.00  0.00     0.027 C 
BRANCH  13  14
ATOM     14  C   UNL     1      11.695  44.829  64.769  1.00  0.00     0.004 C 
BRANCH  14  15
ATOM     15  C   UNL     1      11.597  44.692  66.301  1.00  0.00     0.000 C 
BRANCH  15  16
ATOM     16  C   UNL     1      12.100  45.905  67.107  1.00  0.00    -0.000 C 
BRANCH  16  17
ATOM     17  C   UNL     1      11.316  46.198  68.399  1.00  0.00    -0.003 C 
ATOM     18  C   UNL     1      12.186  46.809  69.498  1.00  0.00     0.004 C 
ENDBRANCH  16  17
ENDBRANCH  15  16
ENDBRANCH  14  15
ENDBRANCH  13  14
ENDBRANCH  12  13
ENDBRANCH  10  11
ENDBRANCH   1  10
TORSDOF 13
ENDMDL
MODEL 9
REMARK VINA RESULT:    -2.764      3.172      5.493
REMARK INTER + INTRA:          -7.579
REMARK INTER:                  -5.113
REMARK INTRA:                  -2.465
REMARK UNBOUND:                -2.715
REMARK SMILES CCCCCCC=CCCCCCCCC(=O)[O-]
REMARK SMILES IDX 10 1 11 2 12 3 13 4 14 5 15 6 16 7 17 8 18 9 9 10 8 11 7 12
REMARK SMILES IDX 6 13 5 14 4 15 3 16 2 17 1 18
REMARK H PARENT
REMARK Flexibility Score: inf
ROOT
ATOM      1  C   UNL     1      12.929  41.895  64.727  1.00  0.00     0.004 C 
ENDROOT
BRANCH   1   2
ATOM      2  C   UNL     1      12.968  41.624  66.241  1.00  0.00     0.000 C 
BRANCH   2   3
ATOM      3  C   UNL     1      14.394  41.631  66.832  1.00  0.00     0.000 C 
BRANCH   3   4
ATOM      4  C   UNL     1      14.514  42.564  68.050  1.00  0.00     0.000 C 
BRANCH   4   5
ATOM      5  C   UNL     1      13.224  43.358  68.322  1.00  0.00     0.006 C 
BRANCH   5   6
ATOM      6  C   UNL     1      12.620  43.124  69.715  1.00  0.00     0.053 C 
BRANCH   6   7
ATOM      7  C   UNL     1      11.169  42.764  69.643  1.00  0.00     0.041 C 
ATOM      8  O   UNL     1      10.514  42.978  68.589  1.00  0.00    -0.550 OA
ATOM      9  O   UNL     1      10.546  42.163  70.730  1.00  0.00    -0.550 OA
ENDBRANCH   6   7
ENDBRANCH   5   6
ENDBRANCH   4   5
ENDBRANCH   3   4
ENDBRANCH   2   3
ENDBRANCH   1   2
BRANCH   1  10
ATOM     10  C   UNL     1      14.324  41.907  64.087  1.00  0.00     0.027 C 
BRANCH  10  11
ATOM     11  C   UNL     1      14.507  43.109  63.197  1.00  0.00    -0.031 C 
ATOM     12  C   UNL     1      15.216  44.208  63.521  1.00  0.00    -0.031 C 
BRANCH  12  13
ATOM     13  C   UNL     1      15.979  44.399  64.812  1.00  0.00     0.027 C 
BRANCH  13  14
ATOM     14  C   UNL     1      15.286  45.410  65.742  1.00  0.00     0.004 C 
BRANCH  14  15
ATOM     15  C   UNL     1      14.812  46.690  65.026  1.00  0.00     0.000 C 
BRANCH  15  16
ATOM     16  C   UNL     1      13.287  46.908  65.001  1.00  0.00    -0.000 C 
BRANCH  16  17
ATOM     17  C   UNL     1      12.461  45.802  65.681  1.00  0.00    -0.003 C 
ATOM     18  C   UNL     1      11.427  45.171  64.749  1.00  0.00     0.004 C 
ENDBRANCH  16  17
ENDBRANCH  15  16
ENDBRANCH  14  15
ENDBRANCH  13  14
ENDBRANCH  12  13
ENDBRANCH  10  11
ENDBRANCH   1  10
TORSDOF 13
ENDMDL
