MODEL 1
REMARK VINA RESULT:    24.662      0.000      0.000
REMARK INTER + INTRA:          37.757
REMARK INTER:                  34.034
REMARK INTRA:                   3.723
REMARK UNBOUND:                 3.723
REMARK SMILES C=C(CC[C@H](C(=O)[O-])[C@H]1CC[C@@]2(C)C3=C(CC[C@@]12C)[C@@]1(C)CC[C@@H](O)C(C)(C)[C@H]1CC3)C(C)C
REMARK SMILES IDX 4 1 5 2 6 3 7 4 8 5 9 6 10 7 18 8 11 9 12 10 17 11 19 12
REMARK SMILES IDX 13 13 14 14 16 15 15 16 31 17 20 18 30 19 29 20 22 21 21 22
REMARK SMILES IDX 26 23 23 24 24 25 27 26 28 27 25 28 3 30 2 31 1 32 32 33
REMARK SMILES IDX 33 34 34 35
REMARK H PARENT 25 29
REMARK Flexibility Score: inf
ROOT
ATOM      1  C   UNL     1      47.174 -56.203 317.114  1.00  0.00     0.014 C 
ENDROOT
BRANCH   1   2
ATOM      2  C   UNL     1      48.024 -55.580 318.251  1.00  0.00     0.039 C 
BRANCH   2   3
ATOM      3  C   UNL     1      49.211 -54.848 317.672  1.00  0.00     0.045 C 
ATOM      4  O   UNL     1      50.176 -54.507 318.408  1.00  0.00    -0.550 OA
ATOM      5  O   UNL     1      49.234 -54.520 316.322  1.00  0.00    -0.550 OA
ENDBRANCH   2   3
BRANCH   2   6
ATOM      6  C   UNL     1      48.527 -56.633 319.305  1.00  0.00     0.004 C 
ATOM      7  C   UNL     1      47.687 -57.915 319.225  1.00  0.00     0.006 C 
ATOM      8  C   UNL     1      50.024 -57.114 319.310  1.00  0.00    -0.020 C 
ATOM      9  C   UNL     1      48.523 -59.061 319.774  1.00  0.00     0.012 C 
ATOM     10  C   UNL     1      49.948 -58.517 320.062  1.00  0.00    -0.006 C 
ATOM     11  C   UNL     1      50.627 -57.260 317.867  1.00  0.00     0.012 C 
ATOM     12  C   UNL     1      50.933 -56.105 320.078  1.00  0.00     0.012 C 
ATOM     13  C   UNL     1      50.045 -58.347 321.611  1.00  0.00     0.017 C 
ATOM     14  C   UNL     1      50.988 -59.539 319.520  1.00  0.00    -0.064 C 
ATOM     15  C   UNL     1      50.475 -58.655 317.277  1.00  0.00     0.032 C 
ATOM     16  C   UNL     1      51.198 -59.651 318.171  1.00  0.00    -0.064 C 
ATOM     17  C   UNL     1      51.709 -60.508 320.435  1.00  0.00     0.032 C 
ATOM     18  C   UNL     1      52.015 -60.836 317.576  1.00  0.00    -0.008 C 
ATOM     19  C   UNL     1      53.140 -60.676 319.958  1.00  0.00     0.009 C 
ATOM     20  C   UNL     1      53.183 -61.330 318.555  1.00  0.00     0.007 C 
ATOM     21  C   UNL     1      52.573 -60.470 316.162  1.00  0.00     0.014 C 
ATOM     22  C   UNL     1      50.998 -61.989 317.376  1.00  0.00     0.016 C 
ATOM     23  C   UNL     1      54.634 -61.313 317.938  1.00  0.00    -0.006 C 
ATOM     24  C   UNL     1      53.578 -61.464 315.568  1.00  0.00     0.033 C 
ATOM     25  C   UNL     1      54.578 -62.064 316.575  1.00  0.00     0.120 C 
ATOM     26  C   UNL     1      55.194 -59.863 317.776  1.00  0.00     0.014 C 
ATOM     27  C   UNL     1      55.606 -62.108 318.857  1.00  0.00     0.014 C 
BRANCH  25  28
ATOM     28  O   UNL     1      55.858 -62.124 315.995  1.00  0.00    -0.393 OA
ATOM     29  H   UNL     1      55.765 -62.607 315.129  1.00  0.00     0.210 HD
ENDBRANCH  25  28
ENDBRANCH   2   6
ENDBRANCH   1   2
BRANCH   1  30
ATOM     30  C   UNL     1      47.842 -56.141 315.722  1.00  0.00     0.031 C 
BRANCH  30  31
ATOM     31  C   UNL     1      46.861 -56.340 314.583  1.00  0.00    -0.075 C 
ATOM     32  C   UNL     1      46.448 -57.580 314.266  1.00  0.00     0.008 C 
BRANCH  31  33
ATOM     33  C   UNL     1      46.404 -55.130 313.777  1.00  0.00     0.008 C 
ATOM     34  C   UNL     1      47.366 -53.947 313.938  1.00  0.00     0.012 C 
ATOM     35  C   UNL     1      44.970 -54.728 314.143  1.00  0.00     0.012 C 
ENDBRANCH  31  33
ENDBRANCH  30  31
ENDBRANCH   1  30
TORSDOF 7
ENDMDL
MODEL 2
REMARK VINA RESULT:    24.818      2.135      7.807
REMARK INTER + INTRA:          37.971
REMARK INTER:                  34.947
REMARK INTRA:                   3.024
REMARK UNBOUND:                 3.723
REMARK SMILES C=C(CC[C@H](C(=O)[O-])[C@H]1CC[C@@]2(C)C3=C(CC[C@@]12C)[C@@]1(C)CC[C@@H](O)C(C)(C)[C@H]1CC3)C(C)C
REMARK SMILES IDX 4 1 5 2 6 3 7 4 8 5 9 6 10 7 18 8 11 9 12 10 17 11 19 12
REMARK SMILES IDX 13 13 14 14 16 15 15 16 31 17 20 18 30 19 29 20 22 21 21 22
REMARK SMILES IDX 26 23 23 24 24 25 27 26 28 27 25 28 3 30 2 31 1 32 32 33
REMARK SMILES IDX 33 34 34 35
REMARK H PARENT 25 29
REMARK Flexibility Score: inf
ROOT
ATOM      1  C   UNL     1      52.865 -59.081 318.382  1.00  0.00     0.014 C 
ENDROOT
BRANCH   1   2
ATOM      2  C   UNL     1      52.091 -59.365 319.695  1.00  0.00     0.039 C 
BRANCH   2   3
ATOM      3  C   UNL     1      51.411 -60.711 319.618  1.00  0.00     0.045 C 
ATOM      4  O   UNL     1      51.518 -61.539 320.562  1.00  0.00    -0.550 OA
ATOM      5  O   UNL     1      50.683 -61.059 318.487  1.00  0.00    -0.550 OA
ENDBRANCH   2   3
BRANCH   2   6
ATOM      6  C   UNL     1      51.023 -58.264 320.042  1.00  0.00     0.004 C 
ATOM      7  C   UNL     1      51.640 -56.863 319.922  1.00  0.00     0.006 C 
ATOM      8  C   UNL     1      49.661 -58.189 319.261  1.00  0.00    -0.020 C 
ATOM      9  C   UNL     1      50.513 -55.872 319.670  1.00  0.00     0.012 C 
ATOM     10  C   UNL     1      49.200 -56.680 319.485  1.00  0.00    -0.006 C 
ATOM     11  C   UNL     1      49.808 -58.530 317.734  1.00  0.00     0.012 C 
ATOM     12  C   UNL     1      48.623 -59.195 319.849  1.00  0.00     0.012 C 
ATOM     13  C   UNL     1      48.395 -56.514 320.813  1.00  0.00     0.017 C 
ATOM     14  C   UNL     1      48.432 -56.105 318.260  1.00  0.00    -0.064 C 
ATOM     15  C   UNL     1      50.056 -57.314 316.855  1.00  0.00     0.032 C 
ATOM     16  C   UNL     1      48.881 -56.358 316.992  1.00  0.00    -0.064 C 
ATOM     17  C   UNL     1      47.251 -55.169 318.424  1.00  0.00     0.032 C 
ATOM     18  C   UNL     1      48.313 -55.584 315.764  1.00  0.00    -0.008 C 
ATOM     19  C   UNL     1      46.214 -55.482 317.361  1.00  0.00     0.009 C 
ATOM     20  C   UNL     1      46.770 -55.195 315.945  1.00  0.00     0.007 C 
ATOM     21  C   UNL     1      48.547 -56.390 314.445  1.00  0.00     0.014 C 
ATOM     22  C   UNL     1      49.156 -54.288 315.658  1.00  0.00     0.016 C 
ATOM     23  C   UNL     1      45.805 -55.718 314.813  1.00  0.00    -0.006 C 
ATOM     24  C   UNL     1      47.838 -55.844 313.200  1.00  0.00     0.033 C 
ATOM     25  C   UNL     1      46.415 -55.306 313.441  1.00  0.00     0.120 C 
ATOM     26  C   UNL     1      45.568 -57.260 314.899  1.00  0.00     0.014 C 
ATOM     27  C   UNL     1      44.424 -55.009 314.929  1.00  0.00     0.014 C 
BRANCH  25  28
ATOM     28  O   UNL     1      45.571 -55.705 312.389  1.00  0.00    -0.393 OA
ATOM     29  H   UNL     1      46.155 -56.048 311.659  1.00  0.00     0.210 HD
ENDBRANCH  25  28
ENDBRANCH   2   6
ENDBRANCH   1   2
BRANCH   1  30
ATOM     30  C   UNL     1      52.412 -59.947 317.184  1.00  0.00     0.031 C 
BRANCH  30  31
ATOM     31  C   UNL     1      53.280 -61.172 316.975  1.00  0.00    -0.075 C 
ATOM     32  C   UNL     1      52.897 -62.121 316.102  1.00  0.00     0.008 C 
BRANCH  31  33
ATOM     33  C   UNL     1      54.548 -61.335 317.805  1.00  0.00     0.008 C 
ATOM     34  C   UNL     1      55.676 -61.983 316.993  1.00  0.00     0.012 C 
ATOM     35  C   UNL     1      54.273 -62.122 319.091  1.00  0.00     0.012 C 
ENDBRANCH  31  33
ENDBRANCH  30  31
ENDBRANCH   1  30
TORSDOF 7
ENDMDL
