MODEL 1
REMARK VINA RESULT:    -5.605      0.000      0.000
REMARK INTER + INTRA:         -10.231
REMARK INTER:                  -8.718
REMARK INTRA:                  -1.513
REMARK UNBOUND:                -1.513
REMARK SMILES C[C@]12C[C@H](O)[C@@H]3C[C@@]1(O[C@H]1O[C@H](CO)[C@H](O)[C@H](O)[C@@H]1O)[C@]3(COC(=O)c1ccccc1)C(=O)O2
REMARK SMILES IDX 1 1 2 2 3 3 4 4 6 5 7 6 8 7 21 8 32 9 33 10 34 11 9 12 10 13
REMARK SMILES IDX 19 14 11 15 17 16 12 17 15 18 20 19 18 21 13 23 14 24 16 26
REMARK SMILES IDX 5 28 22 30 23 31 24 32 25 33 26 34 27 35 31 36 28 37 30 38
REMARK SMILES IDX 29 39
REMARK H PARENT 20 20 18 22 14 25 16 27 5 29
REMARK Flexibility Score: inf
ROOT
ATOM      1  C   UNL     1      31.509 -68.182  -8.047  1.00  0.00     0.060 C 
ATOM      2  C   UNL     1      32.117 -68.898  -6.842  1.00  0.00     0.142 C 
ATOM      3  C   UNL     1      31.136 -69.975  -6.254  1.00  0.00     0.083 C 
ATOM      4  C   UNL     1      31.632 -70.459  -4.841  1.00  0.00     0.123 C 
ATOM      5  C   UNL     1      32.445 -69.328  -4.123  1.00  0.00     0.045 C 
ATOM      6  C   UNL     1      31.740 -67.992  -4.418  1.00  0.00     0.049 C 
ATOM      7  C   UNL     1      32.624 -67.922  -5.692  1.00  0.00     0.131 C 
ATOM      8  C   UNL     1      33.640 -68.850  -5.010  1.00  0.00     0.140 C 
ATOM      9  C   UNL     1      34.111 -69.717  -6.131  1.00  0.00     0.319 C 
ATOM     10  O   UNL     1      35.126 -70.461  -6.098  1.00  0.00    -0.251 OA
ATOM     11  O   UNL     1      33.283 -69.611  -7.225  1.00  0.00    -0.456 OA
ENDROOT
BRANCH   7  12
ATOM     12  O   UNL     1      33.209 -66.714  -6.195  1.00  0.00    -0.338 OA
BRANCH  12  13
ATOM     13  C   UNL     1      32.514 -65.508  -5.904  1.00  0.00     0.282 C 
ATOM     14  C   UNL     1      32.250 -64.650  -7.172  1.00  0.00     0.202 C 
ATOM     15  O   UNL     1      33.226 -64.766  -4.924  1.00  0.00    -0.341 OA
ATOM     16  C   UNL     1      33.555 -64.017  -7.694  1.00  0.00     0.179 C 
ATOM     17  C   UNL     1      34.494 -64.336  -5.395  1.00  0.00     0.178 C 
ATOM     18  C   UNL     1      34.326 -63.333  -6.555  1.00  0.00     0.177 C 
BRANCH  14  19
ATOM     19  O   UNL     1      31.322 -63.638  -6.873  1.00  0.00    -0.385 OA
ATOM     20  H   UNL     1      31.184 -63.656  -5.890  1.00  0.00     0.211 HD
ENDBRANCH  14  19
BRANCH  16  21
ATOM     21  O   UNL     1      33.284 -63.090  -8.713  1.00  0.00    -0.387 OA
ATOM     22  H   UNL     1      34.160 -62.740  -9.023  1.00  0.00     0.211 HD
ENDBRANCH  16  21
BRANCH  17  23
ATOM     23  C   UNL     1      35.269 -63.698  -4.237  1.00  0.00     0.191 C 
BRANCH  23  24
ATOM     24  O   UNL     1      34.425 -62.844  -3.517  1.00  0.00    -0.394 OA
ATOM     25  H   UNL     1      33.507 -63.003  -3.862  1.00  0.00     0.210 HD
ENDBRANCH  23  24
ENDBRANCH  17  23
BRANCH  18  26
ATOM     26  O   UNL     1      33.637 -62.192  -6.106  1.00  0.00    -0.387 OA
ATOM     27  H   UNL     1      34.319 -61.565  -5.748  1.00  0.00     0.211 HD
ENDBRANCH  18  26
ENDBRANCH  12  13
ENDBRANCH   7  12
BRANCH   4  28
ATOM     28  O   UNL     1      30.561 -70.900  -4.046  1.00  0.00    -0.393 OA
ATOM     29  H   UNL     1      29.782 -71.053  -4.639  1.00  0.00     0.210 HD
ENDBRANCH   4  28
BRANCH   8  30
ATOM     30  C   UNL     1      34.776 -68.161  -4.224  1.00  0.00     0.255 C 
BRANCH  30  31
ATOM     31  O   UNL     1      35.369 -69.081  -3.312  1.00  0.00    -0.461 OA
BRANCH  31  32
ATOM     32  C   UNL     1      35.421 -68.860  -1.934  1.00  0.00     0.338 C 
ATOM     33  O   UNL     1      36.527 -68.636  -1.369  1.00  0.00    -0.246 OA
BRANCH  32  34
ATOM     34  C   UNL     1      34.173 -68.892  -1.142  1.00  0.00     0.060 A 
ATOM     35  C   UNL     1      33.654 -70.112  -0.666  1.00  0.00     0.015 A 
ATOM     36  C   UNL     1      33.486 -67.698  -0.853  1.00  0.00     0.015 A 
ATOM     37  C   UNL     1      32.470 -70.133   0.078  1.00  0.00     0.001 A 
ATOM     38  C   UNL     1      32.304 -67.725  -0.107  1.00  0.00     0.001 A 
ATOM     39  C   UNL     1      31.796 -68.941   0.356  1.00  0.00     0.000 A 
ENDBRANCH  32  34
ENDBRANCH  31  32
ENDBRANCH  30  31
ENDBRANCH   8  30
TORSDOF 12
ENDMDL
MODEL 2
REMARK VINA RESULT:    -5.545      1.972      3.466
REMARK INTER + INTRA:         -10.138
REMARK INTER:                  -9.089
REMARK INTRA:                  -1.049
REMARK UNBOUND:                -1.513
REMARK SMILES C[C@]12C[C@H](O)[C@@H]3C[C@@]1(O[C@H]1O[C@H](CO)[C@H](O)[C@H](O)[C@@H]1O)[C@]3(COC(=O)c1ccccc1)C(=O)O2
REMARK SMILES IDX 1 1 2 2 3 3 4 4 6 5 7 6 8 7 21 8 32 9 33 10 34 11 9 12 10 13
REMARK SMILES IDX 19 14 11 15 17 16 12 17 15 18 20 19 18 21 13 23 14 24 16 26
REMARK SMILES IDX 5 28 22 30 23 31 24 32 25 33 26 34 27 35 31 36 28 37 30 38
REMARK SMILES IDX 29 39
REMARK H PARENT 20 20 18 22 14 25 16 27 5 29
REMARK Flexibility Score: inf
ROOT
ATOM      1  C   UNL     1      31.491 -68.138  -8.013  1.00  0.00     0.060 C 
ATOM      2  C   UNL     1      32.115 -68.836  -6.806  1.00  0.00     0.142 C 
ATOM      3  C   UNL     1      31.149 -69.917  -6.200  1.00  0.00     0.083 C 
ATOM      4  C   UNL     1      31.660 -70.383  -4.786  1.00  0.00     0.123 C 
ATOM      5  C   UNL     1      32.467 -69.237  -4.085  1.00  0.00     0.045 C 
ATOM      6  C   UNL     1      31.746 -67.911  -4.387  1.00  0.00     0.049 C 
ATOM      7  C   UNL     1      32.620 -67.844  -5.669  1.00  0.00     0.131 C 
ATOM      8  C   UNL     1      33.650 -68.755  -4.985  1.00  0.00     0.140 C 
ATOM      9  C   UNL     1      34.122 -69.628  -6.101  1.00  0.00     0.319 C 
ATOM     10  O   UNL     1      35.145 -70.362  -6.068  1.00  0.00    -0.251 OA
ATOM     11  O   UNL     1      33.286 -69.541  -7.189  1.00  0.00    -0.456 OA
ENDROOT
BRANCH   7  12
ATOM     12  O   UNL     1      33.189 -66.635  -6.187  1.00  0.00    -0.338 OA
BRANCH  12  13
ATOM     13  C   UNL     1      32.493 -65.432  -5.889  1.00  0.00     0.282 C 
ATOM     14  C   UNL     1      32.202 -64.580  -7.156  1.00  0.00     0.202 C 
ATOM     15  O   UNL     1      33.218 -64.681  -4.924  1.00  0.00    -0.341 OA
ATOM     16  C   UNL     1      33.495 -63.942  -7.703  1.00  0.00     0.179 C 
ATOM     17  C   UNL     1      34.474 -64.247  -5.419  1.00  0.00     0.178 C 
ATOM     18  C   UNL     1      34.281 -63.249  -6.580  1.00  0.00     0.177 C 
BRANCH  14  19
ATOM     19  O   UNL     1      31.273 -63.572  -6.844  1.00  0.00    -0.385 OA
ATOM     20  H   UNL     1      31.655 -63.053  -6.090  1.00  0.00     0.211 HD
ENDBRANCH  14  19
BRANCH  16  21
ATOM     21  O   UNL     1      33.200 -63.021  -8.721  1.00  0.00    -0.387 OA
ATOM     22  H   UNL     1      34.017 -62.940  -9.279  1.00  0.00     0.211 HD
ENDBRANCH  16  21
BRANCH  17  23
ATOM     23  C   UNL     1      35.266 -63.600  -4.278  1.00  0.00     0.191 C 
BRANCH  23  24
ATOM     24  O   UNL     1      34.419 -62.780  -3.521  1.00  0.00    -0.394 OA
ATOM     25  H   UNL     1      33.603 -63.316  -3.339  1.00  0.00     0.210 HD
ENDBRANCH  23  24
ENDBRANCH  17  23
BRANCH  18  26
ATOM     26  O   UNL     1      33.594 -62.110  -6.124  1.00  0.00    -0.387 OA
ATOM     27  H   UNL     1      34.260 -61.376  -6.061  1.00  0.00     0.211 HD
ENDBRANCH  18  26
ENDBRANCH  12  13
ENDBRANCH   7  12
BRANCH   4  28
ATOM     28  O   UNL     1      30.599 -70.827  -3.979  1.00  0.00    -0.393 OA
ATOM     29  H   UNL     1      30.878 -71.674  -3.547  1.00  0.00     0.210 HD
ENDBRANCH   4  28
BRANCH   8  30
ATOM     30  C   UNL     1      34.785 -68.047  -4.214  1.00  0.00     0.255 C 
BRANCH  30  31
ATOM     31  O   UNL     1      36.021 -68.212  -4.902  1.00  0.00    -0.461 OA
BRANCH  31  32
ATOM     32  C   UNL     1      36.767 -67.138  -5.396  1.00  0.00     0.338 C 
ATOM     33  O   UNL     1      36.454 -66.601  -6.494  1.00  0.00    -0.246 OA
BRANCH  32  34
ATOM     34  C   UNL     1      37.926 -66.639  -4.626  1.00  0.00     0.060 A 
ATOM     35  C   UNL     1      38.416 -67.355  -3.517  1.00  0.00     0.015 A 
ATOM     36  C   UNL     1      38.556 -65.435  -4.995  1.00  0.00     0.015 A 
ATOM     37  C   UNL     1      39.508 -66.872  -2.791  1.00  0.00     0.001 A 
ATOM     38  C   UNL     1      39.650 -64.958  -4.267  1.00  0.00     0.001 A 
ATOM     39  C   UNL     1      40.124 -65.674  -3.165  1.00  0.00     0.000 A 
ENDBRANCH  32  34
ENDBRANCH  31  32
ENDBRANCH  30  31
ENDBRANCH   8  30
TORSDOF 12
ENDMDL
MODEL 3
REMARK VINA RESULT:    -5.444      2.660      6.655
REMARK INTER + INTRA:          -9.980
REMARK INTER:                  -8.646
REMARK INTRA:                  -1.334
REMARK UNBOUND:                -1.513
REMARK SMILES C[C@]12C[C@H](O)[C@@H]3C[C@@]1(O[C@H]1O[C@H](CO)[C@H](O)[C@H](O)[C@@H]1O)[C@]3(COC(=O)c1ccccc1)C(=O)O2
REMARK SMILES IDX 1 1 2 2 3 3 4 4 6 5 7 6 8 7 21 8 32 9 33 10 34 11 9 12 10 13
REMARK SMILES IDX 19 14 11 15 17 16 12 17 15 18 20 19 18 21 13 23 14 24 16 26
REMARK SMILES IDX 5 28 22 30 23 31 24 32 25 33 26 34 27 35 31 36 28 37 30 38
REMARK SMILES IDX 29 39
REMARK H PARENT 20 20 18 22 14 25 16 27 5 29
REMARK Flexibility Score: inf
ROOT
ATOM      1  C   UNL     1      33.478 -68.327  -3.831  1.00  0.00     0.060 C 
ATOM      2  C   UNL     1      32.508 -67.944  -4.948  1.00  0.00     0.142 C 
ATOM      3  C   UNL     1      31.655 -69.177  -5.418  1.00  0.00     0.083 C 
ATOM      4  C   UNL     1      30.914 -68.851  -6.768  1.00  0.00     0.123 C 
ATOM      5  C   UNL     1      31.721 -67.798  -7.602  1.00  0.00     0.045 C 
ATOM      6  C   UNL     1      33.214 -68.140  -7.459  1.00  0.00     0.049 C 
ATOM      7  C   UNL     1      33.197 -67.238  -6.195  1.00  0.00     0.131 C 
ATOM      8  C   UNL     1      31.977 -66.501  -6.768  1.00  0.00     0.140 C 
ATOM      9  C   UNL     1      31.144 -66.235  -5.557  1.00  0.00     0.319 C 
ATOM     10  O   UNL     1      30.170 -65.439  -5.504  1.00  0.00    -0.251 OA
ATOM     11  O   UNL     1      31.571 -66.985  -4.485  1.00  0.00    -0.456 OA
ENDROOT
BRANCH   7  12
ATOM     12  O   UNL     1      34.266 -66.358  -5.826  1.00  0.00    -0.338 OA
BRANCH  12  13
ATOM     13  C   UNL     1      35.574 -66.757  -6.215  1.00  0.00     0.282 C 
ATOM     14  C   UNL     1      36.645 -66.425  -5.138  1.00  0.00     0.202 C 
ATOM     15  O   UNL     1      35.907 -66.168  -7.464  1.00  0.00    -0.341 OA
ATOM     16  C   UNL     1      36.905 -64.907  -5.064  1.00  0.00     0.179 C 
ATOM     17  C   UNL     1      35.980 -64.753  -7.385  1.00  0.00     0.178 C 
ATOM     18  C   UNL     1      37.141 -64.323  -6.465  1.00  0.00     0.177 C 
BRANCH  14  19
ATOM     19  O   UNL     1      37.843 -67.095  -5.442  1.00  0.00    -0.385 OA
ATOM     20  H   UNL     1      38.323 -66.536  -6.107  1.00  0.00     0.211 HD
ENDBRANCH  14  19
BRANCH  16  21
ATOM     21  O   UNL     1      38.006 -64.633  -4.238  1.00  0.00    -0.387 OA
ATOM     22  H   UNL     1      38.817 -64.715  -4.804  1.00  0.00     0.211 HD
ENDBRANCH  16  21
BRANCH  17  23
ATOM     23  C   UNL     1      36.169 -64.182  -8.795  1.00  0.00     0.191 C 
BRANCH  23  24
ATOM     24  O   UNL     1      37.040 -65.001  -9.523  1.00  0.00    -0.394 OA
ATOM     25  H   UNL     1      37.096 -64.608 -10.434  1.00  0.00     0.210 HD
ENDBRANCH  23  24
ENDBRANCH  17  23
BRANCH  18  26
ATOM     26  O   UNL     1      38.364 -64.777  -6.991  1.00  0.00    -0.387 OA
ATOM     27  H   UNL     1      38.197 -65.022  -7.939  1.00  0.00     0.211 HD
ENDBRANCH  18  26
ENDBRANCH  12  13
ENDBRANCH   7  12
BRANCH   4  28
ATOM     28  O   UNL     1      30.673 -70.016  -7.515  1.00  0.00    -0.393 OA
ATOM     29  H   UNL     1      30.903 -69.827  -8.460  1.00  0.00     0.210 HD
ENDBRANCH   4  28
BRANCH   8  30
ATOM     30  C   UNL     1      32.271 -65.247  -7.619  1.00  0.00     0.255 C 
BRANCH  30  31
ATOM     31  O   UNL     1      32.207 -64.079  -6.808  1.00  0.00    -0.461 OA
BRANCH  31  32
ATOM     32  C   UNL     1      31.982 -62.801  -7.328  1.00  0.00     0.338 C 
ATOM     33  O   UNL     1      30.832 -62.286  -7.265  1.00  0.00    -0.246 OA
BRANCH  32  34
ATOM     34  C   UNL     1      33.098 -62.061  -7.952  1.00  0.00     0.060 A 
ATOM     35  C   UNL     1      33.219 -61.987  -9.354  1.00  0.00     0.015 A 
ATOM     36  C   UNL     1      34.059 -61.417  -7.150  1.00  0.00     0.015 A 
ATOM     37  C   UNL     1      34.280 -61.289  -9.936  1.00  0.00     0.001 A 
ATOM     38  C   UNL     1      35.117 -60.718  -7.737  1.00  0.00     0.001 A 
ATOM     39  C   UNL     1      35.229 -60.656  -9.128  1.00  0.00     0.000 A 
ENDBRANCH  32  34
ENDBRANCH  31  32
ENDBRANCH  30  31
ENDBRANCH   8  30
TORSDOF 12
ENDMDL
MODEL 4
REMARK VINA RESULT:    -5.402      1.720      2.336
REMARK INTER + INTRA:          -9.915
REMARK INTER:                  -9.078
REMARK INTRA:                  -0.837
REMARK UNBOUND:                -1.513
REMARK SMILES C[C@]12C[C@H](O)[C@@H]3C[C@@]1(O[C@H]1O[C@H](CO)[C@H](O)[C@H](O)[C@@H]1O)[C@]3(COC(=O)c1ccccc1)C(=O)O2
REMARK SMILES IDX 1 1 2 2 3 3 4 4 6 5 7 6 8 7 21 8 32 9 33 10 34 11 9 12 10 13
REMARK SMILES IDX 19 14 11 15 17 16 12 17 15 18 20 19 18 21 13 23 14 24 16 26
REMARK SMILES IDX 5 28 22 30 23 31 24 32 25 33 26 34 27 35 31 36 28 37 30 38
REMARK SMILES IDX 29 39
REMARK H PARENT 20 20 18 22 14 25 16 27 5 29
REMARK Flexibility Score: inf
ROOT
ATOM      1  C   UNL     1      31.477 -68.326  -8.017  1.00  0.00     0.060 C 
ATOM      2  C   UNL     1      32.162 -68.964  -6.809  1.00  0.00     0.142 C 
ATOM      3  C   UNL     1      31.237 -70.028  -6.116  1.00  0.00     0.083 C 
ATOM      4  C   UNL     1      31.815 -70.426  -4.707  1.00  0.00     0.123 C 
ATOM      5  C   UNL     1      32.635 -69.240  -4.091  1.00  0.00     0.045 C 
ATOM      6  C   UNL     1      31.884 -67.938  -4.419  1.00  0.00     0.049 C 
ATOM      7  C   UNL     1      32.701 -67.917  -5.739  1.00  0.00     0.131 C 
ATOM      8  C   UNL     1      33.772 -68.784  -5.061  1.00  0.00     0.140 C 
ATOM      9  C   UNL     1      34.208 -69.699  -6.158  1.00  0.00     0.319 C 
ATOM     10  O   UNL     1      35.241 -70.419  -6.137  1.00  0.00    -0.251 OA
ATOM     11  O   UNL     1      33.325 -69.670  -7.212  1.00  0.00    -0.456 OA
ENDROOT
BRANCH   7  12
ATOM     12  O   UNL     1      33.231 -66.725  -6.333  1.00  0.00    -0.338 OA
BRANCH  12  13
ATOM     13  C   UNL     1      32.563 -65.511  -6.013  1.00  0.00     0.282 C 
ATOM     14  C   UNL     1      32.310 -64.622  -7.263  1.00  0.00     0.202 C 
ATOM     15  O   UNL     1      33.297 -64.803  -5.023  1.00  0.00    -0.341 OA
ATOM     16  C   UNL     1      33.625 -64.006  -7.780  1.00  0.00     0.179 C 
ATOM     17  C   UNL     1      34.570 -64.391  -5.494  1.00  0.00     0.178 C 
ATOM     18  C   UNL     1      34.417 -63.361  -6.632  1.00  0.00     0.177 C 
BRANCH  14  19
ATOM     19  O   UNL     1      31.405 -63.597  -6.937  1.00  0.00    -0.385 OA
ATOM     20  H   UNL     1      30.702 -63.601  -7.638  1.00  0.00     0.211 HD
ENDBRANCH  14  19
BRANCH  16  21
ATOM     21  O   UNL     1      33.367 -63.053  -8.779  1.00  0.00    -0.387 OA
ATOM     22  H   UNL     1      33.470 -62.160  -8.357  1.00  0.00     0.211 HD
ENDBRANCH  16  21
BRANCH  17  23
ATOM     23  C   UNL     1      35.365 -63.793  -4.328  1.00  0.00     0.191 C 
BRANCH  23  24
ATOM     24  O   UNL     1      34.544 -62.934  -3.587  1.00  0.00    -0.394 OA
ATOM     25  H   UNL     1      33.609 -63.195  -3.796  1.00  0.00     0.210 HD
ENDBRANCH  23  24
ENDBRANCH  17  23
BRANCH  18  26
ATOM     26  O   UNL     1      33.755 -62.215  -6.157  1.00  0.00    -0.387 OA
ATOM     27  H   UNL     1      32.789 -62.335  -6.359  1.00  0.00     0.211 HD
ENDBRANCH  18  26
ENDBRANCH  12  13
ENDBRANCH   7  12
BRANCH   4  28
ATOM     28  O   UNL     1      30.796 -70.847  -3.836  1.00  0.00    -0.393 OA
ATOM     29  H   UNL     1      31.109 -70.704  -2.907  1.00  0.00     0.210 HD
ENDBRANCH   4  28
BRANCH   8  30
ATOM     30  C   UNL     1      34.929 -68.030  -4.372  1.00  0.00     0.255 C 
BRANCH  30  31
ATOM     31  O   UNL     1      36.019 -68.915  -4.136  1.00  0.00    -0.461 OA
BRANCH  31  32
ATOM     32  C   UNL     1      36.253 -69.523  -2.899  1.00  0.00     0.338 C 
ATOM     33  O   UNL     1      35.696 -70.619  -2.616  1.00  0.00    -0.246 OA
BRANCH  32  34
ATOM     34  C   UNL     1      37.155 -68.872  -1.926  1.00  0.00     0.060 A 
ATOM     35  C   UNL     1      37.153 -69.259  -0.572  1.00  0.00     0.015 A 
ATOM     36  C   UNL     1      38.032 -67.853  -2.343  1.00  0.00     0.015 A 
ATOM     37  C   UNL     1      38.005 -68.634   0.343  1.00  0.00     0.001 A 
ATOM     38  C   UNL     1      38.884 -67.233  -1.425  1.00  0.00     0.001 A 
ATOM     39  C   UNL     1      38.869 -67.622  -0.083  1.00  0.00     0.000 A 
ENDBRANCH  32  34
ENDBRANCH  31  32
ENDBRANCH  30  31
ENDBRANCH   8  30
TORSDOF 12
ENDMDL
MODEL 5
REMARK VINA RESULT:    -5.337      2.165      4.997
REMARK INTER + INTRA:          -9.814
REMARK INTER:                  -8.289
REMARK INTRA:                  -1.524
REMARK UNBOUND:                -1.513
REMARK SMILES C[C@]12C[C@H](O)[C@@H]3C[C@@]1(O[C@H]1O[C@H](CO)[C@H](O)[C@H](O)[C@@H]1O)[C@]3(COC(=O)c1ccccc1)C(=O)O2
REMARK SMILES IDX 1 1 2 2 3 3 4 4 6 5 7 6 8 7 21 8 32 9 33 10 34 11 9 12 10 13
REMARK SMILES IDX 19 14 11 15 17 16 12 17 15 18 20 19 18 21 13 23 14 24 16 26
REMARK SMILES IDX 5 28 22 30 23 31 24 32 25 33 26 34 27 35 31 36 28 37 30 38
REMARK SMILES IDX 29 39
REMARK H PARENT 20 20 18 22 14 25 16 27 5 29
REMARK Flexibility Score: inf
ROOT
ATOM      1  C   UNL     1      37.700 -66.406  -3.865  1.00  0.00     0.060 C 
ATOM      2  C   UNL     1      36.560 -67.338  -3.457  1.00  0.00     0.142 C 
ATOM      3  C   UNL     1      37.076 -68.798  -3.189  1.00  0.00     0.083 C 
ATOM      4  C   UNL     1      35.866 -69.801  -3.096  1.00  0.00     0.123 C 
ATOM      5  C   UNL     1      34.659 -69.293  -3.958  1.00  0.00     0.045 C 
ATOM      6  C   UNL     1      35.234 -68.698  -5.255  1.00  0.00     0.049 C 
ATOM      7  C   UNL     1      35.339 -67.359  -4.476  1.00  0.00     0.131 C 
ATOM      8  C   UNL     1      34.234 -67.851  -3.529  1.00  0.00     0.140 C 
ATOM      9  C   UNL     1      34.670 -67.326  -2.201  1.00  0.00     0.319 C 
ATOM     10  O   UNL     1      33.950 -67.271  -1.169  1.00  0.00    -0.251 OA
ATOM     11  O   UNL     1      35.980 -66.907  -2.235  1.00  0.00    -0.456 OA
ENDROOT
BRANCH   7  12
ATOM     12  O   UNL     1      35.061 -66.076  -5.050  1.00  0.00    -0.338 OA
BRANCH  12  13
ATOM     13  C   UNL     1      35.086 -66.001  -6.470  1.00  0.00     0.282 C 
ATOM     14  C   UNL     1      36.146 -64.994  -6.997  1.00  0.00     0.202 C 
ATOM     15  O   UNL     1      33.790 -65.681  -6.958  1.00  0.00    -0.341 OA
ATOM     16  C   UNL     1      35.714 -63.540  -6.720  1.00  0.00     0.179 C 
ATOM     17  C   UNL     1      33.366 -64.391  -6.546  1.00  0.00     0.178 C 
ATOM     18  C   UNL     1      34.264 -63.304  -7.170  1.00  0.00     0.177 C 
BRANCH  14  19
ATOM     19  O   UNL     1      36.325 -65.178  -8.379  1.00  0.00    -0.385 OA
ATOM     20  H   UNL     1      35.592 -65.772  -8.687  1.00  0.00     0.211 HD
ENDBRANCH  14  19
BRANCH  16  21
ATOM     21  O   UNL     1      36.571 -62.636  -7.369  1.00  0.00    -0.387 OA
ATOM     22  H   UNL     1      36.340 -62.665  -8.334  1.00  0.00     0.211 HD
ENDBRANCH  16  21
BRANCH  17  23
ATOM     23  C   UNL     1      31.905 -64.189  -6.960  1.00  0.00     0.191 C 
BRANCH  23  24
ATOM     24  O   UNL     1      31.640 -62.821  -7.103  1.00  0.00    -0.394 OA
ATOM     25  H   UNL     1      32.522 -62.366  -7.116  1.00  0.00     0.210 HD
ENDBRANCH  23  24
ENDBRANCH  17  23
BRANCH  18  26
ATOM     26  O   UNL     1      34.168 -63.348  -8.572  1.00  0.00    -0.387 OA
ATOM     27  H   UNL     1      33.281 -62.970  -8.813  1.00  0.00     0.211 HD
ENDBRANCH  18  26
ENDBRANCH  12  13
ENDBRANCH   7  12
BRANCH   4  28
ATOM     28  O   UNL     1      36.248 -71.100  -3.470  1.00  0.00    -0.393 OA
ATOM     29  H   UNL     1      37.215 -71.202  -3.278  1.00  0.00     0.210 HD
ENDBRANCH   4  28
BRANCH   8  30
ATOM     30  C   UNL     1      32.786 -67.477  -3.913  1.00  0.00     0.255 C 
BRANCH  30  31
ATOM     31  O   UNL     1      31.889 -68.500  -3.493  1.00  0.00    -0.461 OA
BRANCH  31  32
ATOM     32  C   UNL     1      31.047 -69.184  -4.374  1.00  0.00     0.338 C 
ATOM     33  O   UNL     1      29.938 -69.632  -3.971  1.00  0.00    -0.246 OA
BRANCH  32  34
ATOM     34  C   UNL     1      31.465 -69.380  -5.778  1.00  0.00     0.060 A 
ATOM     35  C   UNL     1      32.178 -70.532  -6.163  1.00  0.00     0.015 A 
ATOM     36  C   UNL     1      31.153 -68.412  -6.751  1.00  0.00     0.015 A 
ATOM     37  C   UNL     1      32.573 -70.706  -7.492  1.00  0.00     0.001 A 
ATOM     38  C   UNL     1      31.549 -68.593  -8.080  1.00  0.00     0.001 A 
ATOM     39  C   UNL     1      32.260 -69.737  -8.449  1.00  0.00     0.000 A 
ENDBRANCH  32  34
ENDBRANCH  31  32
ENDBRANCH  30  31
ENDBRANCH   8  30
TORSDOF 12
ENDMDL
MODEL 6
REMARK VINA RESULT:    -5.328      2.953      6.258
REMARK INTER + INTRA:          -9.800
REMARK INTER:                  -8.400
REMARK INTRA:                  -1.399
REMARK UNBOUND:                -1.513
REMARK SMILES C[C@]12C[C@H](O)[C@@H]3C[C@@]1(O[C@H]1O[C@H](CO)[C@H](O)[C@H](O)[C@@H]1O)[C@]3(COC(=O)c1ccccc1)C(=O)O2
REMARK SMILES IDX 1 1 2 2 3 3 4 4 6 5 7 6 8 7 21 8 32 9 33 10 34 11 9 12 10 13
REMARK SMILES IDX 19 14 11 15 17 16 12 17 15 18 20 19 18 21 13 23 14 24 16 26
REMARK SMILES IDX 5 28 22 30 23 31 24 32 25 33 26 34 27 35 31 36 28 37 30 38
REMARK SMILES IDX 29 39
REMARK H PARENT 20 20 18 22 14 25 16 27 5 29
REMARK Flexibility Score: inf
ROOT
ATOM      1  C   UNL     1      36.234 -68.736  -5.010  1.00  0.00     0.060 C 
ATOM      2  C   UNL     1      36.670 -67.302  -4.711  1.00  0.00     0.142 C 
ATOM      3  C   UNL     1      37.549 -67.225  -3.412  1.00  0.00     0.083 C 
ATOM      4  C   UNL     1      37.708 -65.731  -2.942  1.00  0.00     0.123 C 
ATOM      5  C   UNL     1      36.466 -64.879  -3.379  1.00  0.00     0.045 C 
ATOM      6  C   UNL     1      35.215 -65.753  -3.186  1.00  0.00     0.049 C 
ATOM      7  C   UNL     1      35.469 -66.260  -4.631  1.00  0.00     0.131 C 
ATOM      8  C   UNL     1      36.245 -64.967  -4.923  1.00  0.00     0.140 C 
ATOM      9  C   UNL     1      37.362 -65.433  -5.797  1.00  0.00     0.319 C 
ATOM     10  O   UNL     1      38.110 -64.686  -6.482  1.00  0.00    -0.251 OA
ATOM     11  O   UNL     1      37.488 -66.802  -5.758  1.00  0.00    -0.456 OA
ENDROOT
BRANCH   7  12
ATOM     12  O   UNL     1      34.430 -66.524  -5.582  1.00  0.00    -0.338 OA
BRANCH  12  13
ATOM     13  C   UNL     1      33.205 -67.019  -5.056  1.00  0.00     0.282 C 
ATOM     14  C   UNL     1      32.660 -68.235  -5.856  1.00  0.00     0.202 C 
ATOM     15  O   UNL     1      32.245 -65.972  -5.002  1.00  0.00    -0.341 OA
ATOM     16  C   UNL     1      32.132 -67.798  -7.237  1.00  0.00     0.179 C 
ATOM     17  C   UNL     1      31.905 -65.491  -6.292  1.00  0.00     0.178 C 
ATOM     18  C   UNL     1      31.192 -66.590  -7.107  1.00  0.00     0.177 C 
BRANCH  14  19
ATOM     19  O   UNL     1      31.628 -68.853  -5.129  1.00  0.00    -0.385 OA
ATOM     20  H   UNL     1      32.021 -69.150  -4.268  1.00  0.00     0.211 HD
ENDBRANCH  14  19
BRANCH  16  21
ATOM     21  O   UNL     1      31.464 -68.859  -7.870  1.00  0.00    -0.387 OA
ATOM     22  H   UNL     1      31.726 -69.689  -7.392  1.00  0.00     0.211 HD
ENDBRANCH  16  21
BRANCH  17  23
ATOM     23  C   UNL     1      31.006 -64.259  -6.146  1.00  0.00     0.191 C 
BRANCH  23  24
ATOM     24  O   UNL     1      30.065 -64.478  -5.132  1.00  0.00    -0.394 OA
ATOM     25  H   UNL     1      29.445 -63.703  -5.156  1.00  0.00     0.210 HD
ENDBRANCH  23  24
ENDBRANCH  17  23
BRANCH  18  26
ATOM     26  O   UNL     1      29.995 -66.960  -6.468  1.00  0.00    -0.387 OA
ATOM     27  H   UNL     1      29.571 -66.124  -6.141  1.00  0.00     0.211 HD
ENDBRANCH  18  26
ENDBRANCH  12  13
ENDBRANCH   7  12
BRANCH   4  28
ATOM     28  O   UNL     1      37.919 -65.650  -1.555  1.00  0.00    -0.393 OA
ATOM     29  H   UNL     1      38.886 -65.785  -1.385  1.00  0.00     0.210 HD
ENDBRANCH   4  28
BRANCH   8  30
ATOM     30  C   UNL     1      35.427 -63.797  -5.513  1.00  0.00     0.255 C 
BRANCH  30  31
ATOM     31  O   UNL     1      36.252 -62.644  -5.650  1.00  0.00    -0.461 OA
BRANCH  31  32
ATOM     32  C   UNL     1      35.991 -61.439  -4.993  1.00  0.00     0.338 C 
ATOM     33  O   UNL     1      35.731 -60.398  -5.658  1.00  0.00    -0.246 OA
BRANCH  32  34
ATOM     34  C   UNL     1      36.023 -61.391  -3.516  1.00  0.00     0.060 A 
ATOM     35  C   UNL     1      34.829 -61.394  -2.769  1.00  0.00     0.015 A 
ATOM     36  C   UNL     1      37.254 -61.341  -2.835  1.00  0.00     0.015 A 
ATOM     37  C   UNL     1      34.869 -61.343  -1.373  1.00  0.00     0.001 A 
ATOM     38  C   UNL     1      37.288 -61.292  -1.439  1.00  0.00     0.001 A 
ATOM     39  C   UNL     1      36.098 -61.291  -0.708  1.00  0.00     0.000 A 
ENDBRANCH  32  34
ENDBRANCH  31  32
ENDBRANCH  30  31
ENDBRANCH   8  30
TORSDOF 12
ENDMDL
MODEL 7
REMARK VINA RESULT:    -5.300      2.822      5.809
REMARK INTER + INTRA:          -9.756
REMARK INTER:                  -8.625
REMARK INTRA:                  -1.131
REMARK UNBOUND:                -1.513
REMARK SMILES C[C@]12C[C@H](O)[C@@H]3C[C@@]1(O[C@H]1O[C@H](CO)[C@H](O)[C@H](O)[C@@H]1O)[C@]3(COC(=O)c1ccccc1)C(=O)O2
REMARK SMILES IDX 1 1 2 2 3 3 4 4 6 5 7 6 8 7 21 8 32 9 33 10 34 11 9 12 10 13
REMARK SMILES IDX 19 14 11 15 17 16 12 17 15 18 20 19 18 21 13 23 14 24 16 26
REMARK SMILES IDX 5 28 22 30 23 31 24 32 25 33 26 34 27 35 31 36 28 37 30 38
REMARK SMILES IDX 29 39
REMARK H PARENT 20 20 18 22 14 25 16 27 5 29
REMARK Flexibility Score: inf
ROOT
ATOM      1  C   UNL     1      37.133 -63.276  -2.866  1.00  0.00     0.060 C 
ATOM      2  C   UNL     1      37.014 -64.723  -3.341  1.00  0.00     0.142 C 
ATOM      3  C   UNL     1      38.328 -65.535  -3.056  1.00  0.00     0.083 C 
ATOM      4  C   UNL     1      38.312 -66.902  -3.835  1.00  0.00     0.123 C 
ATOM      5  C   UNL     1      37.458 -66.783  -5.144  1.00  0.00     0.045 C 
ATOM      6  C   UNL     1      37.744 -65.402  -5.759  1.00  0.00     0.049 C 
ATOM      7  C   UNL     1      36.588 -64.875  -4.867  1.00  0.00     0.131 C 
ATOM      8  C   UNL     1      36.008 -66.297  -4.822  1.00  0.00     0.140 C 
ATOM      9  C   UNL     1      35.493 -66.407  -3.424  1.00  0.00     0.319 C 
ATOM     10  O   UNL     1      34.715 -67.303  -3.004  1.00  0.00    -0.251 OA
ATOM     11  O   UNL     1      35.986 -65.397  -2.631  1.00  0.00    -0.456 OA
ENDROOT
BRANCH   7  12
ATOM     12  O   UNL     1      35.638 -63.889  -5.288  1.00  0.00    -0.338 OA
BRANCH  12  13
ATOM     13  C   UNL     1      35.913 -63.234  -6.520  1.00  0.00     0.282 C 
ATOM     14  C   UNL     1      36.092 -61.699  -6.354  1.00  0.00     0.202 C 
ATOM     15  O   UNL     1      34.891 -63.530  -7.462  1.00  0.00    -0.341 OA
ATOM     16  C   UNL     1      34.744 -61.014  -6.050  1.00  0.00     0.179 C 
ATOM     17  C   UNL     1      33.631 -63.014  -7.064  1.00  0.00     0.178 C 
ATOM     18  C   UNL     1      33.661 -61.473  -7.040  1.00  0.00     0.177 C 
BRANCH  14  19
ATOM     19  O   UNL     1      36.642 -61.158  -7.528  1.00  0.00    -0.385 OA
ATOM     20  H   UNL     1      37.390 -60.568  -7.249  1.00  0.00     0.211 HD
ENDBRANCH  14  19
BRANCH  16  21
ATOM     21  O   UNL     1      34.876 -59.617  -6.098  1.00  0.00    -0.387 OA
ATOM     22  H   UNL     1      34.914 -59.301  -5.158  1.00  0.00     0.211 HD
ENDBRANCH  16  21
BRANCH  17  23
ATOM     23  C   UNL     1      32.555 -63.518  -8.032  1.00  0.00     0.191 C 
BRANCH  23  24
ATOM     24  O   UNL     1      31.472 -62.630  -8.039  1.00  0.00    -0.394 OA
ATOM     25  H   UNL     1      31.321 -62.383  -8.989  1.00  0.00     0.210 HD
ENDBRANCH  23  24
ENDBRANCH  17  23
BRANCH  18  26
ATOM     26  O   UNL     1      33.928 -60.978  -8.329  1.00  0.00    -0.387 OA
ATOM     27  H   UNL     1      33.985 -59.989  -8.253  1.00  0.00     0.211 HD
ENDBRANCH  18  26
ENDBRANCH  12  13
ENDBRANCH   7  12
BRANCH   4  28
ATOM     28  O   UNL     1      39.615 -67.347  -4.116  1.00  0.00    -0.393 OA
ATOM     29  H   UNL     1      39.931 -67.877  -3.340  1.00  0.00     0.210 HD
ENDBRANCH   4  28
BRANCH   8  30
ATOM     30  C   UNL     1      34.967 -66.646  -5.907  1.00  0.00     0.255 C 
BRANCH  30  31
ATOM     31  O   UNL     1      33.670 -66.223  -5.495  1.00  0.00    -0.461 OA
BRANCH  31  32
ATOM     32  C   UNL     1      32.495 -66.847  -5.922  1.00  0.00     0.338 C 
ATOM     33  O   UNL     1      31.416 -66.194  -5.978  1.00  0.00    -0.246 OA
BRANCH  32  34
ATOM     34  C   UNL     1      32.523 -68.274  -6.305  1.00  0.00     0.060 A 
ATOM     35  C   UNL     1      32.510 -68.657  -7.660  1.00  0.00     0.015 A 
ATOM     36  C   UNL     1      32.563 -69.273  -5.314  1.00  0.00     0.015 A 
ATOM     37  C   UNL     1      32.532 -70.009  -8.013  1.00  0.00     0.001 A 
ATOM     38  C   UNL     1      32.587 -70.624  -5.672  1.00  0.00     0.001 A 
ATOM     39  C   UNL     1      32.569 -70.992  -7.019  1.00  0.00     0.000 A 
ENDBRANCH  32  34
ENDBRANCH  31  32
ENDBRANCH  30  31
ENDBRANCH   8  30
TORSDOF 12
ENDMDL
MODEL 8
REMARK VINA RESULT:    -5.287      3.064      6.868
REMARK INTER + INTRA:          -9.736
REMARK INTER:                  -8.920
REMARK INTRA:                  -0.816
REMARK UNBOUND:                -1.513
REMARK SMILES C[C@]12C[C@H](O)[C@@H]3C[C@@]1(O[C@H]1O[C@H](CO)[C@H](O)[C@H](O)[C@@H]1O)[C@]3(COC(=O)c1ccccc1)C(=O)O2
REMARK SMILES IDX 1 1 2 2 3 3 4 4 6 5 7 6 8 7 21 8 32 9 33 10 34 11 9 12 10 13
REMARK SMILES IDX 19 14 11 15 17 16 12 17 15 18 20 19 18 21 13 23 14 24 16 26
REMARK SMILES IDX 5 28 22 30 23 31 24 32 25 33 26 34 27 35 31 36 28 37 30 38
REMARK SMILES IDX 29 39
REMARK H PARENT 20 20 18 22 14 25 16 27 5 29
REMARK Flexibility Score: inf
ROOT
ATOM      1  C   UNL     1      36.868 -60.501  -6.786  1.00  0.00     0.060 C 
ATOM      2  C   UNL     1      36.088 -61.468  -7.676  1.00  0.00     0.142 C 
ATOM      3  C   UNL     1      35.168 -60.701  -8.693  1.00  0.00     0.083 C 
ATOM      4  C   UNL     1      34.143 -61.691  -9.362  1.00  0.00     0.123 C 
ATOM      5  C   UNL     1      33.818 -62.885  -8.399  1.00  0.00     0.045 C 
ATOM      6  C   UNL     1      33.715 -62.315  -6.974  1.00  0.00     0.049 C 
ATOM      7  C   UNL     1      35.246 -62.555  -6.876  1.00  0.00     0.131 C 
ATOM      8  C   UNL     1      35.124 -63.627  -7.969  1.00  0.00     0.140 C 
ATOM      9  C   UNL     1      36.370 -63.437  -8.769  1.00  0.00     0.319 C 
ATOM     10  O   UNL     1      36.820 -64.251  -9.618  1.00  0.00    -0.251 OA
ATOM     11  O   UNL     1      36.977 -62.239  -8.470  1.00  0.00    -0.456 OA
ENDROOT
BRANCH   7  12
ATOM     12  O   UNL     1      35.909 -63.024  -5.695  1.00  0.00    -0.338 OA
BRANCH  12  13
ATOM     13  C   UNL     1      35.152 -62.990  -4.492  1.00  0.00     0.282 C 
ATOM     14  C   UNL     1      35.930 -62.337  -3.315  1.00  0.00     0.202 C 
ATOM     15  O   UNL     1      34.724 -64.302  -4.154  1.00  0.00    -0.341 OA
ATOM     16  C   UNL     1      37.064 -63.258  -2.822  1.00  0.00     0.179 C 
ATOM     17  C   UNL     1      35.813 -65.162  -3.859  1.00  0.00     0.178 C 
ATOM     18  C   UNL     1      36.548 -64.686  -2.590  1.00  0.00     0.177 C 
BRANCH  14  19
ATOM     19  O   UNL     1      35.046 -62.068  -2.256  1.00  0.00    -0.385 OA
ATOM     20  H   UNL     1      34.645 -62.935  -1.989  1.00  0.00     0.211 HD
ENDBRANCH  14  19
BRANCH  16  21
ATOM     21  O   UNL     1      37.632 -62.755  -1.640  1.00  0.00    -0.387 OA
ATOM     22  H   UNL     1      36.916 -62.763  -0.952  1.00  0.00     0.211 HD
ENDBRANCH  16  21
BRANCH  17  23
ATOM     23  C   UNL     1      35.289 -66.590  -3.677  1.00  0.00     0.191 C 
BRANCH  23  24
ATOM     24  O   UNL     1      33.975 -66.553  -3.196  1.00  0.00    -0.394 OA
ATOM     25  H   UNL     1      34.041 -66.432  -2.213  1.00  0.00     0.210 HD
ENDBRANCH  23  24
ENDBRANCH  17  23
BRANCH  18  26
ATOM     26  O   UNL     1      35.675 -64.724  -1.488  1.00  0.00    -0.387 OA
ATOM     27  H   UNL     1      35.852 -63.907  -0.950  1.00  0.00     0.211 HD
ENDBRANCH  18  26
ENDBRANCH  12  13
ENDBRANCH   7  12
BRANCH   4  28
ATOM     28  O   UNL     1      32.972 -61.024  -9.760  1.00  0.00    -0.393 OA
ATOM     29  H   UNL     1      33.074 -60.065  -9.531  1.00  0.00     0.210 HD
ENDBRANCH   4  28
BRANCH   8  30
ATOM     30  C   UNL     1      34.899 -65.076  -7.485  1.00  0.00     0.255 C 
BRANCH  30  31
ATOM     31  O   UNL     1      33.519 -65.416  -7.582  1.00  0.00    -0.461 OA
BRANCH  31  32
ATOM     32  C   UNL     1      32.877 -66.263  -6.675  1.00  0.00     0.338 C 
ATOM     33  O   UNL     1      32.368 -65.794  -5.620  1.00  0.00    -0.246 OA
BRANCH  32  34
ATOM     34  C   UNL     1      32.802 -67.712  -6.958  1.00  0.00     0.060 A 
ATOM     35  C   UNL     1      31.722 -68.249  -7.685  1.00  0.00     0.015 A 
ATOM     36  C   UNL     1      33.815 -68.576  -6.501  1.00  0.00     0.015 A 
ATOM     37  C   UNL     1      31.657 -69.621  -7.943  1.00  0.00     0.001 A 
ATOM     38  C   UNL     1      33.746 -69.947  -6.764  1.00  0.00     0.001 A 
ATOM     39  C   UNL     1      32.667 -70.470  -7.482  1.00  0.00     0.000 A 
ENDBRANCH  32  34
ENDBRANCH  31  32
ENDBRANCH  30  31
ENDBRANCH   8  30
TORSDOF 12
ENDMDL
MODEL 9
REMARK VINA RESULT:    -5.276      3.421      7.335
REMARK INTER + INTRA:          -9.719
REMARK INTER:                  -8.607
REMARK INTRA:                  -1.112
REMARK UNBOUND:                -1.513
REMARK SMILES C[C@]12C[C@H](O)[C@@H]3C[C@@]1(O[C@H]1O[C@H](CO)[C@H](O)[C@H](O)[C@@H]1O)[C@]3(COC(=O)c1ccccc1)C(=O)O2
REMARK SMILES IDX 1 1 2 2 3 3 4 4 6 5 7 6 8 7 21 8 32 9 33 10 34 11 9 12 10 13
REMARK SMILES IDX 19 14 11 15 17 16 12 17 15 18 20 19 18 21 13 23 14 24 16 26
REMARK SMILES IDX 5 28 22 30 23 31 24 32 25 33 26 34 27 35 31 36 28 37 30 38
REMARK SMILES IDX 29 39
REMARK H PARENT 20 20 18 22 14 25 16 27 5 29
REMARK Flexibility Score: inf
ROOT
ATOM      1  C   UNL     1      32.167 -63.463  -8.035  1.00  0.00     0.060 C 
ATOM      2  C   UNL     1      33.347 -62.497  -8.131  1.00  0.00     0.142 C 
ATOM      3  C   UNL     1      33.336 -61.707  -9.489  1.00  0.00     0.083 C 
ATOM      4  C   UNL     1      34.713 -60.976  -9.712  1.00  0.00     0.123 C 
ATOM      5  C   UNL     1      35.873 -61.752  -8.998  1.00  0.00     0.045 C 
ATOM      6  C   UNL     1      35.613 -63.256  -9.195  1.00  0.00     0.049 C 
ATOM      7  C   UNL     1      34.766 -63.177  -7.896  1.00  0.00     0.131 C 
ATOM      8  C   UNL     1      35.568 -61.936  -7.477  1.00  0.00     0.140 C 
ATOM      9  C   UNL     1      34.538 -61.072  -6.828  1.00  0.00     0.319 C 
ATOM     10  O   UNL     1      34.780 -60.063  -6.113  1.00  0.00    -0.251 OA
ATOM     11  O   UNL     1      33.266 -61.511  -7.114  1.00  0.00    -0.456 OA
ENDROOT
BRANCH   7  12
ATOM     12  O   UNL     1      34.742 -64.200  -6.893  1.00  0.00    -0.338 OA
BRANCH  12  13
ATOM     13  C   UNL     1      35.144 -65.499  -7.308  1.00  0.00     0.282 C 
ATOM     14  C   UNL     1      34.087 -66.588  -6.970  1.00  0.00     0.202 C 
ATOM     15  O   UNL     1      36.406 -65.819  -6.738  1.00  0.00    -0.341 OA
ATOM     16  C   UNL     1      34.038 -66.860  -5.454  1.00  0.00     0.179 C 
ATOM     17  C   UNL     1      36.347 -65.904  -5.323  1.00  0.00     0.178 C 
ATOM     18  C   UNL     1      35.450 -67.081  -4.890  1.00  0.00     0.177 C 
BRANCH  14  19
ATOM     19  O   UNL     1      34.399 -67.776  -7.653  1.00  0.00    -0.385 OA
ATOM     20  H   UNL     1      34.941 -67.519  -8.444  1.00  0.00     0.211 HD
ENDBRANCH  14  19
BRANCH  16  21
ATOM     21  O   UNL     1      33.231 -67.976  -5.176  1.00  0.00    -0.387 OA
ATOM     22  H   UNL     1      33.836 -68.761  -5.127  1.00  0.00     0.211 HD
ENDBRANCH  16  21
BRANCH  17  23
ATOM     23  C   UNL     1      37.767 -66.077  -4.773  1.00  0.00     0.191 C 
BRANCH  23  24
ATOM     24  O   UNL     1      38.591 -66.635  -5.758  1.00  0.00    -0.394 OA
ATOM     25  H   UNL     1      38.006 -66.818  -6.539  1.00  0.00     0.210 HD
ENDBRANCH  23  24
ENDBRANCH  17  23
BRANCH  18  26
ATOM     26  O   UNL     1      35.987 -68.292  -5.361  1.00  0.00    -0.387 OA
ATOM     27  H   UNL     1      35.873 -68.961  -4.635  1.00  0.00     0.211 HD
ENDBRANCH  18  26
ENDBRANCH  12  13
ENDBRANCH   7  12
BRANCH   4  28
ATOM     28  O   UNL     1      34.983 -60.799 -11.079  1.00  0.00    -0.393 OA
ATOM     29  H   UNL     1      34.197 -61.119 -11.590  1.00  0.00     0.210 HD
ENDBRANCH   4  28
BRANCH   8  30
ATOM     30  C   UNL     1      36.818 -62.191  -6.607  1.00  0.00     0.255 C 
BRANCH  30  31
ATOM     31  O   UNL     1      36.461 -62.202  -5.228  1.00  0.00    -0.461 OA
BRANCH  31  32
ATOM     32  C   UNL     1      37.282 -61.684  -4.224  1.00  0.00     0.338 C 
ATOM     33  O   UNL     1      38.487 -61.403  -4.473  1.00  0.00    -0.246 OA
BRANCH  32  34
ATOM     34  C   UNL     1      36.732 -61.469  -2.869  1.00  0.00     0.060 A 
ATOM     35  C   UNL     1      35.348 -61.571  -2.629  1.00  0.00     0.015 A 
ATOM     36  C   UNL     1      37.590 -61.159  -1.797  1.00  0.00     0.015 A 
ATOM     37  C   UNL     1      34.836 -61.361  -1.346  1.00  0.00     0.001 A 
ATOM     38  C   UNL     1      37.072 -60.953  -0.515  1.00  0.00     0.001 A 
ATOM     39  C   UNL     1      35.697 -61.052  -0.290  1.00  0.00     0.000 A 
ENDBRANCH  32  34
ENDBRANCH  31  32
ENDBRANCH  30  31
ENDBRANCH   8  30
TORSDOF 12
ENDMDL
