MODEL 1
REMARK VINA RESULT:    -0.472      0.000      0.000
REMARK INTER + INTRA:          -0.849
REMARK INTER:                  -0.637
REMARK INTRA:                  -0.212
REMARK UNBOUND:                -0.212
REMARK SMILES CCCCCCC=CC(=O)[O-]
REMARK SMILES IDX 5 1 6 2 7 3 8 4 9 5 10 6 11 7 4 8 3 9 2 10 1 11
REMARK H PARENT
REMARK Flexibility Score: inf
ROOT
ATOM      1  C   UNL     1     -18.301  17.084  18.992  1.00  0.00     0.004 C 
ENDROOT
BRANCH   1   2
ATOM      2  C   UNL     1     -19.125  16.401  17.894  1.00  0.00     0.027 C 
BRANCH   2   3
ATOM      3  C   UNL     1     -19.105  17.200  16.623  1.00  0.00    -0.025 C 
ATOM      4  C   UNL     1     -18.872  16.622  15.438  1.00  0.00     0.020 C 
BRANCH   4   5
ATOM      5  C   UNL     1     -18.861  17.383  14.178  1.00  0.00     0.064 C 
ATOM      6  O   UNL     1     -19.125  18.615  14.159  1.00  0.00    -0.545 OA
ATOM      7  O   UNL     1     -18.556  16.731  12.991  1.00  0.00    -0.545 OA
ENDBRANCH   4   5
ENDBRANCH   2   3
ENDBRANCH   1   2
BRANCH   1   8
ATOM      8  C   UNL     1     -19.125  18.163  19.706  1.00  0.00     0.000 C 
BRANCH   8   9
ATOM      9  C   UNL     1     -18.473  18.560  21.040  1.00  0.00    -0.000 C 
BRANCH   9  10
ATOM     10  C   UNL     1     -18.840  19.987  21.475  1.00  0.00    -0.003 C 
ATOM     11  C   UNL     1     -18.772  20.991  20.324  1.00  0.00     0.004 C 
ENDBRANCH   9  10
ENDBRANCH   8   9
ENDBRANCH   1   8
TORSDOF 6
ENDMDL
MODEL 2
REMARK VINA RESULT:     0.263      2.543      4.206
REMARK INTER + INTRA:           0.143
REMARK INTER:                   0.342
REMARK INTRA:                  -0.199
REMARK UNBOUND:                -0.212
REMARK SMILES CCCCCCC=CC(=O)[O-]
REMARK SMILES IDX 5 1 6 2 7 3 8 4 9 5 10 6 11 7 4 8 3 9 2 10 1 11
REMARK H PARENT
REMARK Flexibility Score: inf
ROOT
ATOM      1  C   UNL     1     -18.725  16.828  14.761  1.00  0.00     0.004 C 
ENDROOT
BRANCH   1   2
ATOM      2  C   UNL     1     -19.119  18.008  13.864  1.00  0.00     0.027 C 
BRANCH   2   3
ATOM      3  C   UNL     1     -19.001  17.649  12.411  1.00  0.00    -0.025 C 
ATOM      4  C   UNL     1     -17.876  17.125  11.909  1.00  0.00     0.020 C 
BRANCH   4   5
ATOM      5  C   UNL     1     -17.743  16.753  10.492  1.00  0.00     0.064 C 
ATOM      6  O   UNL     1     -18.375  17.371   9.594  1.00  0.00    -0.545 OA
ATOM      7  O   UNL     1     -16.907  15.703  10.138  1.00  0.00    -0.545 OA
ENDBRANCH   4   5
ENDBRANCH   2   3
ENDBRANCH   1   2
BRANCH   1   8
ATOM      8  C   UNL     1     -19.125  17.088  16.218  1.00  0.00     0.000 C 
BRANCH   8   9
ATOM      9  C   UNL     1     -19.105  15.787  17.034  1.00  0.00    -0.000 C 
BRANCH   9  10
ATOM     10  C   UNL     1     -18.867  16.033  18.532  1.00  0.00    -0.003 C 
ATOM     11  C   UNL     1     -18.916  17.514  18.903  1.00  0.00     0.004 C 
ENDBRANCH   9  10
ENDBRANCH   8   9
ENDBRANCH   1   8
TORSDOF 6
ENDMDL
