MODEL 1
REMARK VINA RESULT:    -6.398      0.000      0.000
REMARK INTER + INTRA:          -6.959
REMARK INTER:                  -6.959
REMARK INTRA:                   0.000
REMARK UNBOUND:                 0.000
REMARK SMILES Cc1cc(O)c2c(c1)C(=O)c1cc(O)cc(O)c1C2=O
REMARK SMILES IDX 1 1 2 2 8 3 7 4 6 5 4 6 3 7 19 8 20 9 18 10 11 11 9 12 10 13
REMARK SMILES IDX 12 14 13 15 15 16 16 17 5 18 17 20 14 22
REMARK H PARENT 5 19 17 21 14 23
REMARK Flexibility Score: inf
ROOT
ATOM      1  C   UNL     1      12.917  38.733 127.657  1.00  0.00     0.044 C 
ATOM      2  C   UNL     1      13.549  38.272 126.376  1.00  0.00    -0.047 A 
ATOM      3  C   UNL     1      13.376  36.954 125.940  1.00  0.00     0.016 A 
ATOM      4  C   UNL     1      13.999  36.499 124.766  1.00  0.00     0.038 A 
ATOM      5  C   UNL     1      14.833  37.371 124.030  1.00  0.00     0.076 A 
ATOM      6  C   UNL     1      14.968  38.720 124.452  1.00  0.00     0.127 A 
ATOM      7  C   UNL     1      14.354  39.142 125.634  1.00  0.00     0.050 A 
ATOM      8  C   UNL     1      15.591  36.813 122.879  1.00  0.00     0.201 C 
ATOM      9  O   UNL     1      16.706  37.307 122.565  1.00  0.00    -0.288 OA
ATOM     10  C   UNL     1      15.124  35.563 122.226  1.00  0.00     0.076 A 
ATOM     11  C   UNL     1      14.291  34.694 122.965  1.00  0.00     0.041 A 
ATOM     12  C   UNL     1      13.785  35.111 124.294  1.00  0.00     0.194 C 
ATOM     13  O   UNL     1      13.148  34.292 125.013  1.00  0.00    -0.289 OA
ATOM     14  C   UNL     1      13.943  33.441 122.435  1.00  0.00     0.059 A 
ATOM     15  C   UNL     1      14.399  33.051 121.176  1.00  0.00     0.120 A 
ATOM     16  C   UNL     1      15.191  33.923 120.425  1.00  0.00     0.093 A 
ATOM     17  C   UNL     1      15.535  35.184 120.920  1.00  0.00     0.131 A 
ENDROOT
BRANCH   6  18
ATOM     18  O   UNL     1      15.672  39.675 123.716  1.00  0.00    -0.507 OA
ATOM     19  H   UNL     1      16.090  40.499 124.125  1.00  0.00     0.293 HD
ENDBRANCH   6  18
BRANCH  17  20
ATOM     20  O   UNL     1      16.250  36.036 120.077  1.00  0.00    -0.507 OA
ATOM     21  H   UNL     1      15.968  36.984 119.869  1.00  0.00     0.293 HD
ENDBRANCH  17  20
BRANCH  15  22
ATOM     22  O   UNL     1      14.052  31.798 120.677  1.00  0.00    -0.508 OA
ATOM     23  H   UNL     1      13.992  30.986 121.280  1.00  0.00     0.293 HD
ENDBRANCH  15  22
TORSDOF 3
ENDMDL
MODEL 2
REMARK VINA RESULT:    -6.267      2.347      5.235
REMARK INTER + INTRA:          -6.817
REMARK INTER:                  -6.817
REMARK INTRA:                   0.000
REMARK UNBOUND:                 0.000
REMARK SMILES Cc1cc(O)c2c(c1)C(=O)c1cc(O)cc(O)c1C2=O
REMARK SMILES IDX 1 1 2 2 8 3 7 4 6 5 4 6 3 7 19 8 20 9 18 10 11 11 9 12 10 13
REMARK SMILES IDX 12 14 13 15 15 16 16 17 5 18 17 20 14 22
REMARK H PARENT 5 19 17 21 14 23
REMARK Flexibility Score: inf
ROOT
ATOM      1  C   UNL     1      12.544  32.745 124.203  1.00  0.00     0.044 C 
ATOM      2  C   UNL     1      13.443  33.519 123.283  1.00  0.00    -0.047 A 
ATOM      3  C   UNL     1      13.901  34.789 123.649  1.00  0.00     0.016 A 
ATOM      4  C   UNL     1      14.707  35.539 122.776  1.00  0.00     0.038 A 
ATOM      5  C   UNL     1      15.036  35.021 121.504  1.00  0.00     0.076 A 
ATOM      6  C   UNL     1      14.606  33.714 121.156  1.00  0.00     0.127 A 
ATOM      7  C   UNL     1      13.789  32.996 122.033  1.00  0.00     0.050 A 
ATOM      8  C   UNL     1      15.763  35.904 120.553  1.00  0.00     0.201 C 
ATOM      9  O   UNL     1      15.589  35.768 119.313  1.00  0.00    -0.288 OA
ATOM     10  C   UNL     1      16.542  37.059 121.069  1.00  0.00     0.076 A 
ATOM     11  C   UNL     1      16.210  37.574 122.342  1.00  0.00     0.041 A 
ATOM     12  C   UNL     1      15.215  36.870 123.185  1.00  0.00     0.194 C 
ATOM     13  O   UNL     1      14.819  37.392 124.264  1.00  0.00    -0.289 OA
ATOM     14  C   UNL     1      16.827  38.748 122.804  1.00  0.00     0.059 A 
ATOM     15  C   UNL     1      17.779  39.404 122.024  1.00  0.00     0.120 A 
ATOM     16  C   UNL     1      18.140  38.876 120.782  1.00  0.00     0.093 A 
ATOM     17  C   UNL     1      17.556  37.699 120.307  1.00  0.00     0.131 A 
ENDROOT
BRANCH   6  18
ATOM     18  O   UNL     1      14.990  33.083 119.971  1.00  0.00    -0.507 OA
ATOM     19  H   UNL     1      15.797  32.478 119.896  1.00  0.00     0.293 HD
ENDBRANCH   6  18
BRANCH  17  20
ATOM     20  O   UNL     1      18.032  37.182 119.100  1.00  0.00    -0.507 OA
ATOM     21  H   UNL     1      17.779  37.553 118.195  1.00  0.00     0.293 HD
ENDBRANCH  17  20
BRANCH  15  22
ATOM     22  O   UNL     1      18.368  40.574 122.498  1.00  0.00    -0.508 OA
ATOM     23  H   UNL     1      19.121  40.551 123.175  1.00  0.00     0.293 HD
ENDBRANCH  15  22
TORSDOF 3
ENDMDL
MODEL 3
REMARK VINA RESULT:    -6.146      1.608      6.101
REMARK INTER + INTRA:          -6.685
REMARK INTER:                  -6.685
REMARK INTRA:                   0.000
REMARK UNBOUND:                 0.000
REMARK SMILES Cc1cc(O)c2c(c1)C(=O)c1cc(O)cc(O)c1C2=O
REMARK SMILES IDX 1 1 2 2 8 3 7 4 6 5 4 6 3 7 19 8 20 9 18 10 11 11 9 12 10 13
REMARK SMILES IDX 12 14 13 15 15 16 16 17 5 18 17 20 14 22
REMARK H PARENT 5 19 17 21 14 23
REMARK Flexibility Score: inf
ROOT
ATOM      1  C   UNL     1      17.957  35.409 119.087  1.00  0.00     0.044 C 
ATOM      2  C   UNL     1      16.934  35.256 120.174  1.00  0.00    -0.047 A 
ATOM      3  C   UNL     1      16.982  36.078 121.305  1.00  0.00     0.016 A 
ATOM      4  C   UNL     1      16.055  35.914 122.349  1.00  0.00     0.038 A 
ATOM      5  C   UNL     1      15.083  34.892 122.272  1.00  0.00     0.076 A 
ATOM      6  C   UNL     1      15.011  34.092 121.102  1.00  0.00     0.127 A 
ATOM      7  C   UNL     1      15.956  34.261 120.086  1.00  0.00     0.050 A 
ATOM      8  C   UNL     1      14.218  34.654 123.458  1.00  0.00     0.201 C 
ATOM      9  O   UNL     1      13.779  33.497 123.692  1.00  0.00    -0.288 OA
ATOM     10  C   UNL     1      14.030  35.734 124.461  1.00  0.00     0.076 A 
ATOM     11  C   UNL     1      15.005  36.754 124.536  1.00  0.00     0.041 A 
ATOM     12  C   UNL     1      16.092  36.810 123.530  1.00  0.00     0.194 C 
ATOM     13  O   UNL     1      17.035  37.637 123.664  1.00  0.00    -0.289 OA
ATOM     14  C   UNL     1      14.937  37.713 125.559  1.00  0.00     0.059 A 
ATOM     15  C   UNL     1      13.905  37.678 126.497  1.00  0.00     0.120 A 
ATOM     16  C   UNL     1      12.916  36.695 126.404  1.00  0.00     0.093 A 
ATOM     17  C   UNL     1      12.950  35.742 125.383  1.00  0.00     0.131 A 
ENDROOT
BRANCH   6  18
ATOM     18  O   UNL     1      14.005  33.145 120.895  1.00  0.00    -0.507 OA
ATOM     19  H   UNL     1      13.587  32.963 119.993  1.00  0.00     0.293 HD
ENDBRANCH   6  18
BRANCH  17  20
ATOM     20  O   UNL     1      11.880  34.848 125.299  1.00  0.00    -0.507 OA
ATOM     21  H   UNL     1      11.948  33.932 124.877  1.00  0.00     0.293 HD
ENDBRANCH  17  20
BRANCH  15  22
ATOM     22  O   UNL     1      13.866  38.631 127.512  1.00  0.00    -0.508 OA
ATOM     23  H   UNL     1      13.770  38.366 128.485  1.00  0.00     0.293 HD
ENDBRANCH  15  22
TORSDOF 3
ENDMDL
MODEL 4
REMARK VINA RESULT:    -6.041     11.549     13.640
REMARK INTER + INTRA:          -6.570
REMARK INTER:                  -6.570
REMARK INTRA:                   0.000
REMARK UNBOUND:                 0.000
REMARK SMILES Cc1cc(O)c2c(c1)C(=O)c1cc(O)cc(O)c1C2=O
REMARK SMILES IDX 1 1 2 2 8 3 7 4 6 5 4 6 3 7 19 8 20 9 18 10 11 11 9 12 10 13
REMARK SMILES IDX 12 14 13 15 15 16 16 17 5 18 17 20 14 22
REMARK H PARENT 5 19 17 21 14 23
REMARK Flexibility Score: inf
ROOT
ATOM      1  C   UNL     1      24.959  42.253 128.244  1.00  0.00     0.044 C 
ATOM      2  C   UNL     1      23.977  42.723 129.277  1.00  0.00    -0.047 A 
ATOM      3  C   UNL     1      22.698  43.142 128.893  1.00  0.00     0.016 A 
ATOM      4  C   UNL     1      21.786  43.624 129.847  1.00  0.00     0.038 A 
ATOM      5  C   UNL     1      22.170  43.715 131.204  1.00  0.00     0.076 A 
ATOM      6  C   UNL     1      23.452  43.245 131.593  1.00  0.00     0.127 A 
ATOM      7  C   UNL     1      24.348  42.788 130.623  1.00  0.00     0.050 A 
ATOM      8  C   UNL     1      21.234  44.367 132.157  1.00  0.00     0.201 C 
ATOM      9  O   UNL     1      21.686  44.978 133.161  1.00  0.00    -0.288 OA
ATOM     10  C   UNL     1      19.789  44.458 131.824  1.00  0.00     0.076 A 
ATOM     11  C   UNL     1      19.409  44.368 130.466  1.00  0.00     0.041 A 
ATOM     12  C   UNL     1      20.423  44.036 129.437  1.00  0.00     0.194 C 
ATOM     13  O   UNL     1      20.118  44.080 128.213  1.00  0.00    -0.289 OA
ATOM     14  C   UNL     1      18.071  44.587 130.098  1.00  0.00     0.059 A 
ATOM     15  C   UNL     1      17.108  44.879 131.064  1.00  0.00     0.120 A 
ATOM     16  C   UNL     1      17.471  44.930 132.412  1.00  0.00     0.093 A 
ATOM     17  C   UNL     1      18.791  44.696 132.807  1.00  0.00     0.131 A 
ENDROOT
BRANCH   6  18
ATOM     18  O   UNL     1      23.861  43.186 132.927  1.00  0.00    -0.507 OA
ATOM     19  H   UNL     1      24.824  43.067 133.212  1.00  0.00     0.293 HD
ENDBRANCH   6  18
BRANCH  17  20
ATOM     20  O   UNL     1      19.061  44.673 134.177  1.00  0.00    -0.507 OA
ATOM     21  H   UNL     1      18.626  44.028 134.822  1.00  0.00     0.293 HD
ENDBRANCH  17  20
BRANCH  15  22
ATOM     22  O   UNL     1      15.791  45.106 130.674  1.00  0.00    -0.508 OA
ATOM     23  H   UNL     1      15.422  44.729 129.809  1.00  0.00     0.293 HD
ENDBRANCH  15  22
TORSDOF 3
ENDMDL
MODEL 5
REMARK VINA RESULT:    -5.985     10.585     13.021
REMARK INTER + INTRA:          -6.510
REMARK INTER:                  -6.510
REMARK INTRA:                   0.000
REMARK UNBOUND:                 0.000
REMARK SMILES Cc1cc(O)c2c(c1)C(=O)c1cc(O)cc(O)c1C2=O
REMARK SMILES IDX 1 1 2 2 8 3 7 4 6 5 4 6 3 7 19 8 20 9 18 10 11 11 9 12 10 13
REMARK SMILES IDX 12 14 13 15 15 16 16 17 5 18 17 20 14 22
REMARK H PARENT 5 19 17 21 14 23
REMARK Flexibility Score: inf
ROOT
ATOM      1  C   UNL     1      25.774  37.246 128.257  1.00  0.00     0.044 C 
ATOM      2  C   UNL     1      25.339  38.627 128.652  1.00  0.00    -0.047 A 
ATOM      3  C   UNL     1      23.979  38.926 128.783  1.00  0.00     0.016 A 
ATOM      4  C   UNL     1      23.559  40.227 129.110  1.00  0.00     0.038 A 
ATOM      5  C   UNL     1      24.517  41.252 129.281  1.00  0.00     0.076 A 
ATOM      6  C   UNL     1      25.896  40.933 129.191  1.00  0.00     0.127 A 
ATOM      7  C   UNL     1      26.288  39.636 128.846  1.00  0.00     0.050 A 
ATOM      8  C   UNL     1      24.029  42.643 129.478  1.00  0.00     0.201 C 
ATOM      9  O   UNL     1      24.724  43.614 129.076  1.00  0.00    -0.288 OA
ATOM     10  C   UNL     1      22.648  42.876 129.973  1.00  0.00     0.076 A 
ATOM     11  C   UNL     1      21.693  41.849 129.801  1.00  0.00     0.041 A 
ATOM     12  C   UNL     1      22.118  40.529 129.278  1.00  0.00     0.194 C 
ATOM     13  O   UNL     1      21.254  39.651 129.001  1.00  0.00    -0.289 OA
ATOM     14  C   UNL     1      20.348  42.082 130.129  1.00  0.00     0.059 A 
ATOM     15  C   UNL     1      19.945  43.316 130.641  1.00  0.00     0.120 A 
ATOM     16  C   UNL     1      20.893  44.321 130.851  1.00  0.00     0.093 A 
ATOM     17  C   UNL     1      22.241  44.108 130.552  1.00  0.00     0.131 A 
ENDROOT
BRANCH   6  18
ATOM     18  O   UNL     1      26.906  41.858 129.467  1.00  0.00    -0.507 OA
ATOM     19  H   UNL     1      26.808  42.608 130.138  1.00  0.00     0.293 HD
ENDBRANCH   6  18
BRANCH  17  20
ATOM     20  O   UNL     1      23.143  45.125 130.874  1.00  0.00    -0.507 OA
ATOM     21  H   UNL     1      23.266  45.487 131.809  1.00  0.00     0.293 HD
ENDBRANCH  17  20
BRANCH  15  22
ATOM     22  O   UNL     1      18.604  43.528 130.947  1.00  0.00    -0.508 OA
ATOM     23  H   UNL     1      18.169  43.094 131.753  1.00  0.00     0.293 HD
ENDBRANCH  15  22
TORSDOF 3
ENDMDL
MODEL 6
REMARK VINA RESULT:    -5.921     10.815     13.049
REMARK INTER + INTRA:          -6.440
REMARK INTER:                  -6.440
REMARK INTRA:                   0.000
REMARK UNBOUND:                 0.000
REMARK SMILES Cc1cc(O)c2c(c1)C(=O)c1cc(O)cc(O)c1C2=O
REMARK SMILES IDX 1 1 2 2 8 3 7 4 6 5 4 6 3 7 19 8 20 9 18 10 11 11 9 12 10 13
REMARK SMILES IDX 12 14 13 15 15 16 16 17 5 18 17 20 14 22
REMARK H PARENT 5 19 17 21 14 23
REMARK Flexibility Score: inf
ROOT
ATOM      1  C   UNL     1      16.794  45.125 127.543  1.00  0.00     0.044 C 
ATOM      2  C   UNL     1      17.787  44.756 128.607  1.00  0.00    -0.047 A 
ATOM      3  C   UNL     1      19.098  44.415 128.258  1.00  0.00     0.016 A 
ATOM      4  C   UNL     1      20.023  44.026 129.242  1.00  0.00     0.038 A 
ATOM      5  C   UNL     1      19.621  43.949 130.594  1.00  0.00     0.076 A 
ATOM      6  C   UNL     1      18.303  44.339 130.947  1.00  0.00     0.127 A 
ATOM      7  C   UNL     1      17.396  44.704 129.948  1.00  0.00     0.050 A 
ATOM      8  C   UNL     1      20.582  43.392 131.582  1.00  0.00     0.201 C 
ATOM      9  O   UNL     1      20.154  42.781 132.597  1.00  0.00    -0.288 OA
ATOM     10  C   UNL     1      22.036  43.391 131.276  1.00  0.00     0.076 A 
ATOM     11  C   UNL     1      22.434  43.468 129.923  1.00  0.00     0.041 A 
ATOM     12  C   UNL     1      21.420  43.697 128.867  1.00  0.00     0.194 C 
ATOM     13  O   UNL     1      21.749  43.639 127.650  1.00  0.00    -0.289 OA
ATOM     14  C   UNL     1      23.790  43.331 129.584  1.00  0.00     0.059 A 
ATOM     15  C   UNL     1      24.753  43.136 130.575  1.00  0.00     0.120 A 
ATOM     16  C   UNL     1      24.369  43.099 131.917  1.00  0.00     0.093 A 
ATOM     17  C   UNL     1      23.029  43.253 132.282  1.00  0.00     0.131 A 
ENDROOT
BRANCH   6  18
ATOM     18  O   UNL     1      17.865  44.410 132.271  1.00  0.00    -0.507 OA
ATOM     19  H   UNL     1      17.003  44.857 132.552  1.00  0.00     0.293 HD
ENDBRANCH   6  18
BRANCH  17  20
ATOM     20  O   UNL     1      22.732  43.298 133.647  1.00  0.00    -0.507 OA
ATOM     21  H   UNL     1      22.843  44.125 134.216  1.00  0.00     0.293 HD
ENDBRANCH  17  20
BRANCH  15  22
ATOM     22  O   UNL     1      26.090  42.989 130.214  1.00  0.00    -0.508 OA
ATOM     23  H   UNL     1      26.381  42.306 129.524  1.00  0.00     0.293 HD
ENDBRANCH  15  22
TORSDOF 3
ENDMDL
MODEL 7
REMARK VINA RESULT:    -5.844      2.036      4.906
REMARK INTER + INTRA:          -6.356
REMARK INTER:                  -6.356
REMARK INTRA:                   0.000
REMARK UNBOUND:                 0.000
REMARK SMILES Cc1cc(O)c2c(c1)C(=O)c1cc(O)cc(O)c1C2=O
REMARK SMILES IDX 1 1 2 2 8 3 7 4 6 5 4 6 3 7 19 8 20 9 18 10 11 11 9 12 10 13
REMARK SMILES IDX 12 14 13 15 15 16 16 17 5 18 17 20 14 22
REMARK H PARENT 5 19 17 21 14 23
REMARK Flexibility Score: inf
ROOT
ATOM      1  C   UNL     1      18.666  35.729 118.875  1.00  0.00     0.044 C 
ATOM      2  C   UNL     1      17.755  35.945 120.048  1.00  0.00    -0.047 A 
ATOM      3  C   UNL     1      16.739  35.026 120.329  1.00  0.00     0.016 A 
ATOM      4  C   UNL     1      15.853  35.241 121.398  1.00  0.00     0.038 A 
ATOM      5  C   UNL     1      15.968  36.412 122.182  1.00  0.00     0.076 A 
ATOM      6  C   UNL     1      17.029  37.318 121.920  1.00  0.00     0.127 A 
ATOM      7  C   UNL     1      17.885  37.091 120.839  1.00  0.00     0.050 A 
ATOM      8  C   UNL     1      14.924  36.677 123.206  1.00  0.00     0.201 C 
ATOM      9  O   UNL     1      14.630  37.864 123.508  1.00  0.00    -0.288 OA
ATOM     10  C   UNL     1      14.103  35.555 123.729  1.00  0.00     0.076 A 
ATOM     11  C   UNL     1      13.990  34.386 122.943  1.00  0.00     0.041 A 
ATOM     12  C   UNL     1      14.799  34.247 121.709  1.00  0.00     0.194 C 
ATOM     13  O   UNL     1      14.609  33.267 120.937  1.00  0.00    -0.289 OA
ATOM     14  C   UNL     1      13.115  33.361 123.337  1.00  0.00     0.059 A 
ATOM     15  C   UNL     1      12.366  33.477 124.508  1.00  0.00     0.120 A 
ATOM     16  C   UNL     1      12.504  34.613 125.309  1.00  0.00     0.093 A 
ATOM     17  C   UNL     1      13.383  35.639 124.951  1.00  0.00     0.131 A 
ENDROOT
BRANCH   6  18
ATOM     18  O   UNL     1      17.286  38.431 122.722  1.00  0.00    -0.507 OA
ATOM     19  H   UNL     1      18.188  38.885 122.776  1.00  0.00     0.293 HD
ENDBRANCH   6  18
BRANCH  17  20
ATOM     20  O   UNL     1      13.537  36.699 125.846  1.00  0.00    -0.507 OA
ATOM     21  H   UNL     1      12.797  37.346 126.080  1.00  0.00     0.293 HD
ENDBRANCH  17  20
BRANCH  15  22
ATOM     22  O   UNL     1      11.494  32.453 124.870  1.00  0.00    -0.508 OA
ATOM     23  H   UNL     1      10.707  32.621 125.485  1.00  0.00     0.293 HD
ENDBRANCH  15  22
TORSDOF 3
ENDMDL
MODEL 8
REMARK VINA RESULT:    -5.820      2.502      4.652
REMARK INTER + INTRA:          -6.330
REMARK INTER:                  -6.330
REMARK INTRA:                   0.000
REMARK UNBOUND:                 0.000
REMARK SMILES Cc1cc(O)c2c(c1)C(=O)c1cc(O)cc(O)c1C2=O
REMARK SMILES IDX 1 1 2 2 8 3 7 4 6 5 4 6 3 7 19 8 20 9 18 10 11 11 9 12 10 13
REMARK SMILES IDX 12 14 13 15 15 16 16 17 5 18 17 20 14 22
REMARK H PARENT 5 19 17 21 14 23
REMARK Flexibility Score: inf
ROOT
ATOM      1  C   UNL     1       9.828  40.130 128.355  1.00  0.00     0.044 C 
ATOM      2  C   UNL     1      10.440  39.005 127.573  1.00  0.00    -0.047 A 
ATOM      3  C   UNL     1      11.789  39.057 127.205  1.00  0.00     0.016 A 
ATOM      4  C   UNL     1      12.360  38.029 126.435  1.00  0.00     0.038 A 
ATOM      5  C   UNL     1      11.562  36.947 126.003  1.00  0.00     0.076 A 
ATOM      6  C   UNL     1      10.206  36.878 126.418  1.00  0.00     0.127 A 
ATOM      7  C   UNL     1       9.656  37.921 127.167  1.00  0.00     0.050 A 
ATOM      8  C   UNL     1      12.164  35.959 125.068  1.00  0.00     0.201 C 
ATOM      9  O   UNL     1      11.434  35.360 124.235  1.00  0.00    -0.288 OA
ATOM     10  C   UNL     1      13.641  35.822 124.993  1.00  0.00     0.076 A 
ATOM     11  C   UNL     1      14.436  36.907 125.425  1.00  0.00     0.041 A 
ATOM     12  C   UNL     1      13.798  38.075 126.075  1.00  0.00     0.194 C 
ATOM     13  O   UNL     1      14.483  39.100 126.347  1.00  0.00    -0.289 OA
ATOM     14  C   UNL     1      15.828  36.870 125.242  1.00  0.00     0.059 A 
ATOM     15  C   UNL     1      16.437  35.764 124.649  1.00  0.00     0.120 A 
ATOM     16  C   UNL     1      15.660  34.672 124.256  1.00  0.00     0.093 A 
ATOM     17  C   UNL     1      14.275  34.674 124.446  1.00  0.00     0.131 A 
ENDROOT
BRANCH   6  18
ATOM     18  O   UNL     1       9.386  35.783 126.138  1.00  0.00    -0.507 OA
ATOM     19  H   UNL     1       9.220  35.434 125.204  1.00  0.00     0.293 HD
ENDBRANCH   6  18
BRANCH  17  20
ATOM     20  O   UNL     1      13.576  33.512 124.113  1.00  0.00    -0.507 OA
ATOM     21  H   UNL     1      14.023  32.657 123.814  1.00  0.00     0.293 HD
ENDBRANCH  17  20
BRANCH  15  22
ATOM     22  O   UNL     1      17.818  35.757 124.465  1.00  0.00    -0.508 OA
ATOM     23  H   UNL     1      18.406  35.053 124.895  1.00  0.00     0.293 HD
ENDBRANCH  15  22
TORSDOF 3
ENDMDL
MODEL 9
REMARK VINA RESULT:    -5.745     11.604     13.266
REMARK INTER + INTRA:          -6.249
REMARK INTER:                  -6.249
REMARK INTRA:                   0.000
REMARK UNBOUND:                 0.000
REMARK SMILES Cc1cc(O)c2c(c1)C(=O)c1cc(O)cc(O)c1C2=O
REMARK SMILES IDX 1 1 2 2 8 3 7 4 6 5 4 6 3 7 19 8 20 9 18 10 11 11 9 12 10 13
REMARK SMILES IDX 12 14 13 15 15 16 16 17 5 18 17 20 14 22
REMARK H PARENT 5 19 17 21 14 23
REMARK Flexibility Score: inf
ROOT
ATOM      1  C   UNL     1      16.244  45.125 131.504  1.00  0.00     0.044 C 
ATOM      2  C   UNL     1      17.718  44.862 131.615  1.00  0.00    -0.047 A 
ATOM      3  C   UNL     1      18.464  44.544 130.475  1.00  0.00     0.016 A 
ATOM      4  C   UNL     1      19.835  44.254 130.575  1.00  0.00     0.038 A 
ATOM      5  C   UNL     1      20.464  44.253 131.840  1.00  0.00     0.076 A 
ATOM      6  C   UNL     1      19.712  44.620 132.986  1.00  0.00     0.127 A 
ATOM      7  C   UNL     1      18.345  44.886 132.864  1.00  0.00     0.050 A 
ATOM      8  C   UNL     1      21.876  43.796 131.922  1.00  0.00     0.201 C 
ATOM      9  O   UNL     1      22.295  43.240 132.972  1.00  0.00    -0.288 OA
ATOM     10  C   UNL     1      22.732  43.826 130.708  1.00  0.00     0.076 A 
ATOM     11  C   UNL     1      22.100  43.826 129.445  1.00  0.00     0.041 A 
ATOM     12  C   UNL     1      20.626  43.949 129.358  1.00  0.00     0.194 C 
ATOM     13  O   UNL     1      20.045  43.822 128.245  1.00  0.00    -0.289 OA
ATOM     14  C   UNL     1      22.872  43.714 128.277  1.00  0.00     0.059 A 
ATOM     15  C   UNL     1      24.261  43.618 128.350  1.00  0.00     0.120 A 
ATOM     16  C   UNL     1      24.894  43.658 129.595  1.00  0.00     0.093 A 
ATOM     17  C   UNL     1      24.150  43.789 130.772  1.00  0.00     0.131 A 
ENDROOT
BRANCH   6  18
ATOM     18  O   UNL     1      20.286  44.763 134.252  1.00  0.00    -0.507 OA
ATOM     19  H   UNL     1      21.098  44.245 134.559  1.00  0.00     0.293 HD
ENDBRANCH   6  18
BRANCH  17  20
ATOM     20  O   UNL     1      24.856  43.914 131.971  1.00  0.00    -0.507 OA
ATOM     21  H   UNL     1      25.234  43.128 132.482  1.00  0.00     0.293 HD
ENDBRANCH  17  20
BRANCH  15  22
ATOM     22  O   UNL     1      25.004  43.494 127.179  1.00  0.00    -0.508 OA
ATOM     23  H   UNL     1      24.688  43.899 126.306  1.00  0.00     0.293 HD
ENDBRANCH  15  22
TORSDOF 3
ENDMDL
