MODEL 1
REMARK VINA RESULT:    -2.626      0.000      0.000
REMARK INTER + INTRA:          -4.784
REMARK INTER:                  -3.855
REMARK INTRA:                  -0.930
REMARK UNBOUND:                -0.930
REMARK SMILES CCCCCCCCCC=O
REMARK SMILES IDX 6 1 5 2 4 3 3 4 2 5 1 6 7 7 8 8 9 9 10 10 11 11
REMARK H PARENT
REMARK Flexibility Score: inf
ROOT
ATOM      1  C   UNL     1     142.915 133.460 145.339  1.00  0.00     0.000 C 
ENDROOT
BRANCH   1   2
ATOM      2  C   UNL     1     141.875 134.439 144.775  1.00  0.00     0.000 C 
BRANCH   2   3
ATOM      3  C   UNL     1     142.437 135.864 144.715  1.00  0.00    -0.000 C 
BRANCH   3   4
ATOM      4  C   UNL     1     143.196 136.101 143.400  1.00  0.00    -0.000 C 
BRANCH   4   5
ATOM      5  C   UNL     1     144.711 136.237 143.610  1.00  0.00    -0.003 C 
ATOM      6  C   UNL     1     145.076 136.673 145.029  1.00  0.00     0.004 C 
ENDBRANCH   4   5
ENDBRANCH   3   4
ENDBRANCH   2   3
ENDBRANCH   1   2
BRANCH   1   7
ATOM      7  C   UNL     1     143.323 132.379 144.325  1.00  0.00     0.000 C 
BRANCH   7   8
ATOM      8  C   UNL     1     144.740 131.841 144.571  1.00  0.00     0.008 C 
BRANCH   8   9
ATOM      9  C   UNL     1     145.637 132.923 145.184  1.00  0.00     0.072 C 
BRANCH   9  10
ATOM     10  C   UNL     1     146.768 133.269 144.263  1.00  0.00     0.224 C 
ATOM     11  O   UNL     1     146.692 133.022 143.069  1.00  0.00    -0.303 OA
ENDBRANCH   9  10
ENDBRANCH   8   9
ENDBRANCH   7   8
ENDBRANCH   1   7
TORSDOF 8
ENDMDL
MODEL 2
REMARK VINA RESULT:    -2.584     13.596     15.820
REMARK INTER + INTRA:          -4.723
REMARK INTER:                  -3.850
REMARK INTRA:                  -0.872
REMARK UNBOUND:                -0.930
REMARK SMILES CCCCCCCCCC=O
REMARK SMILES IDX 6 1 5 2 4 3 3 4 2 5 1 6 7 7 8 8 9 9 10 10 11 11
REMARK H PARENT
REMARK Flexibility Score: inf
ROOT
ATOM      1  C   UNL     1     138.672 148.404 145.479  1.00  0.00     0.000 C 
ENDROOT
BRANCH   1   2
ATOM      2  C   UNL     1     139.236 147.087 144.926  1.00  0.00     0.000 C 
BRANCH   2   3
ATOM      3  C   UNL     1     138.704 146.811 143.515  1.00  0.00    -0.000 C 
BRANCH   3   4
ATOM      4  C   UNL     1     138.129 145.390 143.411  1.00  0.00    -0.000 C 
BRANCH   4   5
ATOM      5  C   UNL     1     136.601 145.359 143.564  1.00  0.00    -0.003 C 
ATOM      6  C   UNL     1     136.146 144.604 144.813  1.00  0.00     0.004 C 
ENDBRANCH   4   5
ENDBRANCH   3   4
ENDBRANCH   2   3
ENDBRANCH   1   2
BRANCH   1   7
ATOM      7  C   UNL     1     138.143 149.333 144.374  1.00  0.00     0.000 C 
BRANCH   7   8
ATOM      8  C   UNL     1     136.704 149.804 144.635  1.00  0.00     0.008 C 
BRANCH   8   9
ATOM      9  C   UNL     1     135.840 148.655 145.166  1.00  0.00     0.072 C 
BRANCH   9  10
ATOM     10  C   UNL     1     134.674 148.396 144.261  1.00  0.00     0.224 C 
ATOM     11  O   UNL     1     134.757 148.622 143.063  1.00  0.00    -0.303 OA
ENDBRANCH   9  10
ENDBRANCH   8   9
ENDBRANCH   7   8
ENDBRANCH   1   7
TORSDOF 8
ENDMDL
MODEL 3
REMARK VINA RESULT:    -2.581      9.191     11.170
REMARK INTER + INTRA:          -4.718
REMARK INTER:                  -3.836
REMARK INTRA:                  -0.882
REMARK UNBOUND:                -0.930
REMARK SMILES CCCCCCCCCC=O
REMARK SMILES IDX 6 1 5 2 4 3 3 4 2 5 1 6 7 7 8 8 9 9 10 10 11 11
REMARK H PARENT
REMARK Flexibility Score: inf
ROOT
ATOM      1  C   UNL     1     133.080 138.398 145.512  1.00  0.00     0.000 C 
ENDROOT
BRANCH   1   2
ATOM      2  C   UNL     1     134.356 139.086 145.003  1.00  0.00     0.000 C 
BRANCH   2   3
ATOM      3  C   UNL     1     134.669 138.664 143.562  1.00  0.00    -0.000 C 
BRANCH   3   4
ATOM      4  C   UNL     1     136.112 138.149 143.441  1.00  0.00    -0.000 C 
BRANCH   4   5
ATOM      5  C   UNL     1     136.205 136.621 143.559  1.00  0.00    -0.003 C 
ATOM      6  C   UNL     1     136.711 136.163 144.927  1.00  0.00     0.004 C 
ENDBRANCH   4   5
ENDBRANCH   3   4
ENDBRANCH   2   3
ENDBRANCH   1   2
BRANCH   1   7
ATOM      7  C   UNL     1     132.201 137.859 144.372  1.00  0.00     0.000 C 
BRANCH   7   8
ATOM      8  C   UNL     1     131.638 136.461 144.670  1.00  0.00     0.008 C 
BRANCH   8   9
ATOM      9  C   UNL     1     132.749 135.510 145.130  1.00  0.00     0.072 C 
BRANCH   9  10
ATOM     10  C   UNL     1     133.179 134.607 144.013  1.00  0.00     0.224 C 
ATOM     11  O   UNL     1     132.636 134.672 142.920  1.00  0.00    -0.303 OA
ENDBRANCH   9  10
ENDBRANCH   8   9
ENDBRANCH   7   8
ENDBRANCH   1   7
TORSDOF 8
ENDMDL
MODEL 4
REMARK VINA RESULT:    -2.567      8.853     10.927
REMARK INTER + INTRA:          -4.697
REMARK INTER:                  -3.717
REMARK INTRA:                  -0.980
REMARK UNBOUND:                -0.930
REMARK SMILES CCCCCCCCCC=O
REMARK SMILES IDX 6 1 5 2 4 3 3 4 2 5 1 6 7 7 8 8 9 9 10 10 11 11
REMARK H PARENT
REMARK Flexibility Score: inf
ROOT
ATOM      1  C   UNL     1     134.378 139.086 145.065  1.00  0.00     0.000 C 
ENDROOT
BRANCH   1   2
ATOM      2  C   UNL     1     133.110 138.399 145.595  1.00  0.00     0.000 C 
BRANCH   2   3
ATOM      3  C   UNL     1     132.179 138.002 144.443  1.00  0.00    -0.000 C 
BRANCH   3   4
ATOM      4  C   UNL     1     131.623 136.584 144.649  1.00  0.00    -0.000 C 
BRANCH   4   5
ATOM      5  C   UNL     1     132.732 135.534 144.813  1.00  0.00    -0.003 C 
ATOM      6  C   UNL     1     133.024 134.775 143.518  1.00  0.00     0.004 C 
ENDBRANCH   4   5
ENDBRANCH   3   4
ENDBRANCH   2   3
ENDBRANCH   1   2
BRANCH   1   7
ATOM      7  C   UNL     1     134.698 138.700 143.612  1.00  0.00     0.000 C 
BRANCH   7   8
ATOM      8  C   UNL     1     136.143 138.207 143.435  1.00  0.00     0.008 C 
BRANCH   8   9
ATOM      9  C   UNL     1     136.212 136.677 143.511  1.00  0.00     0.072 C 
BRANCH   9  10
ATOM     10  C   UNL     1     136.805 136.231 144.813  1.00  0.00     0.224 C 
ATOM     11  O   UNL     1     136.090 136.021 145.781  1.00  0.00    -0.303 OA
ENDBRANCH   9  10
ENDBRANCH   8   9
ENDBRANCH   7   8
ENDBRANCH   1   7
TORSDOF 8
ENDMDL
MODEL 5
REMARK VINA RESULT:    -2.547      8.069     10.096
REMARK INTER + INTRA:          -4.668
REMARK INTER:                  -3.649
REMARK INTRA:                  -1.019
REMARK UNBOUND:                -0.930
REMARK SMILES CCCCCCCCCC=O
REMARK SMILES IDX 6 1 5 2 4 3 3 4 2 5 1 6 7 7 8 8 9 9 10 10 11 11
REMARK H PARENT
REMARK Flexibility Score: inf
ROOT
ATOM      1  C   UNL     1     136.305 138.798 145.013  1.00  0.00     0.000 C 
ENDROOT
BRANCH   1   2
ATOM      2  C   UNL     1     135.535 140.119 145.164  1.00  0.00     0.000 C 
BRANCH   2   3
ATOM      3  C   UNL     1     134.021 139.881 145.116  1.00  0.00    -0.000 C 
BRANCH   3   4
ATOM      4  C   UNL     1     133.604 138.786 146.110  1.00  0.00    -0.000 C 
BRANCH   4   5
ATOM      5  C   UNL     1     132.640 137.763 145.492  1.00  0.00    -0.003 C 
ATOM      6  C   UNL     1     132.294 138.081 144.037  1.00  0.00     0.004 C 
ENDBRANCH   4   5
ENDBRANCH   3   4
ENDBRANCH   2   3
ENDBRANCH   1   2
BRANCH   1   7
ATOM      7  C   UNL     1     136.212 138.216 143.593  1.00  0.00     0.000 C 
BRANCH   7   8
ATOM      8  C   UNL     1     136.220 136.680 143.582  1.00  0.00     0.008 C 
BRANCH   8   9
ATOM      9  C   UNL     1     135.990 136.121 144.990  1.00  0.00     0.072 C 
BRANCH   9  10
ATOM     10  C   UNL     1     137.090 135.181 145.382  1.00  0.00     0.224 C 
ATOM     11  O   UNL     1     138.140 135.162 144.758  1.00  0.00    -0.303 OA
ENDBRANCH   9  10
ENDBRANCH   8   9
ENDBRANCH   7   8
ENDBRANCH   1   7
TORSDOF 8
ENDMDL
MODEL 6
REMARK VINA RESULT:    -2.547      9.627     11.493
REMARK INTER + INTRA:          -4.668
REMARK INTER:                  -3.775
REMARK INTRA:                  -0.893
REMARK UNBOUND:                -0.930
REMARK SMILES CCCCCCCCCC=O
REMARK SMILES IDX 6 1 5 2 4 3 3 4 2 5 1 6 7 7 8 8 9 9 10 10 11 11
REMARK H PARENT
REMARK Flexibility Score: inf
ROOT
ATOM      1  C   UNL     1     148.509 143.241 145.497  1.00  0.00     0.000 C 
ENDROOT
BRANCH   1   2
ATOM      2  C   UNL     1     147.387 142.378 144.901  1.00  0.00     0.000 C 
BRANCH   2   3
ATOM      3  C   UNL     1     146.974 142.893 143.518  1.00  0.00    -0.000 C 
BRANCH   3   4
ATOM      4  C   UNL     1     145.513 143.371 143.522  1.00  0.00    -0.000 C 
BRANCH   4   5
ATOM      5  C   UNL     1     145.393 144.900 143.599  1.00  0.00    -0.003 C 
ATOM      6  C   UNL     1     145.030 145.395 144.999  1.00  0.00     0.004 C 
ENDBRANCH   4   5
ENDBRANCH   3   4
ENDBRANCH   2   3
ENDBRANCH   1   2
BRANCH   1   7
ATOM      7  C   UNL     1     149.489 143.758 144.431  1.00  0.00     0.000 C 
BRANCH   7   8
ATOM      8  C   UNL     1     149.991 145.179 144.729  1.00  0.00     0.008 C 
BRANCH   8   9
ATOM      9  C   UNL     1     148.821 146.113 145.062  1.00  0.00     0.072 C 
BRANCH   9  10
ATOM     10  C   UNL     1     148.410 146.909 143.860  1.00  0.00     0.224 C 
ATOM     11  O   UNL     1     149.207 147.130 142.961  1.00  0.00    -0.303 OA
ENDBRANCH   9  10
ENDBRANCH   8   9
ENDBRANCH   7   8
ENDBRANCH   1   7
TORSDOF 8
ENDMDL
MODEL 7
REMARK VINA RESULT:    -2.546     12.679     14.232
REMARK INTER + INTRA:          -4.667
REMARK INTER:                  -3.679
REMARK INTRA:                  -0.988
REMARK UNBOUND:                -0.930
REMARK SMILES CCCCCCCCCC=O
REMARK SMILES IDX 6 1 5 2 4 3 3 4 2 5 1 6 7 7 8 8 9 9 10 10 11 11
REMARK H PARENT
REMARK Flexibility Score: inf
ROOT
ATOM      1  C   UNL     1     138.973 145.159 144.980  1.00  0.00     0.000 C 
ENDROOT
BRANCH   1   2
ATOM      2  C   UNL     1     140.170 146.080 145.257  1.00  0.00     0.000 C 
BRANCH   2   3
ATOM      3  C   UNL     1     139.788 147.552 145.061  1.00  0.00    -0.000 C 
BRANCH   3   4
ATOM      4  C   UNL     1     138.787 148.008 146.134  1.00  0.00    -0.000 C 
BRANCH   4   5
ATOM      5  C   UNL     1     137.618 148.812 145.547  1.00  0.00    -0.003 C 
ATOM      6  C   UNL     1     137.908 149.338 144.141  1.00  0.00     0.004 C 
ENDBRANCH   4   5
ENDBRANCH   3   4
ENDBRANCH   2   3
ENDBRANCH   1   2
BRANCH   1   7
ATOM      7  C   UNL     1     138.385 145.357 143.573  1.00  0.00     0.000 C 
BRANCH   7   8
ATOM      8  C   UNL     1     136.854 145.474 143.583  1.00  0.00     0.008 C 
BRANCH   8   9
ATOM      9  C   UNL     1     136.287 145.129 144.965  1.00  0.00     0.072 C 
BRANCH   9  10
ATOM     10  C   UNL     1     135.399 143.923 144.896  1.00  0.00     0.224 C 
ATOM     11  O   UNL     1     134.316 143.918 145.462  1.00  0.00    -0.303 OA
ENDBRANCH   9  10
ENDBRANCH   8   9
ENDBRANCH   7   8
ENDBRANCH   1   7
TORSDOF 8
ENDMDL
MODEL 8
REMARK VINA RESULT:    -2.520      2.014      3.861
REMARK INTER + INTRA:          -4.628
REMARK INTER:                  -3.685
REMARK INTRA:                  -0.944
REMARK UNBOUND:                -0.930
REMARK SMILES CCCCCCCCCC=O
REMARK SMILES IDX 6 1 5 2 4 3 3 4 2 5 1 6 7 7 8 8 9 9 10 10 11 11
REMARK H PARENT
REMARK Flexibility Score: inf
ROOT
ATOM      1  C   UNL     1     142.552 136.580 144.846  1.00  0.00     0.000 C 
ENDROOT
BRANCH   1   2
ATOM      2  C   UNL     1     141.426 135.615 145.245  1.00  0.00     0.000 C 
BRANCH   2   3
ATOM      3  C   UNL     1     141.866 134.156 145.073  1.00  0.00    -0.000 C 
BRANCH   3   4
ATOM      4  C   UNL     1     142.821 133.733 146.200  1.00  0.00    -0.000 C 
BRANCH   4   5
ATOM      5  C   UNL     1     143.816 132.652 145.755  1.00  0.00    -0.003 C 
ATOM      6  C   UNL     1     143.694 132.310 144.270  1.00  0.00     0.004 C 
ENDBRANCH   4   5
ENDBRANCH   3   4
ENDBRANCH   2   3
ENDBRANCH   1   2
BRANCH   1   7
ATOM      7  C   UNL     1     143.263 136.158 143.550  1.00  0.00     0.000 C 
BRANCH   7   8
ATOM      8  C   UNL     1     144.793 136.141 143.694  1.00  0.00     0.008 C 
BRANCH   8   9
ATOM      9  C   UNL     1     145.213 136.531 145.116  1.00  0.00     0.072 C 
BRANCH   9  10
ATOM     10  C   UNL     1     146.159 137.693 145.096  1.00  0.00     0.224 C 
ATOM     11  O   UNL     1     147.285 137.583 145.558  1.00  0.00    -0.303 OA
ENDBRANCH   9  10
ENDBRANCH   8   9
ENDBRANCH   7   8
ENDBRANCH   1   7
TORSDOF 8
ENDMDL
MODEL 9
REMARK VINA RESULT:    -2.467      9.158     10.962
REMARK INTER + INTRA:          -4.551
REMARK INTER:                  -3.436
REMARK INTRA:                  -1.115
REMARK UNBOUND:                -0.930
REMARK SMILES CCCCCCCCCC=O
REMARK SMILES IDX 6 1 5 2 4 3 3 4 2 5 1 6 7 7 8 8 9 9 10 10 11 11
REMARK H PARENT
REMARK Flexibility Score: inf
ROOT
ATOM      1  C   UNL     1     145.671 142.592 144.652  1.00  0.00     0.000 C 
ENDROOT
BRANCH   1   2
ATOM      2  C   UNL     1     147.114 142.084 144.790  1.00  0.00     0.000 C 
BRANCH   2   3
ATOM      3  C   UNL     1     147.697 142.453 146.159  1.00  0.00    -0.000 C 
BRANCH   3   4
ATOM      4  C   UNL     1     148.789 143.526 146.022  1.00  0.00    -0.000 C 
BRANCH   4   5
ATOM      5  C   UNL     1     149.202 143.763 144.562  1.00  0.00    -0.003 C 
ATOM      6  C   UNL     1     149.068 145.227 144.139  1.00  0.00     0.004 C 
ENDBRANCH   4   5
ENDBRANCH   3   4
ENDBRANCH   2   3
ENDBRANCH   1   2
BRANCH   1   7
ATOM      7  C   UNL     1     145.454 143.425 143.378  1.00  0.00     0.000 C 
BRANCH   7   8
ATOM      8  C   UNL     1     145.383 144.933 143.664  1.00  0.00     0.008 C 
BRANCH   8   9
ATOM      9  C   UNL     1     145.082 145.196 145.144  1.00  0.00     0.072 C 
BRANCH   9  10
ATOM     10  C   UNL     1     145.913 146.330 145.667  1.00  0.00     0.224 C 
ATOM     11  O   UNL     1     146.603 146.183 146.664  1.00  0.00    -0.303 OA
ENDBRANCH   9  10
ENDBRANCH   8   9
ENDBRANCH   7   8
ENDBRANCH   1   7
TORSDOF 8
ENDMDL
