MODEL 1
REMARK VINA RESULT:    -3.417      0.000      0.000
REMARK INTER + INTRA:          -8.780
REMARK INTER:                  -6.213
REMARK INTRA:                  -2.567
REMARK UNBOUND:                -2.567
REMARK SMILES CCCCCC=CCC=CCCCCCCCC(=O)[O-]
REMARK SMILES IDX 11 1 12 2 13 3 14 4 15 5 16 6 17 7 18 8 19 9 20 10 10 11
REMARK SMILES IDX 9 12 8 13 7 14 6 15 5 16 4 17 3 18 2 19 1 20
REMARK H PARENT
REMARK Flexibility Score: inf
ROOT
ATOM      1  C   UNL     1      -6.614  22.131   7.965  1.00  0.00     0.027 C 
ENDROOT
BRANCH   1   2
ATOM      2  C   UNL     1      -5.988  23.441   7.472  1.00  0.00     0.004 C 
BRANCH   2   3
ATOM      3  C   UNL     1      -4.713  23.201   6.646  1.00  0.00     0.000 C 
BRANCH   3   4
ATOM      4  C   UNL     1      -3.428  23.478   7.442  1.00  0.00     0.000 C 
BRANCH   4   5
ATOM      5  C   UNL     1      -3.658  24.414   8.640  1.00  0.00     0.000 C 
BRANCH   5   6
ATOM      6  C   UNL     1      -3.366  23.742   9.989  1.00  0.00     0.006 C 
BRANCH   6   7
ATOM      7  C   UNL     1      -3.672  24.654  11.187  1.00  0.00     0.053 C 
BRANCH   7   8
ATOM      8  C   UNL     1      -2.413  25.077  11.881  1.00  0.00     0.041 C 
ATOM      9  O   UNL     1      -2.453  25.889  12.845  1.00  0.00    -0.550 OA
ATOM     10  O   UNL     1      -1.189  24.583  11.451  1.00  0.00    -0.550 OA
ENDBRANCH   7   8
ENDBRANCH   6   7
ENDBRANCH   5   6
ENDBRANCH   4   5
ENDBRANCH   3   4
ENDBRANCH   2   3
ENDBRANCH   1   2
BRANCH   1  11
ATOM     11  C   UNL     1      -6.730  22.116   9.466  1.00  0.00    -0.031 C 
ATOM     12  C   UNL     1      -7.008  23.224  10.169  1.00  0.00    -0.027 C 
BRANCH  12  13
ATOM     13  C   UNL     1      -7.156  23.177  11.665  1.00  0.00     0.054 C 
BRANCH  13  14
ATOM     14  C   UNL     1      -6.698  21.849  12.213  1.00  0.00    -0.027 C 
ATOM     15  C   UNL     1      -7.518  21.001  12.858  1.00  0.00    -0.031 C 
BRANCH  15  16
ATOM     16  C   UNL     1      -8.981  21.292  13.092  1.00  0.00     0.027 C 
BRANCH  16  17
ATOM     17  C   UNL     1      -9.902  20.565  12.092  1.00  0.00     0.004 C 
BRANCH  17  18
ATOM     18  C   UNL     1     -10.305  21.424  10.878  1.00  0.00     0.000 C 
BRANCH  18  19
ATOM     19  C   UNL     1     -10.409  20.659   9.548  1.00  0.00    -0.003 C 
ATOM     20  C   UNL     1     -10.253  21.564   8.325  1.00  0.00     0.004 C 
ENDBRANCH  18  19
ENDBRANCH  17  18
ENDBRANCH  16  17
ENDBRANCH  15  16
ENDBRANCH  13  14
ENDBRANCH  12  13
ENDBRANCH   1  11
TORSDOF 14
ENDMDL
MODEL 2
REMARK VINA RESULT:    -3.312      1.962      3.736
REMARK INTER + INTRA:          -8.590
REMARK INTER:                  -5.926
REMARK INTRA:                  -2.663
REMARK UNBOUND:                -2.567
REMARK SMILES CCCCCC=CCC=CCCCCCCCC(=O)[O-]
REMARK SMILES IDX 11 1 12 2 13 3 14 4 15 5 16 6 17 7 18 8 19 9 20 10 10 11
REMARK SMILES IDX 9 12 8 13 7 14 6 15 5 16 4 17 3 18 2 19 1 20
REMARK H PARENT
REMARK Flexibility Score: inf
ROOT
ATOM      1  C   UNL     1      -6.076  22.778  11.911  1.00  0.00     0.027 C 
ENDROOT
BRANCH   1   2
ATOM      2  C   UNL     1      -5.783  23.088  10.438  1.00  0.00     0.004 C 
BRANCH   2   3
ATOM      3  C   UNL     1      -6.587  22.187   9.485  1.00  0.00     0.000 C 
BRANCH   3   4
ATOM      4  C   UNL     1      -6.758  22.803   8.087  1.00  0.00     0.000 C 
BRANCH   4   5
ATOM      5  C   UNL     1      -6.166  21.924   6.972  1.00  0.00     0.000 C 
BRANCH   5   6
ATOM      6  C   UNL     1      -4.826  22.453   6.443  1.00  0.00     0.006 C 
BRANCH   6   7
ATOM      7  C   UNL     1      -4.551  23.905   6.864  1.00  0.00     0.053 C 
BRANCH   7   8
ATOM      8  C   UNL     1      -3.165  24.056   7.414  1.00  0.00     0.041 C 
ATOM      9  O   UNL     1      -2.180  24.204   6.640  1.00  0.00    -0.550 OA
ATOM     10  O   UNL     1      -2.959  24.018   8.786  1.00  0.00    -0.550 OA
ENDBRANCH   7   8
ENDBRANCH   6   7
ENDBRANCH   5   6
ENDBRANCH   4   5
ENDBRANCH   3   4
ENDBRANCH   2   3
ENDBRANCH   1   2
BRANCH   1  11
ATOM     11  C   UNL     1      -6.991  21.591  12.045  1.00  0.00    -0.031 C 
ATOM     12  C   UNL     1      -7.760  21.404  13.128  1.00  0.00    -0.027 C 
BRANCH  12  13
ATOM     13  C   UNL     1      -8.695  20.230  13.223  1.00  0.00     0.054 C 
BRANCH  13  14
ATOM     14  C   UNL     1     -10.130  20.686  13.295  1.00  0.00    -0.027 C 
ATOM     15  C   UNL     1     -10.977  20.607  12.253  1.00  0.00    -0.031 C 
BRANCH  15  16
ATOM     16  C   UNL     1     -10.576  20.047  10.910  1.00  0.00     0.027 C 
BRANCH  16  17
ATOM     17  C   UNL     1     -10.092  21.133   9.930  1.00  0.00     0.004 C 
BRANCH  17  18
ATOM     18  C   UNL     1     -10.797  22.492  10.110  1.00  0.00     0.000 C 
BRANCH  18  19
ATOM     19  C   UNL     1      -9.854  23.702  10.225  1.00  0.00    -0.003 C 
ATOM     20  C   UNL     1      -9.649  24.163  11.669  1.00  0.00     0.004 C 
ENDBRANCH  18  19
ENDBRANCH  17  18
ENDBRANCH  16  17
ENDBRANCH  15  16
ENDBRANCH  13  14
ENDBRANCH  12  13
ENDBRANCH   1  11
TORSDOF 14
ENDMDL
MODEL 3
REMARK VINA RESULT:    -3.292      1.483      2.396
REMARK INTER + INTRA:          -8.553
REMARK INTER:                  -6.472
REMARK INTRA:                  -2.081
REMARK UNBOUND:                -2.567
REMARK SMILES CCCCCC=CCC=CCCCCCCCC(=O)[O-]
REMARK SMILES IDX 11 1 12 2 13 3 14 4 15 5 16 6 17 7 18 8 19 9 20 10 10 11
REMARK SMILES IDX 9 12 8 13 7 14 6 15 5 16 4 17 3 18 2 19 1 20
REMARK H PARENT
REMARK Flexibility Score: inf
ROOT
ATOM      1  C   UNL     1      -5.890  23.091   6.737  1.00  0.00     0.027 C 
ENDROOT
BRANCH   1   2
ATOM      2  C   UNL     1      -4.546  22.542   6.243  1.00  0.00     0.004 C 
BRANCH   2   3
ATOM      3  C   UNL     1      -3.354  23.176   6.981  1.00  0.00     0.000 C 
BRANCH   3   4
ATOM      4  C   UNL     1      -3.531  24.686   7.208  1.00  0.00     0.000 C 
BRANCH   4   5
ATOM      5  C   UNL     1      -3.210  25.113   8.650  1.00  0.00     0.000 C 
BRANCH   5   6
ATOM      6  C   UNL     1      -3.327  23.958   9.655  1.00  0.00     0.006 C 
BRANCH   6   7
ATOM      7  C   UNL     1      -3.667  24.437  11.075  1.00  0.00     0.053 C 
BRANCH   7   8
ATOM      8  C   UNL     1      -2.445  24.933  11.787  1.00  0.00     0.041 C 
ATOM      9  O   UNL     1      -2.544  25.764  12.730  1.00  0.00    -0.550 OA
ATOM     10  O   UNL     1      -1.190  24.486  11.396  1.00  0.00    -0.550 OA
ENDBRANCH   7   8
ENDBRANCH   6   7
ENDBRANCH   5   6
ENDBRANCH   4   5
ENDBRANCH   3   4
ENDBRANCH   2   3
ENDBRANCH   1   2
BRANCH   1  11
ATOM     11  C   UNL     1      -6.381  22.326   7.936  1.00  0.00    -0.031 C 
ATOM     12  C   UNL     1      -6.964  22.936   8.980  1.00  0.00    -0.027 C 
BRANCH  12  13
ATOM     13  C   UNL     1      -7.480  22.147  10.151  1.00  0.00     0.054 C 
BRANCH  13  14
ATOM     14  C   UNL     1      -6.462  22.100  11.262  1.00  0.00    -0.027 C 
ATOM     15  C   UNL     1      -6.718  21.561  12.467  1.00  0.00    -0.031 C 
BRANCH  15  16
ATOM     16  C   UNL     1      -8.048  20.943  12.825  1.00  0.00     0.027 C 
BRANCH  16  17
ATOM     17  C   UNL     1      -8.675  21.566  14.087  1.00  0.00     0.004 C 
BRANCH  17  18
ATOM     18  C   UNL     1      -8.077  22.934  14.470  1.00  0.00     0.000 C 
BRANCH  18  19
ATOM     19  C   UNL     1      -8.994  24.140  14.209  1.00  0.00    -0.003 C 
ATOM     20  C   UNL     1      -9.040  24.547  12.735  1.00  0.00     0.004 C 
ENDBRANCH  18  19
ENDBRANCH  17  18
ENDBRANCH  16  17
ENDBRANCH  15  16
ENDBRANCH  13  14
ENDBRANCH  12  13
ENDBRANCH   1  11
TORSDOF 14
ENDMDL
MODEL 4
REMARK VINA RESULT:    -3.236      1.682      2.881
REMARK INTER + INTRA:          -8.450
REMARK INTER:                  -5.838
REMARK INTRA:                  -2.613
REMARK UNBOUND:                -2.567
REMARK SMILES CCCCCC=CCC=CCCCCCCCC(=O)[O-]
REMARK SMILES IDX 11 1 12 2 13 3 14 4 15 5 16 6 17 7 18 8 19 9 20 10 10 11
REMARK SMILES IDX 9 12 8 13 7 14 6 15 5 16 4 17 3 18 2 19 1 20
REMARK H PARENT
REMARK Flexibility Score: inf
ROOT
ATOM      1  C   UNL     1      -7.777  22.809   9.033  1.00  0.00     0.027 C 
ENDROOT
BRANCH   1   2
ATOM      2  C   UNL     1      -6.731  22.153   8.123  1.00  0.00     0.004 C 
BRANCH   2   3
ATOM      3  C   UNL     1      -5.826  23.190   7.437  1.00  0.00     0.000 C 
BRANCH   3   4
ATOM      4  C   UNL     1      -4.635  23.612   8.312  1.00  0.00     0.000 C 
BRANCH   4   5
ATOM      5  C   UNL     1      -4.751  25.060   8.818  1.00  0.00     0.000 C 
BRANCH   5   6
ATOM      6  C   UNL     1      -5.159  25.146  10.296  1.00  0.00     0.006 C 
BRANCH   6   7
ATOM      7  C   UNL     1      -3.985  25.513  11.217  1.00  0.00     0.053 C 
BRANCH   7   8
ATOM      8  C   UNL     1      -2.912  24.468  11.170  1.00  0.00     0.041 C 
ATOM      9  O   UNL     1      -1.754  24.754  10.760  1.00  0.00    -0.550 OA
ATOM     10  O   UNL     1      -3.197  23.168  11.567  1.00  0.00    -0.550 OA
ENDBRANCH   7   8
ENDBRANCH   6   7
ENDBRANCH   5   6
ENDBRANCH   4   5
ENDBRANCH   3   4
ENDBRANCH   2   3
ENDBRANCH   1   2
BRANCH   1  11
ATOM     11  C   UNL     1      -7.808  22.151  10.386  1.00  0.00    -0.031 C 
ATOM     12  C   UNL     1      -6.721  22.084  11.171  1.00  0.00    -0.027 C 
BRANCH  12  13
ATOM     13  C   UNL     1      -6.786  21.455  12.535  1.00  0.00     0.054 C 
BRANCH  13  14
ATOM     14  C   UNL     1      -8.137  20.833  12.780  1.00  0.00    -0.027 C 
ATOM     15  C   UNL     1      -8.890  21.117  13.857  1.00  0.00    -0.031 C 
BRANCH  15  16
ATOM     16  C   UNL     1      -8.460  22.094  14.925  1.00  0.00     0.027 C 
BRANCH  16  17
ATOM     17  C   UNL     1      -8.936  23.533  14.644  1.00  0.00     0.004 C 
BRANCH  17  18
ATOM     18  C   UNL     1      -7.790  24.556  14.522  1.00  0.00     0.000 C 
BRANCH  18  19
ATOM     19  C   UNL     1      -7.629  25.186  13.128  1.00  0.00    -0.003 C 
ATOM     20  C   UNL     1      -8.888  25.062  12.268  1.00  0.00     0.004 C 
ENDBRANCH  18  19
ENDBRANCH  17  18
ENDBRANCH  16  17
ENDBRANCH  15  16
ENDBRANCH  13  14
ENDBRANCH  12  13
ENDBRANCH   1  11
TORSDOF 14
ENDMDL
MODEL 5
REMARK VINA RESULT:    -3.160      1.837      3.568
REMARK INTER + INTRA:          -8.314
REMARK INTER:                  -6.057
REMARK INTRA:                  -2.257
REMARK UNBOUND:                -2.567
REMARK SMILES CCCCCC=CCC=CCCCCCCCC(=O)[O-]
REMARK SMILES IDX 11 1 12 2 13 3 14 4 15 5 16 6 17 7 18 8 19 9 20 10 10 11
REMARK SMILES IDX 9 12 8 13 7 14 6 15 5 16 4 17 3 18 2 19 1 20
REMARK H PARENT
REMARK Flexibility Score: inf
ROOT
ATOM      1  C   UNL     1      -6.385  22.045  11.447  1.00  0.00     0.027 C 
ENDROOT
BRANCH   1   2
ATOM      2  C   UNL     1      -7.260  22.208  10.198  1.00  0.00     0.004 C 
BRANCH   2   3
ATOM      3  C   UNL     1      -6.421  22.416   8.925  1.00  0.00     0.000 C 
BRANCH   3   4
ATOM      4  C   UNL     1      -6.341  23.891   8.500  1.00  0.00     0.000 C 
BRANCH   4   5
ATOM      5  C   UNL     1      -5.314  24.692   9.318  1.00  0.00     0.000 C 
BRANCH   5   6
ATOM      6  C   UNL     1      -3.917  24.056   9.309  1.00  0.00     0.006 C 
BRANCH   6   7
ATOM      7  C   UNL     1      -3.384  23.773  10.722  1.00  0.00     0.053 C 
BRANCH   7   8
ATOM      8  C   UNL     1      -2.223  24.662  11.051  1.00  0.00     0.041 C 
ATOM      9  O   UNL     1      -1.898  25.605  10.279  1.00  0.00    -0.550 OA
ATOM     10  O   UNL     1      -1.487  24.437  12.207  1.00  0.00    -0.550 OA
ENDBRANCH   7   8
ENDBRANCH   6   7
ENDBRANCH   5   6
ENDBRANCH   4   5
ENDBRANCH   3   4
ENDBRANCH   2   3
ENDBRANCH   1   2
BRANCH   1  11
ATOM     11  C   UNL     1      -7.120  21.302  12.530  1.00  0.00    -0.031 C 
ATOM     12  C   UNL     1      -8.434  21.043  12.450  1.00  0.00    -0.027 C 
BRANCH  12  13
ATOM     13  C   UNL     1      -9.139  20.267  13.528  1.00  0.00     0.054 C 
BRANCH  13  14
ATOM     14  C   UNL     1     -10.530  20.801  13.757  1.00  0.00    -0.027 C 
ATOM     15  C   UNL     1     -10.821  21.702  14.713  1.00  0.00    -0.031 C 
BRANCH  15  16
ATOM     16  C   UNL     1      -9.781  22.273  15.646  1.00  0.00     0.027 C 
BRANCH  16  17
ATOM     17  C   UNL     1      -9.413  23.730  15.310  1.00  0.00     0.004 C 
BRANCH  17  18
ATOM     18  C   UNL     1      -7.934  23.927  14.923  1.00  0.00     0.000 C 
BRANCH  18  19
ATOM     19  C   UNL     1      -7.700  24.773  13.660  1.00  0.00    -0.003 C 
ATOM     20  C   UNL     1      -8.847  24.671  12.654  1.00  0.00     0.004 C 
ENDBRANCH  18  19
ENDBRANCH  17  18
ENDBRANCH  16  17
ENDBRANCH  15  16
ENDBRANCH  13  14
ENDBRANCH  12  13
ENDBRANCH   1  11
TORSDOF 14
ENDMDL
MODEL 6
REMARK VINA RESULT:    -3.104      1.524      2.279
REMARK INTER + INTRA:          -8.211
REMARK INTER:                  -6.407
REMARK INTRA:                  -1.804
REMARK UNBOUND:                -2.567
REMARK SMILES CCCCCC=CCC=CCCCCCCCC(=O)[O-]
REMARK SMILES IDX 11 1 12 2 13 3 14 4 15 5 16 6 17 7 18 8 19 9 20 10 10 11
REMARK SMILES IDX 9 12 8 13 7 14 6 15 5 16 4 17 3 18 2 19 1 20
REMARK H PARENT
REMARK Flexibility Score: inf
ROOT
ATOM      1  C   UNL     1      -6.847  22.160   7.128  1.00  0.00     0.027 C 
ENDROOT
BRANCH   1   2
ATOM      2  C   UNL     1      -5.469  21.944   6.488  1.00  0.00     0.004 C 
BRANCH   2   3
ATOM      3  C   UNL     1      -4.697  23.263   6.313  1.00  0.00     0.000 C 
BRANCH   3   4
ATOM      4  C   UNL     1      -3.398  23.304   7.132  1.00  0.00     0.000 C 
BRANCH   4   5
ATOM      5  C   UNL     1      -3.372  24.455   8.152  1.00  0.00     0.000 C 
BRANCH   5   6
ATOM      6  C   UNL     1      -3.326  23.963   9.606  1.00  0.00     0.006 C 
BRANCH   6   7
ATOM      7  C   UNL     1      -3.595  25.085  10.622  1.00  0.00     0.053 C 
BRANCH   7   8
ATOM      8  C   UNL     1      -2.483  25.188  11.621  1.00  0.00     0.041 C 
ATOM      9  O   UNL     1      -2.647  25.818  12.701  1.00  0.00    -0.550 OA
ATOM     10  O   UNL     1      -1.255  24.600  11.350  1.00  0.00    -0.550 OA
ENDBRANCH   7   8
ENDBRANCH   6   7
ENDBRANCH   5   6
ENDBRANCH   4   5
ENDBRANCH   3   4
ENDBRANCH   2   3
ENDBRANCH   1   2
BRANCH   1  11
ATOM     11  C   UNL     1      -6.733  22.318   8.620  1.00  0.00    -0.031 C 
ATOM     12  C   UNL     1      -7.034  23.470   9.239  1.00  0.00    -0.027 C 
BRANCH  12  13
ATOM     13  C   UNL     1      -6.948  23.593  10.735  1.00  0.00     0.054 C 
BRANCH  13  14
ATOM     14  C   UNL     1      -6.226  22.413  11.334  1.00  0.00    -0.027 C 
ATOM     15  C   UNL     1      -6.828  21.513  12.131  1.00  0.00    -0.031 C 
BRANCH  15  16
ATOM     16  C   UNL     1      -8.290  21.591  12.500  1.00  0.00     0.027 C 
BRANCH  16  17
ATOM     17  C   UNL     1      -8.654  20.685  13.692  1.00  0.00     0.004 C 
BRANCH  17  18
ATOM     18  C   UNL     1      -9.035  21.458  14.970  1.00  0.00     0.000 C 
BRANCH  18  19
ATOM     19  C   UNL     1     -10.373  22.212  14.897  1.00  0.00    -0.003 C 
ATOM     20  C   UNL     1     -11.521  21.342  14.386  1.00  0.00     0.004 C 
ENDBRANCH  18  19
ENDBRANCH  17  18
ENDBRANCH  16  17
ENDBRANCH  15  16
ENDBRANCH  13  14
ENDBRANCH  12  13
ENDBRANCH   1  11
TORSDOF 14
ENDMDL
MODEL 7
REMARK VINA RESULT:    -3.102      2.380      6.157
REMARK INTER + INTRA:          -8.208
REMARK INTER:                  -5.885
REMARK INTRA:                  -2.324
REMARK UNBOUND:                -2.567
REMARK SMILES CCCCCC=CCC=CCCCCCCCC(=O)[O-]
REMARK SMILES IDX 11 1 12 2 13 3 14 4 15 5 16 6 17 7 18 8 19 9 20 10 10 11
REMARK SMILES IDX 9 12 8 13 7 14 6 15 5 16 4 17 3 18 2 19 1 20
REMARK H PARENT
REMARK Flexibility Score: inf
ROOT
ATOM      1  C   UNL     1      -6.815  21.536  12.079  1.00  0.00     0.027 C 
ENDROOT
BRANCH   1   2
ATOM      2  C   UNL     1      -8.173  21.911  11.474  1.00  0.00     0.004 C 
BRANCH   2   3
ATOM      3  C   UNL     1      -9.348  21.440  12.348  1.00  0.00     0.000 C 
BRANCH   3   4
ATOM      4  C   UNL     1      -8.911  20.472  13.459  1.00  0.00     0.000 C 
BRANCH   4   5
ATOM      5  C   UNL     1      -9.181  21.022  14.870  1.00  0.00     0.000 C 
BRANCH   5   6
ATOM      6  C   UNL     1      -9.354  22.547  14.893  1.00  0.00     0.006 C 
BRANCH   6   7
ATOM      7  C   UNL     1      -8.060  23.287  15.268  1.00  0.00     0.053 C 
BRANCH   7   8
ATOM      8  C   UNL     1      -7.968  24.608  14.567  1.00  0.00     0.041 C 
ATOM      9  O   UNL     1      -7.155  25.488  14.961  1.00  0.00    -0.550 OA
ATOM     10  O   UNL     1      -8.796  24.873  13.484  1.00  0.00    -0.550 OA
ENDBRANCH   7   8
ENDBRANCH   6   7
ENDBRANCH   5   6
ENDBRANCH   4   5
ENDBRANCH   3   4
ENDBRANCH   2   3
ENDBRANCH   1   2
BRANCH   1  11
ATOM     11  C   UNL     1      -5.785  22.597  11.801  1.00  0.00    -0.031 C 
ATOM     12  C   UNL     1      -6.126  23.865  11.524  1.00  0.00    -0.027 C 
BRANCH  12  13
ATOM     13  C   UNL     1      -5.079  24.917  11.286  1.00  0.00     0.054 C 
BRANCH  13  14
ATOM     14  C   UNL     1      -3.707  24.300  11.181  1.00  0.00    -0.027 C 
ATOM     15  C   UNL     1      -3.058  24.150  10.013  1.00  0.00    -0.031 C 
BRANCH  15  16
ATOM     16  C   UNL     1      -3.637  24.592   8.690  1.00  0.00     0.027 C 
BRANCH  16  17
ATOM     17  C   UNL     1      -3.592  23.484   7.620  1.00  0.00     0.004 C 
BRANCH  17  18
ATOM     18  C   UNL     1      -4.981  23.066   7.097  1.00  0.00     0.000 C 
BRANCH  18  19
ATOM     19  C   UNL     1      -5.997  22.687   8.187  1.00  0.00    -0.003 C 
ATOM     20  C   UNL     1      -7.349  22.254   7.618  1.00  0.00     0.004 C 
ENDBRANCH  18  19
ENDBRANCH  17  18
ENDBRANCH  16  17
ENDBRANCH  15  16
ENDBRANCH  13  14
ENDBRANCH  12  13
ENDBRANCH   1  11
TORSDOF 14
ENDMDL
MODEL 8
REMARK VINA RESULT:    -3.095      1.481      2.453
REMARK INTER + INTRA:          -8.195
REMARK INTER:                  -5.857
REMARK INTRA:                  -2.338
REMARK UNBOUND:                -2.567
REMARK SMILES CCCCCC=CCC=CCCCCCCCC(=O)[O-]
REMARK SMILES IDX 11 1 12 2 13 3 14 4 15 5 16 6 17 7 18 8 19 9 20 10 10 11
REMARK SMILES IDX 9 12 8 13 7 14 6 15 5 16 4 17 3 18 2 19 1 20
REMARK H PARENT
REMARK Flexibility Score: inf
ROOT
ATOM      1  C   UNL     1      -6.607  22.055  10.389  1.00  0.00     0.027 C 
ENDROOT
BRANCH   1   2
ATOM      2  C   UNL     1      -6.838  22.957   9.169  1.00  0.00     0.004 C 
BRANCH   2   3
ATOM      3  C   UNL     1      -5.549  23.177   8.359  1.00  0.00     0.000 C 
BRANCH   3   4
ATOM      4  C   UNL     1      -4.743  24.392   8.843  1.00  0.00     0.000 C 
BRANCH   4   5
ATOM      5  C   UNL     1      -3.336  24.016   9.336  1.00  0.00     0.000 C 
BRANCH   5   6
ATOM      6  C   UNL     1      -3.249  23.902  10.865  1.00  0.00     0.006 C 
BRANCH   6   7
ATOM      7  C   UNL     1      -2.006  24.597  11.444  1.00  0.00     0.053 C 
BRANCH   7   8
ATOM      8  C   UNL     1      -2.375  25.867  12.148  1.00  0.00     0.041 C 
ATOM      9  O   UNL     1      -3.115  26.721  11.587  1.00  0.00    -0.550 OA
ATOM     10  O   UNL     1      -1.885  26.117  13.423  1.00  0.00    -0.550 OA
ENDBRANCH   7   8
ENDBRANCH   6   7
ENDBRANCH   5   6
ENDBRANCH   4   5
ENDBRANCH   3   4
ENDBRANCH   2   3
ENDBRANCH   1   2
BRANCH   1  11
ATOM     11  C   UNL     1      -6.710  22.839  11.670  1.00  0.00    -0.031 C 
ATOM     12  C   UNL     1      -7.392  23.991  11.746  1.00  0.00    -0.027 C 
BRANCH  12  13
ATOM     13  C   UNL     1      -7.512  24.738  13.046  1.00  0.00     0.054 C 
BRANCH  13  14
ATOM     14  C   UNL     1      -8.933  24.719  13.551  1.00  0.00    -0.027 C 
ATOM     15  C   UNL     1      -9.385  23.812  14.434  1.00  0.00    -0.031 C 
BRANCH  15  16
ATOM     16  C   UNL     1      -8.512  22.724  15.012  1.00  0.00     0.027 C 
BRANCH  16  17
ATOM     17  C   UNL     1      -9.126  21.319  14.854  1.00  0.00     0.004 C 
BRANCH  17  18
ATOM     18  C   UNL     1      -8.649  20.570  13.594  1.00  0.00     0.000 C 
BRANCH  18  19
ATOM     19  C   UNL     1      -9.769  20.143  12.631  1.00  0.00    -0.003 C 
ATOM     20  C   UNL     1      -9.973  21.128  11.479  1.00  0.00     0.004 C 
ENDBRANCH  18  19
ENDBRANCH  17  18
ENDBRANCH  16  17
ENDBRANCH  15  16
ENDBRANCH  13  14
ENDBRANCH  12  13
ENDBRANCH   1  11
TORSDOF 14
ENDMDL
MODEL 9
REMARK VINA RESULT:    -3.080      2.617      4.135
REMARK INTER + INTRA:          -8.168
REMARK INTER:                  -6.655
REMARK INTRA:                  -1.513
REMARK UNBOUND:                -2.567
REMARK SMILES CCCCCC=CCC=CCCCCCCCC(=O)[O-]
REMARK SMILES IDX 11 1 12 2 13 3 14 4 15 5 16 6 17 7 18 8 19 9 20 10 10 11
REMARK SMILES IDX 9 12 8 13 7 14 6 15 5 16 4 17 3 18 2 19 1 20
REMARK H PARENT
REMARK Flexibility Score: inf
ROOT
ATOM      1  C   UNL     1      -7.081  22.731   8.541  1.00  0.00     0.027 C 
ENDROOT
BRANCH   1   2
ATOM      2  C   UNL     1      -6.126  22.411   7.385  1.00  0.00     0.004 C 
BRANCH   2   3
ATOM      3  C   UNL     1      -4.843  23.258   7.441  1.00  0.00     0.000 C 
BRANCH   3   4
ATOM      4  C   UNL     1      -5.123  24.744   7.712  1.00  0.00     0.000 C 
BRANCH   4   5
ATOM      5  C   UNL     1      -4.194  25.341   8.782  1.00  0.00     0.000 C 
BRANCH   5   6
ATOM      6  C   UNL     1      -4.701  25.104  10.212  1.00  0.00     0.006 C 
BRANCH   6   7
ATOM      7  C   UNL     1      -3.797  24.155  11.014  1.00  0.00     0.053 C 
BRANCH   7   8
ATOM      8  C   UNL     1      -2.589  24.871  11.538  1.00  0.00     0.041 C 
ATOM      9  O   UNL     1      -1.456  24.685  11.017  1.00  0.00    -0.550 OA
ATOM     10  O   UNL     1      -2.714  25.735  12.618  1.00  0.00    -0.550 OA
ENDBRANCH   7   8
ENDBRANCH   6   7
ENDBRANCH   5   6
ENDBRANCH   4   5
ENDBRANCH   3   4
ENDBRANCH   2   3
ENDBRANCH   1   2
BRANCH   1  11
ATOM     11  C   UNL     1      -6.664  22.023   9.802  1.00  0.00    -0.031 C 
ATOM     12  C   UNL     1      -7.151  22.365  11.004  1.00  0.00    -0.027 C 
BRANCH  12  13
ATOM     13  C   UNL     1      -6.747  21.619  12.246  1.00  0.00     0.054 C 
BRANCH  13  14
ATOM     14  C   UNL     1      -7.957  21.104  12.985  1.00  0.00    -0.027 C 
ATOM     15  C   UNL     1      -8.507  21.750  14.028  1.00  0.00    -0.031 C 
BRANCH  15  16
ATOM     16  C   UNL     1      -7.972  23.058  14.559  1.00  0.00     0.027 C 
BRANCH  16  17
ATOM     17  C   UNL     1      -8.645  23.487  15.878  1.00  0.00     0.004 C 
BRANCH  17  18
ATOM     18  C   UNL     1      -7.677  24.129  16.891  1.00  0.00     0.000 C 
BRANCH  18  19
ATOM     19  C   UNL     1      -8.046  23.911  18.368  1.00  0.00    -0.003 C 
ATOM     20  C   UNL     1      -6.870  23.413  19.210  1.00  0.00     0.004 C 
ENDBRANCH  18  19
ENDBRANCH  17  18
ENDBRANCH  16  17
ENDBRANCH  15  16
ENDBRANCH  13  14
ENDBRANCH  12  13
ENDBRANCH   1  11
TORSDOF 14
ENDMDL
