MODEL 1
REMARK VINA RESULT:    -4.128      0.000      0.000
REMARK INTER + INTRA:          -4.648
REMARK INTER:                  -4.611
REMARK INTRA:                  -0.037
REMARK UNBOUND:                -0.037
REMARK SMILES O=C([O-])c1ccc(O)c(O)c1
REMARK SMILES IDX 4 1 11 2 5 3 9 4 6 5 7 6 2 7 1 8 3 9 10 10 8 12
REMARK H PARENT 10 11 8 13
REMARK Flexibility Score: inf
ROOT
ATOM      1  C   UNL     1      15.811  -5.134   6.401  1.00  0.00     0.001 A 
ATOM      2  C   UNL     1      16.538  -6.145   7.056  1.00  0.00     0.060 A 
ATOM      3  C   UNL     1      16.504  -4.050   5.841  1.00  0.00     0.014 A 
ATOM      4  C   UNL     1      17.936  -6.073   7.147  1.00  0.00     0.158 A 
ATOM      5  C   UNL     1      17.897  -3.976   5.931  1.00  0.00     0.051 A 
ATOM      6  C   UNL     1      18.617  -4.983   6.581  1.00  0.00     0.157 A 
ENDROOT
BRANCH   1   7
ATOM      7  C   UNL     1      14.336  -5.208   6.303  1.00  0.00     0.072 C 
ATOM      8  O   UNL     1      13.610  -4.415   6.962  1.00  0.00    -0.545 OA
ATOM      9  O   UNL     1      13.730  -6.152   5.483  1.00  0.00    -0.545 OA
ENDBRANCH   1   7
BRANCH   4  10
ATOM     10  O   UNL     1      18.649  -7.080   7.796  1.00  0.00    -0.504 OA
ATOM     11  H   UNL     1      18.790  -7.069   8.800  1.00  0.00     0.293 HD
ENDBRANCH   4  10
BRANCH   6  12
ATOM     12  O   UNL     1      20.006  -4.882   6.656  1.00  0.00    -0.504 OA
ATOM     13  H   UNL     1      20.595  -5.686   6.839  1.00  0.00     0.293 HD
ENDBRANCH   6  12
TORSDOF 3
ENDMDL
MODEL 2
REMARK VINA RESULT:    -3.731      1.345      1.851
REMARK INTER + INTRA:          -4.203
REMARK INTER:                  -4.168
REMARK INTRA:                  -0.036
REMARK UNBOUND:                -0.037
REMARK SMILES O=C([O-])c1ccc(O)c(O)c1
REMARK SMILES IDX 4 1 11 2 5 3 9 4 6 5 7 6 2 7 1 8 3 9 10 10 8 12
REMARK H PARENT 10 11 8 13
REMARK Flexibility Score: inf
ROOT
ATOM      1  C   UNL     1      14.618  -5.479   6.888  1.00  0.00     0.001 A 
ATOM      2  C   UNL     1      14.911  -6.239   8.035  1.00  0.00     0.060 A 
ATOM      3  C   UNL     1      15.661  -5.142   6.009  1.00  0.00     0.014 A 
ATOM      4  C   UNL     1      16.225  -6.656   8.298  1.00  0.00     0.158 A 
ATOM      5  C   UNL     1      16.970  -5.557   6.270  1.00  0.00     0.051 A 
ATOM      6  C   UNL     1      17.257  -6.313   7.411  1.00  0.00     0.157 A 
ENDROOT
BRANCH   1   7
ATOM      7  C   UNL     1      13.234  -5.037   6.607  1.00  0.00     0.072 C 
ATOM      8  O   UNL     1      12.786  -3.972   7.113  1.00  0.00    -0.545 OA
ATOM      9  O   UNL     1      12.407  -5.789   5.782  1.00  0.00    -0.545 OA
ENDBRANCH   1   7
BRANCH   4  10
ATOM     10  O   UNL     1      16.505  -7.410   9.437  1.00  0.00    -0.504 OA
ATOM     11  H   UNL     1      15.793  -7.610  10.130  1.00  0.00     0.293 HD
ENDBRANCH   4  10
BRANCH   6  12
ATOM     12  O   UNL     1      18.573  -6.712   7.644  1.00  0.00    -0.504 OA
ATOM     13  H   UNL     1      18.800  -7.628   8.014  1.00  0.00     0.293 HD
ENDBRANCH   6  12
TORSDOF 3
ENDMDL
MODEL 3
REMARK VINA RESULT:    -3.631      1.047      2.125
REMARK INTER + INTRA:          -4.092
REMARK INTER:                  -4.055
REMARK INTRA:                  -0.038
REMARK UNBOUND:                -0.037
REMARK SMILES O=C([O-])c1ccc(O)c(O)c1
REMARK SMILES IDX 4 1 11 2 5 3 9 4 6 5 7 6 2 7 1 8 3 9 10 10 8 12
REMARK H PARENT 10 11 8 13
REMARK Flexibility Score: inf
ROOT
ATOM      1  C   UNL     1      15.860  -5.525   6.648  1.00  0.00     0.001 A 
ATOM      2  C   UNL     1      16.383  -4.409   5.969  1.00  0.00     0.060 A 
ATOM      3  C   UNL     1      16.743  -6.397   7.306  1.00  0.00     0.014 A 
ATOM      4  C   UNL     1      17.765  -4.169   5.949  1.00  0.00     0.158 A 
ATOM      5  C   UNL     1      18.120  -6.159   7.288  1.00  0.00     0.051 A 
ATOM      6  C   UNL     1      18.636  -5.048   6.612  1.00  0.00     0.157 A 
ENDROOT
BRANCH   1   7
ATOM      7  C   UNL     1      14.403  -5.781   6.670  1.00  0.00     0.072 C 
ATOM      8  O   UNL     1      13.773  -5.807   7.762  1.00  0.00    -0.545 OA
ATOM      9  O   UNL     1      13.707  -5.997   5.487  1.00  0.00    -0.545 OA
ENDBRANCH   1   7
BRANCH   4  10
ATOM     10  O   UNL     1      18.273  -3.060   5.275  1.00  0.00    -0.504 OA
ATOM     11  H   UNL     1      17.800  -2.164   5.292  1.00  0.00     0.293 HD
ENDBRANCH   4  10
BRANCH   6  12
ATOM     12  O   UNL     1      20.014  -4.838   6.611  1.00  0.00    -0.504 OA
ATOM     13  H   UNL     1      20.434  -4.018   7.035  1.00  0.00     0.293 HD
ENDBRANCH   6  12
TORSDOF 3
ENDMDL
MODEL 4
REMARK VINA RESULT:    -3.596     17.713     19.122
REMARK INTER + INTRA:          -4.054
REMARK INTER:                  -4.014
REMARK INTRA:                  -0.040
REMARK UNBOUND:                -0.037
REMARK SMILES O=C([O-])c1ccc(O)c(O)c1
REMARK SMILES IDX 4 1 11 2 5 3 9 4 6 5 7 6 2 7 1 8 3 9 10 10 8 12
REMARK H PARENT 10 11 8 13
REMARK Flexibility Score: inf
ROOT
ATOM      1  C   UNL     1      14.141 -18.005  19.992  1.00  0.00     0.001 A 
ATOM      2  C   UNL     1      13.586 -17.884  18.705  1.00  0.00     0.060 A 
ATOM      3  C   UNL     1      13.281 -18.114  21.097  1.00  0.00     0.014 A 
ATOM      4  C   UNL     1      12.195 -17.873  18.525  1.00  0.00     0.158 A 
ATOM      5  C   UNL     1      11.894 -18.103  20.919  1.00  0.00     0.051 A 
ATOM      6  C   UNL     1      11.347 -17.983  19.638  1.00  0.00     0.157 A 
ENDROOT
BRANCH   1   7
ATOM      7  C   UNL     1      15.608 -18.017  20.185  1.00  0.00     0.072 C 
ATOM      8  O   UNL     1      16.348 -18.706  19.431  1.00  0.00    -0.545 OA
ATOM      9  O   UNL     1      16.192 -17.268  21.199  1.00  0.00    -0.545 OA
ENDBRANCH   1   7
BRANCH   4  10
ATOM     10  O   UNL     1      11.655 -17.754  17.245  1.00  0.00    -0.504 OA
ATOM     11  H   UNL     1      12.204 -17.406  16.467  1.00  0.00     0.293 HD
ENDBRANCH   4  10
BRANCH   6  12
ATOM     12  O   UNL     1       9.960 -17.975  19.493  1.00  0.00    -0.504 OA
ATOM     13  H   UNL     1       9.487 -18.554  18.808  1.00  0.00     0.293 HD
ENDBRANCH   6  12
TORSDOF 3
ENDMDL
MODEL 5
REMARK VINA RESULT:    -3.595     17.234     18.351
REMARK INTER + INTRA:          -4.052
REMARK INTER:                  -4.016
REMARK INTRA:                  -0.036
REMARK UNBOUND:                -0.037
REMARK SMILES O=C([O-])c1ccc(O)c(O)c1
REMARK SMILES IDX 4 1 11 2 5 3 9 4 6 5 7 6 2 7 1 8 3 9 10 10 8 12
REMARK H PARENT 10 11 8 13
REMARK Flexibility Score: inf
ROOT
ATOM      1  C   UNL     1      13.062 -17.495  20.363  1.00  0.00     0.001 A 
ATOM      2  C   UNL     1      14.167 -18.354  20.218  1.00  0.00     0.060 A 
ATOM      3  C   UNL     1      13.084 -16.244  19.726  1.00  0.00     0.014 A 
ATOM      4  C   UNL     1      15.274 -17.969  19.448  1.00  0.00     0.158 A 
ATOM      5  C   UNL     1      14.187 -15.859  18.957  1.00  0.00     0.051 A 
ATOM      6  C   UNL     1      15.282 -16.716  18.815  1.00  0.00     0.157 A 
ENDROOT
BRANCH   1   7
ATOM      7  C   UNL     1      11.893 -17.898  21.176  1.00  0.00     0.072 C 
ATOM      8  O   UNL     1      11.793 -17.536  22.379  1.00  0.00    -0.545 OA
ATOM      9  O   UNL     1      10.887 -18.682  20.624  1.00  0.00    -0.545 OA
ENDBRANCH   1   7
BRANCH   4  10
ATOM     10  O   UNL     1      16.364 -18.828  19.309  1.00  0.00    -0.504 OA
ATOM     11  H   UNL     1      16.397 -19.530  18.578  1.00  0.00     0.293 HD
ENDBRANCH   4  10
BRANCH   6  12
ATOM     12  O   UNL     1      16.368 -16.304  18.043  1.00  0.00    -0.504 OA
ATOM     13  H   UNL     1      16.926 -16.958  17.506  1.00  0.00     0.293 HD
ENDBRANCH   6  12
TORSDOF 3
ENDMDL
MODEL 6
REMARK VINA RESULT:    -3.567     17.708     19.223
REMARK INTER + INTRA:          -4.021
REMARK INTER:                  -3.984
REMARK INTRA:                  -0.037
REMARK UNBOUND:                -0.037
REMARK SMILES O=C([O-])c1ccc(O)c(O)c1
REMARK SMILES IDX 4 1 11 2 5 3 9 4 6 5 7 6 2 7 1 8 3 9 10 10 8 12
REMARK H PARENT 10 11 8 13
REMARK Flexibility Score: inf
ROOT
ATOM      1  C   UNL     1      14.192 -17.873  19.614  1.00  0.00     0.001 A 
ATOM      2  C   UNL     1      13.848 -17.908  20.977  1.00  0.00     0.060 A 
ATOM      3  C   UNL     1      13.167 -17.854  18.653  1.00  0.00     0.014 A 
ATOM      4  C   UNL     1      12.503 -17.924  21.374  1.00  0.00     0.158 A 
ATOM      5  C   UNL     1      11.826 -17.870  19.047  1.00  0.00     0.051 A 
ATOM      6  C   UNL     1      11.488 -17.905  20.404  1.00  0.00     0.157 A 
ENDROOT
BRANCH   1   7
ATOM      7  C   UNL     1      15.610 -17.856  19.192  1.00  0.00     0.072 C 
ATOM      8  O   UNL     1      16.368 -18.830  19.453  1.00  0.00    -0.545 OA
ATOM      9  O   UNL     1      16.128 -16.767  18.502  1.00  0.00    -0.545 OA
ENDBRANCH   1   7
BRANCH   4  10
ATOM     10  O   UNL     1      12.172 -17.958  22.728  1.00  0.00    -0.504 OA
ATOM     11  H   UNL     1      11.600 -17.237  23.154  1.00  0.00     0.293 HD
ENDBRANCH   4  10
BRANCH   6  12
ATOM     12  O   UNL     1      10.142 -17.921  20.765  1.00  0.00    -0.504 OA
ATOM     13  H   UNL     1       9.605 -18.780  20.804  1.00  0.00     0.293 HD
ENDBRANCH   6  12
TORSDOF 3
ENDMDL
MODEL 7
REMARK VINA RESULT:    -3.563      6.697      7.589
REMARK INTER + INTRA:          -4.016
REMARK INTER:                  -3.980
REMARK INTRA:                  -0.036
REMARK UNBOUND:                -0.037
REMARK SMILES O=C([O-])c1ccc(O)c(O)c1
REMARK SMILES IDX 4 1 11 2 5 3 9 4 6 5 7 6 2 7 1 8 3 9 10 10 8 12
REMARK H PARENT 10 11 8 13
REMARK Flexibility Score: inf
ROOT
ATOM      1  C   UNL     1      15.520  -4.295  13.607  1.00  0.00     0.001 A 
ATOM      2  C   UNL     1      16.194  -5.529  13.564  1.00  0.00     0.060 A 
ATOM      3  C   UNL     1      14.379  -4.114  12.810  1.00  0.00     0.014 A 
ATOM      4  C   UNL     1      15.733  -6.565  12.738  1.00  0.00     0.158 A 
ATOM      5  C   UNL     1      13.918  -5.145  11.987  1.00  0.00     0.051 A 
ATOM      6  C   UNL     1      14.589  -6.371  11.947  1.00  0.00     0.157 A 
ENDROOT
BRANCH   1   7
ATOM      7  C   UNL     1      16.005  -3.200  14.477  1.00  0.00     0.072 C 
ATOM      8  O   UNL     1      16.749  -2.295  14.013  1.00  0.00    -0.545 OA
ATOM      9  O   UNL     1      15.645  -3.154  15.819  1.00  0.00    -0.545 OA
ENDBRANCH   1   7
BRANCH   4  10
ATOM     10  O   UNL     1      16.406  -7.786  12.703  1.00  0.00    -0.504 OA
ATOM     11  H   UNL     1      17.418  -7.836  12.748  1.00  0.00     0.293 HD
ENDBRANCH   4  10
BRANCH   6  12
ATOM     12  O   UNL     1      14.106  -7.381  11.115  1.00  0.00    -0.504 OA
ATOM     13  H   UNL     1      14.510  -7.566  10.204  1.00  0.00     0.293 HD
ENDBRANCH   6  12
TORSDOF 3
ENDMDL
MODEL 8
REMARK VINA RESULT:    -3.555      1.753      2.616
REMARK INTER + INTRA:          -4.007
REMARK INTER:                  -3.968
REMARK INTRA:                  -0.039
REMARK UNBOUND:                -0.037
REMARK SMILES O=C([O-])c1ccc(O)c(O)c1
REMARK SMILES IDX 4 1 11 2 5 3 9 4 6 5 7 6 2 7 1 8 3 9 10 10 8 12
REMARK H PARENT 10 11 8 13
REMARK Flexibility Score: inf
ROOT
ATOM      1  C   UNL     1      16.524  -6.066   7.332  1.00  0.00     0.001 A 
ATOM      2  C   UNL     1      17.926  -5.955   7.361  1.00  0.00     0.060 A 
ATOM      3  C   UNL     1      15.792  -5.233   6.470  1.00  0.00     0.014 A 
ATOM      4  C   UNL     1      18.585  -5.027   6.540  1.00  0.00     0.158 A 
ATOM      5  C   UNL     1      16.448  -4.309   5.652  1.00  0.00     0.051 A 
ATOM      6  C   UNL     1      17.841  -4.202   5.682  1.00  0.00     0.157 A 
ENDROOT
BRANCH   1   7
ATOM      7  C   UNL     1      15.826  -7.043   8.197  1.00  0.00     0.072 C 
ATOM      8  O   UNL     1      14.965  -7.827   7.713  1.00  0.00    -0.545 OA
ATOM      9  O   UNL     1      16.110  -7.112   9.555  1.00  0.00    -0.545 OA
ENDBRANCH   1   7
BRANCH   4  10
ATOM     10  O   UNL     1      19.976  -4.925   6.574  1.00  0.00    -0.504 OA
ATOM     11  H   UNL     1      20.462  -4.563   7.387  1.00  0.00     0.293 HD
ENDBRANCH   4  10
BRANCH   6  12
ATOM     12  O   UNL     1      18.467  -3.269   4.855  1.00  0.00    -0.504 OA
ATOM     13  H   UNL     1      18.889  -3.531   3.971  1.00  0.00     0.293 HD
ENDBRANCH   6  12
TORSDOF 3
ENDMDL
MODEL 9
REMARK VINA RESULT:    -3.132      1.911      3.657
REMARK INTER + INTRA:          -3.535
REMARK INTER:                  -3.495
REMARK INTRA:                  -0.040
REMARK UNBOUND:                -0.037
REMARK SMILES O=C([O-])c1ccc(O)c(O)c1
REMARK SMILES IDX 4 1 11 2 5 3 9 4 6 5 7 6 2 7 1 8 3 9 10 10 8 12
REMARK H PARENT 10 11 8 13
REMARK Flexibility Score: inf
ROOT
ATOM      1  C   UNL     1      17.711  -4.655   5.500  1.00  0.00     0.001 A 
ATOM      2  C   UNL     1      18.479  -5.465   6.356  1.00  0.00     0.060 A 
ATOM      3  C   UNL     1      16.311  -4.716   5.579  1.00  0.00     0.014 A 
ATOM      4  C   UNL     1      17.857  -6.320   7.277  1.00  0.00     0.158 A 
ATOM      5  C   UNL     1      15.689  -5.568   6.496  1.00  0.00     0.051 A 
ATOM      6  C   UNL     1      16.455  -6.371   7.346  1.00  0.00     0.157 A 
ENDROOT
BRANCH   1   7
ATOM      7  C   UNL     1      18.365  -3.751   4.527  1.00  0.00     0.072 C 
ATOM      8  O   UNL     1      19.374  -4.134   3.875  1.00  0.00    -0.545 OA
ATOM      9  O   UNL     1      17.876  -2.467   4.318  1.00  0.00    -0.545 OA
ENDBRANCH   1   7
BRANCH   4  10
ATOM     10  O   UNL     1      18.626  -7.119   8.123  1.00  0.00    -0.504 OA
ATOM     11  H   UNL     1      18.787  -8.100   7.927  1.00  0.00     0.293 HD
ENDBRANCH   4  10
BRANCH   6  12
ATOM     12  O   UNL     1      15.806  -7.212   8.250  1.00  0.00    -0.504 OA
ATOM     13  H   UNL     1      15.611  -8.183   8.037  1.00  0.00     0.293 HD
ENDBRANCH   6  12
TORSDOF 3
ENDMDL
