MODEL 1
REMARK VINA RESULT:    -3.771      0.000      0.000
REMARK INTER + INTRA:          -8.660
REMARK INTER:                  -5.755
REMARK INTRA:                  -2.905
REMARK UNBOUND:                -2.905
REMARK SMILES CC(=O)CCC=C(C)CCC=C(C)CCC=C(C)C
REMARK SMILES IDX 10 1 11 2 12 3 13 4 14 5 15 6 16 7 18 8 17 9 19 10 9 11 7 12
REMARK SMILES IDX 6 13 8 14 5 15 4 16 2 17 3 18 1 19
REMARK H PARENT
REMARK Flexibility Score: inf
ROOT
ATOM      1  C   UNL     1       1.323  -2.385  15.046  1.00  0.00     0.032 C 
ENDROOT
BRANCH   1   2
ATOM      2  C   UNL     1       2.433  -1.640  14.342  1.00  0.00    -0.028 C 
ATOM      3  C   UNL     1       3.755  -1.922  14.434  1.00  0.00    -0.077 C 
ATOM      4  C   UNL     1       4.719  -1.033  13.688  1.00  0.00     0.039 C 
BRANCH   3   5
ATOM      5  C   UNL     1       4.320  -3.062  15.261  1.00  0.00     0.034 C 
BRANCH   5   6
ATOM      6  C   UNL     1       5.210  -2.538  16.395  1.00  0.00     0.032 C 
BRANCH   6   7
ATOM      7  C   UNL     1       4.490  -2.608  17.718  1.00  0.00    -0.028 C 
ATOM      8  C   UNL     1       3.886  -0.178  17.699  1.00  0.00     0.039 C 
ATOM      9  C   UNL     1       3.861  -1.562  18.299  1.00  0.00    -0.080 C 
ATOM     10  C   UNL     1       3.146  -1.751  19.612  1.00  0.00     0.039 C 
ENDBRANCH   6   7
ENDBRANCH   5   6
ENDBRANCH   3   5
ENDBRANCH   1   2
BRANCH   1  11
ATOM     11  C   UNL     1       0.764  -1.604  16.244  1.00  0.00     0.034 C 
BRANCH  11  12
ATOM     12  C   UNL     1       0.385  -2.524  17.388  1.00  0.00    -0.077 C 
ATOM     13  C   UNL     1       0.770  -3.819  17.350  1.00  0.00    -0.028 C 
ATOM     14  C   UNL     1      -0.417  -1.978  18.545  1.00  0.00     0.039 C 
BRANCH  13  15
ATOM     15  C   UNL     1       0.447  -4.807  18.445  1.00  0.00     0.035 C 
BRANCH  15  16
ATOM     16  C   UNL     1       1.646  -5.002  19.386  1.00  0.00     0.079 C 
BRANCH  16  17
ATOM     17  C   UNL     1       1.326  -4.818  20.853  1.00  0.00     0.130 C 
ATOM     18  O   UNL     1       2.248  -4.827  21.653  1.00  0.00    -0.300 OA
ATOM     19  C   UNL     1      -0.075  -4.623  21.367  1.00  0.00     0.087 C 
ENDBRANCH  16  17
ENDBRANCH  15  16
ENDBRANCH  13  15
ENDBRANCH  11  12
ENDBRANCH   1  11
TORSDOF 9
ENDMDL
MODEL 2
REMARK VINA RESULT:    -3.637      3.415      6.397
REMARK INTER + INTRA:          -8.456
REMARK INTER:                  -5.916
REMARK INTRA:                  -2.540
REMARK UNBOUND:                -2.905
REMARK SMILES CC(=O)CCC=C(C)CCC=C(C)CCC=C(C)C
REMARK SMILES IDX 10 1 11 2 12 3 13 4 14 5 15 6 16 7 18 8 17 9 19 10 9 11 7 12
REMARK SMILES IDX 6 13 8 14 5 15 4 16 2 17 3 18 1 19
REMARK H PARENT
REMARK Flexibility Score: inf
ROOT
ATOM      1  C   UNL     1       0.606  -3.759  16.092  1.00  0.00     0.032 C 
ENDROOT
BRANCH   1   2
ATOM      2  C   UNL     1       0.350  -4.239  17.502  1.00  0.00    -0.028 C 
ATOM      3  C   UNL     1      -0.148  -3.487  18.513  1.00  0.00    -0.077 C 
ATOM      4  C   UNL     1      -0.293  -4.135  19.867  1.00  0.00     0.039 C 
BRANCH   3   5
ATOM      5  C   UNL     1      -0.544  -2.029  18.367  1.00  0.00     0.034 C 
BRANCH   5   6
ATOM      6  C   UNL     1       0.282  -1.133  19.298  1.00  0.00     0.032 C 
BRANCH   6   7
ATOM      7  C   UNL     1       1.432  -0.502  18.554  1.00  0.00    -0.028 C 
ATOM      8  C   UNL     1       3.124  -2.091  19.495  1.00  0.00     0.039 C 
ATOM      9  C   UNL     1       2.709  -0.943  18.607  1.00  0.00    -0.080 C 
ATOM     10  C   UNL     1       3.777  -0.254  17.798  1.00  0.00     0.039 C 
ENDBRANCH   6   7
ENDBRANCH   5   6
ENDBRANCH   3   5
ENDBRANCH   1   2
BRANCH   1  11
ATOM     11  C   UNL     1       2.048  -3.267  15.896  1.00  0.00     0.034 C 
BRANCH  11  12
ATOM     12  C   UNL     1       2.105  -2.027  15.026  1.00  0.00    -0.077 C 
ATOM     13  C   UNL     1       1.063  -1.167  15.031  1.00  0.00    -0.028 C 
ATOM     14  C   UNL     1       3.324  -1.778  14.170  1.00  0.00     0.039 C 
BRANCH  13  15
ATOM     15  C   UNL     1       1.034   0.096  14.205  1.00  0.00     0.035 C 
BRANCH  15  16
ATOM     16  C   UNL     1      -0.400   0.622  14.047  1.00  0.00     0.079 C 
BRANCH  16  17
ATOM     17  C   UNL     1      -0.577   1.632  12.935  1.00  0.00     0.130 C 
ATOM     18  O   UNL     1      -1.344   2.565  13.114  1.00  0.00    -0.300 OA
ATOM     19  C   UNL     1       0.150   1.538  11.620  1.00  0.00     0.087 C 
ENDBRANCH  16  17
ENDBRANCH  15  16
ENDBRANCH  13  15
ENDBRANCH  11  12
ENDBRANCH   1  11
TORSDOF 9
ENDMDL
MODEL 3
REMARK VINA RESULT:    -3.629      1.915      2.658
REMARK INTER + INTRA:          -8.444
REMARK INTER:                  -5.881
REMARK INTRA:                  -2.563
REMARK UNBOUND:                -2.905
REMARK SMILES CC(=O)CCC=C(C)CCC=C(C)CCC=C(C)C
REMARK SMILES IDX 10 1 11 2 12 3 13 4 14 5 15 6 16 7 18 8 17 9 19 10 9 11 7 12
REMARK SMILES IDX 6 13 8 14 5 15 4 16 2 17 3 18 1 19
REMARK H PARENT
REMARK Flexibility Score: inf
ROOT
ATOM      1  C   UNL     1       0.659  -0.319  14.818  1.00  0.00     0.032 C 
ENDROOT
BRANCH   1   2
ATOM      2  C   UNL     1       1.656   0.735  14.397  1.00  0.00    -0.028 C 
ATOM      3  C   UNL     1       2.810   0.507  13.724  1.00  0.00    -0.077 C 
ATOM      4  C   UNL     1       3.700   1.688  13.431  1.00  0.00     0.039 C 
BRANCH   3   5
ATOM      5  C   UNL     1       3.266  -0.869  13.273  1.00  0.00     0.034 C 
BRANCH   5   6
ATOM      6  C   UNL     1       4.636  -1.221  13.865  1.00  0.00     0.032 C 
BRANCH   6   7
ATOM      7  C   UNL     1       4.503  -2.280  14.931  1.00  0.00    -0.028 C 
ATOM      8  C   UNL     1       4.563  -0.626  16.809  1.00  0.00     0.039 C 
ATOM      9  C   UNL     1       4.435  -2.023  16.256  1.00  0.00    -0.080 C 
ATOM     10  C   UNL     1       4.273  -3.158  17.234  1.00  0.00     0.039 C 
ENDBRANCH   6   7
ENDBRANCH   5   6
ENDBRANCH   3   5
ENDBRANCH   1   2
BRANCH   1  11
ATOM     11  C   UNL     1       0.841  -0.744  16.282  1.00  0.00     0.034 C 
BRANCH  11  12
ATOM     12  C   UNL     1       0.815  -2.252  16.438  1.00  0.00    -0.077 C 
ATOM     13  C   UNL     1       0.619  -2.787  17.663  1.00  0.00    -0.028 C 
ATOM     14  C   UNL     1       1.012  -3.126  15.222  1.00  0.00     0.039 C 
BRANCH  13  15
ATOM     15  C   UNL     1       0.569  -4.274  17.914  1.00  0.00     0.035 C 
BRANCH  15  16
ATOM     16  C   UNL     1      -0.854  -4.729  18.268  1.00  0.00     0.079 C 
BRANCH  16  17
ATOM     17  C   UNL     1      -1.434  -4.070  19.500  1.00  0.00     0.130 C 
ATOM     18  O   UNL     1      -2.499  -3.482  19.396  1.00  0.00    -0.300 OA
ATOM     19  C   UNL     1      -0.757  -4.108  20.844  1.00  0.00     0.087 C 
ENDBRANCH  16  17
ENDBRANCH  15  16
ENDBRANCH  13  15
ENDBRANCH  11  12
ENDBRANCH   1  11
TORSDOF 9
ENDMDL
MODEL 4
REMARK VINA RESULT:    -3.624      3.427      6.281
REMARK INTER + INTRA:          -8.436
REMARK INTER:                  -5.392
REMARK INTRA:                  -3.044
REMARK UNBOUND:                -2.905
REMARK SMILES CC(=O)CCC=C(C)CCC=C(C)CCC=C(C)C
REMARK SMILES IDX 10 1 11 2 12 3 13 4 14 5 15 6 16 7 18 8 17 9 19 10 9 11 7 12
REMARK SMILES IDX 6 13 8 14 5 15 4 16 2 17 3 18 1 19
REMARK H PARENT
REMARK Flexibility Score: inf
ROOT
ATOM      1  C   UNL     1       0.656  -0.991  19.043  1.00  0.00     0.032 C 
ENDROOT
BRANCH   1   2
ATOM      2  C   UNL     1       1.077  -2.411  19.342  1.00  0.00    -0.028 C 
ATOM      3  C   UNL     1       0.783  -3.497  18.588  1.00  0.00    -0.077 C 
ATOM      4  C   UNL     1       1.257  -4.843  19.075  1.00  0.00     0.039 C 
BRANCH   3   5
ATOM      5  C   UNL     1      -0.015  -3.438  17.298  1.00  0.00     0.034 C 
BRANCH   5   6
ATOM      6  C   UNL     1       0.819  -3.926  16.106  1.00  0.00     0.032 C 
BRANCH   6   7
ATOM      7  C   UNL     1       1.380  -2.760  15.332  1.00  0.00    -0.028 C 
ATOM      8  C   UNL     1       3.652  -2.960  16.365  1.00  0.00     0.039 C 
ATOM      9  C   UNL     1       2.661  -2.336  15.414  1.00  0.00    -0.080 C 
ATOM     10  C   UNL     1       3.124  -1.176  14.572  1.00  0.00     0.039 C 
ENDBRANCH   6   7
ENDBRANCH   5   6
ENDBRANCH   3   5
ENDBRANCH   1   2
BRANCH   1  11
ATOM     11  C   UNL     1       1.779  -0.174  18.388  1.00  0.00     0.034 C 
BRANCH  11  12
ATOM     12  C   UNL     1       1.270   0.643  17.216  1.00  0.00    -0.077 C 
ATOM     13  C   UNL     1       0.107   0.296  16.624  1.00  0.00    -0.028 C 
ATOM     14  C   UNL     1       2.075   1.826  16.733  1.00  0.00     0.039 C 
BRANCH  13  15
ATOM     15  C   UNL     1      -0.482   1.053  15.458  1.00  0.00     0.035 C 
BRANCH  15  16
ATOM     16  C   UNL     1      -0.198   0.335  14.131  1.00  0.00     0.079 C 
BRANCH  16  17
ATOM     17  C   UNL     1       0.339   1.233  13.037  1.00  0.00     0.130 C 
ATOM     18  O   UNL     1      -0.319   1.360  12.016  1.00  0.00    -0.300 OA
ATOM     19  C   UNL     1       1.645   1.973  13.153  1.00  0.00     0.087 C 
ENDBRANCH  16  17
ENDBRANCH  15  16
ENDBRANCH  13  15
ENDBRANCH  11  12
ENDBRANCH   1  11
TORSDOF 9
ENDMDL
MODEL 5
REMARK VINA RESULT:    -3.623      1.302      1.909
REMARK INTER + INTRA:          -8.435
REMARK INTER:                  -5.769
REMARK INTRA:                  -2.666
REMARK UNBOUND:                -2.905
REMARK SMILES CC(=O)CCC=C(C)CCC=C(C)CCC=C(C)C
REMARK SMILES IDX 10 1 11 2 12 3 13 4 14 5 15 6 16 7 18 8 17 9 19 10 9 11 7 12
REMARK SMILES IDX 6 13 8 14 5 15 4 16 2 17 3 18 1 19
REMARK H PARENT
REMARK Flexibility Score: inf
ROOT
ATOM      1  C   UNL     1       1.015  -2.390  15.250  1.00  0.00     0.032 C 
ENDROOT
BRANCH   1   2
ATOM      2  C   UNL     1       2.311  -2.230  14.490  1.00  0.00    -0.028 C 
ATOM      3  C   UNL     1       3.311  -1.372  14.806  1.00  0.00    -0.077 C 
ATOM      4  C   UNL     1       4.513  -1.325  13.896  1.00  0.00     0.039 C 
BRANCH   3   5
ATOM      5  C   UNL     1       3.278  -0.442  16.005  1.00  0.00     0.034 C 
BRANCH   5   6
ATOM      6  C   UNL     1       4.356  -0.818  17.030  1.00  0.00     0.032 C 
BRANCH   6   7
ATOM      7  C   UNL     1       3.847  -1.873  17.979  1.00  0.00    -0.028 C 
ATOM      8  C   UNL     1       5.118  -3.720  16.865  1.00  0.00     0.039 C 
ATOM      9  C   UNL     1       4.207  -3.175  17.937  1.00  0.00    -0.080 C 
ATOM     10  C   UNL     1       3.659  -4.140  18.956  1.00  0.00     0.039 C 
ENDBRANCH   6   7
ENDBRANCH   5   6
ENDBRANCH   3   5
ENDBRANCH   1   2
BRANCH   1  11
ATOM     11  C   UNL     1       1.056  -3.572  16.231  1.00  0.00     0.034 C 
BRANCH  11  12
ATOM     12  C   UNL     1       0.255  -3.289  17.486  1.00  0.00    -0.077 C 
ATOM     13  C   UNL     1      -0.330  -4.315  18.142  1.00  0.00    -0.028 C 
ATOM     14  C   UNL     1       0.122  -1.866  17.976  1.00  0.00     0.039 C 
BRANCH  13  15
ATOM     15  C   UNL     1      -1.140  -4.132  19.403  1.00  0.00     0.035 C 
BRANCH  15  16
ATOM     16  C   UNL     1      -0.312  -4.480  20.649  1.00  0.00     0.079 C 
BRANCH  16  17
ATOM     17  C   UNL     1       0.290  -3.284  21.354  1.00  0.00     0.130 C 
ATOM     18  O   UNL     1       1.486  -3.297  21.599  1.00  0.00    -0.300 OA
ATOM     19  C   UNL     1      -0.519  -2.083  21.764  1.00  0.00     0.087 C 
ENDBRANCH  16  17
ENDBRANCH  15  16
ENDBRANCH  13  15
ENDBRANCH  11  12
ENDBRANCH   1  11
TORSDOF 9
ENDMDL
MODEL 6
REMARK VINA RESULT:    -3.622      2.207      3.270
REMARK INTER + INTRA:          -8.434
REMARK INTER:                  -5.314
REMARK INTRA:                  -3.119
REMARK UNBOUND:                -2.905
REMARK SMILES CC(=O)CCC=C(C)CCC=C(C)CCC=C(C)C
REMARK SMILES IDX 10 1 11 2 12 3 13 4 14 5 15 6 16 7 18 8 17 9 19 10 9 11 7 12
REMARK SMILES IDX 6 13 8 14 5 15 4 16 2 17 3 18 1 19
REMARK H PARENT
REMARK Flexibility Score: inf
ROOT
ATOM      1  C   UNL     1       1.278  -3.126  15.528  1.00  0.00     0.032 C 
ENDROOT
BRANCH   1   2
ATOM      2  C   UNL     1       1.719  -1.791  14.975  1.00  0.00    -0.028 C 
ATOM      3  C   UNL     1       1.112  -0.601  15.204  1.00  0.00    -0.077 C 
ATOM      4  C   UNL     1       1.677   0.621  14.526  1.00  0.00     0.039 C 
BRANCH   3   5
ATOM      5  C   UNL     1      -0.115  -0.435  16.082  1.00  0.00     0.034 C 
BRANCH   5   6
ATOM      6  C   UNL     1       0.174   0.488  17.273  1.00  0.00     0.032 C 
BRANCH   6   7
ATOM      7  C   UNL     1       0.308  -0.308  18.547  1.00  0.00    -0.028 C 
ATOM      8  C   UNL     1       2.811  -0.264  18.501  1.00  0.00     0.039 C 
ATOM      9  C   UNL     1       1.487  -0.624  19.128  1.00  0.00    -0.080 C 
ATOM     10  C   UNL     1       1.504  -1.400  20.419  1.00  0.00     0.039 C 
ENDBRANCH   6   7
ENDBRANCH   5   6
ENDBRANCH   3   5
ENDBRANCH   1   2
BRANCH   1  11
ATOM     11  C   UNL     1       2.039  -3.509  16.806  1.00  0.00     0.034 C 
BRANCH  11  12
ATOM     12  C   UNL     1       1.114  -4.085  17.860  1.00  0.00    -0.077 C 
ATOM     13  C   UNL     1      -0.221  -3.927  17.726  1.00  0.00    -0.028 C 
ATOM     14  C   UNL     1       1.702  -4.820  19.041  1.00  0.00     0.039 C 
BRANCH  13  15
ATOM     15  C   UNL     1      -1.219  -4.472  18.719  1.00  0.00     0.035 C 
BRANCH  15  16
ATOM     16  C   UNL     1      -1.989  -3.337  19.410  1.00  0.00     0.079 C 
BRANCH  16  17
ATOM     17  C   UNL     1      -1.704  -3.198  20.889  1.00  0.00     0.130 C 
ATOM     18  O   UNL     1      -2.237  -2.285  21.500  1.00  0.00    -0.300 OA
ATOM     19  C   UNL     1      -0.794  -4.133  21.639  1.00  0.00     0.087 C 
ENDBRANCH  16  17
ENDBRANCH  15  16
ENDBRANCH  13  15
ENDBRANCH  11  12
ENDBRANCH   1  11
TORSDOF 9
ENDMDL
MODEL 7
REMARK VINA RESULT:    -3.595      4.995      7.694
REMARK INTER + INTRA:          -8.392
REMARK INTER:                  -5.634
REMARK INTRA:                  -2.758
REMARK UNBOUND:                -2.905
REMARK SMILES CC(=O)CCC=C(C)CCC=C(C)CCC=C(C)C
REMARK SMILES IDX 10 1 11 2 12 3 13 4 14 5 15 6 16 7 18 8 17 9 19 10 9 11 7 12
REMARK SMILES IDX 6 13 8 14 5 15 4 16 2 17 3 18 1 19
REMARK H PARENT
REMARK Flexibility Score: inf
ROOT
ATOM      1  C   UNL     1       3.589   2.373  23.463  1.00  0.00     0.032 C 
ENDROOT
BRANCH   1   2
ATOM      2  C   UNL     1       2.523   3.440  23.391  1.00  0.00    -0.028 C 
ATOM      3  C   UNL     1       1.522   3.497  22.480  1.00  0.00    -0.077 C 
ATOM      4  C   UNL     1       0.576   4.669  22.543  1.00  0.00     0.039 C 
BRANCH   3   5
ATOM      5  C   UNL     1       1.315   2.463  21.387  1.00  0.00     0.034 C 
BRANCH   5   6
ATOM      6  C   UNL     1      -0.142   1.986  21.342  1.00  0.00     0.032 C 
BRANCH   6   7
ATOM      7  C   UNL     1      -0.511   1.269  22.617  1.00  0.00    -0.028 C 
ATOM      8  C   UNL     1      -2.486   0.122  21.591  1.00  0.00     0.039 C 
ATOM      9  C   UNL     1      -1.542   0.403  22.734  1.00  0.00    -0.080 C 
ATOM     10  C   UNL     1      -1.803  -0.281  24.051  1.00  0.00     0.039 C 
ENDBRANCH   6   7
ENDBRANCH   5   6
ENDBRANCH   3   5
ENDBRANCH   1   2
BRANCH   1  11
ATOM     11  C   UNL     1       3.456   1.498  24.718  1.00  0.00     0.034 C 
BRANCH  11  12
ATOM     12  C   UNL     1       2.554   0.303  24.478  1.00  0.00    -0.077 C 
ATOM     13  C   UNL     1       2.662  -0.385  23.321  1.00  0.00    -0.028 C 
ATOM     14  C   UNL     1       1.550  -0.091  25.536  1.00  0.00     0.039 C 
BRANCH  13  15
ATOM     15  C   UNL     1       1.813  -1.591  22.998  1.00  0.00     0.035 C 
BRANCH  15  16
ATOM     16  C   UNL     1       1.402  -1.599  21.518  1.00  0.00     0.079 C 
BRANCH  16  17
ATOM     17  C   UNL     1       0.548  -2.780  21.112  1.00  0.00     0.130 C 
ATOM     18  O   UNL     1       0.883  -3.429  20.135  1.00  0.00    -0.300 OA
ATOM     19  C   UNL     1      -0.694  -3.187  21.860  1.00  0.00     0.087 C 
ENDBRANCH  16  17
ENDBRANCH  15  16
ENDBRANCH  13  15
ENDBRANCH  11  12
ENDBRANCH   1  11
TORSDOF 9
ENDMDL
MODEL 8
REMARK VINA RESULT:    -3.593      2.093      3.495
REMARK INTER + INTRA:          -8.389
REMARK INTER:                  -5.570
REMARK INTRA:                  -2.819
REMARK UNBOUND:                -2.905
REMARK SMILES CC(=O)CCC=C(C)CCC=C(C)CCC=C(C)C
REMARK SMILES IDX 10 1 11 2 12 3 13 4 14 5 15 6 16 7 18 8 17 9 19 10 9 11 7 12
REMARK SMILES IDX 6 13 8 14 5 15 4 16 2 17 3 18 1 19
REMARK H PARENT
REMARK Flexibility Score: inf
ROOT
ATOM      1  C   UNL     1       0.472  -4.548  17.542  1.00  0.00     0.032 C 
ENDROOT
BRANCH   1   2
ATOM      2  C   UNL     1       0.759  -3.698  16.326  1.00  0.00    -0.028 C 
ATOM      3  C   UNL     1       0.928  -2.353  16.325  1.00  0.00    -0.077 C 
ATOM      4  C   UNL     1       1.164  -1.674  14.999  1.00  0.00     0.039 C 
BRANCH   3   5
ATOM      5  C   UNL     1       0.869  -1.493  17.574  1.00  0.00     0.034 C 
BRANCH   5   6
ATOM      6  C   UNL     1       2.269  -1.260  18.155  1.00  0.00     0.032 C 
BRANCH   6   7
ATOM      7  C   UNL     1       2.563  -2.247  19.258  1.00  0.00    -0.028 C 
ATOM      8  C   UNL     1       4.174  -3.567  17.867  1.00  0.00     0.039 C 
ATOM      9  C   UNL     1       3.442  -3.268  19.152  1.00  0.00    -0.080 C 
ATOM     10  C   UNL     1       3.680  -4.179  20.329  1.00  0.00     0.039 C 
ENDBRANCH   6   7
ENDBRANCH   5   6
ENDBRANCH   3   5
ENDBRANCH   1   2
BRANCH   1  11
ATOM     11  C   UNL     1      -1.021  -4.571  17.899  1.00  0.00     0.034 C 
BRANCH  11  12
ATOM     12  C   UNL     1      -1.263  -4.140  19.333  1.00  0.00    -0.077 C 
ATOM     13  C   UNL     1      -0.341  -4.432  20.275  1.00  0.00    -0.028 C 
ATOM     14  C   UNL     1      -2.532  -3.397  19.679  1.00  0.00     0.039 C 
BRANCH  13  15
ATOM     15  C   UNL     1      -0.491  -4.037  21.725  1.00  0.00     0.035 C 
BRANCH  15  16
ATOM     16  C   UNL     1       0.485  -2.911  22.096  1.00  0.00     0.079 C 
BRANCH  16  17
ATOM     17  C   UNL     1      -0.146  -1.538  22.174  1.00  0.00     0.130 C 
ATOM     18  O   UNL     1      -0.510  -1.128  23.265  1.00  0.00    -0.300 OA
ATOM     19  C   UNL     1      -0.342  -0.657  20.970  1.00  0.00     0.087 C 
ENDBRANCH  16  17
ENDBRANCH  15  16
ENDBRANCH  13  15
ENDBRANCH  11  12
ENDBRANCH   1  11
TORSDOF 9
ENDMDL
MODEL 9
REMARK VINA RESULT:    -3.592      2.905      6.354
REMARK INTER + INTRA:          -8.386
REMARK INTER:                  -5.820
REMARK INTRA:                  -2.567
REMARK UNBOUND:                -2.905
REMARK SMILES CC(=O)CCC=C(C)CCC=C(C)CCC=C(C)C
REMARK SMILES IDX 10 1 11 2 12 3 13 4 14 5 15 6 16 7 18 8 17 9 19 10 9 11 7 12
REMARK SMILES IDX 6 13 8 14 5 15 4 16 2 17 3 18 1 19
REMARK H PARENT
REMARK Flexibility Score: inf
ROOT
ATOM      1  C   UNL     1       0.527  -4.201  17.759  1.00  0.00     0.032 C 
ENDROOT
BRANCH   1   2
ATOM      2  C   UNL     1      -0.918  -4.291  18.192  1.00  0.00    -0.028 C 
ATOM      3  C   UNL     1      -1.543  -3.438  19.038  1.00  0.00    -0.077 C 
ATOM      4  C   UNL     1      -2.984  -3.719  19.385  1.00  0.00     0.039 C 
BRANCH   3   5
ATOM      5  C   UNL     1      -0.872  -2.233  19.672  1.00  0.00     0.034 C 
BRANCH   5   6
ATOM      6  C   UNL     1      -0.950  -1.006  18.754  1.00  0.00     0.032 C 
BRANCH   6   7
ATOM      7  C   UNL     1       0.428  -0.466  18.464  1.00  0.00    -0.028 C 
ATOM      8  C   UNL     1      -0.115   0.084  16.082  1.00  0.00     0.039 C 
ATOM      9  C   UNL     1       0.807   0.058  17.276  1.00  0.00    -0.080 C 
ATOM     10  C   UNL     1       2.203   0.596  17.104  1.00  0.00     0.039 C 
ENDBRANCH   6   7
ENDBRANCH   5   6
ENDBRANCH   3   5
ENDBRANCH   1   2
BRANCH   1  11
ATOM     11  C   UNL     1       0.673  -3.724  16.307  1.00  0.00     0.034 C 
BRANCH  11  12
ATOM     12  C   UNL     1       2.031  -3.099  16.054  1.00  0.00    -0.077 C 
ATOM     13  C   UNL     1       2.265  -2.479  14.877  1.00  0.00    -0.028 C 
ATOM     14  C   UNL     1       3.097  -3.186  17.120  1.00  0.00     0.039 C 
BRANCH  13  15
ATOM     15  C   UNL     1       3.581  -1.822  14.538  1.00  0.00     0.035 C 
BRANCH  15  16
ATOM     16  C   UNL     1       3.453  -0.933  13.293  1.00  0.00     0.079 C 
BRANCH  16  17
ATOM     17  C   UNL     1       3.303   0.543  13.591  1.00  0.00     0.130 C 
ATOM     18  O   UNL     1       4.240   1.127  14.112  1.00  0.00    -0.300 OA
ATOM     19  C   UNL     1       2.054   1.320  13.273  1.00  0.00     0.087 C 
ENDBRANCH  16  17
ENDBRANCH  15  16
ENDBRANCH  13  15
ENDBRANCH  11  12
ENDBRANCH   1  11
TORSDOF 9
ENDMDL
