MODEL 1
REMARK VINA RESULT:    -4.074      0.000      0.000
REMARK INTER + INTRA:          -6.044
REMARK INTER:                  -5.503
REMARK INTRA:                  -0.541
REMARK UNBOUND:                -0.541
REMARK SMILES [NH3+]CCCC[C@H]([NH3+])C(=O)[O-]
REMARK SMILES IDX 4 1 3 2 2 3 1 4 5 8 6 9 7 10 8 14 9 15 10 16
REMARK H PARENT 1 5 1 6 1 7 7 11 7 12 7 13
REMARK Flexibility Score: inf
ROOT
ATOM      1  C   UNL     1      21.923  -1.397  23.461  1.00  0.00     0.012 C 
ENDROOT
BRANCH   1   2
ATOM      2  C   UNL     1      22.676  -0.535  22.438  1.00  0.00     0.061 C 
BRANCH   2   3
ATOM      3  C   UNL     1      24.156  -0.931  22.307  1.00  0.00     0.258 C 
BRANCH   3   4
ATOM      4  N   UNL     1      24.323  -2.350  21.990  1.00  0.00    -0.358 N 
ATOM      5  H   UNL     1      24.905  -2.466  21.129  1.00  0.00     0.344 HD
ATOM      6  H   UNL     1      24.808  -2.821  22.788  1.00  0.00     0.344 HD
ATOM      7  H   UNL     1      23.392  -2.805  21.857  1.00  0.00     0.344 HD
ENDBRANCH   3   4
ENDBRANCH   2   3
ENDBRANCH   1   2
BRANCH   1   8
ATOM      8  C   UNL     1      20.566  -1.854  22.903  1.00  0.00     0.072 C 
BRANCH   8   9
ATOM      9  C   UNL     1      20.588  -3.327  22.440  1.00  0.00     0.227 C 
BRANCH   9  10
ATOM     10  N   UNL     1      21.627  -4.075  23.159  1.00  0.00    -0.350 N 
ATOM     11  H   UNL     1      21.411  -5.099  23.129  1.00  0.00     0.345 HD
ATOM     12  H   UNL     1      22.555  -3.925  22.700  1.00  0.00     0.345 HD
ATOM     13  H   UNL     1      21.682  -3.766  24.157  1.00  0.00     0.345 HD
ENDBRANCH   9  10
BRANCH   9  14
ATOM     14  C   UNL     1      20.811  -3.428  20.953  1.00  0.00     0.099 C 
ATOM     15  O   UNL     1      21.976  -3.381  20.476  1.00  0.00    -0.544 OA
ATOM     16  O   UNL     1      19.726  -3.565  20.097  1.00  0.00    -0.544 OA
ENDBRANCH   9  14
ENDBRANCH   8   9
ENDBRANCH   1   8
TORSDOF 7
ENDMDL
MODEL 2
REMARK VINA RESULT:    -4.011      5.379      7.256
REMARK INTER + INTRA:          -5.959
REMARK INTER:                  -5.736
REMARK INTRA:                  -0.223
REMARK UNBOUND:                -0.541
REMARK SMILES [NH3+]CCCC[C@H]([NH3+])C(=O)[O-]
REMARK SMILES IDX 4 1 3 2 2 3 1 4 5 8 6 9 7 10 8 14 9 15 10 16
REMARK H PARENT 1 5 1 6 1 7 7 11 7 12 7 13
REMARK Flexibility Score: inf
ROOT
ATOM      1  C   UNL     1      16.245  -3.893  19.151  1.00  0.00     0.012 C 
ENDROOT
BRANCH   1   2
ATOM      2  C   UNL     1      15.621  -3.985  17.751  1.00  0.00     0.061 C 
BRANCH   2   3
ATOM      3  C   UNL     1      14.881  -5.312  17.520  1.00  0.00     0.258 C 
BRANCH   3   4
ATOM      4  N   UNL     1      13.939  -5.615  18.599  1.00  0.00    -0.358 N 
ATOM      5  H   UNL     1      14.220  -6.492  19.095  1.00  0.00     0.344 HD
ATOM      6  H   UNL     1      13.943  -4.825  19.285  1.00  0.00     0.344 HD
ATOM      7  H   UNL     1      12.970  -5.714  18.219  1.00  0.00     0.344 HD
ENDBRANCH   3   4
ENDBRANCH   2   3
ENDBRANCH   1   2
BRANCH   1   8
ATOM      8  C   UNL     1      17.663  -4.487  19.161  1.00  0.00     0.072 C 
BRANCH   8   9
ATOM      9  C   UNL     1      18.438  -4.177  17.862  1.00  0.00     0.227 C 
BRANCH   9  10
ATOM     10  N   UNL     1      19.020  -5.405  17.306  1.00  0.00    -0.350 N 
ATOM     11  H   UNL     1      18.579  -5.620  16.382  1.00  0.00     0.345 HD
ATOM     12  H   UNL     1      20.046  -5.273  17.154  1.00  0.00     0.345 HD
ATOM     13  H   UNL     1      18.869  -6.213  17.954  1.00  0.00     0.345 HD
ENDBRANCH   9  10
BRANCH   9  14
ATOM     14  C   UNL     1      19.517  -3.153  18.102  1.00  0.00     0.099 C 
ATOM     15  O   UNL     1      19.296  -2.150  18.832  1.00  0.00    -0.544 OA
ATOM     16  O   UNL     1      20.763  -3.307  17.509  1.00  0.00    -0.544 OA
ENDBRANCH   9  14
ENDBRANCH   8   9
ENDBRANCH   1   8
TORSDOF 7
ENDMDL
MODEL 3
REMARK VINA RESULT:    -3.964      7.179      8.448
REMARK INTER + INTRA:          -5.895
REMARK INTER:                  -5.786
REMARK INTRA:                  -0.109
REMARK UNBOUND:                -0.541
REMARK SMILES [NH3+]CCCC[C@H]([NH3+])C(=O)[O-]
REMARK SMILES IDX 4 1 3 2 2 3 1 4 5 8 6 9 7 10 8 14 9 15 10 16
REMARK H PARENT 1 5 1 6 1 7 7 11 7 12 7 13
REMARK Flexibility Score: inf
ROOT
ATOM      1  C   UNL     1      15.496  -3.453  17.689  1.00  0.00     0.012 C 
ENDROOT
BRANCH   1   2
ATOM      2  C   UNL     1      15.557  -4.953  18.010  1.00  0.00     0.061 C 
BRANCH   2   3
ATOM      3  C   UNL     1      14.258  -5.690  17.642  1.00  0.00     0.258 C 
BRANCH   3   4
ATOM      4  N   UNL     1      13.415  -5.941  18.812  1.00  0.00    -0.358 N 
ATOM      5  H   UNL     1      13.029  -6.913  18.782  1.00  0.00     0.344 HD
ATOM      6  H   UNL     1      13.993  -5.836  19.677  1.00  0.00     0.344 HD
ATOM      7  H   UNL     1      12.633  -5.249  18.853  1.00  0.00     0.344 HD
ENDBRANCH   3   4
ENDBRANCH   2   3
ENDBRANCH   1   2
BRANCH   1   8
ATOM      8  C   UNL     1      16.528  -2.670  18.516  1.00  0.00     0.072 C 
BRANCH   8   9
ATOM      9  C   UNL     1      16.056  -1.235  18.836  1.00  0.00     0.227 C 
BRANCH   9  10
ATOM     10  N   UNL     1      14.604  -1.119  18.649  1.00  0.00    -0.350 N 
ATOM     11  H   UNL     1      14.295  -0.145  18.875  1.00  0.00     0.345 HD
ATOM     12  H   UNL     1      14.358  -1.315  17.652  1.00  0.00     0.345 HD
ATOM     13  H   UNL     1      14.096  -1.791  19.269  1.00  0.00     0.345 HD
ENDBRANCH   9  10
BRANCH   9  14
ATOM     14  C   UNL     1      16.772  -0.223  17.980  1.00  0.00     0.099 C 
ATOM     15  O   UNL     1      17.942  -0.445  17.570  1.00  0.00    -0.544 OA
ATOM     16  O   UNL     1      16.145   0.971  17.646  1.00  0.00    -0.544 OA
ENDBRANCH   9  14
ENDBRANCH   8   9
ENDBRANCH   1   8
TORSDOF 7
ENDMDL
MODEL 4
REMARK VINA RESULT:    -3.942      5.205      7.197
REMARK INTER + INTRA:          -5.866
REMARK INTER:                  -5.787
REMARK INTRA:                  -0.079
REMARK UNBOUND:                -0.541
REMARK SMILES [NH3+]CCCC[C@H]([NH3+])C(=O)[O-]
REMARK SMILES IDX 4 1 3 2 2 3 1 4 5 8 6 9 7 10 8 14 9 15 10 16
REMARK H PARENT 1 5 1 6 1 7 7 11 7 12 7 13
REMARK Flexibility Score: inf
ROOT
ATOM      1  C   UNL     1      17.083  -3.920  17.062  1.00  0.00     0.012 C 
ENDROOT
BRANCH   1   2
ATOM      2  C   UNL     1      15.652  -3.900  17.618  1.00  0.00     0.061 C 
BRANCH   2   3
ATOM      3  C   UNL     1      14.947  -5.259  17.483  1.00  0.00     0.258 C 
BRANCH   3   4
ATOM      4  N   UNL     1      14.051  -5.532  18.608  1.00  0.00    -0.358 N 
ATOM      5  H   UNL     1      14.414  -6.331  19.178  1.00  0.00     0.344 HD
ATOM      6  H   UNL     1      14.000  -4.682  19.215  1.00  0.00     0.344 HD
ATOM      7  H   UNL     1      13.089  -5.748  18.263  1.00  0.00     0.344 HD
ENDBRANCH   3   4
ENDBRANCH   2   3
ENDBRANCH   1   2
BRANCH   1   8
ATOM      8  C   UNL     1      18.068  -4.488  18.097  1.00  0.00     0.072 C 
BRANCH   8   9
ATOM      9  C   UNL     1      19.358  -3.647  18.201  1.00  0.00     0.227 C 
BRANCH   9  10
ATOM     10  N   UNL     1      20.166  -3.792  16.984  1.00  0.00    -0.350 N 
ATOM     11  H   UNL     1      20.154  -2.897  16.442  1.00  0.00     0.345 HD
ATOM     12  H   UNL     1      21.158  -4.004  17.240  1.00  0.00     0.345 HD
ATOM     13  H   UNL     1      19.793  -4.562  16.382  1.00  0.00     0.345 HD
ENDBRANCH   9  10
BRANCH   9  14
ATOM     14  C   UNL     1      20.167  -4.038  19.411  1.00  0.00     0.099 C 
ATOM     15  O   UNL     1      19.714  -3.851  20.571  1.00  0.00    -0.544 OA
ATOM     16  O   UNL     1      21.427  -4.601  19.251  1.00  0.00    -0.544 OA
ENDBRANCH   9  14
ENDBRANCH   8   9
ENDBRANCH   1   8
TORSDOF 7
ENDMDL
MODEL 5
REMARK VINA RESULT:    -3.906      5.176      5.643
REMARK INTER + INTRA:          -5.818
REMARK INTER:                  -5.682
REMARK INTRA:                  -0.135
REMARK UNBOUND:                -0.541
REMARK SMILES [NH3+]CCCC[C@H]([NH3+])C(=O)[O-]
REMARK SMILES IDX 4 1 3 2 2 3 1 4 5 8 6 9 7 10 8 14 9 15 10 16
REMARK H PARENT 1 5 1 6 1 7 7 11 7 12 7 13
REMARK Flexibility Score: inf
ROOT
ATOM      1  C   UNL     1      19.555  -4.915  18.102  1.00  0.00     0.012 C 
ENDROOT
BRANCH   1   2
ATOM      2  C   UNL     1      21.075  -4.957  18.320  1.00  0.00     0.061 C 
BRANCH   2   3
ATOM      3  C   UNL     1      21.851  -5.217  17.018  1.00  0.00     0.258 C 
BRANCH   3   4
ATOM      4  N   UNL     1      22.761  -4.119  16.688  1.00  0.00    -0.358 N 
ATOM      5  H   UNL     1      23.457  -3.978  17.456  1.00  0.00     0.344 HD
ATOM      6  H   UNL     1      23.275  -4.356  15.809  1.00  0.00     0.344 HD
ATOM      7  H   UNL     1      22.224  -3.237  16.527  1.00  0.00     0.344 HD
ENDBRANCH   3   4
ENDBRANCH   2   3
ENDBRANCH   1   2
BRANCH   1   8
ATOM      8  C   UNL     1      18.807  -4.925  19.444  1.00  0.00     0.072 C 
BRANCH   8   9
ATOM      9  C   UNL     1      17.356  -4.414  19.310  1.00  0.00     0.227 C 
BRANCH   9  10
ATOM     10  N   UNL     1      16.603  -5.249  18.366  1.00  0.00    -0.350 N 
ATOM     11  H   UNL     1      15.639  -4.861  18.240  1.00  0.00     0.345 HD
ATOM     12  H   UNL     1      17.078  -5.249  17.435  1.00  0.00     0.345 HD
ATOM     13  H   UNL     1      16.533  -6.233  18.717  1.00  0.00     0.345 HD
ENDBRANCH   9  10
BRANCH   9  14
ATOM     14  C   UNL     1      17.324  -2.973  18.868  1.00  0.00     0.099 C 
ATOM     15  O   UNL     1      17.957  -2.094  19.509  1.00  0.00    -0.544 OA
ATOM     16  O   UNL     1      16.584  -2.607  17.751  1.00  0.00    -0.544 OA
ENDBRANCH   9  14
ENDBRANCH   8   9
ENDBRANCH   1   8
TORSDOF 7
ENDMDL
MODEL 6
REMARK VINA RESULT:    -3.902      2.858      4.132
REMARK INTER + INTRA:          -5.812
REMARK INTER:                  -5.665
REMARK INTRA:                  -0.147
REMARK UNBOUND:                -0.541
REMARK SMILES [NH3+]CCCC[C@H]([NH3+])C(=O)[O-]
REMARK SMILES IDX 4 1 3 2 2 3 1 4 5 8 6 9 7 10 8 14 9 15 10 16
REMARK H PARENT 1 5 1 6 1 7 7 11 7 12 7 13
REMARK Flexibility Score: inf
ROOT
ATOM      1  C   UNL     1      20.712  -2.639  19.648  1.00  0.00     0.012 C 
ENDROOT
BRANCH   1   2
ATOM      2  C   UNL     1      20.647  -3.203  18.221  1.00  0.00     0.061 C 
BRANCH   2   3
ATOM      3  C   UNL     1      21.652  -4.343  17.990  1.00  0.00     0.258 C 
BRANCH   3   4
ATOM      4  N   UNL     1      22.566  -4.059  16.883  1.00  0.00    -0.358 N 
ATOM      5  H   UNL     1      23.182  -4.884  16.696  1.00  0.00     0.344 HD
ATOM      6  H   UNL     1      22.007  -3.856  16.023  1.00  0.00     0.344 HD
ATOM      7  H   UNL     1      23.150  -3.219  17.100  1.00  0.00     0.344 HD
ENDBRANCH   3   4
ENDBRANCH   2   3
ENDBRANCH   1   2
BRANCH   1   8
ATOM      8  C   UNL     1      21.861  -3.281  20.441  1.00  0.00     0.072 C 
BRANCH   8   9
ATOM      9  C   UNL     1      22.368  -2.370  21.580  1.00  0.00     0.227 C 
BRANCH   9  10
ATOM     10  N   UNL     1      23.801  -2.587  21.812  1.00  0.00    -0.350 N 
ATOM     11  H   UNL     1      24.291  -1.665  21.885  1.00  0.00     0.345 HD
ATOM     12  H   UNL     1      23.941  -3.102  22.711  1.00  0.00     0.345 HD
ATOM     13  H   UNL     1      24.224  -3.138  21.029  1.00  0.00     0.345 HD
ENDBRANCH   9  10
BRANCH   9  14
ATOM     14  C   UNL     1      21.594  -2.606  22.852  1.00  0.00     0.099 C 
ATOM     15  O   UNL     1      21.235  -3.769  23.175  1.00  0.00    -0.544 OA
ATOM     16  O   UNL     1      21.264  -1.535  23.672  1.00  0.00    -0.544 OA
ENDBRANCH   9  14
ENDBRANCH   8   9
ENDBRANCH   1   8
TORSDOF 7
ENDMDL
MODEL 7
REMARK VINA RESULT:    -3.884      1.874      2.370
REMARK INTER + INTRA:          -5.788
REMARK INTER:                  -5.257
REMARK INTRA:                  -0.531
REMARK UNBOUND:                -0.541
REMARK SMILES [NH3+]CCCC[C@H]([NH3+])C(=O)[O-]
REMARK SMILES IDX 4 1 3 2 2 3 1 4 5 8 6 9 7 10 8 14 9 15 10 16
REMARK H PARENT 1 5 1 6 1 7 7 11 7 12 7 13
REMARK Flexibility Score: inf
ROOT
ATOM      1  C   UNL     1      20.214  -0.953  23.102  1.00  0.00     0.012 C 
ENDROOT
BRANCH   1   2
ATOM      2  C   UNL     1      20.937   0.351  22.736  1.00  0.00     0.061 C 
BRANCH   2   3
ATOM      3  C   UNL     1      20.997   0.587  21.218  1.00  0.00     0.258 C 
BRANCH   3   4
ATOM      4  N   UNL     1      22.370   0.577  20.710  1.00  0.00    -0.358 N 
ATOM      5  H   UNL     1      22.583  -0.339  20.251  1.00  0.00     0.344 HD
ATOM      6  H   UNL     1      22.476   1.340  20.002  1.00  0.00     0.344 HD
ATOM      7  H   UNL     1      23.047   0.753  21.486  1.00  0.00     0.344 HD
ENDBRANCH   3   4
ENDBRANCH   2   3
ENDBRANCH   1   2
BRANCH   1   8
ATOM      8  C   UNL     1      21.205  -2.002  23.630  1.00  0.00     0.072 C 
BRANCH   8   9
ATOM      9  C   UNL     1      21.297  -3.238  22.708  1.00  0.00     0.227 C 
BRANCH   9  10
ATOM     10  N   UNL     1      21.799  -4.399  23.453  1.00  0.00    -0.350 N 
ATOM     11  H   UNL     1      21.361  -4.426  24.403  1.00  0.00     0.345 HD
ATOM     12  H   UNL     1      21.543  -5.280  22.952  1.00  0.00     0.345 HD
ATOM     13  H   UNL     1      22.839  -4.350  23.557  1.00  0.00     0.345 HD
ENDBRANCH   9  10
BRANCH   9  14
ATOM     14  C   UNL     1      22.179  -2.964  21.517  1.00  0.00     0.099 C 
ATOM     15  O   UNL     1      21.880  -3.419  20.381  1.00  0.00    -0.544 OA
ATOM     16  O   UNL     1      23.338  -2.213  21.670  1.00  0.00    -0.544 OA
ENDBRANCH   9  14
ENDBRANCH   8   9
ENDBRANCH   1   8
TORSDOF 7
ENDMDL
MODEL 8
REMARK VINA RESULT:    -3.815      5.393      6.514
REMARK INTER + INTRA:          -5.695
REMARK INTER:                  -5.171
REMARK INTRA:                  -0.524
REMARK UNBOUND:                -0.541
REMARK SMILES [NH3+]CCCC[C@H]([NH3+])C(=O)[O-]
REMARK SMILES IDX 4 1 3 2 2 3 1 4 5 8 6 9 7 10 8 14 9 15 10 16
REMARK H PARENT 1 5 1 6 1 7 7 11 7 12 7 13
REMARK Flexibility Score: inf
ROOT
ATOM      1  C   UNL     1      18.105  -0.945  18.503  1.00  0.00     0.012 C 
ENDROOT
BRANCH   1   2
ATOM      2  C   UNL     1      16.607  -0.696  18.277  1.00  0.00     0.061 C 
BRANCH   2   3
ATOM      3  C   UNL     1      15.720  -1.556  19.193  1.00  0.00     0.258 C 
BRANCH   3   4
ATOM      4  N   UNL     1      14.984  -2.579  18.450  1.00  0.00    -0.358 N 
ATOM      5  H   UNL     1      15.199  -2.514  17.428  1.00  0.00     0.344 HD
ATOM      6  H   UNL     1      15.272  -3.523  18.794  1.00  0.00     0.344 HD
ATOM      7  H   UNL     1      13.956  -2.473  18.605  1.00  0.00     0.344 HD
ENDBRANCH   3   4
ENDBRANCH   2   3
ENDBRANCH   1   2
BRANCH   1   8
ATOM      8  C   UNL     1      18.694  -1.815  17.381  1.00  0.00     0.072 C 
BRANCH   8   9
ATOM      9  C   UNL     1      19.271  -3.145  17.913  1.00  0.00     0.227 C 
BRANCH   9  10
ATOM     10  N   UNL     1      20.265  -3.684  16.977  1.00  0.00    -0.350 N 
ATOM     11  H   UNL     1      19.922  -3.577  15.994  1.00  0.00     0.345 HD
ATOM     12  H   UNL     1      21.162  -3.154  17.068  1.00  0.00     0.345 HD
ATOM     13  H   UNL     1      20.443  -4.697  17.169  1.00  0.00     0.345 HD
ENDBRANCH   9  10
BRANCH   9  14
ATOM     14  C   UNL     1      18.178  -4.157  18.148  1.00  0.00     0.099 C 
ATOM     15  O   UNL     1      17.282  -4.343  17.283  1.00  0.00    -0.544 OA
ATOM     16  O   UNL     1      18.150  -4.883  19.332  1.00  0.00    -0.544 OA
ENDBRANCH   9  14
ENDBRANCH   8   9
ENDBRANCH   1   8
TORSDOF 7
ENDMDL
MODEL 9
REMARK VINA RESULT:    -3.809      2.720      4.059
REMARK INTER + INTRA:          -5.686
REMARK INTER:                  -5.537
REMARK INTRA:                  -0.148
REMARK UNBOUND:                -0.541
REMARK SMILES [NH3+]CCCC[C@H]([NH3+])C(=O)[O-]
REMARK SMILES IDX 4 1 3 2 2 3 1 4 5 8 6 9 7 10 8 14 9 15 10 16
REMARK H PARENT 1 5 1 6 1 7 7 11 7 12 7 13
REMARK Flexibility Score: inf
ROOT
ATOM      1  C   UNL     1      20.052  -3.777  20.550  1.00  0.00     0.012 C 
ENDROOT
BRANCH   1   2
ATOM      2  C   UNL     1      20.353  -3.232  21.953  1.00  0.00     0.061 C 
BRANCH   2   3
ATOM      3  C   UNL     1      21.819  -3.443  22.367  1.00  0.00     0.258 C 
BRANCH   3   4
ATOM      4  N   UNL     1      21.961  -4.479  23.390  1.00  0.00    -0.358 N 
ATOM      5  H   UNL     1      21.642  -4.121  24.320  1.00  0.00     0.344 HD
ATOM      6  H   UNL     1      21.371  -5.301  23.126  1.00  0.00     0.344 HD
ATOM      7  H   UNL     1      22.955  -4.796  23.452  1.00  0.00     0.344 HD
ENDBRANCH   3   4
ENDBRANCH   2   3
ENDBRANCH   1   2
BRANCH   1   8
ATOM      8  C   UNL     1      21.270  -3.617  19.625  1.00  0.00     0.072 C 
BRANCH   8   9
ATOM      9  C   UNL     1      20.885  -3.696  18.132  1.00  0.00     0.227 C 
BRANCH   9  10
ATOM     10  N   UNL     1      22.089  -3.724  17.292  1.00  0.00    -0.350 N 
ATOM     11  H   UNL     1      21.938  -4.363  16.477  1.00  0.00     0.345 HD
ATOM     12  H   UNL     1      22.286  -2.766  16.922  1.00  0.00     0.345 HD
ATOM     13  H   UNL     1      22.915  -4.058  17.841  1.00  0.00     0.345 HD
ENDBRANCH   9  10
BRANCH   9  14
ATOM     14  C   UNL     1      20.002  -2.540  17.735  1.00  0.00     0.099 C 
ATOM     15  O   UNL     1      19.012  -2.723  16.979  1.00  0.00    -0.544 OA
ATOM     16  O   UNL     1      20.286  -1.261  18.195  1.00  0.00    -0.544 OA
ENDBRANCH   9  14
ENDBRANCH   8   9
ENDBRANCH   1   8
TORSDOF 7
ENDMDL
