MODEL 1
REMARK VINA RESULT:    -3.946      0.000      0.000
REMARK INTER + INTRA:          -5.438
REMARK INTER:                  -5.445
REMARK INTRA:                   0.007
REMARK UNBOUND:                 0.007
REMARK SMILES C=C(CC[C@H](C(=O)[O-])[C@H]1CC[C@]2(C)C3=C(CC[C@]12C)[C@@]1(C)CC[C@H](O)C(C)(C)[C@@H]1CC3)C(C)C
REMARK SMILES IDX 4 1 5 2 6 3 7 4 8 5 9 6 10 7 18 8 11 9 12 10 17 11 19 12
REMARK SMILES IDX 13 13 14 14 16 15 15 16 31 17 20 18 30 19 29 20 22 21 21 22
REMARK SMILES IDX 26 23 23 24 24 25 27 26 28 27 25 28 3 30 2 31 1 32 32 33
REMARK SMILES IDX 33 34 34 35
REMARK H PARENT 25 29
REMARK Flexibility Score: inf
ROOT
ATOM      1  C   UNL     1       1.724  40.794  12.966  1.00  0.00     0.014 C 
ENDROOT
BRANCH   1   2
ATOM      2  C   UNL     1       2.884  40.906  11.922  1.00  0.00     0.039 C 
BRANCH   2   3
ATOM      3  C   UNL     1       4.239  40.430  12.397  1.00  0.00     0.045 C 
ATOM      4  O   UNL     1       5.220  41.217  12.469  1.00  0.00    -0.550 OA
ATOM      5  O   UNL     1       4.413  39.100  12.760  1.00  0.00    -0.550 OA
ENDBRANCH   2   3
BRANCH   2   6
ATOM      6  C   UNL     1       2.954  42.213  11.050  1.00  0.00     0.004 C 
ATOM      7  C   UNL     1       2.019  42.146   9.842  1.00  0.00     0.006 C 
ATOM      8  C   UNL     1       2.812  43.681  11.646  1.00  0.00    -0.020 C 
ATOM      9  C   UNL     1       1.885  43.574   9.367  1.00  0.00     0.012 C 
ATOM     10  C   UNL     1       1.840  44.444  10.638  1.00  0.00    -0.006 C 
ATOM     11  C   UNL     1       4.218  44.345  11.620  1.00  0.00     0.012 C 
ATOM     12  C   UNL     1       2.301  43.726  13.117  1.00  0.00     0.012 C 
ATOM     13  C   UNL     1       0.366  44.476  11.147  1.00  0.00     0.017 C 
ATOM     14  C   UNL     1       2.251  45.893  10.261  1.00  0.00    -0.064 C 
ATOM     15  C   UNL     1       4.149  45.844  11.867  1.00  0.00     0.032 C 
ATOM     16  C   UNL     1       3.349  46.526  10.772  1.00  0.00    -0.064 C 
ATOM     17  C   UNL     1       1.370  46.652   9.280  1.00  0.00     0.032 C 
ATOM     18  C   UNL     1       3.718  47.949  10.259  1.00  0.00    -0.008 C 
ATOM     19  C   UNL     1       2.150  47.465   8.234  1.00  0.00     0.009 C 
ATOM     20  C   UNL     1       3.565  47.917   8.693  1.00  0.00     0.007 C 
ATOM     21  C   UNL     1       5.197  48.312  10.597  1.00  0.00     0.014 C 
ATOM     22  C   UNL     1       2.766  48.963  10.961  1.00  0.00     0.016 C 
ATOM     23  C   UNL     1       4.139  49.161   7.899  1.00  0.00    -0.006 C 
ATOM     24  C   UNL     1       5.710  49.571   9.884  1.00  0.00     0.033 C 
ATOM     25  C   UNL     1       5.608  49.423   8.364  1.00  0.00     0.120 C 
ATOM     26  C   UNL     1       3.283  50.451   8.054  1.00  0.00     0.014 C 
ATOM     27  C   UNL     1       4.181  48.816   6.387  1.00  0.00     0.014 C 
BRANCH  25  28
ATOM     28  O   UNL     1       6.132  50.588   7.767  1.00  0.00    -0.393 OA
ATOM     29  H   UNL     1       6.768  50.301   7.061  1.00  0.00     0.210 HD
ENDBRANCH  25  28
ENDBRANCH   2   6
ENDBRANCH   1   2
BRANCH   1  30
ATOM     30  C   UNL     1       1.161  39.376  13.250  1.00  0.00     0.031 C 
BRANCH  30  31
ATOM     31  C   UNL     1      -0.323  39.401  13.562  1.00  0.00    -0.075 C 
ATOM     32  C   UNL     1      -1.125  38.478  12.995  1.00  0.00     0.008 C 
BRANCH  31  33
ATOM     33  C   UNL     1      -0.895  40.478  14.477  1.00  0.00     0.008 C 
ATOM     34  C   UNL     1      -0.006  40.687  15.710  1.00  0.00     0.012 C 
ATOM     35  C   UNL     1      -1.104  41.797  13.718  1.00  0.00     0.012 C 
ENDBRANCH  31  33
ENDBRANCH  30  31
ENDBRANCH   1  30
TORSDOF 7
ENDMDL
MODEL 2
REMARK VINA RESULT:    -3.595      0.844      1.636
REMARK INTER + INTRA:          -4.953
REMARK INTER:                  -4.525
REMARK INTRA:                  -0.428
REMARK UNBOUND:                 0.007
REMARK SMILES C=C(CC[C@H](C(=O)[O-])[C@H]1CC[C@]2(C)C3=C(CC[C@]12C)[C@@]1(C)CC[C@H](O)C(C)(C)[C@@H]1CC3)C(C)C
REMARK SMILES IDX 4 1 5 2 6 3 7 4 8 5 9 6 10 7 18 8 11 9 12 10 17 11 19 12
REMARK SMILES IDX 13 13 14 14 16 15 15 16 31 17 20 18 30 19 29 20 22 21 21 22
REMARK SMILES IDX 26 23 23 24 24 25 27 26 28 27 25 28 3 30 2 31 1 32 32 33
REMARK SMILES IDX 33 34 34 35
REMARK H PARENT 25 29
REMARK Flexibility Score: inf
ROOT
ATOM      1  C   UNL     1       1.630  40.631  12.665  1.00  0.00     0.014 C 
ENDROOT
BRANCH   1   2
ATOM      2  C   UNL     1       2.893  40.860  11.770  1.00  0.00     0.039 C 
BRANCH   2   3
ATOM      3  C   UNL     1       4.217  40.488  12.398  1.00  0.00     0.045 C 
ATOM      4  O   UNL     1       5.033  41.371  12.775  1.00  0.00    -0.550 OA
ATOM      5  O   UNL     1       4.548  39.149  12.564  1.00  0.00    -0.550 OA
ENDBRANCH   2   3
BRANCH   2   6
ATOM      6  C   UNL     1       2.955  42.187  10.927  1.00  0.00     0.004 C 
ATOM      7  C   UNL     1       2.010  42.147   9.725  1.00  0.00     0.006 C 
ATOM      8  C   UNL     1       2.816  43.641  11.557  1.00  0.00    -0.020 C 
ATOM      9  C   UNL     1       1.871  43.586   9.284  1.00  0.00     0.012 C 
ATOM     10  C   UNL     1       1.835  44.426  10.575  1.00  0.00    -0.006 C 
ATOM     11  C   UNL     1       4.221  44.307  11.536  1.00  0.00     0.012 C 
ATOM     12  C   UNL     1       2.316  43.652  13.033  1.00  0.00     0.012 C 
ATOM     13  C   UNL     1       0.366  44.444  11.096  1.00  0.00     0.017 C 
ATOM     14  C   UNL     1       2.242  45.884  10.228  1.00  0.00    -0.064 C 
ATOM     15  C   UNL     1       4.153  45.800  11.818  1.00  0.00     0.032 C 
ATOM     16  C   UNL     1       3.344  46.506  10.745  1.00  0.00    -0.064 C 
ATOM     17  C   UNL     1       1.353  46.663   9.271  1.00  0.00     0.032 C 
ATOM     18  C   UNL     1       3.707  47.940  10.262  1.00  0.00    -0.008 C 
ATOM     19  C   UNL     1       2.124  47.502   8.239  1.00  0.00     0.009 C 
ATOM     20  C   UNL     1       3.543  47.945   8.696  1.00  0.00     0.007 C 
ATOM     21  C   UNL     1       5.188  48.297  10.596  1.00  0.00     0.014 C 
ATOM     22  C   UNL     1       2.760  48.937  10.994  1.00  0.00     0.016 C 
ATOM     23  C   UNL     1       4.109  49.206   7.926  1.00  0.00    -0.006 C 
ATOM     24  C   UNL     1       5.695  49.572   9.908  1.00  0.00     0.033 C 
ATOM     25  C   UNL     1       5.581  49.459   8.386  1.00  0.00     0.120 C 
ATOM     26  C   UNL     1       3.253  50.492   8.118  1.00  0.00     0.014 C 
ATOM     27  C   UNL     1       4.139  48.896   6.406  1.00  0.00     0.014 C 
BRANCH  25  28
ATOM     28  O   UNL     1       6.099  50.638   7.812  1.00  0.00    -0.393 OA
ATOM     29  H   UNL     1       5.592  50.811   6.976  1.00  0.00     0.210 HD
ENDBRANCH  25  28
ENDBRANCH   2   6
ENDBRANCH   1   2
BRANCH   1  30
ATOM     30  C   UNL     1       1.578  39.320  13.493  1.00  0.00     0.031 C 
BRANCH  30  31
ATOM     31  C   UNL     1       0.435  38.418  13.068  1.00  0.00    -0.075 C 
ATOM     32  C   UNL     1      -0.824  38.896  13.110  1.00  0.00     0.008 C 
BRANCH  31  33
ATOM     33  C   UNL     1       0.714  36.984  12.633  1.00  0.00     0.008 C 
ATOM     34  C   UNL     1      -0.528  36.346  11.997  1.00  0.00     0.012 C 
ATOM     35  C   UNL     1       1.917  36.917  11.680  1.00  0.00     0.012 C 
ENDBRANCH  31  33
ENDBRANCH  30  31
ENDBRANCH   1  30
TORSDOF 7
ENDMDL
MODEL 3
REMARK VINA RESULT:    -2.844      2.228      3.751
REMARK INTER + INTRA:          -3.918
REMARK INTER:                  -3.699
REMARK INTRA:                  -0.219
REMARK UNBOUND:                 0.007
REMARK SMILES C=C(CC[C@H](C(=O)[O-])[C@H]1CC[C@]2(C)C3=C(CC[C@]12C)[C@@]1(C)CC[C@H](O)C(C)(C)[C@@H]1CC3)C(C)C
REMARK SMILES IDX 4 1 5 2 6 3 7 4 8 5 9 6 10 7 18 8 11 9 12 10 17 11 19 12
REMARK SMILES IDX 13 13 14 14 16 15 15 16 31 17 20 18 30 19 29 20 22 21 21 22
REMARK SMILES IDX 26 23 23 24 24 25 27 26 28 27 25 28 3 30 2 31 1 32 32 33
REMARK SMILES IDX 33 34 34 35
REMARK H PARENT 25 29
REMARK Flexibility Score: inf
ROOT
ATOM      1  C   UNL     1       2.342  40.070  12.398  1.00  0.00     0.014 C 
ENDROOT
BRANCH   1   2
ATOM      2  C   UNL     1       1.812  41.290  13.221  1.00  0.00     0.039 C 
BRANCH   2   3
ATOM      3  C   UNL     1       0.396  41.168  13.736  1.00  0.00     0.045 C 
ATOM      4  O   UNL     1      -0.543  41.845  13.238  1.00  0.00    -0.550 OA
ATOM      5  O   UNL     1       0.117  40.294  14.781  1.00  0.00    -0.550 OA
ENDBRANCH   2   3
BRANCH   2   6
ATOM      6  C   UNL     1       2.158  42.730  12.690  1.00  0.00     0.004 C 
ATOM      7  C   UNL     1       3.432  43.285  13.328  1.00  0.00     0.006 C 
ATOM      8  C   UNL     1       2.228  43.109  11.147  1.00  0.00    -0.020 C 
ATOM      9  C   UNL     1       3.848  44.437  12.443  1.00  0.00     0.012 C 
ATOM     10  C   UNL     1       3.547  43.994  10.998  1.00  0.00    -0.006 C 
ATOM     11  C   UNL     1       0.979  43.972  10.810  1.00  0.00     0.012 C 
ATOM     12  C   UNL     1       2.221  41.882  10.187  1.00  0.00     0.012 C 
ATOM     13  C   UNL     1       4.762  43.162  10.486  1.00  0.00     0.017 C 
ATOM     14  C   UNL     1       3.421  45.260  10.108  1.00  0.00    -0.064 C 
ATOM     15  C   UNL     1       1.100  44.652   9.455  1.00  0.00     0.032 C 
ATOM     16  C   UNL     1       2.278  45.608   9.444  1.00  0.00    -0.064 C 
ATOM     17  C   UNL     1       4.645  46.151   9.959  1.00  0.00     0.032 C 
ATOM     18  C   UNL     1       2.235  46.946   8.649  1.00  0.00    -0.008 C 
ATOM     19  C   UNL     1       4.337  47.656  10.017  1.00  0.00     0.009 C 
ATOM     20  C   UNL     1       2.897  48.039   9.568  1.00  0.00     0.007 C 
ATOM     21  C   UNL     1       0.768  47.386   8.351  1.00  0.00     0.014 C 
ATOM     22  C   UNL     1       2.988  46.719   7.304  1.00  0.00     0.016 C 
ATOM     23  C   UNL     1       2.739  49.545   9.108  1.00  0.00    -0.006 C 
ATOM     24  C   UNL     1       0.641  48.821   7.823  1.00  0.00     0.033 C 
ATOM     25  C   UNL     1       1.230  49.827   8.816  1.00  0.00     0.120 C 
ATOM     26  C   UNL     1       3.609  49.916   7.873  1.00  0.00     0.014 C 
ATOM     27  C   UNL     1       3.172  50.475  10.272  1.00  0.00     0.014 C 
BRANCH  25  28
ATOM     28  O   UNL     1       1.045  51.125   8.297  1.00  0.00    -0.393 OA
ATOM     29  H   UNL     1       0.146  51.153   7.877  1.00  0.00     0.210 HD
ENDBRANCH  25  28
ENDBRANCH   2   6
ENDBRANCH   1   2
BRANCH   1  30
ATOM     30  C   UNL     1       2.338  38.686  13.101  1.00  0.00     0.031 C 
BRANCH  30  31
ATOM     31  C   UNL     1       2.208  37.542  12.114  1.00  0.00    -0.075 C 
ATOM     32  C   UNL     1       3.323  37.028  11.558  1.00  0.00     0.008 C 
BRANCH  31  33
ATOM     33  C   UNL     1       0.830  37.011  11.736  1.00  0.00     0.008 C 
ATOM     34  C   UNL     1       0.836  35.481  11.625  1.00  0.00     0.012 C 
ATOM     35  C   UNL     1      -0.240  37.486  12.732  1.00  0.00     0.012 C 
ENDBRANCH  31  33
ENDBRANCH  30  31
ENDBRANCH   1  30
TORSDOF 7
ENDMDL
