MODEL 1
REMARK VINA RESULT:    -5.461      0.000      0.000
REMARK INTER + INTRA:         -11.386
REMARK INTER:                 -10.249
REMARK INTRA:                  -1.137
REMARK UNBOUND:                -1.137
REMARK SMILES CCCCCCCCC=CCCCCCCCC(=O)[O-]
REMARK SMILES IDX 10 1 9 2 11 3 12 4 13 5 14 6 15 7 16 8 17 9 18 10 19 11
REMARK SMILES IDX 20 12 8 13 7 14 6 15 5 16 4 17 3 18 2 19 1 20
REMARK H PARENT
REMARK Flexibility Score: inf
ROOT
ATOM      1  C   UNL     1     -12.595  28.668  30.829  1.00  0.00    -0.031 C 
ATOM      2  C   UNL     1     -13.845  28.459  31.272  1.00  0.00    -0.031 C 
ENDROOT
BRANCH   1   3
ATOM      3  C   UNL     1     -12.187  29.977  30.214  1.00  0.00     0.027 C 
BRANCH   3   4
ATOM      4  C   UNL     1     -10.883  29.827  29.414  1.00  0.00     0.004 C 
BRANCH   4   5
ATOM      5  C   UNL     1     -11.109  29.228  28.017  1.00  0.00     0.000 C 
BRANCH   5   6
ATOM      6  C   UNL     1     -10.697  30.189  26.889  1.00  0.00     0.000 C 
BRANCH   6   7
ATOM      7  C   UNL     1     -11.712  31.326  26.684  1.00  0.00     0.000 C 
BRANCH   7   8
ATOM      8  C   UNL     1     -11.089  32.721  26.876  1.00  0.00     0.006 C 
BRANCH   8   9
ATOM      9  C   UNL     1     -10.994  33.497  25.557  1.00  0.00     0.053 C 
BRANCH   9  10
ATOM     10  C   UNL     1      -9.606  34.003  25.310  1.00  0.00     0.041 C 
ATOM     11  O   UNL     1      -8.610  33.284  25.586  1.00  0.00    -0.550 OA
ATOM     12  O   UNL     1      -9.414  35.256  24.742  1.00  0.00    -0.550 OA
ENDBRANCH   9  10
ENDBRANCH   8   9
ENDBRANCH   7   8
ENDBRANCH   6   7
ENDBRANCH   5   6
ENDBRANCH   4   5
ENDBRANCH   3   4
ENDBRANCH   1   3
BRANCH   2  13
ATOM     13  C   UNL     1     -14.248  27.157  31.908  1.00  0.00     0.027 C 
BRANCH  13  14
ATOM     14  C   UNL     1     -15.131  26.329  30.962  1.00  0.00     0.004 C 
BRANCH  14  15
ATOM     15  C   UNL     1     -15.063  24.823  31.257  1.00  0.00     0.000 C 
BRANCH  15  16
ATOM     16  C   UNL     1     -14.435  24.513  32.624  1.00  0.00     0.000 C 
BRANCH  16  17
ATOM     17  C   UNL     1     -15.517  24.160  33.656  1.00  0.00    -0.000 C 
BRANCH  17  18
ATOM     18  C   UNL     1     -16.821  23.671  33.007  1.00  0.00    -0.000 C 
BRANCH  18  19
ATOM     19  C   UNL     1     -18.019  24.574  33.332  1.00  0.00    -0.003 C 
ATOM     20  C   UNL     1     -18.763  24.980  32.063  1.00  0.00     0.004 C 
ENDBRANCH  18  19
ENDBRANCH  17  18
ENDBRANCH  16  17
ENDBRANCH  15  16
ENDBRANCH  14  15
ENDBRANCH  13  14
ENDBRANCH   2  13
TORSDOF 15
ENDMDL
MODEL 2
REMARK VINA RESULT:    -5.449      1.258      2.008
REMARK INTER + INTRA:         -11.364
REMARK INTER:                  -9.997
REMARK INTRA:                  -1.367
REMARK UNBOUND:                -1.137
REMARK SMILES CCCCCCCCC=CCCCCCCCC(=O)[O-]
REMARK SMILES IDX 10 1 9 2 11 3 12 4 13 5 14 6 15 7 16 8 17 9 18 10 19 11
REMARK SMILES IDX 20 12 8 13 7 14 6 15 5 16 4 17 3 18 2 19 1 20
REMARK H PARENT
REMARK Flexibility Score: inf
ROOT
ATOM      1  C   UNL     1     -13.921  27.956  30.911  1.00  0.00    -0.031 C 
ATOM      2  C   UNL     1     -14.825  27.108  31.426  1.00  0.00    -0.031 C 
ENDROOT
BRANCH   1   3
ATOM      3  C   UNL     1     -13.506  29.203  31.640  1.00  0.00     0.027 C 
BRANCH   3   4
ATOM      4  C   UNL     1     -12.143  29.707  31.139  1.00  0.00     0.004 C 
BRANCH   4   5
ATOM      5  C   UNL     1     -11.703  29.031  29.831  1.00  0.00     0.000 C 
BRANCH   5   6
ATOM      6  C   UNL     1     -11.180  30.040  28.793  1.00  0.00     0.000 C 
BRANCH   6   7
ATOM      7  C   UNL     1     -10.466  31.236  29.443  1.00  0.00     0.000 C 
BRANCH   7   8
ATOM      8  C   UNL     1     -11.017  32.590  28.962  1.00  0.00     0.006 C 
BRANCH   8   9
ATOM      9  C   UNL     1      -9.909  33.509  28.431  1.00  0.00     0.053 C 
BRANCH   9  10
ATOM     10  C   UNL     1      -9.912  33.575  26.935  1.00  0.00     0.041 C 
ATOM     11  O   UNL     1      -9.001  34.192  26.325  1.00  0.00    -0.550 OA
ATOM     12  O   UNL     1     -10.905  32.925  26.213  1.00  0.00    -0.550 OA
ENDBRANCH   9  10
ENDBRANCH   8   9
ENDBRANCH   7   8
ENDBRANCH   6   7
ENDBRANCH   5   6
ENDBRANCH   4   5
ENDBRANCH   3   4
ENDBRANCH   1   3
BRANCH   2  13
ATOM     13  C   UNL     1     -15.224  25.849  30.707  1.00  0.00     0.027 C 
BRANCH  13  14
ATOM     14  C   UNL     1     -14.867  24.603  31.533  1.00  0.00     0.004 C 
BRANCH  14  15
ATOM     15  C   UNL     1     -14.459  24.946  32.974  1.00  0.00     0.000 C 
BRANCH  15  16
ATOM     16  C   UNL     1     -15.338  24.246  34.021  1.00  0.00     0.000 C 
BRANCH  16  17
ATOM     17  C   UNL     1     -16.772  24.064  33.500  1.00  0.00    -0.000 C 
BRANCH  17  18
ATOM     18  C   UNL     1     -17.631  25.326  33.675  1.00  0.00    -0.000 C 
BRANCH  18  19
ATOM     19  C   UNL     1     -18.918  25.286  32.838  1.00  0.00    -0.003 C 
ATOM     20  C   UNL     1     -19.067  23.946  32.122  1.00  0.00     0.004 C 
ENDBRANCH  18  19
ENDBRANCH  17  18
ENDBRANCH  16  17
ENDBRANCH  15  16
ENDBRANCH  14  15
ENDBRANCH  13  14
ENDBRANCH   2  13
TORSDOF 15
ENDMDL
MODEL 3
REMARK VINA RESULT:    -5.373      1.247      2.355
REMARK INTER + INTRA:         -11.221
REMARK INTER:                 -10.080
REMARK INTRA:                  -1.141
REMARK UNBOUND:                -1.137
REMARK SMILES CCCCCCCCC=CCCCCCCCC(=O)[O-]
REMARK SMILES IDX 10 1 9 2 11 3 12 4 13 5 14 6 15 7 16 8 17 9 18 10 19 11
REMARK SMILES IDX 20 12 8 13 7 14 6 15 5 16 4 17 3 18 2 19 1 20
REMARK H PARENT
REMARK Flexibility Score: inf
ROOT
ATOM      1  C   UNL     1     -11.804  29.283  29.213  1.00  0.00    -0.031 C 
ATOM      2  C   UNL     1     -11.848  28.696  30.419  1.00  0.00    -0.031 C 
ENDROOT
BRANCH   1   3
ATOM      3  C   UNL     1     -10.701  28.989  28.235  1.00  0.00     0.027 C 
BRANCH   3   4
ATOM      4  C   UNL     1     -10.406  30.213  27.353  1.00  0.00     0.004 C 
BRANCH   4   5
ATOM      5  C   UNL     1     -11.671  30.796  26.704  1.00  0.00     0.000 C 
BRANCH   5   6
ATOM      6  C   UNL     1     -11.966  32.231  27.174  1.00  0.00     0.000 C 
BRANCH   6   7
ATOM      7  C   UNL     1     -10.986  32.709  28.258  1.00  0.00     0.000 C 
BRANCH   7   8
ATOM      8  C   UNL     1     -10.192  33.956  27.833  1.00  0.00     0.006 C 
BRANCH   8   9
ATOM      9  C   UNL     1     -10.592  34.448  26.437  1.00  0.00     0.053 C 
BRANCH   9  10
ATOM     10  C   UNL     1      -9.449  34.372  25.472  1.00  0.00     0.041 C 
ATOM     11  O   UNL     1      -9.253  35.302  24.647  1.00  0.00    -0.550 OA
ATOM     12  O   UNL     1      -8.580  33.290  25.509  1.00  0.00    -0.550 OA
ENDBRANCH   9  10
ENDBRANCH   8   9
ENDBRANCH   7   8
ENDBRANCH   6   7
ENDBRANCH   5   6
ENDBRANCH   4   5
ENDBRANCH   3   4
ENDBRANCH   1   3
BRANCH   2  13
ATOM     13  C   UNL     1     -12.963  28.973  31.390  1.00  0.00     0.027 C 
BRANCH  13  14
ATOM     14  C   UNL     1     -14.255  28.256  30.968  1.00  0.00     0.004 C 
BRANCH  14  15
ATOM     15  C   UNL     1     -14.472  26.936  31.723  1.00  0.00     0.000 C 
BRANCH  15  16
ATOM     16  C   UNL     1     -15.149  25.862  30.858  1.00  0.00     0.000 C 
BRANCH  16  17
ATOM     17  C   UNL     1     -15.667  24.705  31.726  1.00  0.00    -0.000 C 
BRANCH  17  18
ATOM     18  C   UNL     1     -14.622  24.206  32.735  1.00  0.00    -0.000 C 
BRANCH  18  19
ATOM     19  C   UNL     1     -15.177  24.109  34.163  1.00  0.00    -0.003 C 
ATOM     20  C   UNL     1     -15.124  25.463  34.866  1.00  0.00     0.004 C 
ENDBRANCH  18  19
ENDBRANCH  17  18
ENDBRANCH  16  17
ENDBRANCH  15  16
ENDBRANCH  14  15
ENDBRANCH  13  14
ENDBRANCH   2  13
TORSDOF 15
ENDMDL
MODEL 4
REMARK VINA RESULT:    -5.356      1.499      2.069
REMARK INTER + INTRA:         -11.189
REMARK INTER:                  -9.706
REMARK INTRA:                  -1.483
REMARK UNBOUND:                -1.137
REMARK SMILES CCCCCCCCC=CCCCCCCCC(=O)[O-]
REMARK SMILES IDX 10 1 9 2 11 3 12 4 13 5 14 6 15 7 16 8 17 9 18 10 19 11
REMARK SMILES IDX 20 12 8 13 7 14 6 15 5 16 4 17 3 18 2 19 1 20
REMARK H PARENT
REMARK Flexibility Score: inf
ROOT
ATOM      1  C   UNL     1     -13.064  29.158  31.347  1.00  0.00    -0.031 C 
ATOM      2  C   UNL     1     -13.598  28.023  30.871  1.00  0.00    -0.031 C 
ENDROOT
BRANCH   1   3
ATOM      3  C   UNL     1     -12.089  29.968  30.540  1.00  0.00     0.027 C 
BRANCH   3   4
ATOM      4  C   UNL     1     -11.811  29.303  29.182  1.00  0.00     0.004 C 
BRANCH   4   5
ATOM      5  C   UNL     1     -10.350  29.458  28.734  1.00  0.00     0.000 C 
BRANCH   5   6
ATOM      6  C   UNL     1     -10.219  29.673  27.216  1.00  0.00     0.000 C 
BRANCH   6   7
ATOM      7  C   UNL     1     -11.451  30.366  26.611  1.00  0.00     0.000 C 
BRANCH   7   8
ATOM      8  C   UNL     1     -11.173  31.824  26.204  1.00  0.00     0.006 C 
BRANCH   8   9
ATOM      9  C   UNL     1     -11.445  32.806  27.351  1.00  0.00     0.053 C 
BRANCH   9  10
ATOM     10  C   UNL     1     -10.175  33.270  27.997  1.00  0.00     0.041 C 
ATOM     11  O   UNL     1      -9.924  32.966  29.192  1.00  0.00    -0.550 OA
ATOM     12  O   UNL     1      -9.255  34.010  27.266  1.00  0.00    -0.550 OA
ENDBRANCH   9  10
ENDBRANCH   8   9
ENDBRANCH   7   8
ENDBRANCH   6   7
ENDBRANCH   5   6
ENDBRANCH   4   5
ENDBRANCH   3   4
ENDBRANCH   1   3
BRANCH   2  13
ATOM     13  C   UNL     1     -14.591  27.224  31.671  1.00  0.00     0.027 C 
BRANCH  13  14
ATOM     14  C   UNL     1     -15.332  26.214  30.782  1.00  0.00     0.004 C 
BRANCH  14  15
ATOM     15  C   UNL     1     -15.116  24.760  31.231  1.00  0.00     0.000 C 
BRANCH  15  16
ATOM     16  C   UNL     1     -16.353  24.160  31.916  1.00  0.00     0.000 C 
BRANCH  16  17
ATOM     17  C   UNL     1     -16.307  24.395  33.434  1.00  0.00    -0.000 C 
BRANCH  17  18
ATOM     18  C   UNL     1     -17.069  25.659  33.862  1.00  0.00    -0.000 C 
BRANCH  18  19
ATOM     19  C   UNL     1     -16.245  26.559  34.794  1.00  0.00    -0.003 C 
ATOM     20  C   UNL     1     -14.878  25.945  35.084  1.00  0.00     0.004 C 
ENDBRANCH  18  19
ENDBRANCH  17  18
ENDBRANCH  16  17
ENDBRANCH  15  16
ENDBRANCH  14  15
ENDBRANCH  13  14
ENDBRANCH   2  13
TORSDOF 15
ENDMDL
MODEL 5
REMARK VINA RESULT:    -5.250      5.383     10.285
REMARK INTER + INTRA:         -10.991
REMARK INTER:                  -9.469
REMARK INTRA:                  -1.522
REMARK UNBOUND:                -1.137
REMARK SMILES CCCCCCCCC=CCCCCCCCC(=O)[O-]
REMARK SMILES IDX 10 1 9 2 11 3 12 4 13 5 14 6 15 7 16 8 17 9 18 10 19 11
REMARK SMILES IDX 20 12 8 13 7 14 6 15 5 16 4 17 3 18 2 19 1 20
REMARK H PARENT
REMARK Flexibility Score: inf
ROOT
ATOM      1  C   UNL     1     -14.692  27.281  31.238  1.00  0.00    -0.031 C 
ATOM      2  C   UNL     1     -13.645  28.063  30.933  1.00  0.00    -0.031 C 
ENDROOT
BRANCH   1   3
ATOM      3  C   UNL     1     -14.897  25.947  30.576  1.00  0.00     0.027 C 
BRANCH   3   4
ATOM      4  C   UNL     1     -14.971  24.819  31.617  1.00  0.00     0.004 C 
BRANCH   4   5
ATOM      5  C   UNL     1     -14.654  25.303  33.040  1.00  0.00     0.000 C 
BRANCH   5   6
ATOM      6  C   UNL     1     -15.803  25.029  34.026  1.00  0.00     0.000 C 
BRANCH   6   7
ATOM      7  C   UNL     1     -16.979  26.002  33.845  1.00  0.00     0.000 C 
BRANCH   7   8
ATOM      8  C   UNL     1     -18.323  25.280  33.641  1.00  0.00     0.006 C 
BRANCH   8   9
ATOM      9  C   UNL     1     -18.531  24.848  32.185  1.00  0.00     0.053 C 
BRANCH   9  10
ATOM     10  C   UNL     1     -18.713  23.366  32.066  1.00  0.00     0.041 C 
ATOM     11  O   UNL     1     -17.767  22.586  32.354  1.00  0.00    -0.550 OA
ATOM     12  O   UNL     1     -19.938  22.845  31.670  1.00  0.00    -0.550 OA
ENDBRANCH   9  10
ENDBRANCH   8   9
ENDBRANCH   7   8
ENDBRANCH   6   7
ENDBRANCH   5   6
ENDBRANCH   4   5
ENDBRANCH   3   4
ENDBRANCH   1   3
BRANCH   2  13
ATOM     13  C   UNL     1     -13.427  29.388  31.612  1.00  0.00     0.027 C 
BRANCH  13  14
ATOM     14  C   UNL     1     -12.073  29.997  31.217  1.00  0.00     0.004 C 
BRANCH  14  15
ATOM     15  C   UNL     1     -11.580  29.503  29.848  1.00  0.00     0.000 C 
BRANCH  15  16
ATOM     16  C   UNL     1     -10.609  30.486  29.177  1.00  0.00     0.000 C 
BRANCH  16  17
ATOM     17  C   UNL     1     -11.368  31.666  28.553  1.00  0.00    -0.000 C 
BRANCH  17  18
ATOM     18  C   UNL     1     -10.525  32.949  28.493  1.00  0.00    -0.000 C 
BRANCH  18  19
ATOM     19  C   UNL     1     -10.903  33.957  29.589  1.00  0.00    -0.003 C 
ATOM     20  C   UNL     1     -12.318  33.704  30.103  1.00  0.00     0.004 C 
ENDBRANCH  18  19
ENDBRANCH  17  18
ENDBRANCH  16  17
ENDBRANCH  15  16
ENDBRANCH  14  15
ENDBRANCH  13  14
ENDBRANCH   2  13
TORSDOF 15
ENDMDL
MODEL 6
REMARK VINA RESULT:    -5.245      2.457      3.223
REMARK INTER + INTRA:         -10.982
REMARK INTER:                  -9.497
REMARK INTRA:                  -1.485
REMARK UNBOUND:                -1.137
REMARK SMILES CCCCCCCCC=CCCCCCCCC(=O)[O-]
REMARK SMILES IDX 10 1 9 2 11 3 12 4 13 5 14 6 15 7 16 8 17 9 18 10 19 11
REMARK SMILES IDX 20 12 8 13 7 14 6 15 5 16 4 17 3 18 2 19 1 20
REMARK H PARENT
REMARK Flexibility Score: inf
ROOT
ATOM      1  C   UNL     1     -13.663  27.968  30.959  1.00  0.00    -0.031 C 
ATOM      2  C   UNL     1     -14.778  27.288  31.265  1.00  0.00    -0.031 C 
ENDROOT
BRANCH   1   3
ATOM      3  C   UNL     1     -13.327  29.272  31.628  1.00  0.00     0.027 C 
BRANCH   3   4
ATOM      4  C   UNL     1     -13.688  30.464  30.728  1.00  0.00     0.004 C 
BRANCH   4   5
ATOM      5  C   UNL     1     -12.654  31.598  30.802  1.00  0.00     0.000 C 
BRANCH   5   6
ATOM      6  C   UNL     1     -12.568  32.403  29.493  1.00  0.00     0.000 C 
BRANCH   6   7
ATOM      7  C   UNL     1     -13.175  31.651  28.298  1.00  0.00     0.000 C 
BRANCH   7   8
ATOM      8  C   UNL     1     -12.177  31.470  27.140  1.00  0.00     0.006 C 
BRANCH   8   9
ATOM      9  C   UNL     1     -10.810  30.974  27.628  1.00  0.00     0.053 C 
BRANCH   9  10
ATOM     10  C   UNL     1     -10.817  29.499  27.890  1.00  0.00     0.041 C 
ATOM     11  O   UNL     1     -10.794  29.064  29.071  1.00  0.00    -0.550 OA
ATOM     12  O   UNL     1     -10.883  28.605  26.829  1.00  0.00    -0.550 OA
ENDBRANCH   9  10
ENDBRANCH   8   9
ENDBRANCH   7   8
ENDBRANCH   6   7
ENDBRANCH   5   6
ENDBRANCH   4   5
ENDBRANCH   3   4
ENDBRANCH   1   3
BRANCH   2  13
ATOM     13  C   UNL     1     -15.103  25.973  30.611  1.00  0.00     0.027 C 
BRANCH  13  14
ATOM     14  C   UNL     1     -14.928  24.807  31.596  1.00  0.00     0.004 C 
BRANCH  14  15
ATOM     15  C   UNL     1     -15.347  25.173  33.028  1.00  0.00     0.000 C 
BRANCH  15  16
ATOM     16  C   UNL     1     -16.401  24.215  33.602  1.00  0.00     0.000 C 
BRANCH  16  17
ATOM     17  C   UNL     1     -16.910  23.249  32.521  1.00  0.00    -0.000 C 
BRANCH  17  18
ATOM     18  C   UNL     1     -18.401  23.443  32.206  1.00  0.00    -0.000 C 
BRANCH  18  19
ATOM     19  C   UNL     1     -18.833  24.915  32.272  1.00  0.00    -0.003 C 
ATOM     20  C   UNL     1     -19.886  25.131  33.356  1.00  0.00     0.004 C 
ENDBRANCH  18  19
ENDBRANCH  17  18
ENDBRANCH  16  17
ENDBRANCH  15  16
ENDBRANCH  14  15
ENDBRANCH  13  14
ENDBRANCH   2  13
TORSDOF 15
ENDMDL
MODEL 7
REMARK VINA RESULT:    -5.224      4.727      9.815
REMARK INTER + INTRA:         -10.942
REMARK INTER:                  -9.416
REMARK INTRA:                  -1.526
REMARK UNBOUND:                -1.137
REMARK SMILES CCCCCCCCC=CCCCCCCCC(=O)[O-]
REMARK SMILES IDX 10 1 9 2 11 3 12 4 13 5 14 6 15 7 16 8 17 9 18 10 19 11
REMARK SMILES IDX 20 12 8 13 7 14 6 15 5 16 4 17 3 18 2 19 1 20
REMARK H PARENT
REMARK Flexibility Score: inf
ROOT
ATOM      1  C   UNL     1     -11.899  28.639  29.883  1.00  0.00    -0.031 C 
ATOM      2  C   UNL     1     -11.017  29.434  29.256  1.00  0.00    -0.031 C 
ENDROOT
BRANCH   1   3
ATOM      3  C   UNL     1     -12.517  29.031  31.196  1.00  0.00     0.027 C 
BRANCH   3   4
ATOM      4  C   UNL     1     -14.018  28.700  31.220  1.00  0.00     0.004 C 
BRANCH   4   5
ATOM      5  C   UNL     1     -14.307  27.294  31.769  1.00  0.00     0.000 C 
BRANCH   5   6
ATOM      6  C   UNL     1     -14.888  26.352  30.700  1.00  0.00     0.000 C 
BRANCH   6   7
ATOM      7  C   UNL     1     -15.122  24.929  31.234  1.00  0.00     0.000 C 
BRANCH   7   8
ATOM      8  C   UNL     1     -14.534  24.718  32.641  1.00  0.00     0.006 C 
BRANCH   8   9
ATOM      9  C   UNL     1     -15.553  24.096  33.604  1.00  0.00     0.053 C 
BRANCH   9  10
ATOM     10  C   UNL     1     -16.802  24.918  33.698  1.00  0.00     0.041 C 
ATOM     11  O   UNL     1     -17.914  24.419  33.385  1.00  0.00    -0.550 OA
ATOM     12  O   UNL     1     -16.740  26.224  34.166  1.00  0.00    -0.550 OA
ENDBRANCH   9  10
ENDBRANCH   8   9
ENDBRANCH   7   8
ENDBRANCH   6   7
ENDBRANCH   5   6
ENDBRANCH   4   5
ENDBRANCH   3   4
ENDBRANCH   1   3
BRANCH   2  13
ATOM     13  C   UNL     1     -10.416  29.052  27.932  1.00  0.00     0.027 C 
BRANCH  13  14
ATOM     14  C   UNL     1     -11.177  29.707  26.769  1.00  0.00     0.004 C 
BRANCH  14  15
ATOM     15  C   UNL     1     -10.960  31.226  26.700  1.00  0.00     0.000 C 
BRANCH  15  16
ATOM     16  C   UNL     1     -12.276  32.008  26.566  1.00  0.00     0.000 C 
BRANCH  16  17
ATOM     17  C   UNL     1     -12.801  32.439  27.944  1.00  0.00    -0.000 C 
BRANCH  17  18
ATOM     18  C   UNL     1     -12.155  33.740  28.446  1.00  0.00    -0.000 C 
BRANCH  18  19
ATOM     19  C   UNL     1     -11.229  33.515  29.650  1.00  0.00    -0.003 C 
ATOM     20  C   UNL     1      -9.762  33.592  29.237  1.00  0.00     0.004 C 
ENDBRANCH  18  19
ENDBRANCH  17  18
ENDBRANCH  16  17
ENDBRANCH  15  16
ENDBRANCH  14  15
ENDBRANCH  13  14
ENDBRANCH   2  13
TORSDOF 15
ENDMDL
MODEL 8
REMARK VINA RESULT:    -5.195      4.929     10.386
REMARK INTER + INTRA:         -10.888
REMARK INTER:                  -9.439
REMARK INTRA:                  -1.449
REMARK UNBOUND:                -1.137
REMARK SMILES CCCCCCCCC=CCCCCCCCC(=O)[O-]
REMARK SMILES IDX 10 1 9 2 11 3 12 4 13 5 14 6 15 7 16 8 17 9 18 10 19 11
REMARK SMILES IDX 20 12 8 13 7 14 6 15 5 16 4 17 3 18 2 19 1 20
REMARK H PARENT
REMARK Flexibility Score: inf
ROOT
ATOM      1  C   UNL     1     -11.688  30.550  29.589  1.00  0.00    -0.031 C 
ATOM      2  C   UNL     1     -10.499  31.112  29.320  1.00  0.00    -0.031 C 
ENDROOT
BRANCH   1   3
ATOM      3  C   UNL     1     -11.864  29.058  29.623  1.00  0.00     0.027 C 
BRANCH   3   4
ATOM      4  C   UNL     1     -12.280  28.583  31.024  1.00  0.00     0.004 C 
BRANCH   4   5
ATOM      5  C   UNL     1     -13.805  28.482  31.189  1.00  0.00     0.000 C 
BRANCH   5   6
ATOM      6  C   UNL     1     -14.242  27.151  31.826  1.00  0.00     0.000 C 
BRANCH   6   7
ATOM      7  C   UNL     1     -15.197  26.353  30.924  1.00  0.00     0.000 C 
BRANCH   7   8
ATOM      8  C   UNL     1     -15.529  24.962  31.493  1.00  0.00     0.006 C 
BRANCH   8   9
ATOM      9  C   UNL     1     -14.478  24.485  32.503  1.00  0.00     0.053 C 
BRANCH   9  10
ATOM     10  C   UNL     1     -15.107  24.015  33.779  1.00  0.00     0.041 C 
ATOM     11  O   UNL     1     -15.563  22.846  33.868  1.00  0.00    -0.550 OA
ATOM     12  O   UNL     1     -15.156  24.860  34.880  1.00  0.00    -0.550 OA
ENDBRANCH   9  10
ENDBRANCH   8   9
ENDBRANCH   7   8
ENDBRANCH   6   7
ENDBRANCH   5   6
ENDBRANCH   4   5
ENDBRANCH   3   4
ENDBRANCH   1   3
BRANCH   2  13
ATOM     13  C   UNL     1     -10.318  32.604  29.308  1.00  0.00     0.027 C 
BRANCH  13  14
ATOM     14  C   UNL     1     -11.667  33.327  29.441  1.00  0.00     0.004 C 
BRANCH  14  15
ATOM     15  C   UNL     1     -12.098  34.019  28.138  1.00  0.00     0.000 C 
BRANCH  15  16
ATOM     16  C   UNL     1     -12.911  33.097  27.217  1.00  0.00     0.000 C 
BRANCH  16  17
ATOM     17  C   UNL     1     -12.141  32.798  25.922  1.00  0.00    -0.000 C 
BRANCH  17  18
ATOM     18  C   UNL     1     -11.216  33.951  25.501  1.00  0.00    -0.000 C 
BRANCH  18  19
ATOM     19  C   UNL     1      -9.779  33.486  25.227  1.00  0.00    -0.003 C 
ATOM     20  C   UNL     1      -8.825  33.981  26.312  1.00  0.00     0.004 C 
ENDBRANCH  18  19
ENDBRANCH  17  18
ENDBRANCH  16  17
ENDBRANCH  15  16
ENDBRANCH  14  15
ENDBRANCH  13  14
ENDBRANCH   2  13
TORSDOF 15
ENDMDL
MODEL 9
REMARK VINA RESULT:    -5.149      5.036     10.702
REMARK INTER + INTRA:         -10.802
REMARK INTER:                  -9.681
REMARK INTRA:                  -1.121
REMARK UNBOUND:                -1.137
REMARK SMILES CCCCCCCCC=CCCCCCCCC(=O)[O-]
REMARK SMILES IDX 10 1 9 2 11 3 12 4 13 5 14 6 15 7 16 8 17 9 18 10 19 11
REMARK SMILES IDX 20 12 8 13 7 14 6 15 5 16 4 17 3 18 2 19 1 20
REMARK H PARENT
REMARK Flexibility Score: inf
ROOT
ATOM      1  C   UNL     1     -12.093  28.807  30.203  1.00  0.00    -0.031 C 
ATOM      2  C   UNL     1     -11.469  29.556  29.280  1.00  0.00    -0.031 C 
ENDROOT
BRANCH   1   3
ATOM      3  C   UNL     1     -12.826  29.431  31.357  1.00  0.00     0.027 C 
BRANCH   3   4
ATOM      4  C   UNL     1     -14.154  28.705  31.625  1.00  0.00     0.004 C 
BRANCH   4   5
ATOM      5  C   UNL     1     -14.172  27.274  31.065  1.00  0.00     0.000 C 
BRANCH   5   6
ATOM      6  C   UNL     1     -15.047  26.324  31.901  1.00  0.00     0.000 C 
BRANCH   6   7
ATOM      7  C   UNL     1     -14.431  26.011  33.274  1.00  0.00     0.000 C 
BRANCH   7   8
ATOM      8  C   UNL     1     -15.289  25.038  34.102  1.00  0.00     0.006 C 
BRANCH   8   9
ATOM      9  C   UNL     1     -15.591  23.742  33.341  1.00  0.00     0.053 C 
BRANCH   9  10
ATOM     10  C   UNL     1     -17.061  23.554  33.126  1.00  0.00     0.041 C 
ATOM     11  O   UNL     1     -17.864  24.489  33.381  1.00  0.00    -0.550 OA
ATOM     12  O   UNL     1     -17.540  22.357  32.610  1.00  0.00    -0.550 OA
ENDBRANCH   9  10
ENDBRANCH   8   9
ENDBRANCH   7   8
ENDBRANCH   6   7
ENDBRANCH   5   6
ENDBRANCH   4   5
ENDBRANCH   3   4
ENDBRANCH   1   3
BRANCH   2  13
ATOM     13  C   UNL     1     -10.754  28.933  28.113  1.00  0.00     0.027 C 
BRANCH  13  14
ATOM     14  C   UNL     1     -10.642  29.920  26.941  1.00  0.00     0.004 C 
BRANCH  14  15
ATOM     15  C   UNL     1     -11.825  30.898  26.876  1.00  0.00     0.000 C 
BRANCH  15  16
ATOM     16  C   UNL     1     -11.391  32.333  26.540  1.00  0.00     0.000 C 
BRANCH  16  17
ATOM     17  C   UNL     1     -10.433  32.881  27.609  1.00  0.00    -0.000 C 
BRANCH  17  18
ATOM     18  C   UNL     1      -9.512  33.987  27.069  1.00  0.00    -0.000 C 
BRANCH  18  19
ATOM     19  C   UNL     1      -9.310  33.899  25.549  1.00  0.00    -0.003 C 
ATOM     20  C   UNL     1      -9.626  35.232  24.875  1.00  0.00     0.004 C 
ENDBRANCH  18  19
ENDBRANCH  17  18
ENDBRANCH  16  17
ENDBRANCH  15  16
ENDBRANCH  14  15
ENDBRANCH  13  14
ENDBRANCH   2  13
TORSDOF 15
ENDMDL
