MODEL 1
REMARK VINA RESULT:     0.535      0.000      0.000
REMARK INTER + INTRA:           0.206
REMARK INTER:                   1.349
REMARK INTRA:                  -1.143
REMARK UNBOUND:                -1.143
REMARK SMILES CCCCCCCCCCCCCCCCCCCCCCCCCCCC(=O)[O-]
REMARK SMILES IDX 15 1 16 2 17 3 18 4 19 5 20 6 21 7 22 8 23 9 24 10 25 11
REMARK SMILES IDX 26 12 27 13 28 14 29 15 30 16 14 17 13 18 12 19 11 20 10 21
REMARK SMILES IDX 9 22 8 23 7 24 6 25 5 26 4 27 3 28 2 29 1 30
REMARK H PARENT
REMARK Flexibility Score: inf
ROOT
ATOM      1  C   UNL     1      29.459   1.112   0.990  1.00  0.00     0.000 C 
ENDROOT
BRANCH   1   2
ATOM      2  C   UNL     1      30.754   1.077   0.164  1.00  0.00     0.000 C 
BRANCH   2   3
ATOM      3  C   UNL     1      30.540   0.481  -1.243  1.00  0.00     0.000 C 
BRANCH   3   4
ATOM      4  C   UNL     1      31.729  -0.360  -1.748  1.00  0.00     0.000 C 
BRANCH   4   5
ATOM      5  C   UNL     1      31.506  -1.058  -3.103  1.00  0.00     0.000 C 
BRANCH   5   6
ATOM      6  C   UNL     1      32.724  -1.057  -4.046  1.00  0.00     0.000 C 
BRANCH   6   7
ATOM      7  C   UNL     1      34.062  -1.131  -3.297  1.00  0.00     0.000 C 
BRANCH   7   8
ATOM      8  C   UNL     1      35.114  -1.888  -4.123  1.00  0.00     0.000 C 
BRANCH   8   9
ATOM      9  C   UNL     1      36.224  -2.491  -3.248  1.00  0.00     0.000 C 
BRANCH   9  10
ATOM     10  C   UNL     1      36.949  -3.663  -3.934  1.00  0.00     0.000 C 
BRANCH  10  11
ATOM     11  C   UNL     1      36.130  -4.968  -3.868  1.00  0.00     0.000 C 
BRANCH  11  12
ATOM     12  C   UNL     1      36.886  -6.136  -3.211  1.00  0.00     0.006 C 
BRANCH  12  13
ATOM     13  C   UNL     1      36.183  -7.486  -3.397  1.00  0.00     0.053 C 
BRANCH  13  14
ATOM     14  C   UNL     1      35.775  -8.053  -2.074  1.00  0.00     0.041 C 
ATOM     15  O   UNL     1      36.146  -7.497  -1.007  1.00  0.00    -0.550 OA
ATOM     16  O   UNL     1      35.016  -9.215  -2.019  1.00  0.00    -0.550 OA
ENDBRANCH  13  14
ENDBRANCH  12  13
ENDBRANCH  11  12
ENDBRANCH  10  11
ENDBRANCH   9  10
ENDBRANCH   8   9
ENDBRANCH   7   8
ENDBRANCH   6   7
ENDBRANCH   5   6
ENDBRANCH   4   5
ENDBRANCH   3   4
ENDBRANCH   2   3
ENDBRANCH   1   2
BRANCH   1  17
ATOM     17  C   UNL     1      29.718   1.680   2.394  1.00  0.00     0.000 C 
BRANCH  17  18
ATOM     18  C   UNL     1      30.871   2.696   2.417  1.00  0.00     0.000 C 
BRANCH  18  19
ATOM     19  C   UNL     1      30.866   3.564   3.687  1.00  0.00     0.000 C 
BRANCH  19  20
ATOM     20  C   UNL     1      31.208   5.039   3.408  1.00  0.00     0.000 C 
BRANCH  20  21
ATOM     21  C   UNL     1      30.004   5.997   3.382  1.00  0.00     0.000 C 
BRANCH  21  22
ATOM     22  C   UNL     1      29.654   6.483   1.967  1.00  0.00    -0.000 C 
BRANCH  22  23
ATOM     23  C   UNL     1      30.870   6.391   1.037  1.00  0.00    -0.000 C 
BRANCH  23  24
ATOM     24  C   UNL     1      30.432   6.342  -0.434  1.00  0.00    -0.000 C 
BRANCH  24  25
ATOM     25  C   UNL     1      30.409   7.728  -1.103  1.00  0.00    -0.000 C 
BRANCH  25  26
ATOM     26  C   UNL     1      29.746   7.777  -2.492  1.00  0.00    -0.000 C 
BRANCH  26  27
ATOM     27  C   UNL     1      29.959   9.120  -3.212  1.00  0.00    -0.000 C 
BRANCH  27  28
ATOM     28  C   UNL     1      28.685   9.636  -3.906  1.00  0.00    -0.000 C 
BRANCH  28  29
ATOM     29  C   UNL     1      27.421   9.644  -3.027  1.00  0.00    -0.003 C 
ATOM     30  C   UNL     1      27.684  10.125  -1.600  1.00  0.00     0.004 C 
ENDBRANCH  28  29
ENDBRANCH  27  28
ENDBRANCH  26  27
ENDBRANCH  25  26
ENDBRANCH  24  25
ENDBRANCH  23  24
ENDBRANCH  22  23
ENDBRANCH  21  22
ENDBRANCH  20  21
ENDBRANCH  19  20
ENDBRANCH  18  19
ENDBRANCH  17  18
ENDBRANCH   1  17
TORSDOF 26
ENDMDL
MODEL 2
REMARK VINA RESULT:     0.777      6.052     10.788
REMARK INTER + INTRA:           0.814
REMARK INTER:                   2.044
REMARK INTRA:                  -1.230
REMARK UNBOUND:                -1.143
REMARK SMILES CCCCCCCCCCCCCCCCCCCCCCCCCCCC(=O)[O-]
REMARK SMILES IDX 15 1 16 2 17 3 18 4 19 5 20 6 21 7 22 8 23 9 24 10 25 11
REMARK SMILES IDX 26 12 27 13 28 14 29 15 30 16 14 17 13 18 12 19 11 20 10 21
REMARK SMILES IDX 9 22 8 23 7 24 6 25 5 26 4 27 3 28 2 29 1 30
REMARK H PARENT
REMARK Flexibility Score: inf
ROOT
ATOM      1  C   UNL     1      31.813  -0.015  -1.273  1.00  0.00     0.000 C 
ENDROOT
BRANCH   1   2
ATOM      2  C   UNL     1      30.383   0.335  -0.835  1.00  0.00     0.000 C 
BRANCH   2   3
ATOM      3  C   UNL     1      30.345   1.479   0.200  1.00  0.00     0.000 C 
BRANCH   3   4
ATOM      4  C   UNL     1      29.463   1.178   1.426  1.00  0.00     0.000 C 
BRANCH   4   5
ATOM      5  C   UNL     1      29.489   2.253   2.529  1.00  0.00     0.000 C 
BRANCH   5   6
ATOM      6  C   UNL     1      30.894   2.658   3.013  1.00  0.00     0.000 C 
BRANCH   6   7
ATOM      7  C   UNL     1      30.907   3.996   3.766  1.00  0.00     0.000 C 
BRANCH   7   8
ATOM      8  C   UNL     1      31.435   5.127   2.869  1.00  0.00     0.000 C 
BRANCH   8   9
ATOM      9  C   UNL     1      31.235   6.515   3.497  1.00  0.00     0.000 C 
BRANCH   9  10
ATOM     10  C   UNL     1      29.833   6.694   4.106  1.00  0.00     0.000 C 
BRANCH  10  11
ATOM     11  C   UNL     1      29.869   7.523   5.407  1.00  0.00     0.000 C 
BRANCH  11  12
ATOM     12  C   UNL     1      30.631   8.853   5.267  1.00  0.00     0.006 C 
BRANCH  12  13
ATOM     13  C   UNL     1      30.084   9.956   6.180  1.00  0.00     0.053 C 
BRANCH  13  14
ATOM     14  C   UNL     1      29.752   9.406   7.530  1.00  0.00     0.041 C 
ATOM     15  O   UNL     1      28.580   9.506   7.983  1.00  0.00    -0.550 OA
ATOM     16  O   UNL     1      30.742   8.814   8.304  1.00  0.00    -0.550 OA
ENDBRANCH  13  14
ENDBRANCH  12  13
ENDBRANCH  11  12
ENDBRANCH  10  11
ENDBRANCH   9  10
ENDBRANCH   8   9
ENDBRANCH   7   8
ENDBRANCH   6   7
ENDBRANCH   5   6
ENDBRANCH   4   5
ENDBRANCH   3   4
ENDBRANCH   2   3
ENDBRANCH   1   2
BRANCH   1  17
ATOM     17  C   UNL     1      31.809  -0.767  -2.612  1.00  0.00     0.000 C 
BRANCH  17  18
ATOM     18  C   UNL     1      33.098  -0.544  -3.420  1.00  0.00     0.000 C 
BRANCH  18  19
ATOM     19  C   UNL     1      33.123   0.822  -4.125  1.00  0.00     0.000 C 
BRANCH  19  20
ATOM     20  C   UNL     1      31.802   1.600  -3.975  1.00  0.00     0.000 C 
BRANCH  20  21
ATOM     21  C   UNL     1      31.927   3.130  -4.085  1.00  0.00     0.000 C 
BRANCH  21  22
ATOM     22  C   UNL     1      33.382   3.620  -4.028  1.00  0.00    -0.000 C 
BRANCH  22  23
ATOM     23  C   UNL     1      33.466   5.031  -3.435  1.00  0.00    -0.000 C 
BRANCH  23  24
ATOM     24  C   UNL     1      32.111   5.748  -3.534  1.00  0.00    -0.000 C 
BRANCH  24  25
ATOM     25  C   UNL     1      31.287   5.661  -2.236  1.00  0.00    -0.000 C 
BRANCH  25  26
ATOM     26  C   UNL     1      30.648   6.982  -1.773  1.00  0.00    -0.000 C 
BRANCH  26  27
ATOM     27  C   UNL     1      30.304   7.925  -2.939  1.00  0.00    -0.000 C 
BRANCH  27  28
ATOM     28  C   UNL     1      30.022   9.367  -2.480  1.00  0.00    -0.000 C 
BRANCH  28  29
ATOM     29  C   UNL     1      28.669   9.576  -1.777  1.00  0.00    -0.003 C 
ATOM     30  C   UNL     1      27.478   9.504  -2.733  1.00  0.00     0.004 C 
ENDBRANCH  28  29
ENDBRANCH  27  28
ENDBRANCH  26  27
ENDBRANCH  25  26
ENDBRANCH  24  25
ENDBRANCH  23  24
ENDBRANCH  22  23
ENDBRANCH  21  22
ENDBRANCH  20  21
ENDBRANCH  19  20
ENDBRANCH  18  19
ENDBRANCH  17  18
ENDBRANCH   1  17
TORSDOF 26
ENDMDL
MODEL 3
REMARK VINA RESULT:     1.301      5.281     13.370
REMARK INTER + INTRA:           2.135
REMARK INTER:                   3.469
REMARK INTRA:                  -1.334
REMARK UNBOUND:                -1.143
REMARK SMILES CCCCCCCCCCCCCCCCCCCCCCCCCCCC(=O)[O-]
REMARK SMILES IDX 15 1 16 2 17 3 18 4 19 5 20 6 21 7 22 8 23 9 24 10 25 11
REMARK SMILES IDX 26 12 27 13 28 14 29 15 30 16 14 17 13 18 12 19 11 20 10 21
REMARK SMILES IDX 9 22 8 23 7 24 6 25 5 26 4 27 3 28 2 29 1 30
REMARK H PARENT
REMARK Flexibility Score: inf
ROOT
ATOM      1  C   UNL     1      30.419   1.681   0.062  1.00  0.00     0.000 C 
ENDROOT
BRANCH   1   2
ATOM      2  C   UNL     1      30.090   1.758   1.560  1.00  0.00     0.000 C 
BRANCH   2   3
ATOM      3  C   UNL     1      30.864   2.884   2.278  1.00  0.00     0.000 C 
BRANCH   3   4
ATOM      4  C   UNL     1      30.006   3.690   3.273  1.00  0.00     0.000 C 
BRANCH   4   5
ATOM      5  C   UNL     1      30.801   4.564   4.260  1.00  0.00     0.000 C 
BRANCH   5   6
ATOM      6  C   UNL     1      31.229   5.940   3.716  1.00  0.00     0.000 C 
BRANCH   6   7
ATOM      7  C   UNL     1      30.369   6.411   2.533  1.00  0.00     0.000 C 
BRANCH   7   8
ATOM      8  C   UNL     1      31.186   6.429   1.232  1.00  0.00     0.000 C 
BRANCH   8   9
ATOM      9  C   UNL     1      30.314   6.195  -0.011  1.00  0.00     0.000 C 
BRANCH   9  10
ATOM     10  C   UNL     1      31.129   6.197  -1.317  1.00  0.00     0.000 C 
BRANCH  10  11
ATOM     11  C   UNL     1      30.626   7.263  -2.312  1.00  0.00     0.000 C 
BRANCH  11  12
ATOM     12  C   UNL     1      29.737   8.339  -1.662  1.00  0.00     0.006 C 
BRANCH  12  13
ATOM     13  C   UNL     1      29.522   9.562  -2.561  1.00  0.00     0.053 C 
BRANCH  13  14
ATOM     14  C   UNL     1      28.065   9.878  -2.680  1.00  0.00     0.041 C 
ATOM     15  O   UNL     1      27.525   9.953  -3.816  1.00  0.00    -0.550 OA
ATOM     16  O   UNL     1      27.311  10.125  -1.540  1.00  0.00    -0.550 OA
ENDBRANCH  13  14
ENDBRANCH  12  13
ENDBRANCH  11  12
ENDBRANCH  10  11
ENDBRANCH   9  10
ENDBRANCH   8   9
ENDBRANCH   7   8
ENDBRANCH   6   7
ENDBRANCH   5   6
ENDBRANCH   4   5
ENDBRANCH   3   4
ENDBRANCH   2   3
ENDBRANCH   1   2
BRANCH   1  17
ATOM     17  C   UNL     1      30.807   0.251  -0.343  1.00  0.00     0.000 C 
BRANCH  17  18
ATOM     18  C   UNL     1      30.718   0.021  -1.860  1.00  0.00     0.000 C 
BRANCH  18  19
ATOM     19  C   UNL     1      31.620  -1.129  -2.336  1.00  0.00     0.000 C 
BRANCH  19  20
ATOM     20  C   UNL     1      33.089  -0.705  -2.519  1.00  0.00     0.000 C 
BRANCH  20  21
ATOM     21  C   UNL     1      33.810  -1.342  -3.721  1.00  0.00     0.000 C 
BRANCH  21  22
ATOM     22  C   UNL     1      35.297  -0.964  -3.798  1.00  0.00    -0.000 C 
BRANCH  22  23
ATOM     23  C   UNL     1      36.160  -2.188  -4.125  1.00  0.00    -0.000 C 
BRANCH  23  24
ATOM     24  C   UNL     1      36.413  -3.032  -2.867  1.00  0.00    -0.000 C 
BRANCH  24  25
ATOM     25  C   UNL     1      37.018  -4.413  -3.179  1.00  0.00    -0.000 C 
BRANCH  25  26
ATOM     26  C   UNL     1      36.002  -5.561  -3.317  1.00  0.00    -0.000 C 
BRANCH  26  27
ATOM     27  C   UNL     1      36.497  -6.879  -2.698  1.00  0.00    -0.000 C 
BRANCH  27  28
ATOM     28  C   UNL     1      35.543  -8.059  -2.960  1.00  0.00    -0.000 C 
BRANCH  28  29
ATOM     29  C   UNL     1      35.382  -9.042  -1.785  1.00  0.00    -0.003 C 
ATOM     30  C   UNL     1      36.472 -10.113  -1.745  1.00  0.00     0.004 C 
ENDBRANCH  28  29
ENDBRANCH  27  28
ENDBRANCH  26  27
ENDBRANCH  25  26
ENDBRANCH  24  25
ENDBRANCH  23  24
ENDBRANCH  22  23
ENDBRANCH  21  22
ENDBRANCH  20  21
ENDBRANCH  19  20
ENDBRANCH  18  19
ENDBRANCH  17  18
ENDBRANCH   1  17
TORSDOF 26
ENDMDL
MODEL 4
REMARK VINA RESULT:     2.041      1.720      2.886
REMARK INTER + INTRA:           4.000
REMARK INTER:                   5.107
REMARK INTRA:                  -1.107
REMARK UNBOUND:                -1.143
REMARK SMILES CCCCCCCCCCCCCCCCCCCCCCCCCCCC(=O)[O-]
REMARK SMILES IDX 15 1 16 2 17 3 18 4 19 5 20 6 21 7 22 8 23 9 24 10 25 11
REMARK SMILES IDX 26 12 27 13 28 14 29 15 30 16 14 17 13 18 12 19 11 20 10 21
REMARK SMILES IDX 9 22 8 23 7 24 6 25 5 26 4 27 3 28 2 29 1 30
REMARK H PARENT
REMARK Flexibility Score: inf
ROOT
ATOM      1  C   UNL     1      30.258   0.717  -0.467  1.00  0.00     0.000 C 
ENDROOT
BRANCH   1   2
ATOM      2  C   UNL     1      31.395  -0.217  -0.904  1.00  0.00     0.000 C 
BRANCH   2   3
ATOM      3  C   UNL     1      31.076  -0.962  -2.218  1.00  0.00     0.000 C 
BRANCH   3   4
ATOM      4  C   UNL     1      31.542  -0.216  -3.483  1.00  0.00     0.000 C 
BRANCH   4   5
ATOM      5  C   UNL     1      33.068  -0.136  -3.669  1.00  0.00     0.000 C 
BRANCH   5   6
ATOM      6  C   UNL     1      33.777  -1.492  -3.844  1.00  0.00     0.000 C 
BRANCH   6   7
ATOM      7  C   UNL     1      35.293  -1.411  -3.613  1.00  0.00     0.000 C 
BRANCH   7   8
ATOM      8  C   UNL     1      35.845  -2.752  -3.104  1.00  0.00     0.000 C 
BRANCH   8   9
ATOM      9  C   UNL     1      36.778  -3.426  -4.122  1.00  0.00     0.000 C 
BRANCH   9  10
ATOM     10  C   UNL     1      37.064  -4.900  -3.780  1.00  0.00     0.000 C 
BRANCH  10  11
ATOM     11  C   UNL     1      35.868  -5.814  -4.117  1.00  0.00     0.000 C 
BRANCH  11  12
ATOM     12  C   UNL     1      36.110  -7.294  -3.774  1.00  0.00     0.006 C 
BRANCH  12  13
ATOM     13  C   UNL     1      36.000  -7.588  -2.273  1.00  0.00     0.053 C 
BRANCH  13  14
ATOM     14  C   UNL     1      35.915  -9.061  -2.031  1.00  0.00     0.041 C 
ATOM     15  O   UNL     1      35.184  -9.509  -1.107  1.00  0.00    -0.550 OA
ATOM     16  O   UNL     1      36.669  -9.939  -2.800  1.00  0.00    -0.550 OA
ENDBRANCH  13  14
ENDBRANCH  12  13
ENDBRANCH  11  12
ENDBRANCH  10  11
ENDBRANCH   9  10
ENDBRANCH   8   9
ENDBRANCH   7   8
ENDBRANCH   6   7
ENDBRANCH   5   6
ENDBRANCH   4   5
ENDBRANCH   3   4
ENDBRANCH   2   3
ENDBRANCH   1   2
BRANCH   1  17
ATOM     17  C   UNL     1      30.576   1.375   0.885  1.00  0.00     0.000 C 
BRANCH  17  18
ATOM     18  C   UNL     1      29.326   1.565   1.759  1.00  0.00     0.000 C 
BRANCH  18  19
ATOM     19  C   UNL     1      29.632   1.432   3.260  1.00  0.00     0.000 C 
BRANCH  19  20
ATOM     20  C   UNL     1      30.564   2.540   3.784  1.00  0.00     0.000 C 
BRANCH  20  21
ATOM     21  C   UNL     1      30.887   3.657   2.775  1.00  0.00     0.000 C 
BRANCH  21  22
ATOM     22  C   UNL     1      30.778   5.064   3.382  1.00  0.00    -0.000 C 
BRANCH  22  23
ATOM     23  C   UNL     1      31.192   6.135   2.367  1.00  0.00    -0.000 C 
BRANCH  23  24
ATOM     24  C   UNL     1      30.098   6.340   1.308  1.00  0.00    -0.000 C 
BRANCH  24  25
ATOM     25  C   UNL     1      30.564   5.987  -0.116  1.00  0.00    -0.000 C 
BRANCH  25  26
ATOM     26  C   UNL     1      30.740   7.185  -1.066  1.00  0.00    -0.000 C 
BRANCH  26  27
ATOM     27  C   UNL     1      31.264   6.778  -2.455  1.00  0.00    -0.000 C 
BRANCH  27  28
ATOM     28  C   UNL     1      31.684   5.299  -2.526  1.00  0.00    -0.000 C 
BRANCH  28  29
ATOM     29  C   UNL     1      32.731   4.968  -3.606  1.00  0.00    -0.003 C 
ATOM     30  C   UNL     1      33.210   3.517  -3.554  1.00  0.00     0.004 C 
ENDBRANCH  28  29
ENDBRANCH  27  28
ENDBRANCH  26  27
ENDBRANCH  25  26
ENDBRANCH  24  25
ENDBRANCH  23  24
ENDBRANCH  22  23
ENDBRANCH  21  22
ENDBRANCH  20  21
ENDBRANCH  19  20
ENDBRANCH  18  19
ENDBRANCH  17  18
ENDBRANCH   1  17
TORSDOF 26
ENDMDL
MODEL 5
REMARK VINA RESULT:     2.788      3.179      4.669
REMARK INTER + INTRA:           5.882
REMARK INTER:                   4.850
REMARK INTRA:                   1.031
REMARK UNBOUND:                -1.143
REMARK SMILES CCCCCCCCCCCCCCCCCCCCCCCCCCCC(=O)[O-]
REMARK SMILES IDX 15 1 16 2 17 3 18 4 19 5 20 6 21 7 22 8 23 9 24 10 25 11
REMARK SMILES IDX 26 12 27 13 28 14 29 15 30 16 14 17 13 18 12 19 11 20 10 21
REMARK SMILES IDX 9 22 8 23 7 24 6 25 5 26 4 27 3 28 2 29 1 30
REMARK H PARENT
REMARK Flexibility Score: inf
ROOT
ATOM      1  C   UNL     1      29.953   0.852  -0.302  1.00  0.00     0.000 C 
ENDROOT
BRANCH   1   2
ATOM      2  C   UNL     1      31.104   0.002  -0.860  1.00  0.00     0.000 C 
BRANCH   2   3
ATOM      3  C   UNL     1      30.973  -0.246  -2.378  1.00  0.00     0.000 C 
BRANCH   3   4
ATOM      4  C   UNL     1      31.915   0.624  -3.232  1.00  0.00     0.000 C 
BRANCH   4   5
ATOM      5  C   UNL     1      33.413   0.303  -3.084  1.00  0.00     0.000 C 
BRANCH   5   6
ATOM      6  C   UNL     1      33.816  -1.131  -3.478  1.00  0.00     0.000 C 
BRANCH   6   7
ATOM      7  C   UNL     1      35.315  -1.271  -3.781  1.00  0.00     0.000 C 
BRANCH   7   8
ATOM      8  C   UNL     1      35.929  -2.438  -2.991  1.00  0.00     0.000 C 
BRANCH   8   9
ATOM      9  C   UNL     1      36.664  -3.437  -3.898  1.00  0.00     0.000 C 
BRANCH   9  10
ATOM     10  C   UNL     1      36.994  -4.758  -3.181  1.00  0.00     0.000 C 
BRANCH  10  11
ATOM     11  C   UNL     1      36.030  -5.892  -3.585  1.00  0.00     0.000 C 
BRANCH  11  12
ATOM     12  C   UNL     1      36.495  -7.286  -3.128  1.00  0.00     0.006 C 
BRANCH  12  13
ATOM     13  C   UNL     1      35.457  -8.011  -2.264  1.00  0.00     0.053 C 
BRANCH  13  14
ATOM     14  C   UNL     1      35.800  -9.461  -2.134  1.00  0.00     0.041 C 
ATOM     15  O   UNL     1      35.399 -10.119  -1.138  1.00  0.00    -0.550 OA
ATOM     16  O   UNL     1      36.594 -10.078  -3.093  1.00  0.00    -0.550 OA
ENDBRANCH  13  14
ENDBRANCH  12  13
ENDBRANCH  11  12
ENDBRANCH  10  11
ENDBRANCH   9  10
ENDBRANCH   8   9
ENDBRANCH   7   8
ENDBRANCH   6   7
ENDBRANCH   5   6
ENDBRANCH   4   5
ENDBRANCH   3   4
ENDBRANCH   2   3
ENDBRANCH   1   2
BRANCH   1  17
ATOM     17  C   UNL     1      30.182   1.180   1.182  1.00  0.00     0.000 C 
BRANCH  17  18
ATOM     18  C   UNL     1      28.891   1.099   2.012  1.00  0.00     0.000 C 
BRANCH  18  19
ATOM     19  C   UNL     1      29.163   0.825   3.500  1.00  0.00     0.000 C 
BRANCH  19  20
ATOM     20  C   UNL     1      30.320   1.671   4.065  1.00  0.00     0.000 C 
BRANCH  20  21
ATOM     21  C   UNL     1      30.659   2.938   3.260  1.00  0.00     0.000 C 
BRANCH  21  22
ATOM     22  C   UNL     1      30.767   4.195   4.138  1.00  0.00    -0.000 C 
BRANCH  22  23
ATOM     23  C   UNL     1      31.375   5.363   3.353  1.00  0.00    -0.000 C 
BRANCH  23  24
ATOM     24  C   UNL     1      30.338   6.476   3.136  1.00  0.00    -0.000 C 
BRANCH  24  25
ATOM     25  C   UNL     1      29.838   7.099   4.452  1.00  0.00    -0.000 C 
BRANCH  25  26
ATOM     26  C   UNL     1      29.963   6.199   5.695  1.00  0.00    -0.000 C 
BRANCH  26  27
ATOM     27  C   UNL     1      31.073   6.655   6.657  1.00  0.00    -0.000 C 
BRANCH  27  28
ATOM     28  C   UNL     1      30.610   7.759   7.626  1.00  0.00    -0.000 C 
BRANCH  28  29
ATOM     29  C   UNL     1      29.351   8.527   7.186  1.00  0.00    -0.003 C 
ATOM     30  C   UNL     1      29.455  10.035   7.416  1.00  0.00     0.004 C 
ENDBRANCH  28  29
ENDBRANCH  27  28
ENDBRANCH  26  27
ENDBRANCH  25  26
ENDBRANCH  24  25
ENDBRANCH  23  24
ENDBRANCH  22  23
ENDBRANCH  21  22
ENDBRANCH  20  21
ENDBRANCH  19  20
ENDBRANCH  18  19
ENDBRANCH  17  18
ENDBRANCH   1  17
TORSDOF 26
ENDMDL
MODEL 6
REMARK VINA RESULT:     2.831      6.321     10.811
REMARK INTER + INTRA:           5.991
REMARK INTER:                   7.301
REMARK INTRA:                  -1.310
REMARK UNBOUND:                -1.143
REMARK SMILES CCCCCCCCCCCCCCCCCCCCCCCCCCCC(=O)[O-]
REMARK SMILES IDX 15 1 16 2 17 3 18 4 19 5 20 6 21 7 22 8 23 9 24 10 25 11
REMARK SMILES IDX 26 12 27 13 28 14 29 15 30 16 14 17 13 18 12 19 11 20 10 21
REMARK SMILES IDX 9 22 8 23 7 24 6 25 5 26 4 27 3 28 2 29 1 30
REMARK H PARENT
REMARK Flexibility Score: inf
ROOT
ATOM      1  C   UNL     1      29.784   0.755   1.037  1.00  0.00     0.000 C 
ENDROOT
BRANCH   1   2
ATOM      2  C   UNL     1      29.616   2.058   1.833  1.00  0.00     0.000 C 
BRANCH   2   3
ATOM      3  C   UNL     1      30.614   2.167   3.005  1.00  0.00     0.000 C 
BRANCH   3   4
ATOM      4  C   UNL     1      30.987   3.617   3.370  1.00  0.00     0.000 C 
BRANCH   4   5
ATOM      5  C   UNL     1      30.186   4.703   2.628  1.00  0.00     0.000 C 
BRANCH   5   6
ATOM      6  C   UNL     1      31.034   5.694   1.808  1.00  0.00     0.000 C 
BRANCH   6   7
ATOM      7  C   UNL     1      32.128   6.380   2.641  1.00  0.00     0.000 C 
BRANCH   7   8
ATOM      8  C   UNL     1      31.523   7.094   3.860  1.00  0.00     0.000 C 
BRANCH   8   9
ATOM      9  C   UNL     1      29.989   7.156   3.802  1.00  0.00     0.000 C 
BRANCH   9  10
ATOM     10  C   UNL     1      29.332   6.856   5.162  1.00  0.00     0.000 C 
BRANCH  10  11
ATOM     11  C   UNL     1      30.331   6.245   6.165  1.00  0.00     0.000 C 
BRANCH  11  12
ATOM     12  C   UNL     1      29.959   6.501   7.636  1.00  0.00     0.006 C 
BRANCH  12  13
ATOM     13  C   UNL     1      29.334   7.882   7.865  1.00  0.00     0.053 C 
BRANCH  13  14
ATOM     14  C   UNL     1      30.342   8.962   7.632  1.00  0.00     0.041 C 
ATOM     15  O   UNL     1      31.267   9.153   8.465  1.00  0.00    -0.550 OA
ATOM     16  O   UNL     1      30.240   9.780   6.514  1.00  0.00    -0.550 OA
ENDBRANCH  13  14
ENDBRANCH  12  13
ENDBRANCH  11  12
ENDBRANCH  10  11
ENDBRANCH   9  10
ENDBRANCH   8   9
ENDBRANCH   7   8
ENDBRANCH   6   7
ENDBRANCH   5   6
ENDBRANCH   4   5
ENDBRANCH   3   4
ENDBRANCH   2   3
ENDBRANCH   1   2
BRANCH   1  17
ATOM     17  C   UNL     1      30.372   1.034  -0.354  1.00  0.00     0.000 C 
BRANCH  17  18
ATOM     18  C   UNL     1      31.446   0.011  -0.758  1.00  0.00     0.000 C 
BRANCH  18  19
ATOM     19  C   UNL     1      31.408  -0.321  -2.259  1.00  0.00     0.000 C 
BRANCH  19  20
ATOM     20  C   UNL     1      32.567   0.317  -3.046  1.00  0.00     0.000 C 
BRANCH  20  21
ATOM     21  C   UNL     1      32.153   1.393  -4.065  1.00  0.00     0.000 C 
BRANCH  21  22
ATOM     22  C   UNL     1      31.885   2.761  -3.419  1.00  0.00    -0.000 C 
BRANCH  22  23
ATOM     23  C   UNL     1      32.913   3.800  -3.882  1.00  0.00    -0.000 C 
BRANCH  23  24
ATOM     24  C   UNL     1      32.473   5.219  -3.490  1.00  0.00    -0.000 C 
BRANCH  24  25
ATOM     25  C   UNL     1      31.552   5.245  -2.257  1.00  0.00    -0.000 C 
BRANCH  25  26
ATOM     26  C   UNL     1      30.993   6.630  -1.883  1.00  0.00    -0.000 C 
BRANCH  26  27
ATOM     27  C   UNL     1      31.020   7.625  -3.056  1.00  0.00    -0.000 C 
BRANCH  27  28
ATOM     28  C   UNL     1      30.236   8.918  -2.762  1.00  0.00    -0.000 C 
BRANCH  28  29
ATOM     29  C   UNL     1      28.923   9.079  -3.551  1.00  0.00    -0.003 C 
ATOM     30  C   UNL     1      27.727   9.422  -2.663  1.00  0.00     0.004 C 
ENDBRANCH  28  29
ENDBRANCH  27  28
ENDBRANCH  26  27
ENDBRANCH  25  26
ENDBRANCH  24  25
ENDBRANCH  23  24
ENDBRANCH  22  23
ENDBRANCH  21  22
ENDBRANCH  20  21
ENDBRANCH  19  20
ENDBRANCH  18  19
ENDBRANCH  17  18
ENDBRANCH   1  17
TORSDOF 26
ENDMDL
