MODEL 1
REMARK VINA RESULT:    -4.486      0.000      0.000
REMARK INTER + INTRA:         -10.923
REMARK INTER:                  -8.683
REMARK INTRA:                  -2.240
REMARK UNBOUND:                -2.240
REMARK SMILES CCCCCCCCCCCCCCCCCC(=O)[O-]
REMARK SMILES IDX 10 1 11 2 12 3 13 4 14 5 15 6 16 7 17 8 18 9 19 10 20 11
REMARK SMILES IDX 9 12 8 13 7 14 6 15 5 16 4 17 3 18 2 19 1 20
REMARK H PARENT
REMARK Flexibility Score: inf
ROOT
ATOM      1  C   UNL     1       1.064 -22.146  -6.112  1.00  0.00     0.000 C 
ENDROOT
BRANCH   1   2
ATOM      2  C   UNL     1       0.768 -21.912  -7.603  1.00  0.00     0.000 C 
BRANCH   2   3
ATOM      3  C   UNL     1       1.660 -20.825  -8.230  1.00  0.00     0.000 C 
BRANCH   3   4
ATOM      4  C   UNL     1       3.144 -20.875  -7.822  1.00  0.00     0.000 C 
BRANCH   4   5
ATOM      5  C   UNL     1       3.598 -19.647  -7.025  1.00  0.00     0.000 C 
BRANCH   5   6
ATOM      6  C   UNL     1       5.096 -19.731  -6.691  1.00  0.00     0.000 C 
BRANCH   6   7
ATOM      7  C   UNL     1       5.593 -21.187  -6.594  1.00  0.00     0.006 C 
BRANCH   7   8
ATOM      8  C   UNL     1       7.124 -21.306  -6.626  1.00  0.00     0.053 C 
BRANCH   8   9
ATOM      9  C   UNL     1       7.643 -21.546  -8.008  1.00  0.00     0.041 C 
ATOM     10  O   UNL     1       8.049 -22.689  -8.340  1.00  0.00    -0.550 OA
ATOM     11  O   UNL     1       7.710 -20.500  -8.918  1.00  0.00    -0.550 OA
ENDBRANCH   8   9
ENDBRANCH   7   8
ENDBRANCH   6   7
ENDBRANCH   5   6
ENDBRANCH   4   5
ENDBRANCH   3   4
ENDBRANCH   2   3
ENDBRANCH   1   2
BRANCH   1  12
ATOM     12  C   UNL     1       0.087 -21.395  -5.196  1.00  0.00     0.000 C 
BRANCH  12  13
ATOM     13  C   UNL     1       0.750 -20.228  -4.448  1.00  0.00    -0.000 C 
BRANCH  13  14
ATOM     14  C   UNL     1       0.595 -20.392  -2.932  1.00  0.00    -0.000 C 
BRANCH  14  15
ATOM     15  C   UNL     1       1.945 -20.256  -2.220  1.00  0.00    -0.000 C 
BRANCH  15  16
ATOM     16  C   UNL     1       2.575 -18.884  -2.492  1.00  0.00    -0.000 C 
BRANCH  16  17
ATOM     17  C   UNL     1       3.950 -19.029  -3.151  1.00  0.00    -0.000 C 
BRANCH  17  18
ATOM     18  C   UNL     1       4.372 -20.504  -3.224  1.00  0.00    -0.000 C 
BRANCH  18  19
ATOM     19  C   UNL     1       5.737 -20.760  -2.568  1.00  0.00    -0.003 C 
ATOM     20  C   UNL     1       6.855 -19.925  -3.192  1.00  0.00     0.004 C 
ENDBRANCH  18  19
ENDBRANCH  17  18
ENDBRANCH  16  17
ENDBRANCH  15  16
ENDBRANCH  14  15
ENDBRANCH  13  14
ENDBRANCH  12  13
ENDBRANCH   1  12
TORSDOF 16
ENDMDL
MODEL 2
REMARK VINA RESULT:    -4.459      1.222      2.072
REMARK INTER + INTRA:         -10.869
REMARK INTER:                  -8.639
REMARK INTRA:                  -2.230
REMARK UNBOUND:                -2.240
REMARK SMILES CCCCCCCCCCCCCCCCCC(=O)[O-]
REMARK SMILES IDX 10 1 11 2 12 3 13 4 14 5 15 6 16 7 17 8 18 9 19 10 20 11
REMARK SMILES IDX 9 12 8 13 7 14 6 15 5 16 4 17 3 18 2 19 1 20
REMARK H PARENT
REMARK Flexibility Score: inf
ROOT
ATOM      1  C   UNL     1       0.842 -21.358  -7.763  1.00  0.00     0.000 C 
ENDROOT
BRANCH   1   2
ATOM      2  C   UNL     1       2.285 -21.202  -8.271  1.00  0.00     0.000 C 
BRANCH   2   3
ATOM      3  C   UNL     1       3.018 -20.004  -7.640  1.00  0.00     0.000 C 
BRANCH   3   4
ATOM      4  C   UNL     1       4.441 -20.298  -7.129  1.00  0.00     0.000 C 
BRANCH   4   5
ATOM      5  C   UNL     1       4.465 -21.056  -5.797  1.00  0.00     0.000 C 
BRANCH   5   6
ATOM      6  C   UNL     1       5.801 -21.791  -5.606  1.00  0.00     0.000 C 
BRANCH   6   7
ATOM      7  C   UNL     1       7.010 -20.838  -5.680  1.00  0.00     0.006 C 
BRANCH   7   8
ATOM      8  C   UNL     1       8.225 -21.456  -6.385  1.00  0.00     0.053 C 
BRANCH   8   9
ATOM      9  C   UNL     1       7.953 -21.758  -7.823  1.00  0.00     0.041 C 
ATOM     10  O   UNL     1       8.070 -22.933  -8.256  1.00  0.00    -0.550 OA
ATOM     11  O   UNL     1       7.602 -20.735  -8.694  1.00  0.00    -0.550 OA
ENDBRANCH   8   9
ENDBRANCH   7   8
ENDBRANCH   6   7
ENDBRANCH   5   6
ENDBRANCH   4   5
ENDBRANCH   3   4
ENDBRANCH   2   3
ENDBRANCH   1   2
BRANCH   1  12
ATOM     12  C   UNL     1       0.728 -22.388  -6.631  1.00  0.00     0.000 C 
BRANCH  12  13
ATOM     13  C   UNL     1       0.135 -21.794  -5.343  1.00  0.00    -0.000 C 
BRANCH  13  14
ATOM     14  C   UNL     1       0.880 -20.517  -4.937  1.00  0.00    -0.000 C 
BRANCH  14  15
ATOM     15  C   UNL     1       0.332 -19.953  -3.623  1.00  0.00    -0.000 C 
BRANCH  15  16
ATOM     16  C   UNL     1       1.181 -20.409  -2.430  1.00  0.00    -0.000 C 
BRANCH  16  17
ATOM     17  C   UNL     1       2.672 -20.168  -2.691  1.00  0.00    -0.000 C 
BRANCH  17  18
ATOM     18  C   UNL     1       3.075 -18.741  -2.291  1.00  0.00    -0.000 C 
BRANCH  18  19
ATOM     19  C   UNL     1       4.024 -18.090  -3.310  1.00  0.00    -0.003 C 
ATOM     20  C   UNL     1       3.313 -17.689  -4.602  1.00  0.00     0.004 C 
ENDBRANCH  18  19
ENDBRANCH  17  18
ENDBRANCH  16  17
ENDBRANCH  15  16
ENDBRANCH  14  15
ENDBRANCH  13  14
ENDBRANCH  12  13
ENDBRANCH   1  12
TORSDOF 16
ENDMDL
MODEL 3
REMARK VINA RESULT:    -4.447      1.202      2.549
REMARK INTER + INTRA:         -10.846
REMARK INTER:                  -8.096
REMARK INTRA:                  -2.750
REMARK UNBOUND:                -2.240
REMARK SMILES CCCCCCCCCCCCCCCCCC(=O)[O-]
REMARK SMILES IDX 10 1 11 2 12 3 13 4 14 5 15 6 16 7 17 8 18 9 19 10 20 11
REMARK SMILES IDX 9 12 8 13 7 14 6 15 5 16 4 17 3 18 2 19 1 20
REMARK H PARENT
REMARK Flexibility Score: inf
ROOT
ATOM      1  C   UNL     1       0.117 -21.369  -5.259  1.00  0.00     0.000 C 
ENDROOT
BRANCH   1   2
ATOM      2  C   UNL     1       0.957 -22.127  -6.301  1.00  0.00     0.000 C 
BRANCH   2   3
ATOM      3  C   UNL     1       0.820 -21.548  -7.721  1.00  0.00     0.000 C 
BRANCH   3   4
ATOM      4  C   UNL     1       2.083 -20.862  -8.277  1.00  0.00     0.000 C 
BRANCH   4   5
ATOM      5  C   UNL     1       3.299 -20.984  -7.350  1.00  0.00     0.000 C 
BRANCH   5   6
ATOM      6  C   UNL     1       3.896 -19.602  -7.043  1.00  0.00     0.000 C 
BRANCH   6   7
ATOM      7  C   UNL     1       5.378 -19.683  -6.627  1.00  0.00     0.006 C 
BRANCH   7   8
ATOM      8  C   UNL     1       5.943 -21.110  -6.681  1.00  0.00     0.053 C 
BRANCH   8   9
ATOM      9  C   UNL     1       7.255 -21.171  -7.394  1.00  0.00     0.041 C 
ATOM     10  O   UNL     1       7.374 -20.670  -8.542  1.00  0.00    -0.550 OA
ATOM     11  O   UNL     1       8.338 -21.811  -6.807  1.00  0.00    -0.550 OA
ENDBRANCH   8   9
ENDBRANCH   7   8
ENDBRANCH   6   7
ENDBRANCH   5   6
ENDBRANCH   4   5
ENDBRANCH   3   4
ENDBRANCH   2   3
ENDBRANCH   1   2
BRANCH   1  12
ATOM     12  C   UNL     1       0.926 -20.284  -4.534  1.00  0.00     0.000 C 
BRANCH  12  13
ATOM     13  C   UNL     1       0.764 -20.343  -3.007  1.00  0.00    -0.000 C 
BRANCH  13  14
ATOM     14  C   UNL     1       2.116 -20.162  -2.307  1.00  0.00    -0.000 C 
BRANCH  14  15
ATOM     15  C   UNL     1       3.276 -20.331  -3.294  1.00  0.00    -0.000 C 
BRANCH  15  16
ATOM     16  C   UNL     1       4.345 -19.253  -3.077  1.00  0.00    -0.000 C 
BRANCH  16  17
ATOM     17  C   UNL     1       3.707 -17.868  -2.922  1.00  0.00    -0.000 C 
BRANCH  17  18
ATOM     18  C   UNL     1       3.416 -17.240  -4.293  1.00  0.00    -0.000 C 
BRANCH  18  19
ATOM     19  C   UNL     1       2.002 -16.646  -4.380  1.00  0.00    -0.003 C 
ATOM     20  C   UNL     1       1.296 -16.608  -3.025  1.00  0.00     0.004 C 
ENDBRANCH  18  19
ENDBRANCH  17  18
ENDBRANCH  16  17
ENDBRANCH  15  16
ENDBRANCH  14  15
ENDBRANCH  13  14
ENDBRANCH  12  13
ENDBRANCH   1  12
TORSDOF 16
ENDMDL
MODEL 4
REMARK VINA RESULT:    -4.429      3.120      5.931
REMARK INTER + INTRA:         -10.812
REMARK INTER:                  -8.702
REMARK INTRA:                  -2.111
REMARK UNBOUND:                -2.240
REMARK SMILES CCCCCCCCCCCCCCCCCC(=O)[O-]
REMARK SMILES IDX 10 1 11 2 12 3 13 4 14 5 15 6 16 7 17 8 18 9 19 10 20 11
REMARK SMILES IDX 9 12 8 13 7 14 6 15 5 16 4 17 3 18 2 19 1 20
REMARK H PARENT
REMARK Flexibility Score: inf
ROOT
ATOM      1  C   UNL     1       4.437 -21.036  -6.991  1.00  0.00     0.000 C 
ENDROOT
BRANCH   1   2
ATOM      2  C   UNL     1       3.198 -20.211  -7.377  1.00  0.00     0.000 C 
BRANCH   2   3
ATOM      3  C   UNL     1       2.294 -20.926  -8.398  1.00  0.00     0.000 C 
BRANCH   3   4
ATOM      4  C   UNL     1       0.891 -21.302  -7.884  1.00  0.00     0.000 C 
BRANCH   4   5
ATOM      5  C   UNL     1       0.917 -22.253  -6.683  1.00  0.00     0.000 C 
BRANCH   5   6
ATOM      6  C   UNL     1       0.166 -21.649  -5.487  1.00  0.00     0.000 C 
BRANCH   6   7
ATOM      7  C   UNL     1       0.992 -20.568  -4.761  1.00  0.00     0.006 C 
BRANCH   7   8
ATOM      8  C   UNL     1       0.524 -20.316  -3.320  1.00  0.00     0.053 C 
BRANCH   8   9
ATOM      9  C   UNL     1       1.665 -20.280  -2.354  1.00  0.00     0.041 C 
ATOM     10  O   UNL     1       2.577 -19.424  -2.486  1.00  0.00    -0.550 OA
ATOM     11  O   UNL     1       1.738 -21.212  -1.328  1.00  0.00    -0.550 OA
ENDBRANCH   8   9
ENDBRANCH   7   8
ENDBRANCH   6   7
ENDBRANCH   5   6
ENDBRANCH   4   5
ENDBRANCH   3   4
ENDBRANCH   2   3
ENDBRANCH   1   2
BRANCH   1  12
ATOM     12  C   UNL     1       4.342 -21.603  -5.567  1.00  0.00     0.000 C 
BRANCH  12  13
ATOM     13  C   UNL     1       5.376 -20.986  -4.611  1.00  0.00    -0.000 C 
BRANCH  13  14
ATOM     14  C   UNL     1       5.925 -19.671  -5.174  1.00  0.00    -0.000 C 
BRANCH  14  15
ATOM     15  C   UNL     1       7.451 -19.720  -5.302  1.00  0.00    -0.000 C 
BRANCH  15  16
ATOM     16  C   UNL     1       7.933 -21.142  -5.614  1.00  0.00    -0.000 C 
BRANCH  16  17
ATOM     17  C   UNL     1       8.077 -21.356  -7.124  1.00  0.00    -0.000 C 
BRANCH  17  18
ATOM     18  C   UNL     1       8.282 -20.019  -7.852  1.00  0.00    -0.000 C 
BRANCH  18  19
ATOM     19  C   UNL     1       7.372 -19.872  -9.081  1.00  0.00    -0.003 C 
ATOM     20  C   UNL     1       6.382 -18.716  -8.945  1.00  0.00     0.004 C 
ENDBRANCH  18  19
ENDBRANCH  17  18
ENDBRANCH  16  17
ENDBRANCH  15  16
ENDBRANCH  14  15
ENDBRANCH  13  14
ENDBRANCH  12  13
ENDBRANCH   1  12
TORSDOF 16
ENDMDL
MODEL 5
REMARK VINA RESULT:    -4.419      3.222      6.098
REMARK INTER + INTRA:         -10.791
REMARK INTER:                  -8.090
REMARK INTRA:                  -2.701
REMARK UNBOUND:                -2.240
REMARK SMILES CCCCCCCCCCCCCCCCCC(=O)[O-]
REMARK SMILES IDX 10 1 11 2 12 3 13 4 14 5 15 6 16 7 17 8 18 9 19 10 20 11
REMARK SMILES IDX 9 12 8 13 7 14 6 15 5 16 4 17 3 18 2 19 1 20
REMARK H PARENT
REMARK Flexibility Score: inf
ROOT
ATOM      1  C   UNL     1       4.192 -20.983  -5.705  1.00  0.00     0.000 C 
ENDROOT
BRANCH   1   2
ATOM      2  C   UNL     1       3.844 -21.336  -7.160  1.00  0.00     0.000 C 
BRANCH   2   3
ATOM      3  C   UNL     1       2.920 -20.301  -7.827  1.00  0.00     0.000 C 
BRANCH   3   4
ATOM      4  C   UNL     1       1.538 -20.830  -8.255  1.00  0.00     0.000 C 
BRANCH   4   5
ATOM      5  C   UNL     1       1.144 -22.137  -7.556  1.00  0.00     0.000 C 
BRANCH   5   6
ATOM      6  C   UNL     1      -0.046 -21.917  -6.610  1.00  0.00     0.000 C 
BRANCH   6   7
ATOM      7  C   UNL     1       0.395 -21.762  -5.141  1.00  0.00     0.006 C 
BRANCH   7   8
ATOM      8  C   UNL     1       0.649 -20.303  -4.736  1.00  0.00     0.053 C 
BRANCH   8   9
ATOM      9  C   UNL     1       0.871 -20.154  -3.265  1.00  0.00     0.041 C 
ATOM     10  O   UNL     1       0.305 -20.936  -2.459  1.00  0.00    -0.550 OA
ATOM     11  O   UNL     1       1.676 -19.131  -2.783  1.00  0.00    -0.550 OA
ENDBRANCH   8   9
ENDBRANCH   7   8
ENDBRANCH   6   7
ENDBRANCH   5   6
ENDBRANCH   4   5
ENDBRANCH   3   4
ENDBRANCH   2   3
ENDBRANCH   1   2
BRANCH   1  12
ATOM     12  C   UNL     1       5.432 -21.735  -5.201  1.00  0.00     0.000 C 
BRANCH  12  13
ATOM     13  C   UNL     1       6.479 -20.801  -4.573  1.00  0.00    -0.000 C 
BRANCH  13  14
ATOM     14  C   UNL     1       7.844 -20.981  -5.246  1.00  0.00    -0.000 C 
BRANCH  14  15
ATOM     15  C   UNL     1       7.706 -21.698  -6.593  1.00  0.00    -0.000 C 
BRANCH  15  16
ATOM     16  C   UNL     1       8.239 -20.827  -7.738  1.00  0.00    -0.000 C 
BRANCH  16  17
ATOM     17  C   UNL     1       7.115 -19.998  -8.368  1.00  0.00    -0.000 C 
BRANCH  17  18
ATOM     18  C   UNL     1       7.135 -18.555  -7.843  1.00  0.00    -0.000 C 
BRANCH  18  19
ATOM     19  C   UNL     1       5.749 -18.074  -7.387  1.00  0.00    -0.003 C 
ATOM     20  C   UNL     1       5.760 -17.507  -5.969  1.00  0.00     0.004 C 
ENDBRANCH  18  19
ENDBRANCH  17  18
ENDBRANCH  16  17
ENDBRANCH  15  16
ENDBRANCH  14  15
ENDBRANCH  13  14
ENDBRANCH  12  13
ENDBRANCH   1  12
TORSDOF 16
ENDMDL
MODEL 6
REMARK VINA RESULT:    -4.401      2.827      4.104
REMARK INTER + INTRA:         -10.757
REMARK INTER:                  -7.781
REMARK INTRA:                  -2.976
REMARK UNBOUND:                -2.240
REMARK SMILES CCCCCCCCCCCCCCCCCC(=O)[O-]
REMARK SMILES IDX 10 1 11 2 12 3 13 4 14 5 15 6 16 7 17 8 18 9 19 10 20 11
REMARK SMILES IDX 9 12 8 13 7 14 6 15 5 16 4 17 3 18 2 19 1 20
REMARK H PARENT
REMARK Flexibility Score: inf
ROOT
ATOM      1  C   UNL     1       1.628 -20.464  -7.383  1.00  0.00     0.000 C 
ENDROOT
BRANCH   1   2
ATOM      2  C   UNL     1       2.957 -20.549  -8.152  1.00  0.00     0.000 C 
BRANCH   2   3
ATOM      3  C   UNL     1       4.185 -20.276  -7.264  1.00  0.00     0.000 C 
BRANCH   3   4
ATOM      4  C   UNL     1       5.076 -21.499  -6.981  1.00  0.00     0.000 C 
BRANCH   4   5
ATOM      5  C   UNL     1       5.374 -21.704  -5.491  1.00  0.00     0.000 C 
BRANCH   5   6
ATOM      6  C   UNL     1       4.289 -21.052  -4.619  1.00  0.00     0.000 C 
BRANCH   6   7
ATOM      7  C   UNL     1       4.820 -20.642  -3.232  1.00  0.00     0.006 C 
BRANCH   7   8
ATOM      8  C   UNL     1       6.007 -19.670  -3.302  1.00  0.00     0.053 C 
BRANCH   8   9
ATOM      9  C   UNL     1       6.290 -19.027  -1.982  1.00  0.00     0.041 C 
ATOM     10  O   UNL     1       7.087 -19.568  -1.174  1.00  0.00    -0.550 OA
ATOM     11  O   UNL     1       5.648 -17.847  -1.631  1.00  0.00    -0.550 OA
ENDBRANCH   8   9
ENDBRANCH   7   8
ENDBRANCH   6   7
ENDBRANCH   5   6
ENDBRANCH   4   5
ENDBRANCH   3   4
ENDBRANCH   2   3
ENDBRANCH   1   2
BRANCH   1  12
ATOM     12  C   UNL     1       1.110 -21.845  -6.956  1.00  0.00     0.000 C 
BRANCH  12  13
ATOM     13  C   UNL     1       0.379 -21.814  -5.605  1.00  0.00    -0.000 C 
BRANCH  13  14
ATOM     14  C   UNL     1       0.584 -20.467  -4.903  1.00  0.00    -0.000 C 
BRANCH  14  15
ATOM     15  C   UNL     1       0.558 -20.629  -3.379  1.00  0.00    -0.000 C 
BRANCH  15  16
ATOM     16  C   UNL     1       1.452 -19.585  -2.699  1.00  0.00    -0.000 C 
BRANCH  16  17
ATOM     17  C   UNL     1       1.343 -18.226  -3.398  1.00  0.00    -0.000 C 
BRANCH  17  18
ATOM     18  C   UNL     1       2.727 -17.583  -3.570  1.00  0.00    -0.000 C 
BRANCH  18  19
ATOM     19  C   UNL     1       3.176 -17.536  -5.039  1.00  0.00    -0.003 C 
ATOM     20  C   UNL     1       2.056 -17.097  -5.982  1.00  0.00     0.004 C 
ENDBRANCH  18  19
ENDBRANCH  17  18
ENDBRANCH  16  17
ENDBRANCH  15  16
ENDBRANCH  14  15
ENDBRANCH  13  14
ENDBRANCH  12  13
ENDBRANCH   1  12
TORSDOF 16
ENDMDL
MODEL 7
REMARK VINA RESULT:    -4.354      2.129      2.750
REMARK INTER + INTRA:         -10.666
REMARK INTER:                  -8.267
REMARK INTRA:                  -2.399
REMARK UNBOUND:                -2.240
REMARK SMILES CCCCCCCCCCCCCCCCCC(=O)[O-]
REMARK SMILES IDX 10 1 11 2 12 3 13 4 14 5 15 6 16 7 17 8 18 9 19 10 20 11
REMARK SMILES IDX 9 12 8 13 7 14 6 15 5 16 4 17 3 18 2 19 1 20
REMARK H PARENT
REMARK Flexibility Score: inf
ROOT
ATOM      1  C   UNL     1       0.079 -21.396  -5.268  1.00  0.00     0.000 C 
ENDROOT
BRANCH   1   2
ATOM      2  C   UNL     1       1.005 -22.129  -6.254  1.00  0.00     0.000 C 
BRANCH   2   3
ATOM      3  C   UNL     1       0.848 -21.638  -7.705  1.00  0.00     0.000 C 
BRANCH   3   4
ATOM      4  C   UNL     1       2.016 -20.791  -8.243  1.00  0.00     0.000 C 
BRANCH   4   5
ATOM      5  C   UNL     1       3.346 -21.066  -7.530  1.00  0.00     0.000 C 
BRANCH   5   6
ATOM      6  C   UNL     1       4.061 -19.753  -7.177  1.00  0.00     0.000 C 
BRANCH   6   7
ATOM      7  C   UNL     1       4.268 -19.589  -5.658  1.00  0.00     0.006 C 
BRANCH   7   8
ATOM      8  C   UNL     1       4.250 -20.922  -4.898  1.00  0.00     0.053 C 
BRANCH   8   9
ATOM      9  C   UNL     1       5.485 -21.124  -4.080  1.00  0.00     0.041 C 
ATOM     10  O   UNL     1       5.428 -21.064  -2.825  1.00  0.00    -0.550 OA
ATOM     11  O   UNL     1       6.705 -21.345  -4.704  1.00  0.00    -0.550 OA
ENDBRANCH   8   9
ENDBRANCH   7   8
ENDBRANCH   6   7
ENDBRANCH   5   6
ENDBRANCH   4   5
ENDBRANCH   3   4
ENDBRANCH   2   3
ENDBRANCH   1   2
BRANCH   1  12
ATOM     12  C   UNL     1       0.812 -20.297  -4.486  1.00  0.00     0.000 C 
BRANCH  12  13
ATOM     13  C   UNL     1       0.674 -20.458  -2.964  1.00  0.00    -0.000 C 
BRANCH  13  14
ATOM     14  C   UNL     1       1.943 -19.984  -2.247  1.00  0.00    -0.000 C 
BRANCH  14  15
ATOM     15  C   UNL     1       2.323 -18.563  -2.676  1.00  0.00    -0.000 C 
BRANCH  15  16
ATOM     16  C   UNL     1       3.583 -18.085  -1.946  1.00  0.00    -0.000 C 
BRANCH  16  17
ATOM     17  C   UNL     1       4.427 -17.173  -2.843  1.00  0.00    -0.000 C 
BRANCH  17  18
ATOM     18  C   UNL     1       5.898 -17.615  -2.848  1.00  0.00    -0.000 C 
BRANCH  18  19
ATOM     19  C   UNL     1       6.522 -17.601  -1.444  1.00  0.00    -0.003 C 
ATOM     20  C   UNL     1       7.479 -18.771  -1.215  1.00  0.00     0.004 C 
ENDBRANCH  18  19
ENDBRANCH  17  18
ENDBRANCH  16  17
ENDBRANCH  15  16
ENDBRANCH  14  15
ENDBRANCH  13  14
ENDBRANCH  12  13
ENDBRANCH   1  12
TORSDOF 16
ENDMDL
MODEL 8
REMARK VINA RESULT:    -4.343      3.470      5.783
REMARK INTER + INTRA:         -10.646
REMARK INTER:                  -8.394
REMARK INTRA:                  -2.252
REMARK UNBOUND:                -2.240
REMARK SMILES CCCCCCCCCCCCCCCCCC(=O)[O-]
REMARK SMILES IDX 10 1 11 2 12 3 13 4 14 5 15 6 16 7 17 8 18 9 19 10 20 11
REMARK SMILES IDX 9 12 8 13 7 14 6 15 5 16 4 17 3 18 2 19 1 20
REMARK H PARENT
REMARK Flexibility Score: inf
ROOT
ATOM      1  C   UNL     1       0.228 -21.744  -5.636  1.00  0.00     0.000 C 
ENDROOT
BRANCH   1   2
ATOM      2  C   UNL     1       0.947 -20.605  -4.895  1.00  0.00     0.000 C 
BRANCH   2   3
ATOM      3  C   UNL     1       0.466 -20.435  -3.442  1.00  0.00     0.000 C 
BRANCH   3   4
ATOM      4  C   UNL     1       1.581 -20.228  -2.399  1.00  0.00     0.000 C 
BRANCH   4   5
ATOM      5  C   UNL     1       2.990 -20.250  -3.003  1.00  0.00     0.000 C 
BRANCH   5   6
ATOM      6  C   UNL     1       3.740 -18.945  -2.694  1.00  0.00     0.000 C 
BRANCH   6   7
ATOM      7  C   UNL     1       3.489 -17.859  -3.758  1.00  0.00     0.006 C 
BRANCH   7   8
ATOM      8  C   UNL     1       3.257 -16.465  -3.157  1.00  0.00     0.053 C 
BRANCH   8   9
ATOM      9  C   UNL     1       1.946 -16.368  -2.444  1.00  0.00     0.041 C 
ATOM     10  O   UNL     1       1.905 -15.982  -1.248  1.00  0.00    -0.550 OA
ATOM     11  O   UNL     1       0.774 -16.736  -3.090  1.00  0.00    -0.550 OA
ENDBRANCH   8   9
ENDBRANCH   7   8
ENDBRANCH   6   7
ENDBRANCH   5   6
ENDBRANCH   4   5
ENDBRANCH   3   4
ENDBRANCH   2   3
ENDBRANCH   1   2
BRANCH   1  12
ATOM     12  C   UNL     1       0.923 -22.114  -6.955  1.00  0.00     0.000 C 
BRANCH  12  13
ATOM     13  C   UNL     1       1.259 -20.884  -7.814  1.00  0.00    -0.000 C 
BRANCH  13  14
ATOM     14  C   UNL     1       2.771 -20.771  -8.038  1.00  0.00    -0.000 C 
BRANCH  14  15
ATOM     15  C   UNL     1       3.360 -19.597  -7.250  1.00  0.00    -0.000 C 
BRANCH  15  16
ATOM     16  C   UNL     1       4.709 -19.973  -6.626  1.00  0.00    -0.000 C 
BRANCH  16  17
ATOM     17  C   UNL     1       4.613 -21.298  -5.862  1.00  0.00    -0.000 C 
BRANCH  17  18
ATOM     18  C   UNL     1       5.925 -22.089  -5.968  1.00  0.00    -0.000 C 
BRANCH  18  19
ATOM     19  C   UNL     1       6.440 -22.187  -7.412  1.00  0.00    -0.003 C 
ATOM     20  C   UNL     1       7.935 -21.891  -7.524  1.00  0.00     0.004 C 
ENDBRANCH  18  19
ENDBRANCH  17  18
ENDBRANCH  16  17
ENDBRANCH  15  16
ENDBRANCH  14  15
ENDBRANCH  13  14
ENDBRANCH  12  13
ENDBRANCH   1  12
TORSDOF 16
ENDMDL
MODEL 9
REMARK VINA RESULT:    -4.327      2.624      5.139
REMARK INTER + INTRA:         -10.614
REMARK INTER:                  -8.405
REMARK INTRA:                  -2.209
REMARK UNBOUND:                -2.240
REMARK SMILES CCCCCCCCCCCCCCCCCC(=O)[O-]
REMARK SMILES IDX 10 1 11 2 12 3 13 4 14 5 15 6 16 7 17 8 18 9 19 10 20 11
REMARK SMILES IDX 9 12 8 13 7 14 6 15 5 16 4 17 3 18 2 19 1 20
REMARK H PARENT
REMARK Flexibility Score: inf
ROOT
ATOM      1  C   UNL     1       1.166 -22.090  -6.355  1.00  0.00     0.000 C 
ENDROOT
BRANCH   1   2
ATOM      2  C   UNL     1       0.116 -21.685  -5.307  1.00  0.00     0.000 C 
BRANCH   2   3
ATOM      3  C   UNL     1       0.479 -20.387  -4.562  1.00  0.00     0.000 C 
BRANCH   3   4
ATOM      4  C   UNL     1       0.400 -20.465  -3.026  1.00  0.00     0.000 C 
BRANCH   4   5
ATOM      5  C   UNL     1       1.767 -20.371  -2.340  1.00  0.00     0.000 C 
BRANCH   5   6
ATOM      6  C   UNL     1       2.796 -19.692  -3.257  1.00  0.00     0.000 C 
BRANCH   6   7
ATOM      7  C   UNL     1       4.137 -20.452  -3.297  1.00  0.00     0.006 C 
BRANCH   7   8
ATOM      8  C   UNL     1       5.349 -19.530  -3.488  1.00  0.00     0.053 C 
BRANCH   8   9
ATOM      9  C   UNL     1       5.843 -18.968  -2.194  1.00  0.00     0.041 C 
ATOM     10  O   UNL     1       5.340 -17.912  -1.732  1.00  0.00    -0.550 OA
ATOM     11  O   UNL     1       6.880 -19.591  -1.515  1.00  0.00    -0.550 OA
ENDBRANCH   8   9
ENDBRANCH   7   8
ENDBRANCH   6   7
ENDBRANCH   5   6
ENDBRANCH   4   5
ENDBRANCH   3   4
ENDBRANCH   2   3
ENDBRANCH   1   2
BRANCH   1  12
ATOM     12  C   UNL     1       0.937 -21.403  -7.709  1.00  0.00     0.000 C 
BRANCH  12  13
ATOM     13  C   UNL     1       2.191 -20.684  -8.231  1.00  0.00    -0.000 C 
BRANCH  13  14
ATOM     14  C   UNL     1       2.826 -19.825  -7.132  1.00  0.00    -0.000 C 
BRANCH  14  15
ATOM     15  C   UNL     1       4.351 -19.972  -7.127  1.00  0.00    -0.000 C 
BRANCH  15  16
ATOM     16  C   UNL     1       4.762 -21.446  -7.024  1.00  0.00    -0.000 C 
BRANCH  16  17
ATOM     17  C   UNL     1       6.196 -21.583  -6.504  1.00  0.00    -0.000 C 
BRANCH  17  18
ATOM     18  C   UNL     1       7.082 -20.442  -7.025  1.00  0.00    -0.000 C 
BRANCH  18  19
ATOM     19  C   UNL     1       7.688 -20.749  -8.403  1.00  0.00    -0.003 C 
ATOM     20  C   UNL     1       7.371 -19.671  -9.438  1.00  0.00     0.004 C 
ENDBRANCH  18  19
ENDBRANCH  17  18
ENDBRANCH  16  17
ENDBRANCH  15  16
ENDBRANCH  14  15
ENDBRANCH  13  14
ENDBRANCH  12  13
ENDBRANCH   1  12
TORSDOF 16
ENDMDL
