MODEL 1
REMARK VINA RESULT:    -2.056      0.000      0.000
REMARK INTER + INTRA:          -4.348
REMARK INTER:                  -4.701
REMARK INTRA:                   0.353
REMARK UNBOUND:                 0.353
REMARK SMILES CCCCCCCCCCCCCCCCCCCCCCCC(=O)[O-]
REMARK SMILES IDX 13 1 14 2 15 3 16 4 17 5 18 6 19 7 20 8 21 9 22 10 23 11
REMARK SMILES IDX 24 12 25 13 26 14 12 15 11 16 10 17 9 18 8 19 7 20 6 21 5 22
REMARK SMILES IDX 4 23 3 24 2 25 1 26
REMARK H PARENT
REMARK Flexibility Score: inf
ROOT
ATOM      1  C   UNL     1      -6.065  36.122  23.660  1.00  0.00     0.000 C 
ENDROOT
BRANCH   1   2
ATOM      2  C   UNL     1      -5.970  36.510  25.140  1.00  0.00     0.000 C 
BRANCH   2   3
ATOM      3  C   UNL     1      -4.875  37.560  25.363  1.00  0.00     0.000 C 
BRANCH   3   4
ATOM      4  C   UNL     1      -4.446  38.200  24.037  1.00  0.00     0.000 C 
BRANCH   4   5
ATOM      5  C   UNL     1      -4.750  39.706  24.031  1.00  0.00     0.000 C 
BRANCH   5   6
ATOM      6  C   UNL     1      -5.348  40.193  22.698  1.00  0.00     0.000 C 
BRANCH   6   7
ATOM      7  C   UNL     1      -5.481  39.115  21.603  1.00  0.00     0.000 C 
BRANCH   7   8
ATOM      8  C   UNL     1      -4.204  38.296  21.335  1.00  0.00     0.000 C 
BRANCH   8   9
ATOM      9  C   UNL     1      -4.099  37.717  19.913  1.00  0.00     0.000 C 
BRANCH   9  10
ATOM     10  C   UNL     1      -2.713  37.114  19.594  1.00  0.00     0.006 C 
BRANCH  10  11
ATOM     11  C   UNL     1      -1.989  37.876  18.478  1.00  0.00     0.053 C 
BRANCH  11  12
ATOM     12  C   UNL     1      -0.507  37.755  18.635  1.00  0.00     0.041 C 
ATOM     13  O   UNL     1      -0.021  37.173  19.640  1.00  0.00    -0.550 OA
ATOM     14  O   UNL     1       0.339  38.249  17.650  1.00  0.00    -0.550 OA
ENDBRANCH  11  12
ENDBRANCH  10  11
ENDBRANCH   9  10
ENDBRANCH   8   9
ENDBRANCH   7   8
ENDBRANCH   6   7
ENDBRANCH   5   6
ENDBRANCH   4   5
ENDBRANCH   3   4
ENDBRANCH   2   3
ENDBRANCH   1   2
BRANCH   1  15
ATOM     15  C   UNL     1      -5.145  34.933  23.342  1.00  0.00     0.000 C 
BRANCH  15  16
ATOM     16  C   UNL     1      -4.929  34.728  21.832  1.00  0.00     0.000 C 
BRANCH  16  17
ATOM     17  C   UNL     1      -6.125  35.122  20.943  1.00  0.00     0.000 C 
BRANCH  17  18
ATOM     18  C   UNL     1      -5.696  35.709  19.591  1.00  0.00    -0.000 C 
BRANCH  18  19
ATOM     19  C   UNL     1      -5.829  34.668  18.469  1.00  0.00    -0.000 C 
BRANCH  19  20
ATOM     20  C   UNL     1      -4.466  34.229  17.910  1.00  0.00    -0.000 C 
BRANCH  20  21
ATOM     21  C   UNL     1      -3.634  35.411  17.383  1.00  0.00    -0.000 C 
BRANCH  21  22
ATOM     22  C   UNL     1      -3.314  35.288  15.886  1.00  0.00    -0.000 C 
BRANCH  22  23
ATOM     23  C   UNL     1      -2.257  36.307  15.421  1.00  0.00    -0.000 C 
BRANCH  23  24
ATOM     24  C   UNL     1      -2.635  36.963  14.076  1.00  0.00    -0.000 C 
BRANCH  24  25
ATOM     25  C   UNL     1      -4.143  37.226  13.925  1.00  0.00    -0.003 C 
ATOM     26  C   UNL     1      -4.496  38.711  13.945  1.00  0.00     0.004 C 
ENDBRANCH  24  25
ENDBRANCH  23  24
ENDBRANCH  22  23
ENDBRANCH  21  22
ENDBRANCH  20  21
ENDBRANCH  19  20
ENDBRANCH  18  19
ENDBRANCH  17  18
ENDBRANCH  16  17
ENDBRANCH  15  16
ENDBRANCH   1  15
TORSDOF 22
ENDMDL
MODEL 2
REMARK VINA RESULT:    -1.456      2.081      5.218
REMARK INTER + INTRA:          -2.977
REMARK INTER:                  -1.336
REMARK INTRA:                  -1.641
REMARK UNBOUND:                 0.353
REMARK SMILES CCCCCCCCCCCCCCCCCCCCCCCC(=O)[O-]
REMARK SMILES IDX 13 1 14 2 15 3 16 4 17 5 18 6 19 7 20 8 21 9 22 10 23 11
REMARK SMILES IDX 24 12 25 13 26 14 12 15 11 16 10 17 9 18 8 19 7 20 6 21 5 22
REMARK SMILES IDX 4 23 3 24 2 25 1 26
REMARK H PARENT
REMARK Flexibility Score: inf
ROOT
ATOM      1  C   UNL     1      -5.021  35.625  23.955  1.00  0.00     0.000 C 
ENDROOT
BRANCH   1   2
ATOM      2  C   UNL     1      -6.101  34.915  23.130  1.00  0.00     0.000 C 
BRANCH   2   3
ATOM      3  C   UNL     1      -5.779  34.979  21.632  1.00  0.00     0.000 C 
BRANCH   3   4
ATOM      4  C   UNL     1      -4.282  34.764  21.380  1.00  0.00     0.000 C 
BRANCH   4   5
ATOM      5  C   UNL     1      -3.926  35.053  19.913  1.00  0.00     0.000 C 
BRANCH   5   6
ATOM      6  C   UNL     1      -5.017  34.597  18.928  1.00  0.00     0.000 C 
BRANCH   6   7
ATOM      7  C   UNL     1      -4.807  35.035  17.464  1.00  0.00     0.000 C 
BRANCH   7   8
ATOM      8  C   UNL     1      -3.406  34.751  16.891  1.00  0.00     0.000 C 
BRANCH   8   9
ATOM      9  C   UNL     1      -2.695  35.978  16.293  1.00  0.00     0.000 C 
BRANCH   9  10
ATOM     10  C   UNL     1      -2.607  35.948  14.751  1.00  0.00     0.006 C 
BRANCH  10  11
ATOM     11  C   UNL     1      -2.739  37.345  14.133  1.00  0.00     0.053 C 
BRANCH  11  12
ATOM     12  C   UNL     1      -4.179  37.724  13.993  1.00  0.00     0.041 C 
ATOM     13  O   UNL     1      -5.072  36.837  13.997  1.00  0.00    -0.550 OA
ATOM     14  O   UNL     1      -4.539  39.063  13.902  1.00  0.00    -0.550 OA
ENDBRANCH  11  12
ENDBRANCH  10  11
ENDBRANCH   9  10
ENDBRANCH   8   9
ENDBRANCH   7   8
ENDBRANCH   6   7
ENDBRANCH   5   6
ENDBRANCH   4   5
ENDBRANCH   3   4
ENDBRANCH   2   3
ENDBRANCH   1   2
BRANCH   1  15
ATOM     15  C   UNL     1      -5.641  36.377  25.142  1.00  0.00     0.000 C 
BRANCH  15  16
ATOM     16  C   UNL     1      -5.094  37.808  25.297  1.00  0.00     0.000 C 
BRANCH  16  17
ATOM     17  C   UNL     1      -4.395  38.379  24.048  1.00  0.00     0.000 C 
BRANCH  17  18
ATOM     18  C   UNL     1      -4.934  39.757  23.638  1.00  0.00    -0.000 C 
BRANCH  18  19
ATOM     19  C   UNL     1      -5.686  39.679  22.300  1.00  0.00    -0.000 C 
BRANCH  19  20
ATOM     20  C   UNL     1      -5.490  38.329  21.593  1.00  0.00    -0.000 C 
BRANCH  20  21
ATOM     21  C   UNL     1      -4.171  38.261  20.804  1.00  0.00    -0.000 C 
BRANCH  21  22
ATOM     22  C   UNL     1      -4.393  38.081  19.294  1.00  0.00    -0.000 C 
BRANCH  22  23
ATOM     23  C   UNL     1      -3.077  37.870  18.524  1.00  0.00    -0.000 C 
BRANCH  23  24
ATOM     24  C   UNL     1      -1.840  38.209  19.383  1.00  0.00    -0.000 C 
BRANCH  24  25
ATOM     25  C   UNL     1      -0.634  37.296  19.108  1.00  0.00    -0.003 C 
ATOM     26  C   UNL     1      -0.008  37.527  17.735  1.00  0.00     0.004 C 
ENDBRANCH  24  25
ENDBRANCH  23  24
ENDBRANCH  22  23
ENDBRANCH  21  22
ENDBRANCH  20  21
ENDBRANCH  19  20
ENDBRANCH  18  19
ENDBRANCH  17  18
ENDBRANCH  16  17
ENDBRANCH  15  16
ENDBRANCH   1  15
TORSDOF 22
ENDMDL
MODEL 3
REMARK VINA RESULT:    -0.847      2.122      5.113
REMARK INTER + INTRA:          -1.583
REMARK INTER:                  -0.360
REMARK INTRA:                  -1.223
REMARK UNBOUND:                 0.353
REMARK SMILES CCCCCCCCCCCCCCCCCCCCCCCC(=O)[O-]
REMARK SMILES IDX 13 1 14 2 15 3 16 4 17 5 18 6 19 7 20 8 21 9 22 10 23 11
REMARK SMILES IDX 24 12 25 13 26 14 12 15 11 16 10 17 9 18 8 19 7 20 6 21 5 22
REMARK SMILES IDX 4 23 3 24 2 25 1 26
REMARK H PARENT
REMARK Flexibility Score: inf
ROOT
ATOM      1  C   UNL     1      -3.745  38.353  19.837  1.00  0.00     0.000 C 
ENDROOT
BRANCH   1   2
ATOM      2  C   UNL     1      -5.072  37.858  19.248  1.00  0.00     0.000 C 
BRANCH   2   3
ATOM      3  C   UNL     1      -5.935  37.189  20.324  1.00  0.00     0.000 C 
BRANCH   3   4
ATOM      4  C   UNL     1      -5.608  35.695  20.443  1.00  0.00     0.000 C 
BRANCH   4   5
ATOM      5  C   UNL     1      -5.082  35.359  21.848  1.00  0.00     0.000 C 
BRANCH   5   6
ATOM      6  C   UNL     1      -6.112  34.610  22.712  1.00  0.00     0.000 C 
BRANCH   6   7
ATOM      7  C   UNL     1      -5.914  34.745  24.236  1.00  0.00     0.000 C 
BRANCH   7   8
ATOM      8  C   UNL     1      -5.981  36.186  24.778  1.00  0.00     0.000 C 
BRANCH   8   9
ATOM      9  C   UNL     1      -4.647  36.953  24.728  1.00  0.00     0.000 C 
BRANCH   9  10
ATOM     10  C   UNL     1      -4.819  38.488  24.732  1.00  0.00     0.006 C 
BRANCH  10  11
ATOM     11  C   UNL     1      -5.823  38.964  23.676  1.00  0.00     0.053 C 
BRANCH  11  12
ATOM     12  C   UNL     1      -5.140  39.798  22.639  1.00  0.00     0.041 C 
ATOM     13  O   UNL     1      -3.883  39.862  22.604  1.00  0.00    -0.550 OA
ATOM     14  O   UNL     1      -5.891  40.470  21.682  1.00  0.00    -0.550 OA
ENDBRANCH  11  12
ENDBRANCH  10  11
ENDBRANCH   9  10
ENDBRANCH   8   9
ENDBRANCH   7   8
ENDBRANCH   6   7
ENDBRANCH   5   6
ENDBRANCH   4   5
ENDBRANCH   3   4
ENDBRANCH   2   3
ENDBRANCH   1   2
BRANCH   1  15
ATOM     15  C   UNL     1      -2.561  37.555  19.271  1.00  0.00     0.000 C 
BRANCH  15  16
ATOM     16  C   UNL     1      -1.288  38.405  19.108  1.00  0.00     0.000 C 
BRANCH  16  17
ATOM     17  C   UNL     1      -0.127  37.708  18.373  1.00  0.00     0.000 C 
BRANCH  17  18
ATOM     18  C   UNL     1      -0.596  36.564  17.462  1.00  0.00    -0.000 C 
BRANCH  18  19
ATOM     19  C   UNL     1      -1.499  37.091  16.336  1.00  0.00    -0.000 C 
BRANCH  19  20
ATOM     20  C   UNL     1      -2.790  36.270  16.185  1.00  0.00    -0.000 C 
BRANCH  20  21
ATOM     21  C   UNL     1      -3.026  35.802  14.738  1.00  0.00    -0.000 C 
BRANCH  21  22
ATOM     22  C   UNL     1      -3.722  36.868  13.878  1.00  0.00    -0.000 C 
BRANCH  22  23
ATOM     23  C   UNL     1      -4.321  38.009  14.720  1.00  0.00    -0.000 C 
BRANCH  23  24
ATOM     24  C   UNL     1      -4.588  39.274  13.877  1.00  0.00    -0.000 C 
BRANCH  24  25
ATOM     25  C   UNL     1      -4.884  40.524  14.723  1.00  0.00    -0.003 C 
ATOM     26  C   UNL     1      -5.713  41.568  13.980  1.00  0.00     0.004 C 
ENDBRANCH  24  25
ENDBRANCH  23  24
ENDBRANCH  22  23
ENDBRANCH  21  22
ENDBRANCH  20  21
ENDBRANCH  19  20
ENDBRANCH  18  19
ENDBRANCH  17  18
ENDBRANCH  16  17
ENDBRANCH  15  16
ENDBRANCH   1  15
TORSDOF 22
ENDMDL
MODEL 4
REMARK VINA RESULT:    -0.739      2.733      6.379
REMARK INTER + INTRA:          -1.336
REMARK INTER:                   0.614
REMARK INTRA:                  -1.951
REMARK UNBOUND:                 0.353
REMARK SMILES CCCCCCCCCCCCCCCCCCCCCCCC(=O)[O-]
REMARK SMILES IDX 13 1 14 2 15 3 16 4 17 5 18 6 19 7 20 8 21 9 22 10 23 11
REMARK SMILES IDX 24 12 25 13 26 14 12 15 11 16 10 17 9 18 8 19 7 20 6 21 5 22
REMARK SMILES IDX 4 23 3 24 2 25 1 26
REMARK H PARENT
REMARK Flexibility Score: inf
ROOT
ATOM      1  C   UNL     1      -1.056  37.400  18.973  1.00  0.00     0.000 C 
ENDROOT
BRANCH   1   2
ATOM      2  C   UNL     1      -2.157  38.442  19.204  1.00  0.00     0.000 C 
BRANCH   2   3
ATOM      3  C   UNL     1      -3.268  37.879  20.098  1.00  0.00     0.000 C 
BRANCH   3   4
ATOM      4  C   UNL     1      -4.635  37.981  19.411  1.00  0.00     0.000 C 
BRANCH   4   5
ATOM      5  C   UNL     1      -5.587  38.881  20.213  1.00  0.00     0.000 C 
BRANCH   5   6
ATOM      6  C   UNL     1      -5.754  38.428  21.675  1.00  0.00     0.000 C 
BRANCH   6   7
ATOM      7  C   UNL     1      -5.366  39.477  22.737  1.00  0.00     0.000 C 
BRANCH   7   8
ATOM      8  C   UNL     1      -4.583  38.926  23.944  1.00  0.00     0.000 C 
BRANCH   8   9
ATOM      9  C   UNL     1      -5.051  37.545  24.436  1.00  0.00     0.000 C 
BRANCH   9  10
ATOM     10  C   UNL     1      -4.555  37.198  25.857  1.00  0.00     0.006 C 
BRANCH  10  11
ATOM     11  C   UNL     1      -3.565  38.236  26.399  1.00  0.00     0.053 C 
BRANCH  11  12
ATOM     12  C   UNL     1      -2.390  37.562  27.031  1.00  0.00     0.041 C 
ATOM     13  O   UNL     1      -1.340  38.214  27.275  1.00  0.00    -0.550 OA
ATOM     14  O   UNL     1      -2.467  36.222  27.391  1.00  0.00    -0.550 OA
ENDBRANCH  11  12
ENDBRANCH  10  11
ENDBRANCH   9  10
ENDBRANCH   8   9
ENDBRANCH   7   8
ENDBRANCH   6   7
ENDBRANCH   5   6
ENDBRANCH   4   5
ENDBRANCH   3   4
ENDBRANCH   2   3
ENDBRANCH   1   2
BRANCH   1  15
ATOM     15  C   UNL     1      -0.650  37.347  17.493  1.00  0.00     0.000 C 
BRANCH  15  16
ATOM     16  C   UNL     1      -1.269  36.154  16.742  1.00  0.00     0.000 C 
BRANCH  16  17
ATOM     17  C   UNL     1      -2.254  36.530  15.619  1.00  0.00     0.000 C 
BRANCH  17  18
ATOM     18  C   UNL     1      -3.682  36.030  15.882  1.00  0.00    -0.000 C 
BRANCH  18  19
ATOM     19  C   UNL     1      -3.909  35.774  17.380  1.00  0.00    -0.000 C 
BRANCH  19  20
ATOM     20  C   UNL     1      -4.436  34.358  17.661  1.00  0.00    -0.000 C 
BRANCH  20  21
ATOM     21  C   UNL     1      -5.807  34.365  18.360  1.00  0.00    -0.000 C 
BRANCH  21  22
ATOM     22  C   UNL     1      -5.753  34.996  19.760  1.00  0.00    -0.000 C 
BRANCH  22  23
ATOM     23  C   UNL     1      -4.462  34.641  20.520  1.00  0.00    -0.000 C 
BRANCH  23  24
ATOM     24  C   UNL     1      -4.497  35.130  21.984  1.00  0.00    -0.000 C 
BRANCH  24  25
ATOM     25  C   UNL     1      -5.911  35.152  22.589  1.00  0.00    -0.003 C 
ATOM     26  C   UNL     1      -6.085  34.165  23.740  1.00  0.00     0.004 C 
ENDBRANCH  24  25
ENDBRANCH  23  24
ENDBRANCH  22  23
ENDBRANCH  21  22
ENDBRANCH  20  21
ENDBRANCH  19  20
ENDBRANCH  18  19
ENDBRANCH  17  18
ENDBRANCH  16  17
ENDBRANCH  15  16
ENDBRANCH   1  15
TORSDOF 22
ENDMDL
MODEL 5
REMARK VINA RESULT:    -0.731      1.557      4.763
REMARK INTER + INTRA:          -1.319
REMARK INTER:                  -1.134
REMARK INTRA:                  -0.185
REMARK UNBOUND:                 0.353
REMARK SMILES CCCCCCCCCCCCCCCCCCCCCCCC(=O)[O-]
REMARK SMILES IDX 13 1 14 2 15 3 16 4 17 5 18 6 19 7 20 8 21 9 22 10 23 11
REMARK SMILES IDX 24 12 25 13 26 14 12 15 11 16 10 17 9 18 8 19 7 20 6 21 5 22
REMARK SMILES IDX 4 23 3 24 2 25 1 26
REMARK H PARENT
REMARK Flexibility Score: inf
ROOT
ATOM      1  C   UNL     1      -6.077  36.514  24.990  1.00  0.00     0.000 C 
ENDROOT
BRANCH   1   2
ATOM      2  C   UNL     1      -6.062  34.982  24.918  1.00  0.00     0.000 C 
BRANCH   2   3
ATOM      3  C   UNL     1      -6.054  34.501  23.462  1.00  0.00     0.000 C 
BRANCH   3   4
ATOM      4  C   UNL     1      -5.913  35.680  22.492  1.00  0.00     0.000 C 
BRANCH   4   5
ATOM      5  C   UNL     1      -6.080  35.216  21.037  1.00  0.00     0.000 C 
BRANCH   5   6
ATOM      6  C   UNL     1      -4.738  34.938  20.336  1.00  0.00     0.000 C 
BRANCH   6   7
ATOM      7  C   UNL     1      -4.843  34.223  18.973  1.00  0.00     0.000 C 
BRANCH   7   8
ATOM      8  C   UNL     1      -5.117  35.146  17.770  1.00  0.00     0.000 C 
BRANCH   8   9
ATOM      9  C   UNL     1      -3.904  35.384  16.854  1.00  0.00     0.000 C 
BRANCH   9  10
ATOM     10  C   UNL     1      -3.974  36.714  16.072  1.00  0.00     0.006 C 
BRANCH  10  11
ATOM     11  C   UNL     1      -3.306  36.617  14.696  1.00  0.00     0.053 C 
BRANCH  11  12
ATOM     12  C   UNL     1      -1.915  36.082  14.823  1.00  0.00     0.041 C 
ATOM     13  O   UNL     1      -1.095  36.217  13.877  1.00  0.00    -0.550 OA
ATOM     14  O   UNL     1      -1.510  35.472  16.003  1.00  0.00    -0.550 OA
ENDBRANCH  11  12
ENDBRANCH  10  11
ENDBRANCH   9  10
ENDBRANCH   8   9
ENDBRANCH   7   8
ENDBRANCH   6   7
ENDBRANCH   5   6
ENDBRANCH   4   5
ENDBRANCH   3   4
ENDBRANCH   2   3
ENDBRANCH   1   2
BRANCH   1  15
ATOM     15  C   UNL     1      -4.717  37.055  25.458  1.00  0.00     0.000 C 
BRANCH  15  16
ATOM     16  C   UNL     1      -4.371  38.422  24.840  1.00  0.00     0.000 C 
BRANCH  16  17
ATOM     17  C   UNL     1      -5.408  38.967  23.838  1.00  0.00     0.000 C 
BRANCH  17  18
ATOM     18  C   UNL     1      -4.765  39.581  22.586  1.00  0.00    -0.000 C 
BRANCH  18  19
ATOM     19  C   UNL     1      -5.808  40.324  21.738  1.00  0.00    -0.000 C 
BRANCH  19  20
ATOM     20  C   UNL     1      -6.095  39.614  20.405  1.00  0.00    -0.000 C 
BRANCH  20  21
ATOM     21  C   UNL     1      -5.567  38.169  20.378  1.00  0.00    -0.000 C 
BRANCH  21  22
ATOM     22  C   UNL     1      -4.398  37.985  19.399  1.00  0.00    -0.000 C 
BRANCH  22  23
ATOM     23  C   UNL     1      -3.032  37.950  20.108  1.00  0.00    -0.000 C 
BRANCH  23  24
ATOM     24  C   UNL     1      -1.881  38.378  19.172  1.00  0.00    -0.000 C 
BRANCH  24  25
ATOM     25  C   UNL     1      -1.319  37.225  18.324  1.00  0.00    -0.003 C 
ATOM     26  C   UNL     1       0.203  37.246  18.218  1.00  0.00     0.004 C 
ENDBRANCH  24  25
ENDBRANCH  23  24
ENDBRANCH  22  23
ENDBRANCH  21  22
ENDBRANCH  20  21
ENDBRANCH  19  20
ENDBRANCH  18  19
ENDBRANCH  17  18
ENDBRANCH  16  17
ENDBRANCH  15  16
ENDBRANCH   1  15
TORSDOF 22
ENDMDL
MODEL 6
REMARK VINA RESULT:    -0.668      2.452      5.157
REMARK INTER + INTRA:          -1.175
REMARK INTER:                  -0.988
REMARK INTRA:                  -0.187
REMARK UNBOUND:                 0.353
REMARK SMILES CCCCCCCCCCCCCCCCCCCCCCCC(=O)[O-]
REMARK SMILES IDX 13 1 14 2 15 3 16 4 17 5 18 6 19 7 20 8 21 9 22 10 23 11
REMARK SMILES IDX 24 12 25 13 26 14 12 15 11 16 10 17 9 18 8 19 7 20 6 21 5 22
REMARK SMILES IDX 4 23 3 24 2 25 1 26
REMARK H PARENT
REMARK Flexibility Score: inf
ROOT
ATOM      1  C   UNL     1      -5.909  35.562  19.794  1.00  0.00     0.000 C 
ENDROOT
BRANCH   1   2
ATOM      2  C   UNL     1      -4.560  35.888  20.446  1.00  0.00     0.000 C 
BRANCH   2   3
ATOM      3  C   UNL     1      -4.570  37.295  21.053  1.00  0.00     0.000 C 
BRANCH   3   4
ATOM      4  C   UNL     1      -5.658  38.165  20.413  1.00  0.00     0.000 C 
BRANCH   4   5
ATOM      5  C   UNL     1      -5.776  39.517  21.134  1.00  0.00     0.000 C 
BRANCH   5   6
ATOM      6  C   UNL     1      -4.835  39.635  22.347  1.00  0.00     0.000 C 
BRANCH   6   7
ATOM      7  C   UNL     1      -5.331  38.945  23.634  1.00  0.00     0.000 C 
BRANCH   7   8
ATOM      8  C   UNL     1      -4.223  38.531  24.621  1.00  0.00     0.000 C 
BRANCH   8   9
ATOM      9  C   UNL     1      -4.702  37.660  25.796  1.00  0.00     0.000 C 
BRANCH   9  10
ATOM     10  C   UNL     1      -5.735  36.587  25.386  1.00  0.00     0.006 C 
BRANCH  10  11
ATOM     11  C   UNL     1      -5.469  36.030  23.983  1.00  0.00     0.053 C 
BRANCH  11  12
ATOM     12  C   UNL     1      -5.771  34.566  23.932  1.00  0.00     0.041 C 
ATOM     13  O   UNL     1      -6.125  33.955  24.975  1.00  0.00    -0.550 OA
ATOM     14  O   UNL     1      -5.703  33.883  22.724  1.00  0.00    -0.550 OA
ENDBRANCH  11  12
ENDBRANCH  10  11
ENDBRANCH   9  10
ENDBRANCH   8   9
ENDBRANCH   7   8
ENDBRANCH   6   7
ENDBRANCH   5   6
ENDBRANCH   4   5
ENDBRANCH   3   4
ENDBRANCH   2   3
ENDBRANCH   1   2
BRANCH   1  15
ATOM     15  C   UNL     1      -5.723  34.639  18.579  1.00  0.00     0.000 C 
BRANCH  15  16
ATOM     16  C   UNL     1      -4.245  34.439  18.197  1.00  0.00     0.000 C 
BRANCH  16  17
ATOM     17  C   UNL     1      -3.887  34.828  16.750  1.00  0.00     0.000 C 
BRANCH  17  18
ATOM     18  C   UNL     1      -2.377  34.791  16.477  1.00  0.00    -0.000 C 
BRANCH  18  19
ATOM     19  C   UNL     1      -1.959  35.926  15.530  1.00  0.00    -0.000 C 
BRANCH  19  20
ATOM     20  C   UNL     1      -3.081  36.323  14.557  1.00  0.00    -0.000 C 
BRANCH  20  21
ATOM     21  C   UNL     1      -3.815  37.604  14.991  1.00  0.00    -0.000 C 
BRANCH  21  22
ATOM     22  C   UNL     1      -3.138  38.298  16.182  1.00  0.00    -0.000 C 
BRANCH  22  23
ATOM     23  C   UNL     1      -3.482  37.632  17.528  1.00  0.00    -0.000 C 
BRANCH  23  24
ATOM     24  C   UNL     1      -2.479  38.015  18.637  1.00  0.00    -0.000 C 
BRANCH  24  25
ATOM     25  C   UNL     1      -1.320  37.016  18.788  1.00  0.00    -0.003 C 
ATOM     26  C   UNL     1       0.029  37.595  18.370  1.00  0.00     0.004 C 
ENDBRANCH  24  25
ENDBRANCH  23  24
ENDBRANCH  22  23
ENDBRANCH  21  22
ENDBRANCH  20  21
ENDBRANCH  19  20
ENDBRANCH  18  19
ENDBRANCH  17  18
ENDBRANCH  16  17
ENDBRANCH  15  16
ENDBRANCH   1  15
TORSDOF 22
ENDMDL
MODEL 7
REMARK VINA RESULT:    -0.491      2.601      4.393
REMARK INTER + INTRA:          -0.770
REMARK INTER:                   0.840
REMARK INTRA:                  -1.610
REMARK UNBOUND:                 0.353
REMARK SMILES CCCCCCCCCCCCCCCCCCCCCCCC(=O)[O-]
REMARK SMILES IDX 13 1 14 2 15 3 16 4 17 5 18 6 19 7 20 8 21 9 22 10 23 11
REMARK SMILES IDX 24 12 25 13 26 14 12 15 11 16 10 17 9 18 8 19 7 20 6 21 5 22
REMARK SMILES IDX 4 23 3 24 2 25 1 26
REMARK H PARENT
REMARK Flexibility Score: inf
ROOT
ATOM      1  C   UNL     1      -4.119  34.823  22.217  1.00  0.00     0.000 C 
ENDROOT
BRANCH   1   2
ATOM      2  C   UNL     1      -5.571  35.009  22.673  1.00  0.00     0.000 C 
BRANCH   2   3
ATOM      3  C   UNL     1      -6.125  36.360  22.206  1.00  0.00     0.000 C 
BRANCH   3   4
ATOM      4  C   UNL     1      -5.045  37.183  21.494  1.00  0.00     0.000 C 
BRANCH   4   5
ATOM      5  C   UNL     1      -5.620  38.511  20.976  1.00  0.00     0.000 C 
BRANCH   5   6
ATOM      6  C   UNL     1      -5.411  39.680  21.955  1.00  0.00     0.000 C 
BRANCH   6   7
ATOM      7  C   UNL     1      -4.254  39.498  22.960  1.00  0.00     0.000 C 
BRANCH   7   8
ATOM      8  C   UNL     1      -4.686  39.331  24.429  1.00  0.00     0.000 C 
BRANCH   8   9
ATOM      9  C   UNL     1      -5.237  37.938  24.783  1.00  0.00     0.000 C 
BRANCH   9  10
ATOM     10  C   UNL     1      -4.292  37.113  25.684  1.00  0.00     0.006 C 
BRANCH  10  11
ATOM     11  C   UNL     1      -3.665  37.958  26.799  1.00  0.00     0.053 C 
BRANCH  11  12
ATOM     12  C   UNL     1      -2.280  37.482  27.103  1.00  0.00     0.041 C 
ATOM     13  O   UNL     1      -1.299  38.259  26.968  1.00  0.00    -0.550 OA
ATOM     14  O   UNL     1      -2.077  36.192  27.577  1.00  0.00    -0.550 OA
ENDBRANCH  11  12
ENDBRANCH  10  11
ENDBRANCH   9  10
ENDBRANCH   8   9
ENDBRANCH   7   8
ENDBRANCH   6   7
ENDBRANCH   5   6
ENDBRANCH   4   5
ENDBRANCH   3   4
ENDBRANCH   2   3
ENDBRANCH   1   2
BRANCH   1  15
ATOM     15  C   UNL     1      -4.058  34.298  20.774  1.00  0.00     0.000 C 
BRANCH  15  16
ATOM     16  C   UNL     1      -5.436  34.263  20.089  1.00  0.00     0.000 C 
BRANCH  16  17
ATOM     17  C   UNL     1      -5.505  34.976  18.725  1.00  0.00     0.000 C 
BRANCH  17  18
ATOM     18  C   UNL     1      -4.131  35.445  18.226  1.00  0.00    -0.000 C 
BRANCH  18  19
ATOM     19  C   UNL     1      -4.104  36.969  18.034  1.00  0.00    -0.000 C 
BRANCH  19  20
ATOM     20  C   UNL     1      -2.827  37.610  18.600  1.00  0.00    -0.000 C 
BRANCH  20  21
ATOM     21  C   UNL     1      -1.546  36.932  18.086  1.00  0.00    -0.000 C 
BRANCH  21  22
ATOM     22  C   UNL     1      -1.315  37.164  16.585  1.00  0.00    -0.000 C 
BRANCH  22  23
ATOM     23  C   UNL     1      -1.830  35.998  15.720  1.00  0.00    -0.000 C 
BRANCH  23  24
ATOM     24  C   UNL     1      -2.286  36.470  14.323  1.00  0.00    -0.000 C 
BRANCH  24  25
ATOM     25  C   UNL     1      -3.782  36.822  14.253  1.00  0.00    -0.003 C 
ATOM     26  C   UNL     1      -4.050  38.320  14.374  1.00  0.00     0.004 C 
ENDBRANCH  24  25
ENDBRANCH  23  24
ENDBRANCH  22  23
ENDBRANCH  21  22
ENDBRANCH  20  21
ENDBRANCH  19  20
ENDBRANCH  18  19
ENDBRANCH  17  18
ENDBRANCH  16  17
ENDBRANCH  15  16
ENDBRANCH   1  15
TORSDOF 22
ENDMDL
MODEL 8
REMARK VINA RESULT:    -0.412      2.007      7.889
REMARK INTER + INTRA:          -0.589
REMARK INTER:                   0.598
REMARK INTRA:                  -1.187
REMARK UNBOUND:                 0.353
REMARK SMILES CCCCCCCCCCCCCCCCCCCCCCCC(=O)[O-]
REMARK SMILES IDX 13 1 14 2 15 3 16 4 17 5 18 6 19 7 20 8 21 9 22 10 23 11
REMARK SMILES IDX 24 12 25 13 26 14 12 15 11 16 10 17 9 18 8 19 7 20 6 21 5 22
REMARK SMILES IDX 4 23 3 24 2 25 1 26
REMARK H PARENT
REMARK Flexibility Score: inf
ROOT
ATOM      1  C   UNL     1      -1.603  37.981  19.522  1.00  0.00     0.000 C 
ENDROOT
BRANCH   1   2
ATOM      2  C   UNL     1      -0.876  37.263  18.378  1.00  0.00     0.000 C 
BRANCH   2   3
ATOM      3  C   UNL     1      -1.646  37.408  17.061  1.00  0.00     0.000 C 
BRANCH   3   4
ATOM      4  C   UNL     1      -1.430  36.187  16.158  1.00  0.00     0.000 C 
BRANCH   4   5
ATOM      5  C   UNL     1      -2.735  35.789  15.451  1.00  0.00     0.000 C 
BRANCH   5   6
ATOM      6  C   UNL     1      -3.975  35.932  16.352  1.00  0.00     0.000 C 
BRANCH   6   7
ATOM      7  C   UNL     1      -3.884  35.216  17.715  1.00  0.00     0.000 C 
BRANCH   7   8
ATOM      8  C   UNL     1      -4.922  34.099  17.936  1.00  0.00     0.000 C 
BRANCH   8   9
ATOM      9  C   UNL     1      -6.116  34.498  18.822  1.00  0.00     0.000 C 
BRANCH   9  10
ATOM     10  C   UNL     1      -5.797  35.648  19.803  1.00  0.00     0.006 C 
BRANCH  10  11
ATOM     11  C   UNL     1      -6.075  35.264  21.261  1.00  0.00     0.053 C 
BRANCH  11  12
ATOM     12  C   UNL     1      -4.839  34.723  21.906  1.00  0.00     0.041 C 
ATOM     13  O   UNL     1      -3.724  34.832  21.332  1.00  0.00    -0.550 OA
ATOM     14  O   UNL     1      -4.911  34.137  23.164  1.00  0.00    -0.550 OA
ENDBRANCH  11  12
ENDBRANCH  10  11
ENDBRANCH   9  10
ENDBRANCH   8   9
ENDBRANCH   7   8
ENDBRANCH   6   7
ENDBRANCH   5   6
ENDBRANCH   4   5
ENDBRANCH   3   4
ENDBRANCH   2   3
ENDBRANCH   1   2
BRANCH   1  15
ATOM     15  C   UNL     1      -3.109  38.083  19.238  1.00  0.00     0.000 C 
BRANCH  15  16
ATOM     16  C   UNL     1      -3.954  38.214  20.518  1.00  0.00     0.000 C 
BRANCH  16  17
ATOM     17  C   UNL     1      -5.370  38.782  20.310  1.00  0.00     0.000 C 
BRANCH  17  18
ATOM     18  C   UNL     1      -5.875  39.586  21.517  1.00  0.00    -0.000 C 
BRANCH  18  19
ATOM     19  C   UNL     1      -4.860  39.549  22.669  1.00  0.00    -0.000 C 
BRANCH  19  20
ATOM     20  C   UNL     1      -5.409  38.834  23.914  1.00  0.00    -0.000 C 
BRANCH  20  21
ATOM     21  C   UNL     1      -5.960  37.433  23.597  1.00  0.00    -0.000 C 
BRANCH  21  22
ATOM     22  C   UNL     1      -6.112  36.560  24.852  1.00  0.00    -0.000 C 
BRANCH  22  23
ATOM     23  C   UNL     1      -5.442  37.181  26.090  1.00  0.00    -0.000 C 
BRANCH  23  24
ATOM     24  C   UNL     1      -3.902  37.081  26.028  1.00  0.00    -0.000 C 
BRANCH  24  25
ATOM     25  C   UNL     1      -3.189  37.951  27.077  1.00  0.00    -0.003 C 
ATOM     26  C   UNL     1      -1.668  37.831  27.020  1.00  0.00     0.004 C 
ENDBRANCH  24  25
ENDBRANCH  23  24
ENDBRANCH  22  23
ENDBRANCH  21  22
ENDBRANCH  20  21
ENDBRANCH  19  20
ENDBRANCH  18  19
ENDBRANCH  17  18
ENDBRANCH  16  17
ENDBRANCH  15  16
ENDBRANCH   1  15
TORSDOF 22
ENDMDL
MODEL 9
REMARK VINA RESULT:    -0.375      1.192      6.450
REMARK INTER + INTRA:          -0.505
REMARK INTER:                  -0.039
REMARK INTRA:                  -0.466
REMARK UNBOUND:                 0.353
REMARK SMILES CCCCCCCCCCCCCCCCCCCCCCCC(=O)[O-]
REMARK SMILES IDX 13 1 14 2 15 3 16 4 17 5 18 6 19 7 20 8 21 9 22 10 23 11
REMARK SMILES IDX 24 12 25 13 26 14 12 15 11 16 10 17 9 18 8 19 7 20 6 21 5 22
REMARK SMILES IDX 4 23 3 24 2 25 1 26
REMARK H PARENT
REMARK Flexibility Score: inf
ROOT
ATOM      1  C   UNL     1      -5.525  38.207  19.929  1.00  0.00     0.000 C 
ENDROOT
BRANCH   1   2
ATOM      2  C   UNL     1      -4.968  36.779  19.911  1.00  0.00     0.000 C 
BRANCH   2   3
ATOM      3  C   UNL     1      -6.101  35.748  19.857  1.00  0.00     0.000 C 
BRANCH   3   4
ATOM      4  C   UNL     1      -5.722  34.558  18.967  1.00  0.00     0.000 C 
BRANCH   4   5
ATOM      5  C   UNL     1      -4.323  34.749  18.361  1.00  0.00     0.000 C 
BRANCH   5   6
ATOM      6  C   UNL     1      -4.361  35.205  16.892  1.00  0.00     0.000 C 
BRANCH   6   7
ATOM      7  C   UNL     1      -4.044  36.696  16.657  1.00  0.00     0.000 C 
BRANCH   7   8
ATOM      8  C   UNL     1      -3.270  37.003  15.361  1.00  0.00     0.000 C 
BRANCH   8   9
ATOM      9  C   UNL     1      -1.949  36.229  15.203  1.00  0.00     0.000 C 
BRANCH   9  10
ATOM     10  C   UNL     1      -1.195  36.021  16.536  1.00  0.00     0.006 C 
BRANCH  10  11
ATOM     11  C   UNL     1      -0.617  37.328  17.089  1.00  0.00     0.053 C 
BRANCH  11  12
ATOM     12  C   UNL     1      -0.985  37.499  18.528  1.00  0.00     0.041 C 
ATOM     13  O   UNL     1      -0.087  37.556  19.409  1.00  0.00    -0.550 OA
ATOM     14  O   UNL     1      -2.318  37.637  18.894  1.00  0.00    -0.550 OA
ENDBRANCH  11  12
ENDBRANCH  10  11
ENDBRANCH   9  10
ENDBRANCH   8   9
ENDBRANCH   7   8
ENDBRANCH   6   7
ENDBRANCH   5   6
ENDBRANCH   4   5
ENDBRANCH   3   4
ENDBRANCH   2   3
ENDBRANCH   1   2
BRANCH   1  15
ATOM     15  C   UNL     1      -5.979  38.603  21.342  1.00  0.00     0.000 C 
BRANCH  15  16
ATOM     16  C   UNL     1      -5.164  39.771  21.929  1.00  0.00     0.000 C 
BRANCH  16  17
ATOM     17  C   UNL     1      -4.890  39.679  23.443  1.00  0.00     0.000 C 
BRANCH  17  18
ATOM     18  C   UNL     1      -4.520  38.261  23.899  1.00  0.00    -0.000 C 
BRANCH  18  19
ATOM     19  C   UNL     1      -4.205  38.230  25.403  1.00  0.00    -0.000 C 
BRANCH  19  20
ATOM     20  C   UNL     1      -4.897  37.062  26.124  1.00  0.00    -0.000 C 
BRANCH  20  21
ATOM     21  C   UNL     1      -6.087  36.497  25.328  1.00  0.00    -0.000 C 
BRANCH  21  22
ATOM     22  C   UNL     1      -5.732  36.202  23.863  1.00  0.00    -0.000 C 
BRANCH  22  23
ATOM     23  C   UNL     1      -6.122  34.775  23.435  1.00  0.00    -0.000 C 
BRANCH  23  24
ATOM     24  C   UNL     1      -4.887  33.905  23.122  1.00  0.00    -0.000 C 
BRANCH  24  25
ATOM     25  C   UNL     1      -3.790  34.655  22.347  1.00  0.00    -0.003 C 
ATOM     26  C   UNL     1      -2.998  33.751  21.406  1.00  0.00     0.004 C 
ENDBRANCH  24  25
ENDBRANCH  23  24
ENDBRANCH  22  23
ENDBRANCH  21  22
ENDBRANCH  20  21
ENDBRANCH  19  20
ENDBRANCH  18  19
ENDBRANCH  17  18
ENDBRANCH  16  17
ENDBRANCH  15  16
ENDBRANCH   1  15
TORSDOF 22
ENDMDL
