MODEL 1
REMARK VINA RESULT:    -5.535      0.000      0.000
REMARK INTER + INTRA:          -9.462
REMARK INTER:                  -8.446
REMARK INTRA:                  -1.016
REMARK UNBOUND:                -1.016
REMARK SMILES OC[C@H]1O[C@@](CO)(O[C@@H]2O[C@H](CO)[C@@H](O)[C@@H](O)[C@@H]2O)[C@@H](O)[C@@H]1O
REMARK SMILES IDX 8 1 9 2 11 3 14 4 10 5 16 6 18 7 12 8 13 9 15 11 17 13 19 15
REMARK SMILES IDX 5 17 20 18 4 19 22 20 3 21 6 22 7 23 21 25 23 27 2 29 1 30
REMARK H PARENT 13 10 15 12 17 14 19 16 7 24 21 26 23 28 1 31
REMARK Flexibility Score: inf
ROOT
ATOM      1  O   UNL     1       1.830  15.623  20.500  1.00  0.00    -0.313 OA
ENDROOT
BRANCH   1   2
ATOM      2  C   UNL     1       0.692  15.067  21.159  1.00  0.00     0.285 C 
ATOM      3  C   UNL     1      -0.103  13.431  22.611  1.00  0.00     0.178 C 
ATOM      4  C   UNL     1      -1.537  13.568  21.997  1.00  0.00     0.177 C 
ATOM      5  O   UNL     1       0.905  13.755  21.663  1.00  0.00    -0.341 OA
ATOM      6  C   UNL     1      -1.441  13.839  20.480  1.00  0.00     0.179 C 
ATOM      7  C   UNL     1      -0.507  15.041  20.174  1.00  0.00     0.202 C 
BRANCH   3   8
ATOM      8  C   UNL     1       0.167  12.009  23.124  1.00  0.00     0.191 C 
BRANCH   8   9
ATOM      9  O   UNL     1       0.554  11.163  22.075  1.00  0.00    -0.394 OA
ATOM     10  H   UNL     1      -0.251  10.638  21.820  1.00  0.00     0.210 HD
ENDBRANCH   8   9
ENDBRANCH   3   8
BRANCH   4  11
ATOM     11  O   UNL     1      -2.218  14.628  22.617  1.00  0.00    -0.387 OA
ATOM     12  H   UNL     1      -3.158  14.331  22.754  1.00  0.00     0.211 HD
ENDBRANCH   4  11
BRANCH   6  13
ATOM     13  O   UNL     1      -2.715  14.010  19.905  1.00  0.00    -0.387 OA
ATOM     14  H   UNL     1      -2.839  14.976  19.716  1.00  0.00     0.211 HD
ENDBRANCH   6  13
BRANCH   7  15
ATOM     15  O   UNL     1      -0.040  14.936  18.853  1.00  0.00    -0.385 OA
ATOM     16  H   UNL     1       0.352  14.031  18.756  1.00  0.00     0.211 HD
ENDBRANCH   7  15
ENDBRANCH   1   2
BRANCH   1  17
ATOM     17  C   UNL     1       2.341  16.852  21.015  1.00  0.00     0.224 C 
ATOM     18  C   UNL     1       3.184  17.529  19.916  1.00  0.00     0.208 C 
ATOM     19  O   UNL     1       1.303  17.759  21.347  1.00  0.00    -0.337 OA
ATOM     20  C   UNL     1       2.953  19.014  20.126  1.00  0.00     0.180 C 
ATOM     21  C   UNL     1       1.746  19.069  21.073  1.00  0.00     0.179 C 
BRANCH  17  22
ATOM     22  C   UNL     1       3.217  16.525  22.256  1.00  0.00     0.225 C 
BRANCH  22  23
ATOM     23  O   UNL     1       4.574  16.762  22.003  1.00  0.00    -0.391 OA
ATOM     24  H   UNL     1       4.978  17.012  22.875  1.00  0.00     0.210 HD
ENDBRANCH  22  23
ENDBRANCH  17  22
BRANCH  18  25
ATOM     25  O   UNL     1       2.767  17.147  18.623  1.00  0.00    -0.385 OA
ATOM     26  H   UNL     1       1.774  17.121  18.616  1.00  0.00     0.211 HD
ENDBRANCH  18  25
BRANCH  20  27
ATOM     27  O   UNL     1       4.082  19.599  20.721  1.00  0.00    -0.387 OA
ATOM     28  H   UNL     1       3.809  20.507  21.018  1.00  0.00     0.211 HD
ENDBRANCH  20  27
BRANCH  21  29
ATOM     29  C   UNL     1       0.592  19.881  20.477  1.00  0.00     0.191 C 
BRANCH  29  30
ATOM     30  O   UNL     1      -0.238  19.040  19.726  1.00  0.00    -0.394 OA
ATOM     31  H   UNL     1       0.366  18.424  19.233  1.00  0.00     0.210 HD
ENDBRANCH  29  30
ENDBRANCH  21  29
ENDBRANCH   1  17
TORSDOF 13
ENDMDL
MODEL 2
REMARK VINA RESULT:    -5.331      1.923      2.725
REMARK INTER + INTRA:          -9.152
REMARK INTER:                  -8.403
REMARK INTRA:                  -0.750
REMARK UNBOUND:                -1.016
REMARK SMILES OC[C@H]1O[C@@](CO)(O[C@@H]2O[C@H](CO)[C@@H](O)[C@@H](O)[C@@H]2O)[C@@H](O)[C@@H]1O
REMARK SMILES IDX 8 1 9 2 11 3 14 4 10 5 16 6 18 7 12 8 13 9 15 11 17 13 19 15
REMARK SMILES IDX 5 17 20 18 4 19 22 20 3 21 6 22 7 23 21 25 23 27 2 29 1 30
REMARK H PARENT 13 10 15 12 17 14 19 16 7 24 21 26 23 28 1 31
REMARK Flexibility Score: inf
ROOT
ATOM      1  O   UNL     1       1.739  15.742  20.444  1.00  0.00    -0.313 OA
ENDROOT
BRANCH   1   2
ATOM      2  C   UNL     1       2.052  14.518  21.108  1.00  0.00     0.285 C 
ATOM      3  C   UNL     1       3.718  13.009  21.716  1.00  0.00     0.178 C 
ATOM      4  C   UNL     1       2.652  11.871  21.852  1.00  0.00     0.177 C 
ATOM      5  O   UNL     1       3.323  13.984  20.760  1.00  0.00    -0.341 OA
ATOM      6  C   UNL     1       1.560  12.034  20.773  1.00  0.00     0.179 C 
ATOM      7  C   UNL     1       0.958  13.466  20.785  1.00  0.00     0.202 C 
BRANCH   3   8
ATOM      8  C   UNL     1       5.090  12.463  21.298  1.00  0.00     0.191 C 
BRANCH   8   9
ATOM      9  O   UNL     1       5.518  13.047  20.096  1.00  0.00    -0.394 OA
ATOM     10  H   UNL     1       6.354  12.578  19.834  1.00  0.00     0.210 HD
ENDBRANCH   8   9
ENDBRANCH   3   8
BRANCH   4  11
ATOM     11  O   UNL     1       2.061  11.926  23.125  1.00  0.00    -0.387 OA
ATOM     12  H   UNL     1       1.148  12.305  23.006  1.00  0.00     0.211 HD
ENDBRANCH   4  11
BRANCH   6  13
ATOM     13  O   UNL     1       0.562  11.050  20.896  1.00  0.00    -0.387 OA
ATOM     14  H   UNL     1       0.956  10.269  21.365  1.00  0.00     0.211 HD
ENDBRANCH   6  13
BRANCH   7  15
ATOM     15  O   UNL     1       0.390  13.736  19.529  1.00  0.00    -0.385 OA
ATOM     16  H   UNL     1       0.894  13.203  18.863  1.00  0.00     0.211 HD
ENDBRANCH   7  15
ENDBRANCH   1   2
BRANCH   1  17
ATOM     17  C   UNL     1       2.292  16.937  20.994  1.00  0.00     0.224 C 
ATOM     18  C   UNL     1       3.194  17.593  19.930  1.00  0.00     0.208 C 
ATOM     19  O   UNL     1       1.288  17.885  21.315  1.00  0.00    -0.337 OA
ATOM     20  C   UNL     1       3.026  19.083  20.161  1.00  0.00     0.180 C 
ATOM     21  C   UNL     1       1.797  19.178  21.077  1.00  0.00     0.179 C 
BRANCH  17  22
ATOM     22  C   UNL     1       3.118  16.549  22.251  1.00  0.00     0.225 C 
BRANCH  22  23
ATOM     23  O   UNL     1       4.494  16.682  22.022  1.00  0.00    -0.391 OA
ATOM     24  H   UNL     1       4.595  16.875  21.053  1.00  0.00     0.210 HD
ENDBRANCH  22  23
ENDBRANCH  17  22
BRANCH  18  25
ATOM     25  O   UNL     1       2.794  17.253  18.620  1.00  0.00    -0.385 OA
ATOM     26  H   UNL     1       1.916  17.682  18.445  1.00  0.00     0.211 HD
ENDBRANCH  18  25
BRANCH  20  27
ATOM     27  O   UNL     1       4.164  19.606  20.795  1.00  0.00    -0.387 OA
ATOM     28  H   UNL     1       4.849  18.886  20.788  1.00  0.00     0.211 HD
ENDBRANCH  20  27
BRANCH  21  29
ATOM     29  C   UNL     1       0.698  20.052  20.467  1.00  0.00     0.191 C 
BRANCH  29  30
ATOM     30  O   UNL     1      -0.180  19.255  19.723  1.00  0.00    -0.394 OA
ATOM     31  H   UNL     1      -0.954  19.067  20.319  1.00  0.00     0.210 HD
ENDBRANCH  29  30
ENDBRANCH  21  29
ENDBRANCH   1  17
TORSDOF 13
ENDMDL
MODEL 3
REMARK VINA RESULT:    -5.309      1.933      2.825
REMARK INTER + INTRA:          -9.118
REMARK INTER:                  -8.226
REMARK INTRA:                  -0.892
REMARK UNBOUND:                -1.016
REMARK SMILES OC[C@H]1O[C@@](CO)(O[C@@H]2O[C@H](CO)[C@@H](O)[C@@H](O)[C@@H]2O)[C@@H](O)[C@@H]1O
REMARK SMILES IDX 8 1 9 2 11 3 14 4 10 5 16 6 18 7 12 8 13 9 15 11 17 13 19 15
REMARK SMILES IDX 5 17 20 18 4 19 22 20 3 21 6 22 7 23 21 25 23 27 2 29 1 30
REMARK H PARENT 13 10 15 12 17 14 19 16 7 24 21 26 23 28 1 31
REMARK Flexibility Score: inf
ROOT
ATOM      1  O   UNL     1       0.485  16.466  20.421  1.00  0.00    -0.313 OA
ENDROOT
BRANCH   1   2
ATOM      2  C   UNL     1      -0.379  15.337  20.296  1.00  0.00     0.285 C 
ATOM      3  C   UNL     1      -0.631  13.164  19.499  1.00  0.00     0.178 C 
ATOM      4  C   UNL     1      -2.187  13.336  19.491  1.00  0.00     0.177 C 
ATOM      5  O   UNL     1       0.034  14.405  19.305  1.00  0.00    -0.341 OA
ATOM      6  C   UNL     1      -2.560  14.780  19.090  1.00  0.00     0.179 C 
ATOM      7  C   UNL     1      -1.814  15.824  19.964  1.00  0.00     0.202 C 
BRANCH   3   8
ATOM      8  C   UNL     1      -0.156  12.195  18.407  1.00  0.00     0.191 C 
BRANCH   8   9
ATOM      9  O   UNL     1      -1.079  12.135  17.353  1.00  0.00    -0.394 OA
ATOM     10  H   UNL     1      -0.798  11.380  16.771  1.00  0.00     0.210 HD
ENDBRANCH   8   9
ENDBRANCH   3   8
BRANCH   4  11
ATOM     11  O   UNL     1      -2.700  13.062  20.770  1.00  0.00    -0.387 OA
ATOM     12  H   UNL     1      -2.252  12.232  21.091  1.00  0.00     0.211 HD
ENDBRANCH   4  11
BRANCH   6  13
ATOM     13  O   UNL     1      -3.952  14.979  19.115  1.00  0.00    -0.387 OA
ATOM     14  H   UNL     1      -4.344  14.520  18.327  1.00  0.00     0.211 HD
ENDBRANCH   6  13
BRANCH   7  15
ATOM     15  O   UNL     1      -1.757  17.046  19.273  1.00  0.00    -0.385 OA
ATOM     16  H   UNL     1      -2.370  16.968  18.497  1.00  0.00     0.211 HD
ENDBRANCH   7  15
ENDBRANCH   1   2
BRANCH   1  17
ATOM     17  C   UNL     1       1.648  16.306  21.233  1.00  0.00     0.224 C 
ATOM     18  C   UNL     1       2.881  16.230  20.311  1.00  0.00     0.208 C 
ATOM     19  O   UNL     1       1.851  17.416  22.091  1.00  0.00    -0.337 OA
ATOM     20  C   UNL     1       3.984  16.909  21.101  1.00  0.00     0.180 C 
ATOM     21  C   UNL     1       3.237  17.625  22.236  1.00  0.00     0.179 C 
BRANCH  17  22
ATOM     22  C   UNL     1       1.488  14.992  22.046  1.00  0.00     0.225 C 
BRANCH  22  23
ATOM     23  O   UNL     1       2.335  13.985  21.566  1.00  0.00    -0.391 OA
ATOM     24  H   UNL     1       1.772  13.173  21.470  1.00  0.00     0.210 HD
ENDBRANCH  22  23
ENDBRANCH  17  22
BRANCH  18  25
ATOM     25  O   UNL     1       2.667  16.905  19.090  1.00  0.00    -0.385 OA
ATOM     26  H   UNL     1       1.779  17.346  19.135  1.00  0.00     0.211 HD
ENDBRANCH  18  25
BRANCH  20  27
ATOM     27  O   UNL     1       4.871  15.950  21.614  1.00  0.00    -0.387 OA
ATOM     28  H   UNL     1       4.939  15.230  20.933  1.00  0.00     0.211 HD
ENDBRANCH  20  27
BRANCH  21  29
ATOM     29  C   UNL     1       3.525  19.129  22.245  1.00  0.00     0.191 C 
BRANCH  29  30
ATOM     30  O   UNL     1       4.282  19.472  21.118  1.00  0.00    -0.394 OA
ATOM     31  H   UNL     1       4.403  20.458  21.156  1.00  0.00     0.210 HD
ENDBRANCH  29  30
ENDBRANCH  21  29
ENDBRANCH   1  17
TORSDOF 13
ENDMDL
MODEL 4
REMARK VINA RESULT:    -4.838      2.073      6.016
REMARK INTER + INTRA:          -8.400
REMARK INTER:                  -7.802
REMARK INTRA:                  -0.598
REMARK UNBOUND:                -1.016
REMARK SMILES OC[C@H]1O[C@@](CO)(O[C@@H]2O[C@H](CO)[C@@H](O)[C@@H](O)[C@@H]2O)[C@@H](O)[C@@H]1O
REMARK SMILES IDX 8 1 9 2 11 3 14 4 10 5 16 6 18 7 12 8 13 9 15 11 17 13 19 15
REMARK SMILES IDX 5 17 20 18 4 19 22 20 3 21 6 22 7 23 21 25 23 27 2 29 1 30
REMARK H PARENT 13 10 15 12 17 14 19 16 7 24 21 26 23 28 1 31
REMARK Flexibility Score: inf
ROOT
ATOM      1  O   UNL     1      -0.135  13.239  20.378  1.00  0.00    -0.313 OA
ENDROOT
BRANCH   1   2
ATOM      2  C   UNL     1       0.798  14.309  20.222  1.00  0.00     0.285 C 
ATOM      3  C   UNL     1       2.882  15.168  20.804  1.00  0.00     0.178 C 
ATOM      4  C   UNL     1       2.399  16.613  20.443  1.00  0.00     0.177 C 
ATOM      5  O   UNL     1       1.803  14.346  21.227  1.00  0.00    -0.341 OA
ATOM      6  C   UNL     1       0.914  16.787  20.826  1.00  0.00     0.179 C 
ATOM      7  C   UNL     1       0.034  15.659  20.222  1.00  0.00     0.202 C 
BRANCH   3   8
ATOM      8  C   UNL     1       3.936  15.178  21.920  1.00  0.00     0.191 C 
BRANCH   8   9
ATOM      9  O   UNL     1       4.962  16.090  21.633  1.00  0.00    -0.394 OA
ATOM     10  H   UNL     1       4.569  16.998  21.719  1.00  0.00     0.210 HD
ENDBRANCH   8   9
ENDBRANCH   3   8
BRANCH   4  11
ATOM     11  O   UNL     1       2.553  16.832  19.064  1.00  0.00    -0.387 OA
ATOM     12  H   UNL     1       2.329  17.787  18.895  1.00  0.00     0.211 HD
ENDBRANCH   4  11
BRANCH   6  13
ATOM     13  O   UNL     1       0.437  18.063  20.473  1.00  0.00    -0.387 OA
ATOM     14  H   UNL     1       0.702  18.699  21.188  1.00  0.00     0.211 HD
ENDBRANCH   6  13
BRANCH   7  15
ATOM     15  O   UNL     1      -1.145  15.541  20.977  1.00  0.00    -0.385 OA
ATOM     16  H   UNL     1      -1.735  16.293  20.711  1.00  0.00     0.211 HD
ENDBRANCH   7  15
ENDBRANCH   1   2
BRANCH   1  17
ATOM     17  C   UNL     1      -0.899  12.872  19.230  1.00  0.00     0.224 C 
ATOM     18  C   UNL     1      -2.268  12.345  19.702  1.00  0.00     0.208 C 
ATOM     19  O   UNL     1      -1.159  13.984  18.391  1.00  0.00    -0.337 OA
ATOM     20  C   UNL     1      -3.236  12.792  18.623  1.00  0.00     0.180 C 
ATOM     21  C   UNL     1      -2.436  13.824  17.815  1.00  0.00     0.179 C 
BRANCH  17  22
ATOM     22  C   UNL     1      -0.118  11.766  18.467  1.00  0.00     0.225 C 
BRANCH  22  23
ATOM     23  O   UNL     1      -0.478  11.725  17.114  1.00  0.00    -0.391 OA
ATOM     24  H   UNL     1      -0.011  12.486  16.680  1.00  0.00     0.210 HD
ENDBRANCH  22  23
ENDBRANCH  17  22
BRANCH  18  25
ATOM     25  O   UNL     1      -2.639  12.892  20.949  1.00  0.00    -0.385 OA
ATOM     26  H   UNL     1      -1.845  12.869  21.544  1.00  0.00     0.211 HD
ENDBRANCH  18  25
BRANCH  20  27
ATOM     27  O   UNL     1      -3.601  11.701  17.819  1.00  0.00    -0.387 OA
ATOM     28  H   UNL     1      -4.374  11.998  17.270  1.00  0.00     0.211 HD
ENDBRANCH  20  27
BRANCH  21  29
ATOM     29  C   UNL     1      -3.144  15.181  17.765  1.00  0.00     0.191 C 
BRANCH  29  30
ATOM     30  O   UNL     1      -3.301  15.679  19.064  1.00  0.00    -0.394 OA
ATOM     31  H   UNL     1      -2.385  15.875  19.397  1.00  0.00     0.210 HD
ENDBRANCH  29  30
ENDBRANCH  21  29
ENDBRANCH   1  17
TORSDOF 13
ENDMDL
MODEL 5
REMARK VINA RESULT:    -4.810      3.759      6.393
REMARK INTER + INTRA:          -8.356
REMARK INTER:                  -7.527
REMARK INTRA:                  -0.829
REMARK UNBOUND:                -1.016
REMARK SMILES OC[C@H]1O[C@@](CO)(O[C@@H]2O[C@H](CO)[C@@H](O)[C@@H](O)[C@@H]2O)[C@@H](O)[C@@H]1O
REMARK SMILES IDX 8 1 9 2 11 3 14 4 10 5 16 6 18 7 12 8 13 9 15 11 17 13 19 15
REMARK SMILES IDX 5 17 20 18 4 19 22 20 3 21 6 22 7 23 21 25 23 27 2 29 1 30
REMARK H PARENT 13 10 15 12 17 14 19 16 7 24 21 26 23 28 1 31
REMARK Flexibility Score: inf
ROOT
ATOM      1  O   UNL     1      -2.081  13.945  17.833  1.00  0.00    -0.313 OA
ENDROOT
BRANCH   1   2
ATOM      2  C   UNL     1      -3.477  14.242  17.877  1.00  0.00     0.285 C 
ATOM      3  C   UNL     1      -5.643  13.389  17.883  1.00  0.00     0.178 C 
ATOM      4  C   UNL     1      -6.194  14.757  17.357  1.00  0.00     0.177 C 
ATOM      5  O   UNL     1      -4.306  13.165  17.457  1.00  0.00    -0.341 OA
ATOM      6  C   UNL     1      -5.189  15.390  16.371  1.00  0.00     0.179 C 
ATOM      7  C   UNL     1      -3.766  15.478  16.986  1.00  0.00     0.202 C 
BRANCH   3   8
ATOM      8  C   UNL     1      -6.497  12.205  17.406  1.00  0.00     0.191 C 
BRANCH   8   9
ATOM      9  O   UNL     1      -5.715  11.270  16.712  1.00  0.00    -0.394 OA
ATOM     10  H   UNL     1      -5.938  11.371  15.749  1.00  0.00     0.210 HD
ENDBRANCH   8   9
ENDBRANCH   3   8
BRANCH   4  11
ATOM     11  O   UNL     1      -6.400  15.630  18.437  1.00  0.00    -0.387 OA
ATOM     12  H   UNL     1      -7.333  15.488  18.753  1.00  0.00     0.211 HD
ENDBRANCH   4  11
BRANCH   6  13
ATOM     13  O   UNL     1      -5.637  16.643  15.913  1.00  0.00    -0.387 OA
ATOM     14  H   UNL     1      -5.791  17.223  16.703  1.00  0.00     0.211 HD
ENDBRANCH   6  13
BRANCH   7  15
ATOM     15  O   UNL     1      -2.821  15.554  15.949  1.00  0.00    -0.385 OA
ATOM     16  H   UNL     1      -3.109  14.915  15.248  1.00  0.00     0.211 HD
ENDBRANCH   7  15
ENDBRANCH   1   2
BRANCH   1  17
ATOM     17  C   UNL     1      -1.549  13.166  18.904  1.00  0.00     0.224 C 
ATOM     18  C   UNL     1      -0.176  13.747  19.295  1.00  0.00     0.208 C 
ATOM     19  O   UNL     1      -2.364  13.234  20.062  1.00  0.00    -0.337 OA
ATOM     20  C   UNL     1      -0.092  13.536  20.795  1.00  0.00     0.180 C 
ATOM     21  C   UNL     1      -1.532  13.188  21.200  1.00  0.00     0.179 C 
BRANCH  17  22
ATOM     22  C   UNL     1      -1.405  11.701  18.406  1.00  0.00     0.225 C 
BRANCH  22  23
ATOM     23  O   UNL     1      -0.930  11.651  17.089  1.00  0.00    -0.391 OA
ATOM     24  H   UNL     1       0.057  11.569  17.154  1.00  0.00     0.210 HD
ENDBRANCH  22  23
ENDBRANCH  17  22
BRANCH  18  25
ATOM     25  O   UNL     1      -0.080  15.120  18.988  1.00  0.00    -0.385 OA
ATOM     26  H   UNL     1       0.656  15.507  19.531  1.00  0.00     0.211 HD
ENDBRANCH  18  25
BRANCH  20  27
ATOM     27  O   UNL     1       0.779  12.475  21.087  1.00  0.00    -0.387 OA
ATOM     28  H   UNL     1       0.298  11.877  21.719  1.00  0.00     0.211 HD
ENDBRANCH  20  27
BRANCH  21  29
ATOM     29  C   UNL     1      -2.073  14.150  22.262  1.00  0.00     0.191 C 
BRANCH  29  30
ATOM     30  O   UNL     1      -2.504  15.334  21.651  1.00  0.00    -0.394 OA
ATOM     31  H   UNL     1      -1.681  15.855  21.449  1.00  0.00     0.210 HD
ENDBRANCH  29  30
ENDBRANCH  21  29
ENDBRANCH   1  17
TORSDOF 13
ENDMDL
MODEL 6
REMARK VINA RESULT:    -4.763      3.414      6.496
REMARK INTER + INTRA:          -8.285
REMARK INTER:                  -7.167
REMARK INTRA:                  -1.118
REMARK UNBOUND:                -1.016
REMARK SMILES OC[C@H]1O[C@@](CO)(O[C@@H]2O[C@H](CO)[C@@H](O)[C@@H](O)[C@@H]2O)[C@@H](O)[C@@H]1O
REMARK SMILES IDX 8 1 9 2 11 3 14 4 10 5 16 6 18 7 12 8 13 9 15 11 17 13 19 15
REMARK SMILES IDX 5 17 20 18 4 19 22 20 3 21 6 22 7 23 21 25 23 27 2 29 1 30
REMARK H PARENT 13 10 15 12 17 14 19 16 7 24 21 26 23 28 1 31
REMARK Flexibility Score: inf
ROOT
ATOM      1  O   UNL     1      -3.220  12.318  19.546  1.00  0.00    -0.313 OA
ENDROOT
BRANCH   1   2
ATOM      2  C   UNL     1      -4.052  13.288  18.909  1.00  0.00     0.285 C 
ATOM      3  C   UNL     1      -6.110  13.725  17.912  1.00  0.00     0.178 C 
ATOM      4  C   UNL     1      -5.490  14.937  17.139  1.00  0.00     0.177 C 
ATOM      5  O   UNL     1      -5.138  12.725  18.183  1.00  0.00    -0.341 OA
ATOM      6  C   UNL     1      -4.036  14.618  16.729  1.00  0.00     0.179 C 
ATOM      7  C   UNL     1      -3.192  14.147  17.945  1.00  0.00     0.202 C 
BRANCH   3   8
ATOM      8  C   UNL     1      -7.257  13.072  17.128  1.00  0.00     0.191 C 
BRANCH   8   9
ATOM      9  O   UNL     1      -6.767  12.358  16.024  1.00  0.00    -0.394 OA
ATOM     10  H   UNL     1      -7.287  12.664  15.234  1.00  0.00     0.210 HD
ENDBRANCH   8   9
ENDBRANCH   3   8
BRANCH   4  11
ATOM     11  O   UNL     1      -5.502  16.077  17.959  1.00  0.00    -0.387 OA
ATOM     12  H   UNL     1      -4.624  16.532  17.840  1.00  0.00     0.211 HD
ENDBRANCH   4  11
BRANCH   6  13
ATOM     13  O   UNL     1      -3.435  15.706  16.069  1.00  0.00    -0.387 OA
ATOM     14  H   UNL     1      -4.104  16.437  16.010  1.00  0.00     0.211 HD
ENDBRANCH   6  13
BRANCH   7  15
ATOM     15  O   UNL     1      -2.098  13.397  17.482  1.00  0.00    -0.385 OA
ATOM     16  H   UNL     1      -1.278  13.848  17.809  1.00  0.00     0.211 HD
ENDBRANCH   7  15
ENDBRANCH   1   2
BRANCH   1  17
ATOM     17  C   UNL     1      -2.458  12.756  20.670  1.00  0.00     0.224 C 
ATOM     18  C   UNL     1      -1.091  12.045  20.640  1.00  0.00     0.208 C 
ATOM     19  O   UNL     1      -2.194  14.147  20.621  1.00  0.00    -0.337 OA
ATOM     20  C   UNL     1      -0.122  13.071  21.199  1.00  0.00     0.180 C 
ATOM     21  C   UNL     1      -0.919  14.383  21.173  1.00  0.00     0.179 C 
BRANCH  17  22
ATOM     22  C   UNL     1      -3.244  12.380  21.957  1.00  0.00     0.225 C 
BRANCH  22  23
ATOM     23  O   UNL     1      -2.577  11.395  22.696  1.00  0.00    -0.391 OA
ATOM     24  H   UNL     1      -1.909  11.872  23.254  1.00  0.00     0.210 HD
ENDBRANCH  22  23
ENDBRANCH  17  22
BRANCH  18  25
ATOM     25  O   UNL     1      -0.716  11.682  19.329  1.00  0.00    -0.385 OA
ATOM     26  H   UNL     1      -0.191  10.841  19.381  1.00  0.00     0.211 HD
ENDBRANCH  18  25
BRANCH  20  27
ATOM     27  O   UNL     1       0.238  12.730  22.513  1.00  0.00    -0.387 OA
ATOM     28  H   UNL     1       0.408  11.751  22.517  1.00  0.00     0.211 HD
ENDBRANCH  20  27
BRANCH  21  29
ATOM     29  C   UNL     1      -0.206  15.466  20.359  1.00  0.00     0.191 C 
BRANCH  29  30
ATOM     30  O   UNL     1       0.140  14.959  19.101  1.00  0.00    -0.394 OA
ATOM     31  H   UNL     1       0.962  14.417  19.237  1.00  0.00     0.210 HD
ENDBRANCH  29  30
ENDBRANCH  21  29
ENDBRANCH   1  17
TORSDOF 13
ENDMDL
MODEL 7
REMARK VINA RESULT:    -4.762      3.473      6.227
REMARK INTER + INTRA:          -8.284
REMARK INTER:                  -7.638
REMARK INTRA:                  -0.646
REMARK UNBOUND:                -1.016
REMARK SMILES OC[C@H]1O[C@@](CO)(O[C@@H]2O[C@H](CO)[C@@H](O)[C@@H](O)[C@@H]2O)[C@@H](O)[C@@H]1O
REMARK SMILES IDX 8 1 9 2 11 3 14 4 10 5 16 6 18 7 12 8 13 9 15 11 17 13 19 15
REMARK SMILES IDX 5 17 20 18 4 19 22 20 3 21 6 22 7 23 21 25 23 27 2 29 1 30
REMARK H PARENT 13 10 15 12 17 14 19 16 7 24 21 26 23 28 1 31
REMARK Flexibility Score: inf
ROOT
ATOM      1  O   UNL     1      -2.109  14.164  18.432  1.00  0.00    -0.313 OA
ENDROOT
BRANCH   1   2
ATOM      2  C   UNL     1      -3.516  14.322  18.251  1.00  0.00     0.285 C 
ATOM      3  C   UNL     1      -5.585  13.265  18.098  1.00  0.00     0.178 C 
ATOM      4  C   UNL     1      -6.165  14.490  17.313  1.00  0.00     0.177 C 
ATOM      5  O   UNL     1      -4.187  13.123  17.887  1.00  0.00    -0.341 OA
ATOM      6  C   UNL     1      -5.084  15.085  16.385  1.00  0.00     0.179 C 
ATOM      7  C   UNL     1      -3.775  15.396  17.161  1.00  0.00     0.202 C 
BRANCH   3   8
ATOM      8  C   UNL     1      -6.263  11.950  17.690  1.00  0.00     0.191 C 
BRANCH   8   9
ATOM      9  O   UNL     1      -5.374  11.123  16.988  1.00  0.00    -0.394 OA
ATOM     10  H   UNL     1      -4.491  11.580  16.999  1.00  0.00     0.210 HD
ENDBRANCH   8   9
ENDBRANCH   3   8
BRANCH   4  11
ATOM     11  O   UNL     1      -6.592  15.473  18.220  1.00  0.00    -0.387 OA
ATOM     12  H   UNL     1      -6.948  14.998  19.019  1.00  0.00     0.211 HD
ENDBRANCH   4  11
BRANCH   6  13
ATOM     13  O   UNL     1      -5.561  16.216  15.697  1.00  0.00    -0.387 OA
ATOM     14  H   UNL     1      -5.242  16.163  14.759  1.00  0.00     0.211 HD
ENDBRANCH   6  13
BRANCH   7  15
ATOM     15  O   UNL     1      -2.701  15.428  16.256  1.00  0.00    -0.385 OA
ATOM     16  H   UNL     1      -3.055  15.779  15.399  1.00  0.00     0.211 HD
ENDBRANCH   7  15
ENDBRANCH   1   2
BRANCH   1  17
ATOM     17  C   UNL     1      -1.587  14.441  19.731  1.00  0.00     0.224 C 
ATOM     18  C   UNL     1      -2.026  13.311  20.684  1.00  0.00     0.208 C 
ATOM     19  O   UNL     1      -0.170  14.453  19.741  1.00  0.00    -0.337 OA
ATOM     20  C   UNL     1      -0.864  13.159  21.647  1.00  0.00     0.180 C 
ATOM     21  C   UNL     1       0.276  13.940  20.976  1.00  0.00     0.179 C 
BRANCH  17  22
ATOM     22  C   UNL     1      -2.162  15.807  20.198  1.00  0.00     0.225 C 
BRANCH  22  23
ATOM     23  O   UNL     1      -1.386  16.876  19.732  1.00  0.00    -0.391 OA
ATOM     24  H   UNL     1      -1.659  17.668  20.264  1.00  0.00     0.210 HD
ENDBRANCH  22  23
ENDBRANCH  17  22
BRANCH  18  25
ATOM     25  O   UNL     1      -2.253  12.101  19.995  1.00  0.00    -0.385 OA
ATOM     26  H   UNL     1      -1.650  12.078  19.207  1.00  0.00     0.211 HD
ENDBRANCH  18  25
BRANCH  20  27
ATOM     27  O   UNL     1      -1.190  13.721  22.891  1.00  0.00    -0.387 OA
ATOM     28  H   UNL     1      -0.759  13.151  23.583  1.00  0.00     0.211 HD
ENDBRANCH  20  27
BRANCH  21  29
ATOM     29  C   UNL     1       1.509  13.062  20.746  1.00  0.00     0.191 C 
BRANCH  29  30
ATOM     30  O   UNL     1       2.616  13.869  20.461  1.00  0.00    -0.394 OA
ATOM     31  H   UNL     1       3.419  13.303  20.616  1.00  0.00     0.210 HD
ENDBRANCH  29  30
ENDBRANCH  21  29
ENDBRANCH   1  17
TORSDOF 13
ENDMDL
MODEL 8
REMARK VINA RESULT:    -4.708      1.979      4.059
REMARK INTER + INTRA:          -8.201
REMARK INTER:                  -7.816
REMARK INTRA:                  -0.385
REMARK UNBOUND:                -1.016
REMARK SMILES OC[C@H]1O[C@@](CO)(O[C@@H]2O[C@H](CO)[C@@H](O)[C@@H](O)[C@@H]2O)[C@@H](O)[C@@H]1O
REMARK SMILES IDX 8 1 9 2 11 3 14 4 10 5 16 6 18 7 12 8 13 9 15 11 17 13 19 15
REMARK SMILES IDX 5 17 20 18 4 19 22 20 3 21 6 22 7 23 21 25 23 27 2 29 1 30
REMARK H PARENT 13 10 15 12 17 14 19 16 7 24 21 26 23 28 1 31
REMARK Flexibility Score: inf
ROOT
ATOM      1  O   UNL     1       3.575  17.109  20.970  1.00  0.00    -0.313 OA
ENDROOT
BRANCH   1   2
ATOM      2  C   UNL     1       2.621  16.073  20.735  1.00  0.00     0.285 C 
ATOM      3  C   UNL     1       0.395  15.546  20.302  1.00  0.00     0.178 C 
ATOM      4  C   UNL     1       0.616  14.102  20.866  1.00  0.00     0.177 C 
ATOM      5  O   UNL     1       1.271  16.485  20.910  1.00  0.00    -0.341 OA
ATOM      6  C   UNL     1       1.598  14.142  22.057  1.00  0.00     0.179 C 
ATOM      7  C   UNL     1       2.912  14.882  21.686  1.00  0.00     0.202 C 
BRANCH   3   8
ATOM      8  C   UNL     1      -1.045  16.031  20.519  1.00  0.00     0.191 C 
BRANCH   8   9
ATOM      9  O   UNL     1      -1.315  17.166  19.740  1.00  0.00    -0.394 OA
ATOM     10  H   UNL     1      -1.352  16.861  18.795  1.00  0.00     0.210 HD
ENDBRANCH   8   9
ENDBRANCH   3   8
BRANCH   4  11
ATOM     11  O   UNL     1       1.140  13.276  19.858  1.00  0.00    -0.387 OA
ATOM     12  H   UNL     1       0.406  12.667  19.570  1.00  0.00     0.211 HD
ENDBRANCH   4  11
BRANCH   6  13
ATOM     13  O   UNL     1       1.852  12.852  22.559  1.00  0.00    -0.387 OA
ATOM     14  H   UNL     1       1.635  12.196  21.847  1.00  0.00     0.211 HD
ENDBRANCH   6  13
BRANCH   7  15
ATOM     15  O   UNL     1       3.525  15.348  22.862  1.00  0.00    -0.385 OA
ATOM     16  H   UNL     1       2.820  15.395  23.556  1.00  0.00     0.211 HD
ENDBRANCH   7  15
ENDBRANCH   1   2
BRANCH   1  17
ATOM     17  C   UNL     1       3.151  18.449  20.723  1.00  0.00     0.224 C 
ATOM     18  C   UNL     1       2.339  18.937  21.939  1.00  0.00     0.208 C 
ATOM     19  O   UNL     1       4.249  19.335  20.586  1.00  0.00    -0.337 OA
ATOM     20  C   UNL     1       2.667  20.414  22.043  1.00  0.00     0.180 C 
ATOM     21  C   UNL     1       3.888  20.586  21.126  1.00  0.00     0.179 C 
BRANCH  17  22
ATOM     22  C   UNL     1       2.272  18.445  19.441  1.00  0.00     0.225 C 
BRANCH  22  23
ATOM     23  O   UNL     1       0.997  18.969  19.692  1.00  0.00    -0.391 OA
ATOM     24  H   UNL     1       1.067  19.948  19.543  1.00  0.00     0.210 HD
ENDBRANCH  22  23
ENDBRANCH  17  22
BRANCH  18  25
ATOM     25  O   UNL     1       2.714  18.268  23.123  1.00  0.00    -0.385 OA
ATOM     26  H   UNL     1       2.638  17.291  22.963  1.00  0.00     0.211 HD
ENDBRANCH  18  25
BRANCH  20  27
ATOM     27  O   UNL     1       1.586  21.183  21.583  1.00  0.00    -0.387 OA
ATOM     28  H   UNL     1       0.963  21.285  22.351  1.00  0.00     0.211 HD
ENDBRANCH  20  27
BRANCH  21  29
ATOM     29  C   UNL     1       5.083  21.178  21.877  1.00  0.00     0.191 C 
BRANCH  29  30
ATOM     30  O   UNL     1       5.197  22.542  21.583  1.00  0.00    -0.394 OA
ATOM     31  H   UNL     1       5.668  22.954  22.355  1.00  0.00     0.210 HD
ENDBRANCH  29  30
ENDBRANCH  21  29
ENDBRANCH   1  17
TORSDOF 13
ENDMDL
MODEL 9
REMARK VINA RESULT:    -4.686      1.685      6.218
REMARK INTER + INTRA:          -8.167
REMARK INTER:                  -7.240
REMARK INTRA:                  -0.926
REMARK UNBOUND:                -1.016
REMARK SMILES OC[C@H]1O[C@@](CO)(O[C@@H]2O[C@H](CO)[C@@H](O)[C@@H](O)[C@@H]2O)[C@@H](O)[C@@H]1O
REMARK SMILES IDX 8 1 9 2 11 3 14 4 10 5 16 6 18 7 12 8 13 9 15 11 17 13 19 15
REMARK SMILES IDX 5 17 20 18 4 19 22 20 3 21 6 22 7 23 21 25 23 27 2 29 1 30
REMARK H PARENT 13 10 15 12 17 14 19 16 7 24 21 26 23 28 1 31
REMARK Flexibility Score: inf
ROOT
ATOM      1  O   UNL     1       0.994  14.044  20.312  1.00  0.00    -0.313 OA
ENDROOT
BRANCH   1   2
ATOM      2  C   UNL     1       1.454  15.235  20.952  1.00  0.00     0.285 C 
ATOM      3  C   UNL     1       1.362  17.560  21.023  1.00  0.00     0.178 C 
ATOM      4  C   UNL     1       2.751  17.604  21.743  1.00  0.00     0.177 C 
ATOM      5  O   UNL     1       1.240  16.416  20.189  1.00  0.00    -0.341 OA
ATOM      6  C   UNL     1       3.666  16.486  21.199  1.00  0.00     0.179 C 
ATOM      7  C   UNL     1       2.969  15.100  21.258  1.00  0.00     0.202 C 
BRANCH   3   8
ATOM      8  C   UNL     1       1.126  18.805  20.157  1.00  0.00     0.191 C 
BRANCH   8   9
ATOM      9  O   UNL     1      -0.223  18.910  19.785  1.00  0.00    -0.394 OA
ATOM     10  H   UNL     1      -0.645  19.546  20.421  1.00  0.00     0.210 HD
ENDBRANCH   8   9
ENDBRANCH   3   8
BRANCH   4  11
ATOM     11  O   UNL     1       2.573  17.428  23.125  1.00  0.00    -0.387 OA
ATOM     12  H   UNL     1       3.464  17.556  23.552  1.00  0.00     0.211 HD
ENDBRANCH   4  11
BRANCH   6  13
ATOM     13  O   UNL     1       4.910  16.471  21.857  1.00  0.00    -0.387 OA
ATOM     14  H   UNL     1       5.259  15.542  21.835  1.00  0.00     0.211 HD
ENDBRANCH   6  13
BRANCH   7  15
ATOM     15  O   UNL     1       3.571  14.241  20.323  1.00  0.00    -0.385 OA
ATOM     16  H   UNL     1       3.839  13.422  20.813  1.00  0.00     0.211 HD
ENDBRANCH   7  15
ENDBRANCH   1   2
BRANCH   1  17
ATOM     17  C   UNL     1      -0.372  13.685  20.515  1.00  0.00     0.224 C 
ATOM     18  C   UNL     1      -1.224  14.369  19.428  1.00  0.00     0.208 C 
ATOM     19  O   UNL     1      -0.579  12.290  20.375  1.00  0.00    -0.337 OA
ATOM     20  C   UNL     1      -2.335  13.377  19.140  1.00  0.00     0.180 C 
ATOM     21  C   UNL     1      -1.850  12.079  19.803  1.00  0.00     0.179 C 
BRANCH  17  22
ATOM     22  C   UNL     1      -0.791  14.174  21.929  1.00  0.00     0.225 C 
BRANCH  22  23
ATOM     23  O   UNL     1      -1.974  14.924  21.883  1.00  0.00    -0.391 OA
ATOM     24  H   UNL     1      -1.841  15.687  22.504  1.00  0.00     0.210 HD
ENDBRANCH  22  23
ENDBRANCH  17  22
BRANCH  18  25
ATOM     25  O   UNL     1      -0.478  14.621  18.257  1.00  0.00    -0.385 OA
ATOM     26  H   UNL     1      -0.878  15.406  17.799  1.00  0.00     0.211 HD
ENDBRANCH  18  25
BRANCH  20  27
ATOM     27  O   UNL     1      -3.536  13.815  19.718  1.00  0.00    -0.387 OA
ATOM     28  H   UNL     1      -3.415  13.761  20.703  1.00  0.00     0.211 HD
ENDBRANCH  20  27
BRANCH  21  29
ATOM     29  C   UNL     1      -1.770  10.924  18.801  1.00  0.00     0.191 C 
BRANCH  29  30
ATOM     30  O   UNL     1      -1.378  11.412  17.549  1.00  0.00    -0.394 OA
ATOM     31  H   UNL     1      -2.049  11.073  16.898  1.00  0.00     0.210 HD
ENDBRANCH  29  30
ENDBRANCH  21  29
ENDBRANCH   1  17
TORSDOF 13
ENDMDL
