MODEL 1
REMARK VINA RESULT:    -4.989      0.000      0.000
REMARK INTER + INTRA:          -5.705
REMARK INTER:                  -5.281
REMARK INTRA:                  -0.425
REMARK UNBOUND:                -0.425
REMARK SMILES CC1=CC[C@@H]2[C@H]3[C@H](C(C)C)CC[C@]2(C)[C@@H]13
REMARK SMILES IDX 1 1 2 2 3 3 4 4 5 5 6 6 15 7 13 8 12 9 11 10 7 11 14 12 8 13
REMARK SMILES IDX 9 14 10 15
REMARK H PARENT
REMARK Flexibility Score: inf
ROOT
ATOM      1  C   UNL     1     136.661 137.629 136.362  1.00  0.00     0.039 C 
ATOM      2  C   UNL     1     135.288 138.134 136.031  1.00  0.00    -0.073 C 
ATOM      3  C   UNL     1     134.809 139.306 136.527  1.00  0.00    -0.027 C 
ATOM      4  C   UNL     1     133.391 139.745 136.145  1.00  0.00     0.031 C 
ATOM      5  C   UNL     1     132.713 138.667 135.237  1.00  0.00     0.003 C 
ATOM      6  C   UNL     1     132.971 137.286 135.882  1.00  0.00     0.004 C 
ATOM      7  C   UNL     1     134.342 137.310 135.158  1.00  0.00     0.024 C 
ATOM      8  C   UNL     1     133.658 138.208 134.099  1.00  0.00    -0.022 C 
ATOM      9  C   UNL     1     132.848 137.341 133.085  1.00  0.00     0.008 C 
ATOM     10  C   UNL     1     132.250 136.065 133.737  1.00  0.00     0.005 C 
ATOM     11  C   UNL     1     131.998 136.235 135.268  1.00  0.00    -0.005 C 
ATOM     12  C   UNL     1     134.505 139.272 133.363  1.00  0.00     0.012 C 
ENDROOT
BRANCH  11  13
ATOM     13  C   UNL     1     131.988 134.899 136.070  1.00  0.00    -0.014 C 
ATOM     14  C   UNL     1     132.619 134.999 137.470  1.00  0.00     0.007 C 
ATOM     15  C   UNL     1     132.633 133.756 135.273  1.00  0.00     0.007 C 
ENDBRANCH  11  13
TORSDOF 1
ENDMDL
MODEL 2
REMARK VINA RESULT:    -4.984      3.413      5.166
REMARK INTER + INTRA:          -5.699
REMARK INTER:                  -5.273
REMARK INTRA:                  -0.426
REMARK UNBOUND:                -0.425
REMARK SMILES CC1=CC[C@@H]2[C@H]3[C@H](C(C)C)CC[C@]2(C)[C@@H]13
REMARK SMILES IDX 1 1 2 2 3 3 4 4 5 5 6 6 15 7 13 8 12 9 11 10 7 11 14 12 8 13
REMARK SMILES IDX 9 14 10 15
REMARK H PARENT
REMARK Flexibility Score: inf
ROOT
ATOM      1  C   UNL     1     135.019 136.682 136.318  1.00  0.00     0.039 C 
ATOM      2  C   UNL     1     134.509 135.307 136.003  1.00  0.00    -0.073 C 
ATOM      3  C   UNL     1     133.333 134.840 136.501  1.00  0.00    -0.027 C 
ATOM      4  C   UNL     1     132.889 133.419 136.137  1.00  0.00     0.031 C 
ATOM      5  C   UNL     1     133.967 132.724 135.242  1.00  0.00     0.003 C 
ATOM      6  C   UNL     1     135.347 132.984 135.890  1.00  0.00     0.004 C 
ATOM      7  C   UNL     1     135.333 134.345 135.147  1.00  0.00     0.024 C 
ATOM      8  C   UNL     1     134.436 133.651 134.094  1.00  0.00    -0.022 C 
ATOM      9  C   UNL     1     135.304 132.823 133.095  1.00  0.00     0.008 C 
ATOM     10  C   UNL     1     136.574 132.229 133.760  1.00  0.00     0.005 C 
ATOM     11  C   UNL     1     136.396 131.998 135.294  1.00  0.00    -0.005 C 
ATOM     12  C   UNL     1     133.379 134.493 133.342  1.00  0.00     0.012 C 
ENDROOT
BRANCH  11  13
ATOM     13  C   UNL     1     137.728 131.992 136.101  1.00  0.00    -0.014 C 
ATOM     14  C   UNL     1     137.619 132.617 137.504  1.00  0.00     0.007 C 
ATOM     15  C   UNL     1     138.871 132.648 135.313  1.00  0.00     0.007 C 
ENDBRANCH  11  13
TORSDOF 1
ENDMDL
MODEL 3
REMARK VINA RESULT:    -4.971      3.307      4.897
REMARK INTER + INTRA:          -5.686
REMARK INTER:                  -5.272
REMARK INTRA:                  -0.414
REMARK UNBOUND:                -0.425
REMARK SMILES CC1=CC[C@@H]2[C@H]3[C@H](C(C)C)CC[C@]2(C)[C@@H]13
REMARK SMILES IDX 1 1 2 2 3 3 4 4 5 5 6 6 15 7 13 8 12 9 11 10 7 11 14 12 8 13
REMARK SMILES IDX 9 14 10 15
REMARK H PARENT
REMARK Flexibility Score: inf
ROOT
ATOM      1  C   UNL     1     137.901 136.217 136.554  1.00  0.00     0.039 C 
ATOM      2  C   UNL     1     138.182 137.599 136.042  1.00  0.00    -0.073 C 
ATOM      3  C   UNL     1     139.344 138.249 136.315  1.00  0.00    -0.027 C 
ATOM      4  C   UNL     1     139.547 139.663 135.760  1.00  0.00     0.031 C 
ATOM      5  C   UNL     1     138.277 140.127 134.974  1.00  0.00     0.003 C 
ATOM      6  C   UNL     1     137.043 139.783 135.840  1.00  0.00     0.004 C 
ATOM      7  C   UNL     1     137.132 138.360 135.232  1.00  0.00     0.024 C 
ATOM      8  C   UNL     1     137.781 139.032 133.998  1.00  0.00    -0.022 C 
ATOM      9  C   UNL     1     136.686 139.640 133.066  1.00  0.00     0.008 C 
ATOM     10  C   UNL     1     135.452 140.154 133.855  1.00  0.00     0.005 C 
ATOM     11  C   UNL     1     135.804 140.570 135.317  1.00  0.00    -0.005 C 
ATOM     12  C   UNL     1     138.826 138.239 133.179  1.00  0.00     0.012 C 
ENDROOT
BRANCH  11  13
ATOM     13  C   UNL     1     134.604 140.512 136.309  1.00  0.00    -0.014 C 
ATOM     14  C   UNL     1     134.958 139.945 137.696  1.00  0.00     0.007 C 
ATOM     15  C   UNL     1     133.411 139.752 135.710  1.00  0.00     0.007 C 
ENDBRANCH  11  13
TORSDOF 1
ENDMDL
MODEL 4
REMARK VINA RESULT:    -4.961      4.613      7.272
REMARK INTER + INTRA:          -5.676
REMARK INTER:                  -5.260
REMARK INTRA:                  -0.416
REMARK UNBOUND:                -0.425
REMARK SMILES CC1=CC[C@@H]2[C@H]3[C@H](C(C)C)CC[C@]2(C)[C@@H]13
REMARK SMILES IDX 1 1 2 2 3 3 4 4 5 5 6 6 15 7 13 8 12 9 11 10 7 11 14 12 8 13
REMARK SMILES IDX 9 14 10 15
REMARK H PARENT
REMARK Flexibility Score: inf
ROOT
ATOM      1  C   UNL     1     136.185 134.652 136.478  1.00  0.00     0.039 C 
ATOM      2  C   UNL     1     137.570 134.381 135.968  1.00  0.00    -0.073 C 
ATOM      3  C   UNL     1     138.222 133.217 136.229  1.00  0.00    -0.027 C 
ATOM      4  C   UNL     1     139.638 133.025 135.678  1.00  0.00     0.031 C 
ATOM      5  C   UNL     1     140.104 134.306 134.912  1.00  0.00     0.003 C 
ATOM      6  C   UNL     1     139.752 135.528 135.793  1.00  0.00     0.004 C 
ATOM      7  C   UNL     1     138.332 135.443 135.176  1.00  0.00     0.024 C 
ATOM      8  C   UNL     1     139.012 134.813 133.937  1.00  0.00    -0.022 C 
ATOM      9  C   UNL     1     139.622 135.921 133.023  1.00  0.00     0.008 C 
ATOM     10  C   UNL     1     140.129 137.146 133.830  1.00  0.00     0.005 C 
ATOM     11  C   UNL     1     140.539 136.776 135.290  1.00  0.00    -0.005 C 
ATOM     12  C   UNL     1     138.226 133.777 133.101  1.00  0.00     0.012 C 
ENDROOT
BRANCH  11  13
ATOM     13  C   UNL     1     140.473 137.962 136.297  1.00  0.00    -0.014 C 
ATOM     14  C   UNL     1     139.915 137.585 137.681  1.00  0.00     0.007 C 
ATOM     15  C   UNL     1     139.699 139.155 135.716  1.00  0.00     0.007 C 
ENDBRANCH  11  13
TORSDOF 1
ENDMDL
MODEL 5
REMARK VINA RESULT:    -4.894      4.260      7.323
REMARK INTER + INTRA:          -5.604
REMARK INTER:                  -5.358
REMARK INTRA:                  -0.247
REMARK UNBOUND:                -0.425
REMARK SMILES CC1=CC[C@@H]2[C@H]3[C@H](C(C)C)CC[C@]2(C)[C@@H]13
REMARK SMILES IDX 1 1 2 2 3 3 4 4 5 5 6 6 15 7 13 8 12 9 11 10 7 11 14 12 8 13
REMARK SMILES IDX 9 14 10 15
REMARK H PARENT
REMARK Flexibility Score: inf
ROOT
ATOM      1  C   UNL     1     134.946 134.466 136.499  1.00  0.00     0.039 C 
ATOM      2  C   UNL     1     136.306 134.118 137.027  1.00  0.00    -0.073 C 
ATOM      3  C   UNL     1     136.500 133.696 138.305  1.00  0.00    -0.027 C 
ATOM      4  C   UNL     1     137.923 133.369 138.767  1.00  0.00     0.031 C 
ATOM      5  C   UNL     1     138.946 133.646 137.617  1.00  0.00     0.003 C 
ATOM      6  C   UNL     1     138.604 135.028 137.013  1.00  0.00     0.004 C 
ATOM      7  C   UNL     1     137.549 134.284 136.153  1.00  0.00     0.024 C 
ATOM      8  C   UNL     1     138.467 133.044 136.273  1.00  0.00    -0.022 C 
ATOM      9  C   UNL     1     139.632 133.122 135.237  1.00  0.00     0.008 C 
ATOM     10  C   UNL     1     140.084 134.580 134.958  1.00  0.00     0.005 C 
ATOM     11  C   UNL     1     139.806 135.535 136.161  1.00  0.00    -0.005 C 
ATOM     12  C   UNL     1     137.824 131.637 136.278  1.00  0.00     0.012 C 
ENDROOT
BRANCH  11  13
ATOM     13  C   UNL     1     139.662 137.036 135.769  1.00  0.00    -0.014 C 
ATOM     14  C   UNL     1     139.486 137.280 134.260  1.00  0.00     0.007 C 
ATOM     15  C   UNL     1     140.825 137.878 136.314  1.00  0.00     0.007 C 
ENDBRANCH  11  13
TORSDOF 1
ENDMDL
MODEL 6
REMARK VINA RESULT:    -4.861      2.796      4.679
REMARK INTER + INTRA:          -5.570
REMARK INTER:                  -5.327
REMARK INTRA:                  -0.243
REMARK UNBOUND:                -0.425
REMARK SMILES CC1=CC[C@@H]2[C@H]3[C@H](C(C)C)CC[C@]2(C)[C@@H]13
REMARK SMILES IDX 1 1 2 2 3 3 4 4 5 5 6 6 15 7 13 8 12 9 11 10 7 11 14 12 8 13
REMARK SMILES IDX 9 14 10 15
REMARK H PARENT
REMARK Flexibility Score: inf
ROOT
ATOM      1  C   UNL     1     134.501 137.710 136.232  1.00  0.00     0.039 C 
ATOM      2  C   UNL     1     134.156 136.389 136.854  1.00  0.00    -0.073 C 
ATOM      3  C   UNL     1     133.764 136.280 138.151  1.00  0.00    -0.027 C 
ATOM      4  C   UNL     1     133.439 134.891 138.711  1.00  0.00     0.031 C 
ATOM      5  C   UNL     1     133.681 133.795 137.622  1.00  0.00     0.003 C 
ATOM      6  C   UNL     1     135.050 134.086 136.964  1.00  0.00     0.004 C 
ATOM      7  C   UNL     1     134.293 135.091 136.057  1.00  0.00     0.024 C 
ATOM      8  C   UNL     1     133.049 134.193 136.265  1.00  0.00    -0.022 C 
ATOM      9  C   UNL     1     133.094 132.965 135.303  1.00  0.00     0.008 C 
ATOM     10  C   UNL     1     134.542 132.484 135.018  1.00  0.00     0.005 C 
ATOM     11  C   UNL     1     135.528 132.829 136.178  1.00  0.00    -0.005 C 
ATOM     12  C   UNL     1     131.648 134.847 136.262  1.00  0.00     0.012 C 
ENDROOT
BRANCH  11  13
ATOM     13  C   UNL     1     137.020 132.936 135.742  1.00  0.00    -0.014 C 
ATOM     14  C   UNL     1     137.232 132.960 134.218  1.00  0.00     0.007 C 
ATOM     15  C   UNL     1     137.877 131.834 136.383  1.00  0.00     0.007 C 
ENDBRANCH  11  13
TORSDOF 1
ENDMDL
MODEL 7
REMARK VINA RESULT:    -4.841      3.395      6.015
REMARK INTER + INTRA:          -5.549
REMARK INTER:                  -5.278
REMARK INTRA:                  -0.271
REMARK UNBOUND:                -0.425
REMARK SMILES CC1=CC[C@@H]2[C@H]3[C@H](C(C)C)CC[C@]2(C)[C@@H]13
REMARK SMILES IDX 1 1 2 2 3 3 4 4 5 5 6 6 15 7 13 8 12 9 11 10 7 11 14 12 8 13
REMARK SMILES IDX 9 14 10 15
REMARK H PARENT
REMARK Flexibility Score: inf
ROOT
ATOM      1  C   UNL     1     138.180 134.857 136.586  1.00  0.00     0.039 C 
ATOM      2  C   UNL     1     138.529 136.207 137.138  1.00  0.00    -0.073 C 
ATOM      3  C   UNL     1     139.008 136.372 138.399  1.00  0.00    -0.027 C 
ATOM      4  C   UNL     1     139.332 137.788 138.888  1.00  0.00     0.031 C 
ATOM      5  C   UNL     1     138.982 138.838 137.783  1.00  0.00     0.003 C 
ATOM      6  C   UNL     1     137.580 138.488 137.234  1.00  0.00     0.004 C 
ATOM      7  C   UNL     1     138.300 137.472 136.310  1.00  0.00     0.024 C 
ATOM      8  C   UNL     1     139.528 138.409 136.399  1.00  0.00    -0.022 C 
ATOM      9  C   UNL     1     139.381 139.601 135.402  1.00  0.00     0.008 C 
ATOM     10  C   UNL     1     137.903 140.034 135.205  1.00  0.00     0.005 C 
ATOM     11  C   UNL     1     137.011 139.704 136.443  1.00  0.00    -0.005 C 
ATOM     12  C   UNL     1     140.944 137.793 136.318  1.00  0.00     0.012 C 
ENDROOT
BRANCH  11  13
ATOM     13  C   UNL     1     135.496 139.542 136.118  1.00  0.00    -0.014 C 
ATOM     14  C   UNL     1     135.208 138.966 134.720  1.00  0.00     0.007 C 
ATOM     15  C   UNL     1     134.731 140.858 136.321  1.00  0.00     0.007 C 
ENDBRANCH  11  13
TORSDOF 1
ENDMDL
MODEL 8
REMARK VINA RESULT:    -4.832      1.511      2.369
REMARK INTER + INTRA:          -5.539
REMARK INTER:                  -5.223
REMARK INTRA:                  -0.317
REMARK UNBOUND:                -0.425
REMARK SMILES CC1=CC[C@@H]2[C@H]3[C@H](C(C)C)CC[C@]2(C)[C@@H]13
REMARK SMILES IDX 1 1 2 2 3 3 4 4 5 5 6 6 15 7 13 8 12 9 11 10 7 11 14 12 8 13
REMARK SMILES IDX 9 14 10 15
REMARK H PARENT
REMARK Flexibility Score: inf
ROOT
ATOM      1  C   UNL     1     137.805 138.169 136.711  1.00  0.00     0.039 C 
ATOM      2  C   UNL     1     136.447 138.527 137.237  1.00  0.00    -0.073 C 
ATOM      3  C   UNL     1     136.264 139.035 138.485  1.00  0.00    -0.027 C 
ATOM      4  C   UNL     1     134.842 139.366 138.947  1.00  0.00     0.031 C 
ATOM      5  C   UNL     1     133.807 138.990 137.836  1.00  0.00     0.003 C 
ATOM      6  C   UNL     1     134.167 137.575 137.325  1.00  0.00     0.004 C 
ATOM      7  C   UNL     1     135.194 138.276 136.398  1.00  0.00     0.024 C 
ATOM      8  C   UNL     1     134.253 139.505 136.446  1.00  0.00    -0.022 C 
ATOM      9  C   UNL     1     133.074 139.331 135.438  1.00  0.00     0.008 C 
ATOM     10  C   UNL     1     132.647 137.849 135.269  1.00  0.00     0.005 C 
ATOM     11  C   UNL     1     132.963 136.986 136.531  1.00  0.00    -0.005 C 
ATOM     12  C   UNL     1     134.868 140.920 136.341  1.00  0.00     0.012 C 
ENDROOT
BRANCH  11  13
ATOM     13  C   UNL     1     133.131 135.464 136.244  1.00  0.00    -0.014 C 
ATOM     14  C   UNL     1     131.814 134.669 136.264  1.00  0.00     0.007 C 
ATOM     15  C   UNL     1     134.158 134.820 137.187  1.00  0.00     0.007 C 
ENDBRANCH  11  13
TORSDOF 1
ENDMDL
MODEL 9
REMARK VINA RESULT:    -4.649      2.584      4.732
REMARK INTER + INTRA:          -5.346
REMARK INTER:                  -5.110
REMARK INTRA:                  -0.235
REMARK UNBOUND:                -0.425
REMARK SMILES CC1=CC[C@@H]2[C@H]3[C@H](C(C)C)CC[C@]2(C)[C@@H]13
REMARK SMILES IDX 1 1 2 2 3 3 4 4 5 5 6 6 15 7 13 8 12 9 11 10 7 11 14 12 8 13
REMARK SMILES IDX 9 14 10 15
REMARK H PARENT
REMARK Flexibility Score: inf
ROOT
ATOM      1  C   UNL     1     131.866 136.351 132.591  1.00  0.00     0.039 C 
ATOM      2  C   UNL     1     132.724 136.093 133.794  1.00  0.00    -0.073 C 
ATOM      3  C   UNL     1     133.172 137.097 134.593  1.00  0.00    -0.027 C 
ATOM      4  C   UNL     1     134.052 136.747 135.797  1.00  0.00     0.031 C 
ATOM      5  C   UNL     1     134.317 135.206 135.848  1.00  0.00     0.003 C 
ATOM      6  C   UNL     1     134.704 134.753 134.421  1.00  0.00     0.004 C 
ATOM      7  C   UNL     1     133.182 134.675 134.136  1.00  0.00     0.024 C 
ATOM      8  C   UNL     1     133.010 134.399 135.649  1.00  0.00    -0.022 C 
ATOM      9  C   UNL     1     133.288 132.896 135.967  1.00  0.00     0.008 C 
ATOM     10  C   UNL     1     134.363 132.279 135.033  1.00  0.00     0.005 C 
ATOM     11  C   UNL     1     135.365 133.343 134.484  1.00  0.00    -0.005 C 
ATOM     12  C   UNL     1     131.723 134.885 136.354  1.00  0.00     0.012 C 
ENDROOT
BRANCH  11  13
ATOM     13  C   UNL     1     136.049 132.949 133.141  1.00  0.00    -0.014 C 
ATOM     14  C   UNL     1     135.558 131.615 132.550  1.00  0.00     0.007 C 
ATOM     15  C   UNL     1     137.580 132.947 133.266  1.00  0.00     0.007 C 
ENDBRANCH  11  13
TORSDOF 1
ENDMDL
