MODEL 1
REMARK VINA RESULT:    18.066      0.000      0.000
REMARK INTER + INTRA:          47.551
REMARK INTER:                  47.639
REMARK INTRA:                  -0.088
REMARK UNBOUND:                -0.088
REMARK SMILES CCCCCCCCCCCCCCCCCCCCCCCCCCCCCC(=O)[O-]
REMARK SMILES IDX 16 1 17 2 18 3 19 4 20 5 21 6 22 7 23 8 24 9 25 10 26 11
REMARK SMILES IDX 27 12 28 13 29 14 30 15 31 16 32 17 15 18 14 19 13 20 12 21
REMARK SMILES IDX 11 22 10 23 9 24 8 25 7 26 6 27 5 28 4 29 3 30 2 31 1 32
REMARK H PARENT
REMARK Flexibility Score: inf
ROOT
ATOM      1  C   UNL     1       5.183  41.394  15.124  1.00  0.00     0.000 C 
ENDROOT
BRANCH   1   2
ATOM      2  C   UNL     1       5.501  40.742  16.480  1.00  0.00     0.000 C 
BRANCH   2   3
ATOM      3  C   UNL     1       4.663  41.327  17.633  1.00  0.00     0.000 C 
BRANCH   3   4
ATOM      4  C   UNL     1       4.458  40.384  18.838  1.00  0.00     0.000 C 
BRANCH   4   5
ATOM      5  C   UNL     1       4.759  41.006  20.214  1.00  0.00     0.000 C 
BRANCH   5   6
ATOM      6  C   UNL     1       3.567  41.046  21.190  1.00  0.00     0.000 C 
BRANCH   6   7
ATOM      7  C   UNL     1       2.197  41.230  20.499  1.00  0.00     0.000 C 
BRANCH   7   8
ATOM      8  C   UNL     1       1.928  42.693  20.103  1.00  0.00     0.000 C 
BRANCH   8   9
ATOM      9  C   UNL     1       3.176  43.585  20.282  1.00  0.00     0.000 C 
BRANCH   9  10
ATOM     10  C   UNL     1       3.525  43.871  21.754  1.00  0.00     0.000 C 
BRANCH  10  11
ATOM     11  C   UNL     1       5.036  43.819  22.028  1.00  0.00     0.000 C 
BRANCH  11  12
ATOM     12  C   UNL     1       5.499  44.845  23.081  1.00  0.00     0.000 C 
BRANCH  12  13
ATOM     13  C   UNL     1       5.142  44.498  24.538  1.00  0.00     0.006 C 
BRANCH  13  14
ATOM     14  C   UNL     1       6.358  44.506  25.471  1.00  0.00     0.053 C 
BRANCH  14  15
ATOM     15  C   UNL     1       7.413  43.571  24.968  1.00  0.00     0.041 C 
ATOM     16  O   UNL     1       8.220  43.944  24.073  1.00  0.00    -0.550 OA
ATOM     17  O   UNL     1       7.499  42.284  25.482  1.00  0.00    -0.550 OA
ENDBRANCH  14  15
ENDBRANCH  13  14
ENDBRANCH  12  13
ENDBRANCH  11  12
ENDBRANCH  10  11
ENDBRANCH   9  10
ENDBRANCH   8   9
ENDBRANCH   7   8
ENDBRANCH   6   7
ENDBRANCH   5   6
ENDBRANCH   4   5
ENDBRANCH   3   4
ENDBRANCH   2   3
ENDBRANCH   1   2
BRANCH   1  18
ATOM     18  C   UNL     1       5.922  42.727  14.909  1.00  0.00     0.000 C 
BRANCH  18  19
ATOM     19  C   UNL     1       5.703  43.308  13.497  1.00  0.00     0.000 C 
BRANCH  19  20
ATOM     20  C   UNL     1       6.943  44.041  12.941  1.00  0.00     0.000 C 
BRANCH  20  21
ATOM     21  C   UNL     1       8.044  43.106  12.408  1.00  0.00     0.000 C 
BRANCH  21  22
ATOM     22  C   UNL     1       8.056  42.898  10.881  1.00  0.00     0.000 C 
BRANCH  22  23
ATOM     23  C   UNL     1       7.030  41.883  10.346  1.00  0.00     0.000 C 
BRANCH  23  24
ATOM     24  C   UNL     1       5.722  42.541   9.877  1.00  0.00    -0.000 C 
BRANCH  24  25
ATOM     25  C   UNL     1       5.797  44.078   9.875  1.00  0.00    -0.000 C 
BRANCH  25  26
ATOM     26  C   UNL     1       4.488  44.765  10.324  1.00  0.00    -0.000 C 
BRANCH  26  27
ATOM     27  C   UNL     1       3.289  43.801  10.297  1.00  0.00    -0.000 C 
BRANCH  27  28
ATOM     28  C   UNL     1       2.859  43.347  11.704  1.00  0.00    -0.000 C 
BRANCH  28  29
ATOM     29  C   UNL     1       1.415  43.716  12.095  1.00  0.00    -0.000 C 
BRANCH  29  30
ATOM     30  C   UNL     1       0.355  43.491  10.995  1.00  0.00    -0.000 C 
BRANCH  30  31
ATOM     31  C   UNL     1       0.467  42.149  10.252  1.00  0.00    -0.003 C 
ATOM     32  C   UNL     1      -0.529  41.108  10.757  1.00  0.00     0.004 C 
ENDBRANCH  30  31
ENDBRANCH  29  30
ENDBRANCH  28  29
ENDBRANCH  27  28
ENDBRANCH  26  27
ENDBRANCH  25  26
ENDBRANCH  24  25
ENDBRANCH  23  24
ENDBRANCH  22  23
ENDBRANCH  21  22
ENDBRANCH  20  21
ENDBRANCH  19  20
ENDBRANCH  18  19
ENDBRANCH   1  18
TORSDOF 28
ENDMDL
MODEL 2
REMARK VINA RESULT:    18.318      2.792      4.324
REMARK INTER + INTRA:          48.213
REMARK INTER:                  48.016
REMARK INTRA:                   0.197
REMARK UNBOUND:                -0.088
REMARK SMILES CCCCCCCCCCCCCCCCCCCCCCCCCCCCCC(=O)[O-]
REMARK SMILES IDX 16 1 17 2 18 3 19 4 20 5 21 6 22 7 23 8 24 9 25 10 26 11
REMARK SMILES IDX 27 12 28 13 29 14 30 15 31 16 32 17 15 18 14 19 13 20 12 21
REMARK SMILES IDX 11 22 10 23 9 24 8 25 7 26 6 27 5 28 4 29 3 30 2 31 1 32
REMARK H PARENT
REMARK Flexibility Score: inf
ROOT
ATOM      1  C   UNL     1       7.322  42.070  13.993  1.00  0.00     0.000 C 
ENDROOT
BRANCH   1   2
ATOM      2  C   UNL     1       5.869  42.430  13.641  1.00  0.00     0.000 C 
BRANCH   2   3
ATOM      3  C   UNL     1       5.059  42.899  14.865  1.00  0.00     0.000 C 
BRANCH   3   4
ATOM      4  C   UNL     1       5.422  42.205  16.196  1.00  0.00     0.000 C 
BRANCH   4   5
ATOM      5  C   UNL     1       5.031  40.719  16.286  1.00  0.00     0.000 C 
BRANCH   5   6
ATOM      6  C   UNL     1       5.981  39.840  17.123  1.00  0.00     0.000 C 
BRANCH   6   7
ATOM      7  C   UNL     1       5.660  39.834  18.634  1.00  0.00     0.000 C 
BRANCH   7   8
ATOM      8  C   UNL     1       4.461  40.733  18.986  1.00  0.00     0.000 C 
BRANCH   8   9
ATOM      9  C   UNL     1       3.949  40.488  20.422  1.00  0.00     0.000 C 
BRANCH   9  10
ATOM     10  C   UNL     1       3.546  41.776  21.164  1.00  0.00     0.000 C 
BRANCH  10  11
ATOM     11  C   UNL     1       4.249  43.026  20.609  1.00  0.00     0.000 C 
BRANCH  11  12
ATOM     12  C   UNL     1       4.324  44.181  21.627  1.00  0.00     0.000 C 
BRANCH  12  13
ATOM     13  C   UNL     1       2.966  44.728  22.103  1.00  0.00     0.006 C 
BRANCH  13  14
ATOM     14  C   UNL     1       1.784  44.187  21.291  1.00  0.00     0.053 C 
BRANCH  14  15
ATOM     15  C   UNL     1       1.770  44.785  19.920  1.00  0.00     0.041 C 
ATOM     16  O   UNL     1       2.851  44.991  19.303  1.00  0.00    -0.550 OA
ATOM     17  O   UNL     1       0.561  45.125  19.326  1.00  0.00    -0.550 OA
ENDBRANCH  14  15
ENDBRANCH  13  14
ENDBRANCH  12  13
ENDBRANCH  11  12
ENDBRANCH  10  11
ENDBRANCH   9  10
ENDBRANCH   8   9
ENDBRANCH   7   8
ENDBRANCH   6   7
ENDBRANCH   5   6
ENDBRANCH   4   5
ENDBRANCH   3   4
ENDBRANCH   2   3
ENDBRANCH   1   2
BRANCH   1  18
ATOM     18  C   UNL     1       8.154  41.656  12.766  1.00  0.00     0.000 C 
BRANCH  18  19
ATOM     19  C   UNL     1       7.400  41.867  11.437  1.00  0.00     0.000 C 
BRANCH  19  20
ATOM     20  C   UNL     1       7.173  43.355  11.095  1.00  0.00     0.000 C 
BRANCH  20  21
ATOM     21  C   UNL     1       6.246  43.592   9.888  1.00  0.00     0.000 C 
BRANCH  21  22
ATOM     22  C   UNL     1       5.490  44.936   9.886  1.00  0.00     0.000 C 
BRANCH  22  23
ATOM     23  C   UNL     1       3.989  44.847  10.215  1.00  0.00     0.000 C 
BRANCH  23  24
ATOM     24  C   UNL     1       3.715  44.523  11.693  1.00  0.00    -0.000 C 
BRANCH  24  25
ATOM     25  C   UNL     1       2.797  43.302  11.872  1.00  0.00    -0.000 C 
BRANCH  25  26
ATOM     26  C   UNL     1       1.562  43.313  10.943  1.00  0.00    -0.000 C 
BRANCH  26  27
ATOM     27  C   UNL     1       0.254  43.547  11.719  1.00  0.00    -0.000 C 
BRANCH  27  28
ATOM     28  C   UNL     1       0.419  44.551  12.874  1.00  0.00    -0.000 C 
BRANCH  28  29
ATOM     29  C   UNL     1      -0.334  44.185  14.169  1.00  0.00    -0.000 C 
BRANCH  29  30
ATOM     30  C   UNL     1      -1.562  43.269  13.981  1.00  0.00    -0.000 C 
BRANCH  30  31
ATOM     31  C   UNL     1      -2.481  43.157  15.209  1.00  0.00    -0.003 C 
ATOM     32  C   UNL     1      -3.390  44.372  15.383  1.00  0.00     0.004 C 
ENDBRANCH  30  31
ENDBRANCH  29  30
ENDBRANCH  28  29
ENDBRANCH  27  28
ENDBRANCH  26  27
ENDBRANCH  25  26
ENDBRANCH  24  25
ENDBRANCH  23  24
ENDBRANCH  22  23
ENDBRANCH  21  22
ENDBRANCH  20  21
ENDBRANCH  19  20
ENDBRANCH  18  19
ENDBRANCH   1  18
TORSDOF 28
ENDMDL
MODEL 3
REMARK VINA RESULT:    18.512      1.725      2.646
REMARK INTER + INTRA:          48.727
REMARK INTER:                  49.769
REMARK INTRA:                  -1.042
REMARK UNBOUND:                -0.088
REMARK SMILES CCCCCCCCCCCCCCCCCCCCCCCCCCCCCC(=O)[O-]
REMARK SMILES IDX 16 1 17 2 18 3 19 4 20 5 21 6 22 7 23 8 24 9 25 10 26 11
REMARK SMILES IDX 27 12 28 13 29 14 30 15 31 16 32 17 15 18 14 19 13 20 12 21
REMARK SMILES IDX 11 22 10 23 9 24 8 25 7 26 6 27 5 28 4 29 3 30 2 31 1 32
REMARK H PARENT
REMARK Flexibility Score: inf
ROOT
ATOM      1  C   UNL     1       6.504  41.980  15.141  1.00  0.00     0.000 C 
ENDROOT
BRANCH   1   2
ATOM      2  C   UNL     1       5.853  40.693  15.675  1.00  0.00     0.000 C 
BRANCH   2   3
ATOM      3  C   UNL     1       6.367  40.302  17.073  1.00  0.00     0.000 C 
BRANCH   3   4
ATOM      4  C   UNL     1       5.269  40.079  18.136  1.00  0.00     0.000 C 
BRANCH   4   5
ATOM      5  C   UNL     1       5.273  41.087  19.300  1.00  0.00     0.000 C 
BRANCH   5   6
ATOM      6  C   UNL     1       4.647  40.575  20.612  1.00  0.00     0.000 C 
BRANCH   6   7
ATOM      7  C   UNL     1       3.321  39.807  20.416  1.00  0.00     0.000 C 
BRANCH   7   8
ATOM      8  C   UNL     1       2.117  40.748  20.227  1.00  0.00     0.000 C 
BRANCH   8   9
ATOM      9  C   UNL     1       2.142  41.934  21.215  1.00  0.00     0.000 C 
BRANCH   9  10
ATOM     10  C   UNL     1       2.466  43.285  20.553  1.00  0.00     0.000 C 
BRANCH  10  11
ATOM     11  C   UNL     1       3.567  44.062  21.293  1.00  0.00     0.000 C 
BRANCH  11  12
ATOM     12  C   UNL     1       4.982  43.516  21.021  1.00  0.00     0.000 C 
BRANCH  12  13
ATOM     13  C   UNL     1       6.072  44.000  21.994  1.00  0.00     0.006 C 
BRANCH  13  14
ATOM     14  C   UNL     1       6.430  42.959  23.060  1.00  0.00     0.053 C 
BRANCH  14  15
ATOM     15  C   UNL     1       6.726  43.623  24.367  1.00  0.00     0.041 C 
ATOM     16  O   UNL     1       7.909  43.951  24.662  1.00  0.00    -0.550 OA
ATOM     17  O   UNL     1       5.697  43.872  25.265  1.00  0.00    -0.550 OA
ENDBRANCH  14  15
ENDBRANCH  13  14
ENDBRANCH  12  13
ENDBRANCH  11  12
ENDBRANCH  10  11
ENDBRANCH   9  10
ENDBRANCH   8   9
ENDBRANCH   7   8
ENDBRANCH   6   7
ENDBRANCH   5   6
ENDBRANCH   4   5
ENDBRANCH   3   4
ENDBRANCH   2   3
ENDBRANCH   1   2
BRANCH   1  18
ATOM     18  C   UNL     1       7.219  41.779  13.793  1.00  0.00     0.000 C 
BRANCH  18  19
ATOM     19  C   UNL     1       6.745  42.773  12.713  1.00  0.00     0.000 C 
BRANCH  19  20
ATOM     20  C   UNL     1       5.737  43.815  13.245  1.00  0.00     0.000 C 
BRANCH  20  21
ATOM     21  C   UNL     1       5.534  45.028  12.319  1.00  0.00     0.000 C 
BRANCH  21  22
ATOM     22  C   UNL     1       4.151  45.125  11.646  1.00  0.00     0.000 C 
BRANCH  22  23
ATOM     23  C   UNL     1       4.088  44.617  10.194  1.00  0.00     0.000 C 
BRANCH  23  24
ATOM     24  C   UNL     1       4.085  43.083  10.093  1.00  0.00    -0.000 C 
BRANCH  24  25
ATOM     25  C   UNL     1       3.142  42.423  11.114  1.00  0.00    -0.000 C 
BRANCH  25  26
ATOM     26  C   UNL     1       1.654  42.457  10.698  1.00  0.00    -0.000 C 
BRANCH  26  27
ATOM     27  C   UNL     1       0.929  43.701  11.239  1.00  0.00    -0.000 C 
BRANCH  27  28
ATOM     28  C   UNL     1      -0.195  43.351  12.230  1.00  0.00    -0.000 C 
BRANCH  28  29
ATOM     29  C   UNL     1      -0.459  44.411  13.317  1.00  0.00    -0.000 C 
BRANCH  29  30
ATOM     30  C   UNL     1      -0.648  43.859  14.746  1.00  0.00    -0.000 C 
BRANCH  30  31
ATOM     31  C   UNL     1      -2.059  43.331  15.057  1.00  0.00    -0.003 C 
ATOM     32  C   UNL     1      -2.474  42.179  14.144  1.00  0.00     0.004 C 
ENDBRANCH  30  31
ENDBRANCH  29  30
ENDBRANCH  28  29
ENDBRANCH  27  28
ENDBRANCH  26  27
ENDBRANCH  25  26
ENDBRANCH  24  25
ENDBRANCH  23  24
ENDBRANCH  22  23
ENDBRANCH  21  22
ENDBRANCH  20  21
ENDBRANCH  19  20
ENDBRANCH  18  19
ENDBRANCH   1  18
TORSDOF 28
ENDMDL
MODEL 4
REMARK VINA RESULT:    18.579      1.463      2.374
REMARK INTER + INTRA:          48.903
REMARK INTER:                  49.519
REMARK INTRA:                  -0.615
REMARK UNBOUND:                -0.088
REMARK SMILES CCCCCCCCCCCCCCCCCCCCCCCCCCCCCC(=O)[O-]
REMARK SMILES IDX 16 1 17 2 18 3 19 4 20 5 21 6 22 7 23 8 24 9 25 10 26 11
REMARK SMILES IDX 27 12 28 13 29 14 30 15 31 16 32 17 15 18 14 19 13 20 12 21
REMARK SMILES IDX 11 22 10 23 9 24 8 25 7 26 6 27 5 28 4 29 3 30 2 31 1 32
REMARK H PARENT
REMARK Flexibility Score: inf
ROOT
ATOM      1  C   UNL     1       4.684  40.385  17.864  1.00  0.00     0.000 C 
ENDROOT
BRANCH   1   2
ATOM      2  C   UNL     1       5.618  40.507  19.079  1.00  0.00     0.000 C 
BRANCH   2   3
ATOM      3  C   UNL     1       4.917  40.159  20.406  1.00  0.00     0.000 C 
BRANCH   3   4
ATOM      4  C   UNL     1       3.551  39.454  20.260  1.00  0.00     0.000 C 
BRANCH   4   5
ATOM      5  C   UNL     1       2.332  40.393  20.218  1.00  0.00     0.000 C 
BRANCH   5   6
ATOM      6  C   UNL     1       2.515  41.737  20.951  1.00  0.00     0.000 C 
BRANCH   6   7
ATOM      7  C   UNL     1       1.522  42.833  20.506  1.00  0.00     0.000 C 
BRANCH   7   8
ATOM      8  C   UNL     1       1.931  44.234  20.999  1.00  0.00     0.000 C 
BRANCH   8   9
ATOM      9  C   UNL     1       3.363  44.611  20.562  1.00  0.00     0.000 C 
BRANCH   9  10
ATOM     10  C   UNL     1       4.356  43.436  20.618  1.00  0.00     0.000 C 
BRANCH  10  11
ATOM     11  C   UNL     1       5.160  43.397  21.927  1.00  0.00     0.000 C 
BRANCH  11  12
ATOM     12  C   UNL     1       4.803  44.545  22.893  1.00  0.00     0.000 C 
BRANCH  12  13
ATOM     13  C   UNL     1       5.307  44.371  24.337  1.00  0.00     0.006 C 
BRANCH  13  14
ATOM     14  C   UNL     1       6.465  43.374  24.451  1.00  0.00     0.053 C 
BRANCH  14  15
ATOM     15  C   UNL     1       7.757  44.091  24.681  1.00  0.00     0.041 C 
ATOM     16  O   UNL     1       7.842  44.986  25.566  1.00  0.00    -0.550 OA
ATOM     17  O   UNL     1       8.869  43.779  23.909  1.00  0.00    -0.550 OA
ENDBRANCH  14  15
ENDBRANCH  13  14
ENDBRANCH  12  13
ENDBRANCH  11  12
ENDBRANCH  10  11
ENDBRANCH   9  10
ENDBRANCH   8   9
ENDBRANCH   7   8
ENDBRANCH   6   7
ENDBRANCH   5   6
ENDBRANCH   4   5
ENDBRANCH   3   4
ENDBRANCH   2   3
ENDBRANCH   1   2
BRANCH   1  18
ATOM     18  C   UNL     1       5.401  40.635  16.525  1.00  0.00     0.000 C 
BRANCH  18  19
ATOM     19  C   UNL     1       4.951  41.944  15.844  1.00  0.00     0.000 C 
BRANCH  19  20
ATOM     20  C   UNL     1       5.834  42.340  14.641  1.00  0.00     0.000 C 
BRANCH  20  21
ATOM     21  C   UNL     1       5.100  43.152  13.558  1.00  0.00     0.000 C 
BRANCH  21  22
ATOM     22  C   UNL     1       5.989  44.082  12.709  1.00  0.00     0.000 C 
BRANCH  22  23
ATOM     23  C   UNL     1       6.333  43.560  11.302  1.00  0.00     0.000 C 
BRANCH  23  24
ATOM     24  C   UNL     1       5.116  43.512  10.364  1.00  0.00    -0.000 C 
BRANCH  24  25
ATOM     25  C   UNL     1       4.131  44.668  10.610  1.00  0.00    -0.000 C 
BRANCH  25  26
ATOM     26  C   UNL     1       2.650  44.278  10.399  1.00  0.00    -0.000 C 
BRANCH  26  27
ATOM     27  C   UNL     1       2.203  43.160  11.357  1.00  0.00    -0.000 C 
BRANCH  27  28
ATOM     28  C   UNL     1       0.874  43.480  12.066  1.00  0.00    -0.000 C 
BRANCH  28  29
ATOM     29  C   UNL     1       0.959  44.575  13.147  1.00  0.00    -0.000 C 
BRANCH  29  30
ATOM     30  C   UNL     1      -0.394  45.029  13.734  1.00  0.00    -0.000 C 
BRANCH  30  31
ATOM     31  C   UNL     1      -0.949  44.132  14.853  1.00  0.00    -0.003 C 
ATOM     32  C   UNL     1      -2.092  43.235  14.382  1.00  0.00     0.004 C 
ENDBRANCH  30  31
ENDBRANCH  29  30
ENDBRANCH  28  29
ENDBRANCH  27  28
ENDBRANCH  26  27
ENDBRANCH  25  26
ENDBRANCH  24  25
ENDBRANCH  23  24
ENDBRANCH  22  23
ENDBRANCH  21  22
ENDBRANCH  20  21
ENDBRANCH  19  20
ENDBRANCH  18  19
ENDBRANCH   1  18
TORSDOF 28
ENDMDL
MODEL 5
REMARK VINA RESULT:    19.210      4.780      6.768
REMARK INTER + INTRA:          50.567
REMARK INTER:                  51.454
REMARK INTRA:                  -0.886
REMARK UNBOUND:                -0.088
REMARK SMILES CCCCCCCCCCCCCCCCCCCCCCCCCCCCCC(=O)[O-]
REMARK SMILES IDX 16 1 17 2 18 3 19 4 20 5 21 6 22 7 23 8 24 9 25 10 26 11
REMARK SMILES IDX 27 12 28 13 29 14 30 15 31 16 32 17 15 18 14 19 13 20 12 21
REMARK SMILES IDX 11 22 10 23 9 24 8 25 7 26 6 27 5 28 4 29 3 30 2 31 1 32
REMARK H PARENT
REMARK Flexibility Score: inf
ROOT
ATOM      1  C   UNL     1       6.648  40.320  17.807  1.00  0.00     0.000 C 
ENDROOT
BRANCH   1   2
ATOM      2  C   UNL     1       5.707  39.413  18.616  1.00  0.00     0.000 C 
BRANCH   2   3
ATOM      3  C   UNL     1       4.391  40.114  19.003  1.00  0.00     0.000 C 
BRANCH   3   4
ATOM      4  C   UNL     1       4.477  41.028  20.245  1.00  0.00     0.000 C 
BRANCH   4   5
ATOM      5  C   UNL     1       3.196  41.821  20.561  1.00  0.00     0.000 C 
BRANCH   5   6
ATOM      6  C   UNL     1       1.948  40.964  20.852  1.00  0.00     0.000 C 
BRANCH   6   7
ATOM      7  C   UNL     1       1.856  39.681  19.996  1.00  0.00     0.000 C 
BRANCH   7   8
ATOM      8  C   UNL     1       0.401  39.243  19.746  1.00  0.00     0.000 C 
BRANCH   8   9
ATOM      9  C   UNL     1       0.316  37.847  19.092  1.00  0.00     0.000 C 
BRANCH   9  10
ATOM     10  C   UNL     1       0.252  37.887  17.555  1.00  0.00     0.000 C 
BRANCH  10  11
ATOM     11  C   UNL     1      -0.181  36.545  16.943  1.00  0.00     0.000 C 
BRANCH  11  12
ATOM     12  C   UNL     1      -0.229  35.396  17.970  1.00  0.00     0.000 C 
BRANCH  12  13
ATOM     13  C   UNL     1      -0.214  33.978  17.372  1.00  0.00     0.006 C 
BRANCH  13  14
ATOM     14  C   UNL     1       0.513  32.961  18.259  1.00  0.00     0.053 C 
BRANCH  14  15
ATOM     15  C   UNL     1       1.965  32.896  17.905  1.00  0.00     0.041 C 
ATOM     16  O   UNL     1       2.339  33.073  16.712  1.00  0.00    -0.550 OA
ATOM     17  O   UNL     1       2.906  32.632  18.890  1.00  0.00    -0.550 OA
ENDBRANCH  14  15
ENDBRANCH  13  14
ENDBRANCH  12  13
ENDBRANCH  11  12
ENDBRANCH  10  11
ENDBRANCH   9  10
ENDBRANCH   8   9
ENDBRANCH   7   8
ENDBRANCH   6   7
ENDBRANCH   5   6
ENDBRANCH   4   5
ENDBRANCH   3   4
ENDBRANCH   2   3
ENDBRANCH   1   2
BRANCH   1  18
ATOM     18  C   UNL     1       5.995  40.882  16.532  1.00  0.00     0.000 C 
BRANCH  18  19
ATOM     19  C   UNL     1       7.002  41.070  15.379  1.00  0.00     0.000 C 
BRANCH  19  20
ATOM     20  C   UNL     1       6.570  42.147  14.361  1.00  0.00     0.000 C 
BRANCH  20  21
ATOM     21  C   UNL     1       7.208  41.993  12.968  1.00  0.00     0.000 C 
BRANCH  21  22
ATOM     22  C   UNL     1       7.981  43.222  12.453  1.00  0.00     0.000 C 
BRANCH  22  23
ATOM     23  C   UNL     1       7.392  43.893  11.199  1.00  0.00     0.000 C 
BRANCH  23  24
ATOM     24  C   UNL     1       6.413  42.987  10.435  1.00  0.00    -0.000 C 
BRANCH  24  25
ATOM     25  C   UNL     1       4.979  43.544  10.417  1.00  0.00    -0.000 C 
BRANCH  25  26
ATOM     26  C   UNL     1       4.559  44.220  11.742  1.00  0.00    -0.000 C 
BRANCH  26  27
ATOM     27  C   UNL     1       3.085  44.662  11.725  1.00  0.00    -0.000 C 
BRANCH  27  28
ATOM     28  C   UNL     1       2.120  43.506  11.408  1.00  0.00    -0.000 C 
BRANCH  28  29
ATOM     29  C   UNL     1       0.825  43.490  12.244  1.00  0.00    -0.000 C 
BRANCH  29  30
ATOM     30  C   UNL     1       0.774  44.511  13.401  1.00  0.00    -0.000 C 
BRANCH  30  31
ATOM     31  C   UNL     1      -0.641  44.885  13.875  1.00  0.00    -0.003 C 
ATOM     32  C   UNL     1      -1.386  43.708  14.502  1.00  0.00     0.004 C 
ENDBRANCH  30  31
ENDBRANCH  29  30
ENDBRANCH  28  29
ENDBRANCH  27  28
ENDBRANCH  26  27
ENDBRANCH  25  26
ENDBRANCH  24  25
ENDBRANCH  23  24
ENDBRANCH  22  23
ENDBRANCH  21  22
ENDBRANCH  20  21
ENDBRANCH  19  20
ENDBRANCH  18  19
ENDBRANCH   1  18
TORSDOF 28
ENDMDL
MODEL 6
REMARK VINA RESULT:    19.301      3.661      5.242
REMARK INTER + INTRA:          50.807
REMARK INTER:                  52.585
REMARK INTRA:                  -1.778
REMARK UNBOUND:                -0.088
REMARK SMILES CCCCCCCCCCCCCCCCCCCCCCCCCCCCCC(=O)[O-]
REMARK SMILES IDX 16 1 17 2 18 3 19 4 20 5 21 6 22 7 23 8 24 9 25 10 26 11
REMARK SMILES IDX 27 12 28 13 29 14 30 15 31 16 32 17 15 18 14 19 13 20 12 21
REMARK SMILES IDX 11 22 10 23 9 24 8 25 7 26 6 27 5 28 4 29 3 30 2 31 1 32
REMARK H PARENT
REMARK Flexibility Score: inf
ROOT
ATOM      1  C   UNL     1       5.264  41.393  15.078  1.00  0.00     0.000 C 
ENDROOT
BRANCH   1   2
ATOM      2  C   UNL     1       5.797  40.875  16.424  1.00  0.00     0.000 C 
BRANCH   2   3
ATOM      3  C   UNL     1       4.943  41.336  17.620  1.00  0.00     0.000 C 
BRANCH   3   4
ATOM      4  C   UNL     1       5.077  40.473  18.893  1.00  0.00     0.000 C 
BRANCH   4   5
ATOM      5  C   UNL     1       6.050  41.020  19.953  1.00  0.00     0.000 C 
BRANCH   5   6
ATOM      6  C   UNL     1       5.468  42.106  20.879  1.00  0.00     0.000 C 
BRANCH   6   7
ATOM      7  C   UNL     1       4.573  43.134  20.153  1.00  0.00     0.000 C 
BRANCH   7   8
ATOM      8  C   UNL     1       3.445  43.672  21.052  1.00  0.00     0.000 C 
BRANCH   8   9
ATOM      9  C   UNL     1       2.206  42.751  21.048  1.00  0.00     0.000 C 
BRANCH   9  10
ATOM     10  C   UNL     1       2.345  41.530  20.121  1.00  0.00     0.000 C 
BRANCH  10  11
ATOM     11  C   UNL     1       1.607  40.291  20.653  1.00  0.00     0.000 C 
BRANCH  11  12
ATOM     12  C   UNL     1       1.620  39.106  19.667  1.00  0.00     0.000 C 
BRANCH  12  13
ATOM     13  C   UNL     1       0.403  38.167  19.752  1.00  0.00     0.006 C 
BRANCH  13  14
ATOM     14  C   UNL     1      -0.499  38.242  18.516  1.00  0.00     0.053 C 
BRANCH  14  15
ATOM     15  C   UNL     1       0.099  37.475  17.380  1.00  0.00     0.041 C 
ATOM     16  O   UNL     1       0.665  38.081  16.428  1.00  0.00    -0.550 OA
ATOM     17  O   UNL     1       0.025  36.088  17.366  1.00  0.00    -0.550 OA
ENDBRANCH  14  15
ENDBRANCH  13  14
ENDBRANCH  12  13
ENDBRANCH  11  12
ENDBRANCH  10  11
ENDBRANCH   9  10
ENDBRANCH   8   9
ENDBRANCH   7   8
ENDBRANCH   6   7
ENDBRANCH   5   6
ENDBRANCH   4   5
ENDBRANCH   3   4
ENDBRANCH   2   3
ENDBRANCH   1   2
BRANCH   1  18
ATOM     18  C   UNL     1       5.820  42.779  14.704  1.00  0.00     0.000 C 
BRANCH  18  19
ATOM     19  C   UNL     1       5.119  43.389  13.472  1.00  0.00     0.000 C 
BRANCH  19  20
ATOM     20  C   UNL     1       5.753  44.718  13.007  1.00  0.00     0.000 C 
BRANCH  20  21
ATOM     21  C   UNL     1       6.998  44.547  12.117  1.00  0.00     0.000 C 
BRANCH  21  22
ATOM     22  C   UNL     1       6.727  44.491  10.601  1.00  0.00     0.000 C 
BRANCH  22  23
ATOM     23  C   UNL     1       6.184  43.149  10.079  1.00  0.00     0.000 C 
BRANCH  23  24
ATOM     24  C   UNL     1       4.655  43.139   9.921  1.00  0.00    -0.000 C 
BRANCH  24  25
ATOM     25  C   UNL     1       4.041  44.548   9.998  1.00  0.00    -0.000 C 
BRANCH  25  26
ATOM     26  C   UNL     1       2.636  44.579  10.640  1.00  0.00    -0.000 C 
BRANCH  26  27
ATOM     27  C   UNL     1       2.103  43.166  10.937  1.00  0.00    -0.000 C 
BRANCH  27  28
ATOM     28  C   UNL     1       0.568  43.122  11.055  1.00  0.00    -0.000 C 
BRANCH  28  29
ATOM     29  C   UNL     1       0.029  42.945  12.488  1.00  0.00    -0.000 C 
BRANCH  29  30
ATOM     30  C   UNL     1       0.017  44.224  13.351  1.00  0.00    -0.000 C 
BRANCH  30  31
ATOM     31  C   UNL     1      -0.871  44.153  14.605  1.00  0.00    -0.003 C 
ATOM     32  C   UNL     1      -2.092  43.256  14.415  1.00  0.00     0.004 C 
ENDBRANCH  30  31
ENDBRANCH  29  30
ENDBRANCH  28  29
ENDBRANCH  27  28
ENDBRANCH  26  27
ENDBRANCH  25  26
ENDBRANCH  24  25
ENDBRANCH  23  24
ENDBRANCH  22  23
ENDBRANCH  21  22
ENDBRANCH  20  21
ENDBRANCH  19  20
ENDBRANCH  18  19
ENDBRANCH   1  18
TORSDOF 28
ENDMDL
MODEL 7
REMARK VINA RESULT:    19.317      1.983      3.573
REMARK INTER + INTRA:          50.847
REMARK INTER:                  47.840
REMARK INTRA:                   3.007
REMARK UNBOUND:                -0.088
REMARK SMILES CCCCCCCCCCCCCCCCCCCCCCCCCCCCCC(=O)[O-]
REMARK SMILES IDX 16 1 17 2 18 3 19 4 20 5 21 6 22 7 23 8 24 9 25 10 26 11
REMARK SMILES IDX 27 12 28 13 29 14 30 15 31 16 32 17 15 18 14 19 13 20 12 21
REMARK SMILES IDX 11 22 10 23 9 24 8 25 7 26 6 27 5 28 4 29 3 30 2 31 1 32
REMARK H PARENT
REMARK Flexibility Score: inf
ROOT
ATOM      1  C   UNL     1       7.127  41.940  14.294  1.00  0.00     0.000 C 
ENDROOT
BRANCH   1   2
ATOM      2  C   UNL     1       5.680  42.237  13.865  1.00  0.00     0.000 C 
BRANCH   2   3
ATOM      3  C   UNL     1       4.748  42.508  15.060  1.00  0.00     0.000 C 
BRANCH   3   4
ATOM      4  C   UNL     1       5.277  42.020  16.427  1.00  0.00     0.000 C 
BRANCH   4   5
ATOM      5  C   UNL     1       5.122  40.510  16.686  1.00  0.00     0.000 C 
BRANCH   5   6
ATOM      6  C   UNL     1       6.182  39.894  17.620  1.00  0.00     0.000 C 
BRANCH   6   7
ATOM      7  C   UNL     1       5.982  40.242  19.111  1.00  0.00     0.000 C 
BRANCH   7   8
ATOM      8  C   UNL     1       4.612  40.888  19.387  1.00  0.00     0.000 C 
BRANCH   8   9
ATOM      9  C   UNL     1       3.583  39.869  19.923  1.00  0.00     0.000 C 
BRANCH   9  10
ATOM     10  C   UNL     1       2.559  40.478  20.898  1.00  0.00     0.000 C 
BRANCH  10  11
ATOM     11  C   UNL     1       2.428  42.002  20.748  1.00  0.00     0.000 C 
BRANCH  11  12
ATOM     12  C   UNL     1       3.785  42.733  20.765  1.00  0.00     0.000 C 
BRANCH  12  13
ATOM     13  C   UNL     1       3.836  44.006  21.629  1.00  0.00     0.006 C 
BRANCH  13  14
ATOM     14  C   UNL     1       5.261  44.409  22.020  1.00  0.00     0.053 C 
BRANCH  14  15
ATOM     15  C   UNL     1       5.507  44.134  23.470  1.00  0.00     0.041 C 
ATOM     16  O   UNL     1       6.536  43.500  23.833  1.00  0.00    -0.550 OA
ATOM     17  O   UNL     1       4.594  44.570  24.422  1.00  0.00    -0.550 OA
ENDBRANCH  14  15
ENDBRANCH  13  14
ENDBRANCH  12  13
ENDBRANCH  11  12
ENDBRANCH  10  11
ENDBRANCH   9  10
ENDBRANCH   8   9
ENDBRANCH   7   8
ENDBRANCH   6   7
ENDBRANCH   5   6
ENDBRANCH   4   5
ENDBRANCH   3   4
ENDBRANCH   2   3
ENDBRANCH   1   2
BRANCH   1  18
ATOM     18  C   UNL     1       8.037  41.550  13.116  1.00  0.00     0.000 C 
BRANCH  18  19
ATOM     19  C   UNL     1       7.342  41.711  11.749  1.00  0.00     0.000 C 
BRANCH  19  20
ATOM     20  C   UNL     1       7.102  43.185  11.356  1.00  0.00     0.000 C 
BRANCH  20  21
ATOM     21  C   UNL     1       6.286  43.370  10.064  1.00  0.00     0.000 C 
BRANCH  21  22
ATOM     22  C   UNL     1       5.517  44.701   9.949  1.00  0.00     0.000 C 
BRANCH  22  23
ATOM     23  C   UNL     1       4.003  44.612  10.212  1.00  0.00     0.000 C 
BRANCH  23  24
ATOM     24  C   UNL     1       3.645  44.710  11.704  1.00  0.00    -0.000 C 
BRANCH  24  25
ATOM     25  C   UNL     1       2.338  43.976  12.051  1.00  0.00    -0.000 C 
BRANCH  25  26
ATOM     26  C   UNL     1       1.400  44.781  12.977  1.00  0.00    -0.000 C 
BRANCH  26  27
ATOM     27  C   UNL     1       0.202  43.944  13.460  1.00  0.00    -0.000 C 
BRANCH  27  28
ATOM     28  C   UNL     1      -1.069  44.788  13.666  1.00  0.00    -0.000 C 
BRANCH  28  29
ATOM     29  C   UNL     1      -1.873  44.453  14.937  1.00  0.00    -0.000 C 
BRANCH  29  30
ATOM     30  C   UNL     1      -1.987  42.950  15.270  1.00  0.00    -0.000 C 
BRANCH  30  31
ATOM     31  C   UNL     1      -2.341  42.047  14.076  1.00  0.00    -0.003 C 
ATOM     32  C   UNL     1      -1.653  42.476  12.783  1.00  0.00     0.004 C 
ENDBRANCH  30  31
ENDBRANCH  29  30
ENDBRANCH  28  29
ENDBRANCH  27  28
ENDBRANCH  26  27
ENDBRANCH  25  26
ENDBRANCH  24  25
ENDBRANCH  23  24
ENDBRANCH  22  23
ENDBRANCH  21  22
ENDBRANCH  20  21
ENDBRANCH  19  20
ENDBRANCH  18  19
ENDBRANCH   1  18
TORSDOF 28
ENDMDL
MODEL 8
REMARK VINA RESULT:    19.327      5.282     11.387
REMARK INTER + INTRA:          50.876
REMARK INTER:                  51.923
REMARK INTRA:                  -1.047
REMARK UNBOUND:                -0.088
REMARK SMILES CCCCCCCCCCCCCCCCCCCCCCCCCCCCCC(=O)[O-]
REMARK SMILES IDX 16 1 17 2 18 3 19 4 20 5 21 6 22 7 23 8 24 9 25 10 26 11
REMARK SMILES IDX 27 12 28 13 29 14 30 15 31 16 32 17 15 18 14 19 13 20 12 21
REMARK SMILES IDX 11 22 10 23 9 24 8 25 7 26 6 27 5 28 4 29 3 30 2 31 1 32
REMARK H PARENT
REMARK Flexibility Score: inf
ROOT
ATOM      1  C   UNL     1      -3.220  42.292  14.800  1.00  0.00     0.000 C 
ENDROOT
BRANCH   1   2
ATOM      2  C   UNL     1      -1.886  42.307  14.036  1.00  0.00     0.000 C 
BRANCH   2   3
ATOM      3  C   UNL     1      -1.154  43.657  14.144  1.00  0.00     0.000 C 
BRANCH   3   4
ATOM      4  C   UNL     1      -0.226  43.996  12.956  1.00  0.00     0.000 C 
BRANCH   4   5
ATOM      5  C   UNL     1       0.327  42.779  12.192  1.00  0.00     0.000 C 
BRANCH   5   6
ATOM      6  C   UNL     1       0.904  43.089  10.797  1.00  0.00     0.000 C 
BRANCH   6   7
ATOM      7  C   UNL     1       2.444  43.212  10.769  1.00  0.00     0.000 C 
BRANCH   7   8
ATOM      8  C   UNL     1       2.932  44.607  11.202  1.00  0.00     0.000 C 
BRANCH   8   9
ATOM      9  C   UNL     1       4.471  44.683  11.296  1.00  0.00     0.000 C 
BRANCH   9  10
ATOM     10  C   UNL     1       5.190  44.303   9.989  1.00  0.00     0.000 C 
BRANCH  10  11
ATOM     11  C   UNL     1       6.589  44.930   9.875  1.00  0.00     0.000 C 
BRANCH  11  12
ATOM     12  C   UNL     1       7.705  44.033  10.446  1.00  0.00     0.000 C 
BRANCH  12  13
ATOM     13  C   UNL     1       7.311  42.564  10.686  1.00  0.00     0.006 C 
BRANCH  13  14
ATOM     14  C   UNL     1       7.958  41.967  11.940  1.00  0.00     0.053 C 
BRANCH  14  15
ATOM     15  C   UNL     1       7.157  42.304  13.157  1.00  0.00     0.041 C 
ATOM     16  O   UNL     1       7.198  41.557  14.174  1.00  0.00    -0.550 OA
ATOM     17  O   UNL     1       6.357  43.438  13.167  1.00  0.00    -0.550 OA
ENDBRANCH  14  15
ENDBRANCH  13  14
ENDBRANCH  12  13
ENDBRANCH  11  12
ENDBRANCH  10  11
ENDBRANCH   9  10
ENDBRANCH   8   9
ENDBRANCH   7   8
ENDBRANCH   6   7
ENDBRANCH   5   6
ENDBRANCH   4   5
ENDBRANCH   3   4
ENDBRANCH   2   3
ENDBRANCH   1   2
BRANCH   1  18
ATOM     18  C   UNL     1      -3.922  40.922  14.759  1.00  0.00     0.000 C 
BRANCH  18  19
ATOM     19  C   UNL     1      -5.439  41.022  15.021  1.00  0.00     0.000 C 
BRANCH  19  20
ATOM     20  C   UNL     1      -6.068  39.688  15.476  1.00  0.00     0.000 C 
BRANCH  20  21
ATOM     21  C   UNL     1      -5.155  38.462  15.290  1.00  0.00     0.000 C 
BRANCH  21  22
ATOM     22  C   UNL     1      -4.656  37.803  16.590  1.00  0.00     0.000 C 
BRANCH  22  23
ATOM     23  C   UNL     1      -4.575  36.266  16.561  1.00  0.00     0.000 C 
BRANCH  23  24
ATOM     24  C   UNL     1      -3.220  35.744  16.056  1.00  0.00    -0.000 C 
BRANCH  24  25
ATOM     25  C   UNL     1      -2.479  34.902  17.108  1.00  0.00    -0.000 C 
BRANCH  25  26
ATOM     26  C   UNL     1      -0.988  35.276  17.265  1.00  0.00    -0.000 C 
BRANCH  26  27
ATOM     27  C   UNL     1      -0.727  36.761  16.958  1.00  0.00    -0.000 C 
BRANCH  27  28
ATOM     28  C   UNL     1       0.472  37.329  17.738  1.00  0.00    -0.000 C 
BRANCH  28  29
ATOM     29  C   UNL     1       0.116  38.387  18.801  1.00  0.00    -0.000 C 
BRANCH  29  30
ATOM     30  C   UNL     1       1.247  39.378  19.150  1.00  0.00    -0.000 C 
BRANCH  30  31
ATOM     31  C   UNL     1       1.928  39.134  20.508  1.00  0.00    -0.003 C 
ATOM     32  C   UNL     1       3.393  39.562  20.521  1.00  0.00     0.004 C 
ENDBRANCH  30  31
ENDBRANCH  29  30
ENDBRANCH  28  29
ENDBRANCH  27  28
ENDBRANCH  26  27
ENDBRANCH  25  26
ENDBRANCH  24  25
ENDBRANCH  23  24
ENDBRANCH  22  23
ENDBRANCH  21  22
ENDBRANCH  20  21
ENDBRANCH  19  20
ENDBRANCH  18  19
ENDBRANCH   1  18
TORSDOF 28
ENDMDL
MODEL 9
REMARK VINA RESULT:    19.897      3.395      4.927
REMARK INTER + INTRA:          52.377
REMARK INTER:                  53.708
REMARK INTRA:                  -1.331
REMARK UNBOUND:                -0.088
REMARK SMILES CCCCCCCCCCCCCCCCCCCCCCCCCCCCCC(=O)[O-]
REMARK SMILES IDX 16 1 17 2 18 3 19 4 20 5 21 6 22 7 23 8 24 9 25 10 26 11
REMARK SMILES IDX 27 12 28 13 29 14 30 15 31 16 32 17 15 18 14 19 13 20 12 21
REMARK SMILES IDX 11 22 10 23 9 24 8 25 7 26 6 27 5 28 4 29 3 30 2 31 1 32
REMARK H PARENT
REMARK Flexibility Score: inf
ROOT
ATOM      1  C   UNL     1       5.146  41.411  16.401  1.00  0.00     0.000 C 
ENDROOT
BRANCH   1   2
ATOM      2  C   UNL     1       6.195  40.607  17.187  1.00  0.00     0.000 C 
BRANCH   2   3
ATOM      3  C   UNL     1       5.756  40.308  18.632  1.00  0.00     0.000 C 
BRANCH   3   4
ATOM      4  C   UNL     1       5.687  41.538  19.564  1.00  0.00     0.000 C 
BRANCH   4   5
ATOM      5  C   UNL     1       5.214  41.245  20.999  1.00  0.00     0.000 C 
BRANCH   5   6
ATOM      6  C   UNL     1       5.451  42.382  22.012  1.00  0.00     0.000 C 
BRANCH   6   7
ATOM      7  C   UNL     1       4.508  43.592  21.829  1.00  0.00     0.000 C 
BRANCH   7   8
ATOM      8  C   UNL     1       3.759  43.557  20.484  1.00  0.00     0.000 C 
BRANCH   8   9
ATOM      9  C   UNL     1       2.290  44.011  20.622  1.00  0.00     0.000 C 
BRANCH   9  10
ATOM     10  C   UNL     1       1.301  42.851  20.834  1.00  0.00     0.000 C 
BRANCH  10  11
ATOM     11  C   UNL     1       1.836  41.510  20.306  1.00  0.00     0.000 C 
BRANCH  11  12
ATOM     12  C   UNL     1       0.877  40.330  20.563  1.00  0.00     0.000 C 
BRANCH  12  13
ATOM     13  C   UNL     1       1.109  39.090  19.680  1.00  0.00     0.006 C 
BRANCH  13  14
ATOM     14  C   UNL     1      -0.129  38.691  18.870  1.00  0.00     0.053 C 
BRANCH  14  15
ATOM     15  C   UNL     1       0.044  37.327  18.281  1.00  0.00     0.041 C 
ATOM     16  O   UNL     1      -0.291  36.302  18.937  1.00  0.00    -0.550 OA
ATOM     17  O   UNL     1       0.585  37.186  17.010  1.00  0.00    -0.550 OA
ENDBRANCH  14  15
ENDBRANCH  13  14
ENDBRANCH  12  13
ENDBRANCH  11  12
ENDBRANCH  10  11
ENDBRANCH   9  10
ENDBRANCH   8   9
ENDBRANCH   7   8
ENDBRANCH   6   7
ENDBRANCH   5   6
ENDBRANCH   4   5
ENDBRANCH   3   4
ENDBRANCH   2   3
ENDBRANCH   1   2
BRANCH   1  18
ATOM     18  C   UNL     1       5.604  41.768  14.976  1.00  0.00     0.000 C 
BRANCH  18  19
ATOM     19  C   UNL     1       7.121  41.578  14.773  1.00  0.00     0.000 C 
BRANCH  19  20
ATOM     20  C   UNL     1       7.517  41.370  13.295  1.00  0.00     0.000 C 
BRANCH  20  21
ATOM     21  C   UNL     1       8.206  42.585  12.648  1.00  0.00     0.000 C 
BRANCH  21  22
ATOM     22  C   UNL     1       8.467  42.472  11.133  1.00  0.00     0.000 C 
BRANCH  22  23
ATOM     23  C   UNL     1       7.325  41.844  10.313  1.00  0.00     0.000 C 
BRANCH  23  24
ATOM     24  C   UNL     1       6.265  42.868   9.876  1.00  0.00    -0.000 C 
BRANCH  24  25
ATOM     25  C   UNL     1       6.735  44.322  10.053  1.00  0.00    -0.000 C 
BRANCH  25  26
ATOM     26  C   UNL     1       5.908  45.121  11.086  1.00  0.00    -0.000 C 
BRANCH  26  27
ATOM     27  C   UNL     1       5.171  44.201  12.075  1.00  0.00    -0.000 C 
BRANCH  27  28
ATOM     28  C   UNL     1       3.664  44.094  11.777  1.00  0.00    -0.000 C 
BRANCH  28  29
ATOM     29  C   UNL     1       3.313  43.655  10.342  1.00  0.00    -0.000 C 
BRANCH  29  30
ATOM     30  C   UNL     1       1.809  43.453  10.063  1.00  0.00    -0.000 C 
BRANCH  30  31
ATOM     31  C   UNL     1       1.133  42.362  10.911  1.00  0.00    -0.003 C 
ATOM     32  C   UNL     1      -0.227  41.939  10.359  1.00  0.00     0.004 C 
ENDBRANCH  30  31
ENDBRANCH  29  30
ENDBRANCH  28  29
ENDBRANCH  27  28
ENDBRANCH  26  27
ENDBRANCH  25  26
ENDBRANCH  24  25
ENDBRANCH  23  24
ENDBRANCH  22  23
ENDBRANCH  21  22
ENDBRANCH  20  21
ENDBRANCH  19  20
ENDBRANCH  18  19
ENDBRANCH   1  18
TORSDOF 28
ENDMDL
