MODEL 1
REMARK VINA RESULT:    -7.366      0.000      0.000
REMARK INTER + INTRA:          -8.595
REMARK INTER:                  -8.012
REMARK INTRA:                  -0.583
REMARK UNBOUND:                -0.583
REMARK SMILES C=C(C)[C@@H]1CC[C@]2(C)CC[C@@]3(C)[C@@H](CC[C@H]4[C@@]5(C)CC[C@@H](O)C(C)(C)[C@H]5CC[C@]43C)[C@H]12
REMARK SMILES IDX 4 1 5 2 6 3 7 4 31 5 13 6 14 7 15 8 16 9 17 10 19 11 20 12
REMARK SMILES IDX 21 13 23 14 26 15 27 16 28 17 29 18 11 19 10 20 9 21 12 22
REMARK SMILES IDX 30 23 24 24 25 25 18 26 8 27 2 28 3 29 1 30 22 31
REMARK H PARENT 22 32
REMARK Flexibility Score: inf
ROOT
ATOM      1  C   UNL     1     185.791 192.917 189.688  1.00  0.00     0.018 C 
ATOM      2  C   UNL     1     186.088 194.218 188.952  1.00  0.00     0.009 C 
ATOM      3  C   UNL     1     187.158 194.913 189.781  1.00  0.00     0.008 C 
ATOM      4  C   UNL     1     187.743 193.856 190.762  1.00  0.00    -0.029 C 
ATOM      5  C   UNL     1     187.156 192.474 190.295  1.00  0.00     0.006 C 
ATOM      6  C   UNL     1     188.067 191.662 189.281  1.00  0.00    -0.000 C 
ATOM      7  C   UNL     1     187.677 190.180 189.231  1.00  0.00     0.005 C 
ATOM      8  C   UNL     1     188.322 189.499 188.039  1.00  0.00     0.005 C 
ATOM      9  C   UNL     1     189.880 189.528 188.027  1.00  0.00     0.002 C 
ATOM     10  C   UNL     1     190.507 188.810 186.719  1.00  0.00    -0.026 C 
ATOM     11  C   UNL     1     189.811 187.425 186.369  1.00  0.00     0.010 C 
ATOM     12  C   UNL     1     189.465 187.241 184.891  1.00  0.00     0.033 C 
ATOM     13  C   UNL     1     188.588 188.390 184.394  1.00  0.00     0.120 C 
ATOM     14  C   UNL     1     189.390 189.738 184.354  1.00  0.00    -0.006 C 
ATOM     15  C   UNL     1     190.560 189.779 185.454  1.00  0.00     0.003 C 
ATOM     16  C   UNL     1     191.076 191.195 185.804  1.00  0.00     0.005 C 
ATOM     17  C   UNL     1     190.407 191.840 187.027  1.00  0.00     0.008 C 
ATOM     18  C   UNL     1     190.451 190.998 188.346  1.00  0.00    -0.024 C 
ATOM     19  C   UNL     1     189.613 191.739 189.532  1.00  0.00    -0.024 C 
ATOM     20  C   UNL     1     189.951 193.262 189.605  1.00  0.00     0.008 C 
ATOM     21  C   UNL     1     189.288 193.948 190.794  1.00  0.00     0.007 C 
ATOM     22  C   UNL     1     189.962 191.079 190.917  1.00  0.00     0.012 C 
ATOM     23  C   UNL     1     191.947 190.907 188.824  1.00  0.00     0.012 C 
ATOM     24  C   UNL     1     188.405 190.945 184.409  1.00  0.00     0.014 C 
ATOM     25  C   UNL     1     190.049 189.833 182.942  1.00  0.00     0.014 C 
ATOM     26  C   UNL     1     191.984 188.383 187.040  1.00  0.00     0.012 C 
ATOM     27  C   UNL     1     187.246 194.170 192.199  1.00  0.00     0.011 C 
ENDROOT
BRANCH   1  28
ATOM     28  C   UNL     1     184.985 191.899 188.888  1.00  0.00    -0.077 C 
ATOM     29  C   UNL     1     185.010 191.871 187.377  1.00  0.00     0.039 C 
ATOM     30  C   UNL     1     184.156 191.068 189.546  1.00  0.00     0.008 C 
ENDBRANCH   1  28
BRANCH  13  31
ATOM     31  O   UNL     1     187.442 188.476 185.209  1.00  0.00    -0.393 OA
ATOM     32  H   UNL     1     187.739 188.414 186.153  1.00  0.00     0.210 HD
ENDBRANCH  13  31
TORSDOF 2
ENDMDL
MODEL 2
REMARK VINA RESULT:    -7.348      2.063      6.983
REMARK INTER + INTRA:          -8.575
REMARK INTER:                  -7.982
REMARK INTRA:                  -0.593
REMARK UNBOUND:                -0.583
REMARK SMILES C=C(C)[C@@H]1CC[C@]2(C)CC[C@@]3(C)[C@@H](CC[C@H]4[C@@]5(C)CC[C@@H](O)C(C)(C)[C@H]5CC[C@]43C)[C@H]12
REMARK SMILES IDX 4 1 5 2 6 3 7 4 31 5 13 6 14 7 15 8 16 9 17 10 19 11 20 12
REMARK SMILES IDX 21 13 23 14 26 15 27 16 28 17 29 18 11 19 10 20 9 21 12 22
REMARK SMILES IDX 30 23 24 24 25 25 18 26 8 27 2 28 3 29 1 30 22 31
REMARK H PARENT 22 32
REMARK Flexibility Score: inf
ROOT
ATOM      1  C   UNL     1     190.461 190.412 185.641  1.00  0.00     0.018 C 
ATOM      2  C   UNL     1     189.882 191.402 184.639  1.00  0.00     0.009 C 
ATOM      3  C   UNL     1     188.665 190.707 184.045  1.00  0.00     0.008 C 
ATOM      4  C   UNL     1     188.325 189.500 184.967  1.00  0.00    -0.029 C 
ATOM      5  C   UNL     1     189.227 189.676 186.244  1.00  0.00     0.006 C 
ATOM      6  C   UNL     1     188.548 190.456 187.447  1.00  0.00    -0.000 C 
ATOM      7  C   UNL     1     189.274 190.197 188.772  1.00  0.00     0.005 C 
ATOM      8  C   UNL     1     188.826 191.189 189.828  1.00  0.00     0.005 C 
ATOM      9  C   UNL     1     187.305 191.154 190.164  1.00  0.00     0.002 C 
ATOM     10  C   UNL     1     186.886 192.252 191.276  1.00  0.00    -0.026 C 
ATOM     11  C   UNL     1     187.892 192.316 192.505  1.00  0.00     0.010 C 
ATOM     12  C   UNL     1     188.297 193.730 192.923  1.00  0.00     0.033 C 
ATOM     13  C   UNL     1     188.890 194.494 191.741  1.00  0.00     0.120 C 
ATOM     14  C   UNL     1     187.797 194.800 190.657  1.00  0.00    -0.006 C 
ATOM     15  C   UNL     1     186.631 193.695 190.648  1.00  0.00     0.003 C 
ATOM     16  C   UNL     1     185.792 193.643 189.349  1.00  0.00     0.005 C 
ATOM     17  C   UNL     1     186.271 192.613 188.314  1.00  0.00     0.008 C 
ATOM     18  C   UNL     1     186.402 191.142 188.833  1.00  0.00    -0.024 C 
ATOM     19  C   UNL     1     187.023 190.175 187.676  1.00  0.00    -0.024 C 
ATOM     20  C   UNL     1     186.337 190.423 186.295  1.00  0.00     0.008 C 
ATOM     21  C   UNL     1     186.801 189.436 185.231  1.00  0.00     0.007 C 
ATOM     22  C   UNL     1     186.813 188.669 188.078  1.00  0.00     0.012 C 
ATOM     23  C   UNL     1     184.960 190.604 189.160  1.00  0.00     0.012 C 
ATOM     24  C   UNL     1     188.472 195.042 189.273  1.00  0.00     0.014 C 
ATOM     25  C   UNL     1     187.159 196.174 191.029  1.00  0.00     0.014 C 
ATOM     26  C   UNL     1     185.544 191.795 191.952  1.00  0.00     0.012 C 
ATOM     27  C   UNL     1     188.710 188.184 184.239  1.00  0.00     0.011 C 
ENDROOT
BRANCH   1  28
ATOM     28  C   UNL     1     191.496 190.999 186.595  1.00  0.00    -0.077 C 
ATOM     29  C   UNL     1     191.538 192.475 186.917  1.00  0.00     0.039 C 
ATOM     30  C   UNL     1     192.457 190.193 187.085  1.00  0.00     0.008 C 
ENDBRANCH   1  28
BRANCH  13  31
ATOM     31  O   UNL     1     189.971 193.759 191.215  1.00  0.00    -0.393 OA
ATOM     32  H   UNL     1     189.601 193.107 190.564  1.00  0.00     0.210 HD
ENDBRANCH  13  31
TORSDOF 2
ENDMDL
MODEL 3
REMARK VINA RESULT:    -6.961      4.755     10.003
REMARK INTER + INTRA:          -8.155
REMARK INTER:                  -7.574
REMARK INTRA:                  -0.581
REMARK UNBOUND:                -0.583
REMARK SMILES C=C(C)[C@@H]1CC[C@]2(C)CC[C@@]3(C)[C@@H](CC[C@H]4[C@@]5(C)CC[C@@H](O)C(C)(C)[C@H]5CC[C@]43C)[C@H]12
REMARK SMILES IDX 4 1 5 2 6 3 7 4 31 5 13 6 14 7 15 8 16 9 17 10 19 11 20 12
REMARK SMILES IDX 21 13 23 14 26 15 27 16 28 17 29 18 11 19 10 20 9 21 12 22
REMARK SMILES IDX 30 23 24 24 25 25 18 26 8 27 2 28 3 29 1 30 22 31
REMARK H PARENT 22 32
REMARK Flexibility Score: inf
ROOT
ATOM      1  C   UNL     1     188.053 195.197 189.638  1.00  0.00     0.018 C 
ATOM      2  C   UNL     1     186.539 195.241 189.470  1.00  0.00     0.009 C 
ATOM      3  C   UNL     1     186.051 193.854 189.861  1.00  0.00     0.008 C 
ATOM      4  C   UNL     1     187.217 193.146 190.610  1.00  0.00    -0.029 C 
ATOM      5  C   UNL     1     188.298 194.261 190.860  1.00  0.00     0.006 C 
ATOM      6  C   UNL     1     188.191 195.003 192.258  1.00  0.00    -0.000 C 
ATOM      7  C   UNL     1     189.497 195.719 192.622  1.00  0.00     0.005 C 
ATOM      8  C   UNL     1     189.276 196.678 193.776  1.00  0.00     0.005 C 
ATOM      9  C   UNL     1     188.773 196.018 195.095  1.00  0.00     0.002 C 
ATOM     10  C   UNL     1     188.531 197.094 196.279  1.00  0.00    -0.026 C 
ATOM     11  C   UNL     1     189.705 198.159 196.409  1.00  0.00     0.010 C 
ATOM     12  C   UNL     1     189.238 199.607 196.557  1.00  0.00     0.033 C 
ATOM     13  C   UNL     1     188.322 200.001 195.400  1.00  0.00     0.120 C 
ATOM     14  C   UNL     1     186.956 199.232 195.471  1.00  0.00    -0.006 C 
ATOM     15  C   UNL     1     187.105 197.800 196.184  1.00  0.00     0.003 C 
ATOM     16  C   UNL     1     185.961 196.801 195.886  1.00  0.00     0.005 C 
ATOM     17  C   UNL     1     186.234 195.839 194.721  1.00  0.00     0.008 C 
ATOM     18  C   UNL     1     187.554 195.004 194.826  1.00  0.00    -0.024 C 
ATOM     19  C   UNL     1     187.781 194.111 193.481  1.00  0.00    -0.024 C 
ATOM     20  C   UNL     1     186.468 193.383 193.049  1.00  0.00     0.008 C 
ATOM     21  C   UNL     1     186.689 192.433 191.878  1.00  0.00     0.007 C 
ATOM     22  C   UNL     1     188.892 193.029 193.747  1.00  0.00     0.012 C 
ATOM     23  C   UNL     1     187.408 194.000 196.028  1.00  0.00     0.012 C 
ATOM     24  C   UNL     1     186.294 199.190 194.060  1.00  0.00     0.014 C 
ATOM     25  C   UNL     1     185.989 200.103 196.332  1.00  0.00     0.014 C 
ATOM     26  C   UNL     1     188.590 196.346 197.658  1.00  0.00     0.012 C 
ATOM     27  C   UNL     1     187.813 192.045 189.692  1.00  0.00     0.011 C 
ENDROOT
BRANCH   1  28
ATOM     28  C   UNL     1     188.740 196.559 189.615  1.00  0.00    -0.077 C 
ATOM     29  C   UNL     1     188.018 197.823 190.021  1.00  0.00     0.039 C 
ATOM     30  C   UNL     1     189.991 196.645 189.126  1.00  0.00     0.008 C 
ENDBRANCH   1  28
BRANCH  13  31
ATOM     31  O   UNL     1     188.997 199.775 194.184  1.00  0.00    -0.393 OA
ATOM     32  H   UNL     1     188.325 199.821 193.455  1.00  0.00     0.210 HD
ENDBRANCH  13  31
TORSDOF 2
ENDMDL
MODEL 4
REMARK VINA RESULT:    -6.941      2.616      4.790
REMARK INTER + INTRA:          -8.132
REMARK INTER:                  -7.539
REMARK INTRA:                  -0.593
REMARK UNBOUND:                -0.583
REMARK SMILES C=C(C)[C@@H]1CC[C@]2(C)CC[C@@]3(C)[C@@H](CC[C@H]4[C@@]5(C)CC[C@@H](O)C(C)(C)[C@H]5CC[C@]43C)[C@H]12
REMARK SMILES IDX 4 1 5 2 6 3 7 4 31 5 13 6 14 7 15 8 16 9 17 10 19 11 20 12
REMARK SMILES IDX 21 13 23 14 26 15 27 16 28 17 29 18 11 19 10 20 9 21 12 22
REMARK SMILES IDX 30 23 24 24 25 25 18 26 8 27 2 28 3 29 1 30 22 31
REMARK H PARENT 22 32
REMARK Flexibility Score: inf
ROOT
ATOM      1  C   UNL     1     186.413 188.086 190.216  1.00  0.00     0.018 C 
ATOM      2  C   UNL     1     185.638 186.994 189.490  1.00  0.00     0.009 C 
ATOM      3  C   UNL     1     184.452 187.701 188.851  1.00  0.00     0.008 C 
ATOM      4  C   UNL     1     184.751 189.228 188.883  1.00  0.00    -0.029 C 
ATOM      5  C   UNL     1     186.254 189.356 189.327  1.00  0.00     0.006 C 
ATOM      6  C   UNL     1     187.305 189.435 188.141  1.00  0.00    -0.000 C 
ATOM      7  C   UNL     1     188.648 190.006 188.610  1.00  0.00     0.005 C 
ATOM      8  C   UNL     1     189.722 189.771 187.565  1.00  0.00     0.005 C 
ATOM      9  C   UNL     1     189.446 190.423 186.178  1.00  0.00     0.002 C 
ATOM     10  C   UNL     1     190.612 190.115 185.099  1.00  0.00    -0.026 C 
ATOM     11  C   UNL     1     192.077 190.282 185.694  1.00  0.00     0.010 C 
ATOM     12  C   UNL     1     193.039 189.146 185.347  1.00  0.00     0.033 C 
ATOM     13  C   UNL     1     192.465 187.799 185.784  1.00  0.00     0.120 C 
ATOM     14  C   UNL     1     191.212 187.410 184.922  1.00  0.00    -0.006 C 
ATOM     15  C   UNL     1     190.426 188.703 184.382  1.00  0.00     0.003 C 
ATOM     16  C   UNL     1     188.965 188.442 183.943  1.00  0.00     0.005 C 
ATOM     17  C   UNL     1     187.910 188.708 185.027  1.00  0.00     0.008 C 
ATOM     18  C   UNL     1     187.946 190.135 185.672  1.00  0.00    -0.024 C 
ATOM     19  C   UNL     1     186.856 190.250 186.879  1.00  0.00    -0.024 C 
ATOM     20  C   UNL     1     185.475 189.652 186.461  1.00  0.00     0.008 C 
ATOM     21  C   UNL     1     184.401 189.875 187.520  1.00  0.00     0.007 C 
ATOM     22  C   UNL     1     186.654 191.762 187.265  1.00  0.00     0.012 C 
ATOM     23  C   UNL     1     187.532 191.183 184.574  1.00  0.00     0.012 C 
ATOM     24  C   UNL     1     190.327 186.390 185.699  1.00  0.00     0.014 C 
ATOM     25  C   UNL     1     191.739 186.613 183.688  1.00  0.00     0.014 C 
ATOM     26  C   UNL     1     190.566 191.215 183.980  1.00  0.00     0.012 C 
ATOM     27  C   UNL     1     183.839 189.899 189.945  1.00  0.00     0.011 C 
ENDROOT
BRANCH   1  28
ATOM     28  C   UNL     1     187.814 187.683 190.667  1.00  0.00    -0.077 C 
ATOM     29  C   UNL     1     188.574 186.558 190.002  1.00  0.00     0.039 C 
ATOM     30  C   UNL     1     188.344 188.284 191.749  1.00  0.00     0.008 C 
ENDBRANCH   1  28
BRANCH  13  31
ATOM     31  O   UNL     1     192.169 187.852 187.160  1.00  0.00    -0.393 OA
ATOM     32  H   UNL     1     192.890 188.371 187.602  1.00  0.00     0.210 HD
ENDBRANCH  13  31
TORSDOF 2
ENDMDL
MODEL 5
REMARK VINA RESULT:    -6.879      2.216      5.880
REMARK INTER + INTRA:          -8.065
REMARK INTER:                  -7.491
REMARK INTRA:                  -0.575
REMARK UNBOUND:                -0.583
REMARK SMILES C=C(C)[C@@H]1CC[C@]2(C)CC[C@@]3(C)[C@@H](CC[C@H]4[C@@]5(C)CC[C@@H](O)C(C)(C)[C@H]5CC[C@]43C)[C@H]12
REMARK SMILES IDX 4 1 5 2 6 3 7 4 31 5 13 6 14 7 15 8 16 9 17 10 19 11 20 12
REMARK SMILES IDX 21 13 23 14 26 15 27 16 28 17 29 18 11 19 10 20 9 21 12 22
REMARK SMILES IDX 30 23 24 24 25 25 18 26 8 27 2 28 3 29 1 30 22 31
REMARK H PARENT 22 32
REMARK Flexibility Score: inf
ROOT
ATOM      1  C   UNL     1     190.068 190.537 185.442  1.00  0.00     0.018 C 
ATOM      2  C   UNL     1     191.105 189.511 185.881  1.00  0.00     0.009 C 
ATOM      3  C   UNL     1     192.071 190.274 186.775  1.00  0.00     0.008 C 
ATOM      4  C   UNL     1     191.387 191.619 187.156  1.00  0.00    -0.029 C 
ATOM      5  C   UNL     1     189.898 191.491 186.662  1.00  0.00     0.006 C 
ATOM      6  C   UNL     1     188.872 190.957 187.747  1.00  0.00    -0.000 C 
ATOM      7  C   UNL     1     187.423 191.285 187.367  1.00  0.00     0.005 C 
ATOM      8  C   UNL     1     186.454 190.495 188.226  1.00  0.00     0.005 C 
ATOM      9  C   UNL     1     186.561 190.762 189.757  1.00  0.00     0.002 C 
ATOM     10  C   UNL     1     185.522 189.872 190.621  1.00  0.00    -0.026 C 
ATOM     11  C   UNL     1     184.060 189.835 189.998  1.00  0.00     0.010 C 
ATOM     12  C   UNL     1     183.427 188.444 189.941  1.00  0.00     0.033 C 
ATOM     13  C   UNL     1     184.327 187.471 189.182  1.00  0.00     0.120 C 
ATOM     14  C   UNL     1     185.644 187.173 189.983  1.00  0.00    -0.006 C 
ATOM     15  C   UNL     1     186.072 188.406 190.920  1.00  0.00     0.003 C 
ATOM     16  C   UNL     1     187.554 188.401 191.366  1.00  0.00     0.005 C 
ATOM     17  C   UNL     1     188.496 189.227 190.478  1.00  0.00     0.008 C 
ATOM     18  C   UNL     1     188.088 190.723 190.263  1.00  0.00    -0.024 C 
ATOM     19  C   UNL     1     189.103 191.453 189.216  1.00  0.00    -0.024 C 
ATOM     20  C   UNL     1     190.594 191.124 189.542  1.00  0.00     0.008 C 
ATOM     21  C   UNL     1     191.566 191.906 188.666  1.00  0.00     0.007 C 
ATOM     22  C   UNL     1     188.904 193.012 189.289  1.00  0.00     0.012 C 
ATOM     23  C   UNL     1     188.224 191.474 191.639  1.00  0.00     0.012 C 
ATOM     24  C   UNL     1     186.758 186.678 189.012  1.00  0.00     0.014 C 
ATOM     25  C   UNL     1     185.350 185.946 190.901  1.00  0.00     0.014 C 
ATOM     26  C   UNL     1     185.289 190.574 192.006  1.00  0.00     0.012 C 
ATOM     27  C   UNL     1     192.087 192.776 186.393  1.00  0.00     0.011 C 
ENDROOT
BRANCH   1  28
ATOM     28  C   UNL     1     188.816 189.948 184.799  1.00  0.00    -0.077 C 
ATOM     29  C   UNL     1     188.425 188.501 184.996  1.00  0.00     0.039 C 
ATOM     30  C   UNL     1     188.097 190.714 183.958  1.00  0.00     0.008 C 
ENDBRANCH   1  28
BRANCH  13  31
ATOM     31  O   UNL     1     184.590 187.994 187.901  1.00  0.00    -0.393 OA
ATOM     32  H   UNL     1     183.986 188.769 187.764  1.00  0.00     0.210 HD
ENDBRANCH  13  31
TORSDOF 2
ENDMDL
MODEL 6
REMARK VINA RESULT:    -6.839      5.508      8.666
REMARK INTER + INTRA:          -8.022
REMARK INTER:                  -7.431
REMARK INTRA:                  -0.591
REMARK UNBOUND:                -0.583
REMARK SMILES C=C(C)[C@@H]1CC[C@]2(C)CC[C@@]3(C)[C@@H](CC[C@H]4[C@@]5(C)CC[C@@H](O)C(C)(C)[C@H]5CC[C@]43C)[C@H]12
REMARK SMILES IDX 4 1 5 2 6 3 7 4 31 5 13 6 14 7 15 8 16 9 17 10 19 11 20 12
REMARK SMILES IDX 21 13 23 14 26 15 27 16 28 17 29 18 11 19 10 20 9 21 12 22
REMARK SMILES IDX 30 23 24 24 25 25 18 26 8 27 2 28 3 29 1 30 22 31
REMARK H PARENT 22 32
REMARK Flexibility Score: inf
ROOT
ATOM      1  C   UNL     1     186.983 198.827 196.945  1.00  0.00     0.018 C 
ATOM      2  C   UNL     1     188.409 199.361 197.003  1.00  0.00     0.009 C 
ATOM      3  C   UNL     1     189.153 198.415 197.935  1.00  0.00     0.008 C 
ATOM      4  C   UNL     1     188.274 197.142 198.103  1.00  0.00    -0.029 C 
ATOM      5  C   UNL     1     187.125 197.278 197.037  1.00  0.00     0.006 C 
ATOM      6  C   UNL     1     187.413 196.584 195.641  1.00  0.00    -0.000 C 
ATOM      7  C   UNL     1     186.124 196.357 194.842  1.00  0.00     0.005 C 
ATOM      8  C   UNL     1     186.443 196.004 193.403  1.00  0.00     0.005 C 
ATOM      9  C   UNL     1     187.292 194.711 193.213  1.00  0.00     0.002 C 
ATOM     10  C   UNL     1     187.621 194.403 191.659  1.00  0.00    -0.026 C 
ATOM     11  C   UNL     1     186.364 194.585 190.703  1.00  0.00     0.010 C 
ATOM     12  C   UNL     1     186.648 195.366 189.419  1.00  0.00     0.033 C 
ATOM     13  C   UNL     1     187.245 196.735 189.741  1.00  0.00     0.120 C 
ATOM     14  C   UNL     1     188.688 196.599 190.339  1.00  0.00    -0.006 C 
ATOM     15  C   UNL     1     188.887 195.214 191.128  1.00  0.00     0.003 C 
ATOM     16  C   UNL     1     190.072 195.194 192.123  1.00  0.00     0.005 C 
ATOM     17  C   UNL     1     189.700 195.541 193.573  1.00  0.00     0.008 C 
ATOM     18  C   UNL     1     188.557 194.679 194.205  1.00  0.00    -0.024 C 
ATOM     19  C   UNL     1     188.184 195.219 195.698  1.00  0.00    -0.024 C 
ATOM     20  C   UNL     1     189.468 195.496 196.543  1.00  0.00     0.008 C 
ATOM     21  C   UNL     1     189.144 195.867 197.985  1.00  0.00     0.007 C 
ATOM     22  C   UNL     1     187.311 194.145 196.445  1.00  0.00     0.012 C 
ATOM     23  C   UNL     1     189.083 193.204 194.366  1.00  0.00     0.012 C 
ATOM     24  C   UNL     1     189.046 197.873 191.163  1.00  0.00     0.014 C 
ATOM     25  C   UNL     1     189.683 196.618 189.136  1.00  0.00     0.014 C 
ATOM     26  C   UNL     1     187.950 192.875 191.509  1.00  0.00     0.012 C 
ATOM     27  C   UNL     1     187.659 197.136 199.528  1.00  0.00     0.011 C 
ENDROOT
BRANCH   1  28
ATOM     28  C   UNL     1     186.125 199.415 195.828  1.00  0.00    -0.077 C 
ATOM     29  C   UNL     1     186.738 200.002 194.577  1.00  0.00     0.039 C 
ATOM     30  C   UNL     1     184.794 199.498 196.009  1.00  0.00     0.008 C 
ENDBRANCH   1  28
BRANCH  13  31
ATOM     31  O   UNL     1     186.372 197.423 190.607  1.00  0.00    -0.393 OA
ATOM     32  H   UNL     1     185.561 196.863 190.722  1.00  0.00     0.210 HD
ENDBRANCH  13  31
TORSDOF 2
ENDMDL
MODEL 7
REMARK VINA RESULT:    -6.804      4.243      6.936
REMARK INTER + INTRA:          -7.984
REMARK INTER:                  -7.393
REMARK INTRA:                  -0.591
REMARK UNBOUND:                -0.583
REMARK SMILES C=C(C)[C@@H]1CC[C@]2(C)CC[C@@]3(C)[C@@H](CC[C@H]4[C@@]5(C)CC[C@@H](O)C(C)(C)[C@H]5CC[C@]43C)[C@H]12
REMARK SMILES IDX 4 1 5 2 6 3 7 4 31 5 13 6 14 7 15 8 16 9 17 10 19 11 20 12
REMARK SMILES IDX 21 13 23 14 26 15 27 16 28 17 29 18 11 19 10 20 9 21 12 22
REMARK SMILES IDX 30 23 24 24 25 25 18 26 8 27 2 28 3 29 1 30 22 31
REMARK H PARENT 22 32
REMARK Flexibility Score: inf
ROOT
ATOM      1  C   UNL     1     187.818 191.224 188.722  1.00  0.00     0.018 C 
ATOM      2  C   UNL     1     187.615 192.088 189.961  1.00  0.00     0.009 C 
ATOM      3  C   UNL     1     186.131 192.423 189.977  1.00  0.00     0.008 C 
ATOM      4  C   UNL     1     185.426 191.453 188.985  1.00  0.00    -0.029 C 
ATOM      5  C   UNL     1     186.512 190.384 188.593  1.00  0.00     0.006 C 
ATOM      6  C   UNL     1     186.515 189.069 189.479  1.00  0.00    -0.000 C 
ATOM      7  C   UNL     1     187.251 187.918 188.783  1.00  0.00     0.005 C 
ATOM      8  C   UNL     1     187.527 186.792 189.760  1.00  0.00     0.005 C 
ATOM      9  C   UNL     1     186.261 186.155 190.408  1.00  0.00     0.002 C 
ATOM     10  C   UNL     1     186.622 184.980 191.460  1.00  0.00    -0.026 C 
ATOM     11  C   UNL     1     187.737 183.980 190.926  1.00  0.00     0.010 C 
ATOM     12  C   UNL     1     188.835 183.652 191.938  1.00  0.00     0.033 C 
ATOM     13  C   UNL     1     189.500 184.929 192.448  1.00  0.00     0.120 C 
ATOM     14  C   UNL     1     188.513 185.768 193.332  1.00  0.00    -0.006 C 
ATOM     15  C   UNL     1     186.980 185.542 192.908  1.00  0.00     0.003 C 
ATOM     16  C   UNL     1     186.003 186.644 193.382  1.00  0.00     0.005 C 
ATOM     17  C   UNL     1     185.739 187.755 192.354  1.00  0.00     0.008 C 
ATOM     18  C   UNL     1     185.241 187.276 190.949  1.00  0.00    -0.024 C 
ATOM     19  C   UNL     1     185.108 188.535 189.923  1.00  0.00    -0.024 C 
ATOM     20  C   UNL     1     184.392 189.748 190.596  1.00  0.00     0.008 C 
ATOM     21  C   UNL     1     184.130 190.886 189.616  1.00  0.00     0.007 C 
ATOM     22  C   UNL     1     184.281 188.100 188.658  1.00  0.00     0.012 C 
ATOM     23  C   UNL     1     183.802 186.663 191.119  1.00  0.00     0.012 C 
ATOM     24  C   UNL     1     188.964 187.260 193.365  1.00  0.00     0.014 C 
ATOM     25  C   UNL     1     188.686 185.273 194.802  1.00  0.00     0.014 C 
ATOM     26  C   UNL     1     185.369 184.046 191.620  1.00  0.00     0.012 C 
ATOM     27  C   UNL     1     184.999 192.245 187.720  1.00  0.00     0.011 C 
ENDROOT
BRANCH   1  28
ATOM     28  C   UNL     1     189.159 190.499 188.660  1.00  0.00    -0.077 C 
ATOM     29  C   UNL     1     189.955 190.188 189.907  1.00  0.00     0.039 C 
ATOM     30  C   UNL     1     189.689 190.218 187.456  1.00  0.00     0.008 C 
ENDBRANCH   1  28
BRANCH  13  31
ATOM     31  O   UNL     1     189.985 185.663 191.348  1.00  0.00    -0.393 OA
ATOM     32  H   UNL     1     190.967 185.754 191.457  1.00  0.00     0.210 HD
ENDBRANCH  13  31
TORSDOF 2
ENDMDL
MODEL 8
REMARK VINA RESULT:    -6.765      2.987      5.836
REMARK INTER + INTRA:          -7.941
REMARK INTER:                  -7.349
REMARK INTRA:                  -0.592
REMARK UNBOUND:                -0.583
REMARK SMILES C=C(C)[C@@H]1CC[C@]2(C)CC[C@@]3(C)[C@@H](CC[C@H]4[C@@]5(C)CC[C@@H](O)C(C)(C)[C@H]5CC[C@]43C)[C@H]12
REMARK SMILES IDX 4 1 5 2 6 3 7 4 31 5 13 6 14 7 15 8 16 9 17 10 19 11 20 12
REMARK SMILES IDX 21 13 23 14 26 15 27 16 28 17 29 18 11 19 10 20 9 21 12 22
REMARK SMILES IDX 30 23 24 24 25 25 18 26 8 27 2 28 3 29 1 30 22 31
REMARK H PARENT 22 32
REMARK Flexibility Score: inf
ROOT
ATOM      1  C   UNL     1     190.035 193.795 190.086  1.00  0.00     0.018 C 
ATOM      2  C   UNL     1     189.771 194.208 191.529  1.00  0.00     0.009 C 
ATOM      3  C   UNL     1     188.624 195.205 191.457  1.00  0.00     0.008 C 
ATOM      4  C   UNL     1     187.984 195.075 190.045  1.00  0.00    -0.029 C 
ATOM      5  C   UNL     1     188.635 193.796 189.401  1.00  0.00     0.006 C 
ATOM      6  C   UNL     1     187.826 192.448 189.611  1.00  0.00    -0.000 C 
ATOM      7  C   UNL     1     188.249 191.370 188.606  1.00  0.00     0.005 C 
ATOM      8  C   UNL     1     187.716 190.013 189.024  1.00  0.00     0.005 C 
ATOM      9  C   UNL     1     186.164 189.915 189.121  1.00  0.00     0.002 C 
ATOM     10  C   UNL     1     185.659 188.454 189.596  1.00  0.00    -0.026 C 
ATOM     11  C   UNL     1     186.410 187.261 188.860  1.00  0.00     0.010 C 
ATOM     12  C   UNL     1     186.877 186.136 189.785  1.00  0.00     0.033 C 
ATOM     13  C   UNL     1     187.767 186.686 190.899  1.00  0.00     0.120 C 
ATOM     14  C   UNL     1     186.944 187.576 191.895  1.00  0.00    -0.006 C 
ATOM     15  C   UNL     1     185.688 188.280 191.180  1.00  0.00     0.003 C 
ATOM     16  C   UNL     1     185.116 189.507 191.928  1.00  0.00     0.005 C 
ATOM     17  C   UNL     1     185.671 190.861 191.462  1.00  0.00     0.008 C 
ATOM     18  C   UNL     1     185.539 191.157 189.930  1.00  0.00    -0.024 C 
ATOM     19  C   UNL     1     186.264 192.568 189.551  1.00  0.00    -0.024 C 
ATOM     20  C   UNL     1     185.889 193.694 190.565  1.00  0.00     0.008 C 
ATOM     21  C   UNL     1     186.440 195.054 190.153  1.00  0.00     0.007 C 
ATOM     22  C   UNL     1     185.819 193.018 188.111  1.00  0.00     0.012 C 
ATOM     23  C   UNL     1     184.012 191.315 189.588  1.00  0.00     0.012 C 
ATOM     24  C   UNL     1     187.895 188.555 192.646  1.00  0.00     0.014 C 
ATOM     25  C   UNL     1     186.398 186.628 193.007  1.00  0.00     0.014 C 
ATOM     26  C   UNL     1     184.171 188.262 189.133  1.00  0.00     0.012 C 
ATOM     27  C   UNL     1     188.358 196.325 189.203  1.00  0.00     0.011 C 
ENDROOT
BRANCH   1  28
ATOM     28  C   UNL     1     190.924 192.566 189.924  1.00  0.00    -0.077 C 
ATOM     29  C   UNL     1     191.074 191.540 191.024  1.00  0.00     0.039 C 
ATOM     30  C   UNL     1     191.668 192.446 188.809  1.00  0.00     0.008 C 
ENDBRANCH   1  28
BRANCH  13  31
ATOM     31  O   UNL     1     188.842 187.389 190.321  1.00  0.00    -0.393 OA
ATOM     32  H   UNL     1     188.947 188.240 190.820  1.00  0.00     0.210 HD
ENDBRANCH  13  31
TORSDOF 2
ENDMDL
MODEL 9
REMARK VINA RESULT:    -6.699      4.479      8.441
REMARK INTER + INTRA:          -7.869
REMARK INTER:                  -7.278
REMARK INTRA:                  -0.591
REMARK UNBOUND:                -0.583
REMARK SMILES C=C(C)[C@@H]1CC[C@]2(C)CC[C@@]3(C)[C@@H](CC[C@H]4[C@@]5(C)CC[C@@H](O)C(C)(C)[C@H]5CC[C@]43C)[C@H]12
REMARK SMILES IDX 4 1 5 2 6 3 7 4 31 5 13 6 14 7 15 8 16 9 17 10 19 11 20 12
REMARK SMILES IDX 21 13 23 14 26 15 27 16 28 17 29 18 11 19 10 20 9 21 12 22
REMARK SMILES IDX 30 23 24 24 25 25 18 26 8 27 2 28 3 29 1 30 22 31
REMARK H PARENT 22 32
REMARK Flexibility Score: inf
ROOT
ATOM      1  C   UNL     1     187.914 196.651 197.214  1.00  0.00     0.018 C 
ATOM      2  C   UNL     1     186.394 196.560 197.272  1.00  0.00     0.009 C 
ATOM      3  C   UNL     1     185.900 197.989 197.099  1.00  0.00     0.008 C 
ATOM      4  C   UNL     1     187.094 198.831 196.564  1.00  0.00    -0.029 C 
ATOM      5  C   UNL     1     188.214 197.790 196.194  1.00  0.00     0.006 C 
ATOM      6  C   UNL     1     188.212 197.305 194.684  1.00  0.00    -0.000 C 
ATOM      7  C   UNL     1     189.554 196.679 194.287  1.00  0.00     0.005 C 
ATOM      8  C   UNL     1     189.428 195.936 192.971  1.00  0.00     0.005 C 
ATOM      9  C   UNL     1     188.994 196.813 191.758  1.00  0.00     0.002 C 
ATOM     10  C   UNL     1     188.852 195.960 190.390  1.00  0.00    -0.026 C 
ATOM     11  C   UNL     1     190.055 194.948 190.153  1.00  0.00     0.010 C 
ATOM     12  C   UNL     1     189.631 193.544 189.723  1.00  0.00     0.033 C 
ATOM     13  C   UNL     1     188.653 192.942 190.730  1.00  0.00     0.120 C 
ATOM     14  C   UNL     1     187.277 193.695 190.705  1.00  0.00    -0.006 C 
ATOM     15  C   UNL     1     187.438 195.232 190.266  1.00  0.00     0.003 C 
ATOM     16  C   UNL     1     186.256 196.150 190.658  1.00  0.00     0.005 C 
ATOM     17  C   UNL     1     186.433 196.895 191.990  1.00  0.00     0.008 C 
ATOM     18  C   UNL     1     187.738 197.750 192.120  1.00  0.00    -0.024 C 
ATOM     19  C   UNL     1     187.859 198.394 193.612  1.00  0.00    -0.024 C 
ATOM     20  C   UNL     1     186.506 199.019 194.077  1.00  0.00     0.008 C 
ATOM     21  C   UNL     1     186.631 199.751 195.409  1.00  0.00     0.007 C 
ATOM     22  C   UNL     1     188.959 199.518 193.614  1.00  0.00     0.012 C 
ATOM     23  C   UNL     1     187.645 198.949 191.105  1.00  0.00     0.012 C 
ATOM     24  C   UNL     1     186.528 193.481 192.054  1.00  0.00     0.014 C 
ATOM     25  C   UNL     1     186.386 192.979 189.643  1.00  0.00     0.014 C 
ATOM     26  C   UNL     1     188.979 196.941 189.170  1.00  0.00     0.012 C 
ATOM     27  C   UNL     1     187.606 199.759 197.699  1.00  0.00     0.011 C 
ENDROOT
BRANCH   1  28
ATOM     28  C   UNL     1     188.629 195.314 197.044  1.00  0.00    -0.077 C 
ATOM     29  C   UNL     1     187.944 194.116 196.426  1.00  0.00     0.039 C 
ATOM     30  C   UNL     1     189.869 195.173 197.547  1.00  0.00     0.008 C 
ENDBRANCH   1  28
BRANCH  13  31
ATOM     31  O   UNL     1     189.245 192.957 192.009  1.00  0.00    -0.393 OA
ATOM     32  H   UNL     1     189.313 193.904 192.296  1.00  0.00     0.210 HD
ENDBRANCH  13  31
TORSDOF 2
ENDMDL
