MODEL 1
REMARK VINA RESULT:   108.251      0.000      0.000
REMARK INTER + INTRA:         121.980
REMARK INTER:                 120.907
REMARK INTRA:                   1.073
REMARK UNBOUND:                 1.073
REMARK SMILES CC1(C)CC[C@@]2(CO)CC=C3[C@]4(C)CC[C@H]5C(C)(C)[C@@H](O)CC[C@@]5(C)[C@@H]4CC[C@@]3(C)[C@@H]2C1
REMARK SMILES IDX 1 1 2 2 4 3 5 4 6 5 9 6 10 7 11 8 12 9 14 10 15 11 16 12
REMARK SMILES IDX 17 13 20 14 22 15 23 16 24 17 26 18 27 19 28 20 29 21 31 22
REMARK SMILES IDX 32 23 30 24 25 25 18 26 19 27 13 28 3 29 7 30 8 31 21 33
REMARK H PARENT 8 32 21 34
REMARK Flexibility Score: inf
ROOT
ATOM      1  C   UNL     1     -39.125  20.670   6.145  1.00  0.00     0.011 C 
ATOM      2  C   UNL     1     -38.073  21.057   7.212  1.00  0.00    -0.035 C 
ATOM      3  C   UNL     1     -38.634  22.202   8.100  1.00  0.00     0.007 C 
ATOM      4  C   UNL     1     -38.680  23.561   7.380  1.00  0.00     0.010 C 
ATOM      5  C   UNL     1     -37.358  23.959   6.605  1.00  0.00     0.001 C 
ATOM      6  C   UNL     1     -36.850  25.299   7.168  1.00  0.00     0.037 C 
ATOM      7  C   UNL     1     -35.469  25.656   6.694  1.00  0.00    -0.026 C 
ATOM      8  C   UNL     1     -34.454  24.757   6.574  1.00  0.00    -0.062 C 
ATOM      9  C   UNL     1     -32.981  25.295   6.643  1.00  0.00    -0.008 C 
ATOM     10  C   UNL     1     -32.627  25.910   5.277  1.00  0.00     0.012 C 
ATOM     11  C   UNL     1     -31.367  26.753   5.345  1.00  0.00     0.006 C 
ATOM     12  C   UNL     1     -30.116  25.958   5.808  1.00  0.00     0.003 C 
ATOM     13  C   UNL     1     -28.949  26.886   6.364  1.00  0.00    -0.006 C 
ATOM     14  C   UNL     1     -27.722  25.980   6.698  1.00  0.00     0.120 C 
ATOM     15  C   UNL     1     -28.011  24.863   7.728  1.00  0.00     0.033 C 
ATOM     16  C   UNL     1     -29.492  24.484   7.876  1.00  0.00     0.010 C 
ATOM     17  C   UNL     1     -30.352  24.555   6.574  1.00  0.00    -0.025 C 
ATOM     18  C   UNL     1     -31.883  24.218   7.012  1.00  0.00     0.005 C 
ATOM     19  C   UNL     1     -32.311  22.757   6.733  1.00  0.00     0.006 C 
ATOM     20  C   UNL     1     -33.736  22.468   7.194  1.00  0.00     0.012 C 
ATOM     21  C   UNL     1     -34.780  23.257   6.365  1.00  0.00    -0.008 C 
ATOM     22  C   UNL     1     -36.234  22.891   6.885  1.00  0.00     0.008 C 
ATOM     23  C   UNL     1     -36.725  21.460   6.518  1.00  0.00     0.011 C 
ATOM     24  C   UNL     1     -34.629  22.852   4.865  1.00  0.00     0.016 C 
ATOM     25  C   UNL     1     -29.789  23.432   5.632  1.00  0.00     0.012 C 
ATOM     26  C   UNL     1     -28.512  27.875   5.247  1.00  0.00     0.014 C 
ATOM     27  C   UNL     1     -29.347  27.759   7.592  1.00  0.00     0.014 C 
ATOM     28  C   UNL     1     -32.922  26.381   7.777  1.00  0.00     0.016 C 
ATOM     29  C   UNL     1     -37.843  19.825   8.115  1.00  0.00     0.011 C 
ENDROOT
BRANCH   5  30
ATOM     30  C   UNL     1     -37.744  24.155   5.094  1.00  0.00     0.163 C 
BRANCH  30  31
ATOM     31  O   UNL     1     -37.238  23.141   4.265  1.00  0.00    -0.396 OA
ATOM     32  H   UNL     1     -36.423  22.793   4.711  1.00  0.00     0.210 HD
ENDBRANCH  30  31
ENDBRANCH   5  30
BRANCH  14  33
ATOM     33  O   UNL     1     -26.588  26.728   7.072  1.00  0.00    -0.393 OA
ATOM     34  H   UNL     1     -25.779  26.250   6.758  1.00  0.00     0.210 HD
ENDBRANCH  14  33
TORSDOF 3
ENDMDL
MODEL 2
REMARK VINA RESULT:   111.158     15.656     18.768
REMARK INTER + INTRA:         125.228
REMARK INTER:                 124.360
REMARK INTRA:                   0.868
REMARK UNBOUND:                 1.073
REMARK SMILES CC1(C)CC[C@@]2(CO)CC=C3[C@]4(C)CC[C@H]5C(C)(C)[C@@H](O)CC[C@@]5(C)[C@@H]4CC[C@@]3(C)[C@@H]2C1
REMARK SMILES IDX 1 1 2 2 4 3 5 4 6 5 9 6 10 7 11 8 12 9 14 10 15 11 16 12
REMARK SMILES IDX 17 13 20 14 22 15 23 16 24 17 26 18 27 19 28 20 29 21 31 22
REMARK SMILES IDX 32 23 30 24 25 25 18 26 19 27 13 28 3 29 7 30 8 31 21 33
REMARK H PARENT 8 32 21 34
REMARK Flexibility Score: inf
ROOT
ATOM      1  C   UNL     1     -18.930  23.218  -4.217  1.00  0.00     0.011 C 
ATOM      2  C   UNL     1     -20.094  23.222  -5.236  1.00  0.00    -0.035 C 
ATOM      3  C   UNL     1     -19.520  23.166  -6.678  1.00  0.00     0.007 C 
ATOM      4  C   UNL     1     -18.875  24.489  -7.126  1.00  0.00     0.010 C 
ATOM      5  C   UNL     1     -19.734  25.788  -6.844  1.00  0.00     0.001 C 
ATOM      6  C   UNL     1     -19.981  26.508  -8.182  1.00  0.00     0.037 C 
ATOM      7  C   UNL     1     -20.995  27.613  -8.083  1.00  0.00    -0.026 C 
ATOM      8  C   UNL     1     -22.141  27.526  -7.355  1.00  0.00    -0.062 C 
ATOM      9  C   UNL     1     -23.349  28.439  -7.768  1.00  0.00    -0.008 C 
ATOM     10  C   UNL     1     -23.088  29.857  -7.228  1.00  0.00     0.012 C 
ATOM     11  C   UNL     1     -24.015  30.881  -7.858  1.00  0.00     0.006 C 
ATOM     12  C   UNL     1     -25.520  30.585  -7.613  1.00  0.00     0.003 C 
ATOM     13  C   UNL     1     -26.482  31.314  -8.649  1.00  0.00    -0.006 C 
ATOM     14  C   UNL     1     -27.959  31.020  -8.235  1.00  0.00     0.120 C 
ATOM     15  C   UNL     1     -28.322  29.518  -8.181  1.00  0.00     0.033 C 
ATOM     16  C   UNL     1     -27.125  28.566  -8.034  1.00  0.00     0.010 C 
ATOM     17  C   UNL     1     -25.934  29.088  -7.170  1.00  0.00    -0.025 C 
ATOM     18  C   UNL     1     -24.767  27.957  -7.259  1.00  0.00     0.005 C 
ATOM     19  C   UNL     1     -24.713  27.011  -6.035  1.00  0.00     0.006 C 
ATOM     20  C   UNL     1     -23.635  25.941  -6.173  1.00  0.00     0.012 C 
ATOM     21  C   UNL     1     -22.211  26.551  -6.152  1.00  0.00    -0.008 C 
ATOM     22  C   UNL     1     -21.147  25.380  -6.278  1.00  0.00     0.008 C 
ATOM     23  C   UNL     1     -21.000  24.484  -5.013  1.00  0.00     0.011 C 
ATOM     24  C   UNL     1     -22.018  27.309  -4.801  1.00  0.00     0.016 C 
ATOM     25  C   UNL     1     -26.488  29.195  -5.704  1.00  0.00     0.012 C 
ATOM     26  C   UNL     1     -26.264  32.851  -8.550  1.00  0.00     0.014 C 
ATOM     27  C   UNL     1     -26.236  30.932 -10.140  1.00  0.00     0.014 C 
ATOM     28  C   UNL     1     -23.429  28.444  -9.337  1.00  0.00     0.016 C 
ATOM     29  C   UNL     1     -20.926  21.940  -5.005  1.00  0.00     0.011 C 
ENDROOT
BRANCH   5  30
ATOM     30  C   UNL     1     -18.876  26.721  -5.913  1.00  0.00     0.163 C 
BRANCH  30  31
ATOM     31  O   UNL     1     -19.257  26.648  -4.564  1.00  0.00    -0.396 OA
ATOM     32  H   UNL     1     -18.531  26.162  -4.093  1.00  0.00     0.210 HD
ENDBRANCH  30  31
ENDBRANCH   5  30
BRANCH  14  33
ATOM     33  O   UNL     1     -28.889  31.734  -9.016  1.00  0.00    -0.393 OA
ATOM     34  H   UNL     1     -28.980  32.646  -8.640  1.00  0.00     0.210 HD
ENDBRANCH  14  33
TORSDOF 3
ENDMDL
