MODEL 1
REMARK VINA RESULT:    -2.666      0.000      0.000
REMARK INTER + INTRA:          -3.765
REMARK INTER:                  -3.523
REMARK INTRA:                  -0.242
REMARK UNBOUND:                -0.242
REMARK SMILES C=C[C@H](O)CCCCC
REMARK SMILES IDX 6 1 7 2 8 3 9 4 5 5 3 6 2 7 1 8 4 9
REMARK H PARENT 4 10
REMARK Flexibility Score: inf
ROOT
ATOM      1  C   UNL     1     -35.746  34.070 -10.912  1.00  0.00     0.003 C 
ENDROOT
BRANCH   1   2
ATOM      2  C   UNL     1     -34.789  34.327 -12.087  1.00  0.00    -0.000 C 
BRANCH   2   3
ATOM      3  C   UNL     1     -34.212  35.750 -12.083  1.00  0.00    -0.003 C 
ATOM      4  C   UNL     1     -32.689  35.725 -12.000  1.00  0.00     0.004 C 
ENDBRANCH   2   3
ENDBRANCH   1   2
BRANCH   1   5
ATOM      5  C   UNL     1     -36.933  33.173 -11.300  1.00  0.00     0.036 C 
BRANCH   5   6
ATOM      6  C   UNL     1     -38.266  33.724 -10.759  1.00  0.00     0.136 C 
BRANCH   6   7
ATOM      7  C   UNL     1     -38.095  35.135 -10.253  1.00  0.00    -0.004 C 
ATOM      8  C   UNL     1     -38.783  35.608  -9.207  1.00  0.00     0.007 C 
ENDBRANCH   6   7
BRANCH   6   9
ATOM      9  O   UNL     1     -38.748  32.915  -9.716  1.00  0.00    -0.389 OA
ATOM     10  H   UNL     1     -38.067  32.212  -9.551  1.00  0.00     0.211 HD
ENDBRANCH   6   9
ENDBRANCH   5   6
ENDBRANCH   1   5
TORSDOF 6
ENDMDL
MODEL 2
REMARK VINA RESULT:    -2.540      1.772      4.591
REMARK INTER + INTRA:          -3.599
REMARK INTER:                  -3.345
REMARK INTRA:                  -0.254
REMARK UNBOUND:                -0.242
REMARK SMILES C=C[C@H](O)CCCCC
REMARK SMILES IDX 6 1 7 2 8 3 9 4 5 5 3 6 2 7 1 8 4 9
REMARK H PARENT 4 10
REMARK Flexibility Score: inf
ROOT
ATOM      1  C   UNL     1     -35.961  33.270 -11.109  1.00  0.00     0.003 C 
ENDROOT
BRANCH   1   2
ATOM      2  C   UNL     1     -37.165  32.600 -11.789  1.00  0.00    -0.000 C 
BRANCH   2   3
ATOM      3  C   UNL     1     -38.510  33.135 -11.276  1.00  0.00    -0.003 C 
ATOM      4  C   UNL     1     -38.329  33.931  -9.987  1.00  0.00     0.004 C 
ENDBRANCH   2   3
ENDBRANCH   1   2
BRANCH   1   5
ATOM      5  C   UNL     1     -34.949  33.836 -12.120  1.00  0.00     0.036 C 
BRANCH   5   6
ATOM      6  C   UNL     1     -34.839  35.369 -12.022  1.00  0.00     0.136 C 
BRANCH   6   7
ATOM      7  C   UNL     1     -33.421  35.784 -11.716  1.00  0.00    -0.004 C 
ATOM      8  C   UNL     1     -32.364  35.073 -12.125  1.00  0.00     0.007 C 
ENDBRANCH   6   7
BRANCH   6   9
ATOM      9  O   UNL     1     -35.691  35.862 -11.020  1.00  0.00    -0.389 OA
ATOM     10  H   UNL     1     -35.210  35.774 -10.156  1.00  0.00     0.211 HD
ENDBRANCH   6   9
ENDBRANCH   5   6
ENDBRANCH   1   5
TORSDOF 6
ENDMDL
MODEL 3
REMARK VINA RESULT:    -2.441     20.071     21.068
REMARK INTER + INTRA:          -3.468
REMARK INTER:                  -3.560
REMARK INTRA:                   0.091
REMARK UNBOUND:                -0.242
REMARK SMILES C=C[C@H](O)CCCCC
REMARK SMILES IDX 6 1 7 2 8 3 9 4 5 5 3 6 2 7 1 8 4 9
REMARK H PARENT 4 10
REMARK Flexibility Score: inf
ROOT
ATOM      1  C   UNL     1     -38.773  21.205   5.819  1.00  0.00     0.003 C 
ENDROOT
BRANCH   1   2
ATOM      2  C   UNL     1     -39.125  21.948   4.520  1.00  0.00    -0.000 C 
BRANCH   2   3
ATOM      3  C   UNL     1     -38.131  23.071   4.191  1.00  0.00    -0.003 C 
ATOM      4  C   UNL     1     -38.859  24.333   3.735  1.00  0.00     0.004 C 
ENDBRANCH   2   3
ENDBRANCH   1   2
BRANCH   1   5
ATOM      5  C   UNL     1     -39.008  22.063   7.074  1.00  0.00     0.036 C 
BRANCH   5   6
ATOM      6  C   UNL     1     -37.683  22.440   7.765  1.00  0.00     0.136 C 
BRANCH   6   7
ATOM      7  C   UNL     1     -36.912  23.435   6.935  1.00  0.00    -0.004 C 
ATOM      8  C   UNL     1     -35.598  23.316   6.713  1.00  0.00     0.007 C 
ENDBRANCH   6   7
BRANCH   6   9
ATOM      9  O   UNL     1     -36.892  21.297   7.970  1.00  0.00    -0.389 OA
ATOM     10  H   UNL     1     -37.086  20.966   8.885  1.00  0.00     0.211 HD
ENDBRANCH   6   9
ENDBRANCH   5   6
ENDBRANCH   1   5
TORSDOF 6
ENDMDL
MODEL 4
REMARK VINA RESULT:    -1.866      1.654      2.086
REMARK INTER + INTRA:          -2.708
REMARK INTER:                  -2.313
REMARK INTRA:                  -0.396
REMARK UNBOUND:                -0.242
REMARK SMILES C=C[C@H](O)CCCCC
REMARK SMILES IDX 6 1 7 2 8 3 9 4 5 5 3 6 2 7 1 8 4 9
REMARK H PARENT 4 10
REMARK Flexibility Score: inf
ROOT
ATOM      1  C   UNL     1     -35.874  33.032 -10.732  1.00  0.00     0.003 C 
ENDROOT
BRANCH   1   2
ATOM      2  C   UNL     1     -34.983  34.127 -11.340  1.00  0.00    -0.000 C 
BRANCH   2   3
ATOM      3  C   UNL     1     -35.657  35.507 -11.344  1.00  0.00    -0.003 C 
ATOM      4  C   UNL     1     -36.358  35.779 -10.016  1.00  0.00     0.004 C 
ENDBRANCH   2   3
ENDBRANCH   1   2
BRANCH   1   5
ATOM      5  C   UNL     1     -36.914  32.494 -11.729  1.00  0.00     0.036 C 
BRANCH   5   6
ATOM      6  C   UNL     1     -38.353  32.689 -11.215  1.00  0.00     0.136 C 
BRANCH   6   7
ATOM      7  C   UNL     1     -39.125  33.613 -12.124  1.00  0.00    -0.004 C 
ATOM      8  C   UNL     1     -39.104  34.943 -11.976  1.00  0.00     0.007 C 
ENDBRANCH   6   7
BRANCH   6   9
ATOM      9  O   UNL     1     -38.344  33.221  -9.915  1.00  0.00    -0.389 OA
ATOM     10  H   UNL     1     -37.611  32.773  -9.419  1.00  0.00     0.211 HD
ENDBRANCH   6   9
ENDBRANCH   5   6
ENDBRANCH   1   5
TORSDOF 6
ENDMDL
MODEL 5
REMARK VINA RESULT:    -1.150      1.576      2.982
REMARK INTER + INTRA:          -1.763
REMARK INTER:                  -2.254
REMARK INTRA:                   0.492
REMARK UNBOUND:                -0.242
REMARK SMILES C=C[C@H](O)CCCCC
REMARK SMILES IDX 6 1 7 2 8 3 9 4 5 5 3 6 2 7 1 8 4 9
REMARK H PARENT 4 10
REMARK Flexibility Score: inf
ROOT
ATOM      1  C   UNL     1     -38.357  35.584 -11.628  1.00  0.00     0.003 C 
ENDROOT
BRANCH   1   2
ATOM      2  C   UNL     1     -37.808  36.107 -10.291  1.00  0.00    -0.000 C 
BRANCH   2   3
ATOM      3  C   UNL     1     -36.317  35.792 -10.098  1.00  0.00    -0.003 C 
ATOM      4  C   UNL     1     -35.518  36.125 -11.355  1.00  0.00     0.004 C 
ENDBRANCH   2   3
ENDBRANCH   1   2
BRANCH   1   5
ATOM      5  C   UNL     1     -38.678  34.081 -11.588  1.00  0.00     0.036 C 
BRANCH   5   6
ATOM      6  C   UNL     1     -37.968  33.375 -10.417  1.00  0.00     0.136 C 
BRANCH   6   7
ATOM      7  C   UNL     1     -36.677  32.745 -10.877  1.00  0.00    -0.004 C 
ATOM      8  C   UNL     1     -36.577  32.086 -12.037  1.00  0.00     0.007 C 
ENDBRANCH   6   7
BRANCH   6   9
ATOM      9  O   UNL     1     -38.795  32.383  -9.865  1.00  0.00    -0.389 OA
ATOM     10  H   UNL     1     -39.734  32.645 -10.053  1.00  0.00     0.211 HD
ENDBRANCH   6   9
ENDBRANCH   5   6
ENDBRANCH   1   5
TORSDOF 6
ENDMDL
MODEL 6
REMARK VINA RESULT:    -0.610      1.759      3.310
REMARK INTER + INTRA:          -1.048
REMARK INTER:                  -1.474
REMARK INTRA:                   0.426
REMARK UNBOUND:                -0.242
REMARK SMILES C=C[C@H](O)CCCCC
REMARK SMILES IDX 6 1 7 2 8 3 9 4 5 5 3 6 2 7 1 8 4 9
REMARK H PARENT 4 10
REMARK Flexibility Score: inf
ROOT
ATOM      1  C   UNL     1     -36.073  35.377 -11.338  1.00  0.00     0.003 C 
ENDROOT
BRANCH   1   2
ATOM      2  C   UNL     1     -37.163  36.125 -12.121  1.00  0.00    -0.000 C 
BRANCH   2   3
ATOM      3  C   UNL     1     -38.577  35.621 -11.798  1.00  0.00    -0.003 C 
ATOM      4  C   UNL     1     -38.936  35.892 -10.339  1.00  0.00     0.004 C 
ENDBRANCH   2   3
ENDBRANCH   1   2
BRANCH   1   5
ATOM      5  C   UNL     1     -36.016  33.879 -11.685  1.00  0.00     0.036 C 
BRANCH   5   6
ATOM      6  C   UNL     1     -36.716  33.018 -10.616  1.00  0.00     0.136 C 
BRANCH   6   7
ATOM      7  C   UNL     1     -38.135  32.710 -11.025  1.00  0.00    -0.004 C 
ATOM      8  C   UNL     1     -39.090  32.424 -10.132  1.00  0.00     0.007 C 
ENDBRANCH   6   7
BRANCH   6   9
ATOM      9  O   UNL     1     -36.725  33.681  -9.377  1.00  0.00    -0.389 OA
ATOM     10  H   UNL     1     -37.452  34.356  -9.410  1.00  0.00     0.211 HD
ENDBRANCH   6   9
ENDBRANCH   5   6
ENDBRANCH   1   5
TORSDOF 6
ENDMDL
