MODEL 1
REMARK VINA RESULT:    -4.086      0.000      0.000
REMARK INTER + INTRA:          -4.205
REMARK INTER:                  -4.205
REMARK INTRA:                   0.000
REMARK UNBOUND:                 0.000
REMARK SMILES Oc1ccc2[nH]ccc2c1
REMARK SMILES IDX 3 1 4 2 5 3 9 4 8 5 7 6 6 7 10 8 2 9 1 11
REMARK H PARENT 6 10 1 12
REMARK Flexibility Score: inf
ROOT
ATOM      1  C   UNL     1      11.099  32.504  28.653  1.00  0.00     0.048 A 
ATOM      2  C   UNL     1      11.479  31.581  29.645  1.00  0.00     0.030 A 
ATOM      3  C   UNL     1      12.837  31.306  29.793  1.00  0.00     0.046 A 
ATOM      4  C   UNL     1      13.783  31.907  29.005  1.00  0.00     0.003 A 
ATOM      5  C   UNL     1      15.013  31.426  29.399  1.00  0.00     0.028 A 
ATOM      6  C   UNL     1      14.741  30.535  30.431  1.00  0.00     0.083 A 
ATOM      7  N   UNL     1      13.410  30.466  30.669  1.00  0.00    -0.361 N 
ATOM      8  C   UNL     1      13.441  32.824  28.014  1.00  0.00     0.056 A 
ATOM      9  C   UNL     1      12.073  33.125  27.838  1.00  0.00     0.116 A 
ATOM     10  H   UNL     1      12.932  29.877  31.386  1.00  0.00     0.166 HD
ENDROOT
BRANCH   9  11
ATOM     11  O   UNL     1      11.671  34.036  26.863  1.00  0.00    -0.508 OA
ATOM     12  H   UNL     1      11.566  35.022  27.072  1.00  0.00     0.293 HD
ENDBRANCH   9  11
TORSDOF 1
ENDMDL
MODEL 2
REMARK VINA RESULT:    -4.031     16.104     16.952
REMARK INTER + INTRA:          -4.149
REMARK INTER:                  -4.149
REMARK INTRA:                   0.000
REMARK UNBOUND:                 0.000
REMARK SMILES Oc1ccc2[nH]ccc2c1
REMARK SMILES IDX 3 1 4 2 5 3 9 4 8 5 7 6 6 7 10 8 2 9 1 11
REMARK H PARENT 6 10 1 12
REMARK Flexibility Score: inf
ROOT
ATOM      1  C   UNL     1      28.744  29.176  23.980  1.00  0.00     0.048 A 
ATOM      2  C   UNL     1      29.057  29.791  22.754  1.00  0.00     0.030 A 
ATOM      3  C   UNL     1      28.875  31.169  22.653  1.00  0.00     0.046 A 
ATOM      4  C   UNL     1      28.407  31.913  23.704  1.00  0.00     0.003 A 
ATOM      5  C   UNL     1      28.343  33.224  23.285  1.00  0.00     0.028 A 
ATOM      6  C   UNL     1      28.785  33.206  21.967  1.00  0.00     0.083 A 
ATOM      7  N   UNL     1      29.110  31.949  21.585  1.00  0.00    -0.361 N 
ATOM      8  C   UNL     1      28.088  31.335  24.930  1.00  0.00     0.056 A 
ATOM      9  C   UNL     1      28.261  29.940  25.067  1.00  0.00     0.116 A 
ATOM     10  H   UNL     1      29.468  31.651  20.651  1.00  0.00     0.166 HD
ENDROOT
BRANCH   9  11
ATOM     11  O   UNL     1      27.959  29.306  26.270  1.00  0.00    -0.508 OA
ATOM     12  H   UNL     1      28.420  29.564  27.134  1.00  0.00     0.293 HD
ENDBRANCH   9  11
TORSDOF 1
ENDMDL
MODEL 3
REMARK VINA RESULT:    -4.006     16.490     17.550
REMARK INTER + INTRA:          -4.123
REMARK INTER:                  -4.123
REMARK INTRA:                   0.000
REMARK UNBOUND:                 0.000
REMARK SMILES Oc1ccc2[nH]ccc2c1
REMARK SMILES IDX 3 1 4 2 5 3 9 4 8 5 7 6 6 7 10 8 2 9 1 11
REMARK H PARENT 6 10 1 12
REMARK Flexibility Score: inf
ROOT
ATOM      1  C   UNL     1      25.370  36.911  19.908  1.00  0.00     0.048 A 
ATOM      2  C   UNL     1      26.169  37.558  18.948  1.00  0.00     0.030 A 
ATOM      3  C   UNL     1      26.507  38.891  19.174  1.00  0.00     0.046 A 
ATOM      4  C   UNL     1      26.082  39.562  20.290  1.00  0.00     0.003 A 
ATOM      5  C   UNL     1      26.581  40.844  20.215  1.00  0.00     0.028 A 
ATOM      6  C   UNL     1      27.301  40.885  19.026  1.00  0.00     0.083 A 
ATOM      7  N   UNL     1      27.254  39.690  18.394  1.00  0.00    -0.361 N 
ATOM      8  C   UNL     1      25.290  38.951  21.259  1.00  0.00     0.056 A 
ATOM      9  C   UNL     1      24.929  37.601  21.061  1.00  0.00     0.116 A 
ATOM     10  H   UNL     1      27.705  39.443  17.486  1.00  0.00     0.166 HD
ENDROOT
BRANCH   9  11
ATOM     11  O   UNL     1      24.139  36.936  21.996  1.00  0.00    -0.508 OA
ATOM     12  H   UNL     1      24.457  36.088  22.449  1.00  0.00     0.293 HD
ENDBRANCH   9  11
TORSDOF 1
ENDMDL
MODEL 4
REMARK VINA RESULT:    -4.002     15.773     16.760
REMARK INTER + INTRA:          -4.119
REMARK INTER:                  -4.119
REMARK INTRA:                   0.000
REMARK UNBOUND:                 0.000
REMARK SMILES Oc1ccc2[nH]ccc2c1
REMARK SMILES IDX 3 1 4 2 5 3 9 4 8 5 7 6 6 7 10 8 2 9 1 11
REMARK H PARENT 6 10 1 12
REMARK Flexibility Score: inf
ROOT
ATOM      1  C   UNL     1      24.355  36.833  20.585  1.00  0.00     0.048 A 
ATOM      2  C   UNL     1      24.236  37.988  21.380  1.00  0.00     0.030 A 
ATOM      3  C   UNL     1      25.152  39.018  21.172  1.00  0.00     0.046 A 
ATOM      4  C   UNL     1      26.142  38.922  20.231  1.00  0.00     0.003 A 
ATOM      5  C   UNL     1      26.869  40.092  20.276  1.00  0.00     0.028 A 
ATOM      6  C   UNL     1      26.266  40.855  21.271  1.00  0.00     0.083 A 
ATOM      7  N   UNL     1      25.218  40.195  21.815  1.00  0.00    -0.361 N 
ATOM      8  C   UNL     1      26.288  37.793  19.428  1.00  0.00     0.056 A 
ATOM      9  C   UNL     1      25.376  36.731  19.612  1.00  0.00     0.116 A 
ATOM     10  H   UNL     1      24.592  40.535  22.578  1.00  0.00     0.166 HD
ENDROOT
BRANCH   9  11
ATOM     11  O   UNL     1      25.472  35.576  18.839  1.00  0.00    -0.508 OA
ATOM     12  H   UNL     1      25.066  35.525  17.912  1.00  0.00     0.293 HD
ENDBRANCH   9  11
TORSDOF 1
ENDMDL
MODEL 5
REMARK VINA RESULT:    -3.940     15.426     16.352
REMARK INTER + INTRA:          -4.055
REMARK INTER:                  -4.055
REMARK INTRA:                   0.000
REMARK UNBOUND:                 0.000
REMARK SMILES Oc1ccc2[nH]ccc2c1
REMARK SMILES IDX 3 1 4 2 5 3 9 4 8 5 7 6 6 7 10 8 2 9 1 11
REMARK H PARENT 6 10 1 12
REMARK Flexibility Score: inf
ROOT
ATOM      1  C   UNL     1      23.783  36.953  20.510  1.00  0.00     0.048 A 
ATOM      2  C   UNL     1      24.947  37.282  21.230  1.00  0.00     0.030 A 
ATOM      3  C   UNL     1      26.176  36.920  20.680  1.00  0.00     0.046 A 
ATOM      4  C   UNL     1      26.263  36.264  19.481  1.00  0.00     0.003 A 
ATOM      5  C   UNL     1      27.600  36.055  19.223  1.00  0.00     0.028 A 
ATOM      6  C   UNL     1      28.271  36.608  20.308  1.00  0.00     0.083 A 
ATOM      7  N   UNL     1      27.397  37.136  21.196  1.00  0.00    -0.361 N 
ATOM      8  C   UNL     1      25.131  35.924  18.744  1.00  0.00     0.056 A 
ATOM      9  C   UNL     1      23.870  36.276  19.272  1.00  0.00     0.116 A 
ATOM     10  H   UNL     1      27.628  37.611  22.096  1.00  0.00     0.166 HD
ENDROOT
BRANCH   9  11
ATOM     11  O   UNL     1      22.703  35.962  18.580  1.00  0.00    -0.508 OA
ATOM     12  H   UNL     1      22.717  35.359  17.766  1.00  0.00     0.293 HD
ENDBRANCH   9  11
TORSDOF 1
ENDMDL
MODEL 6
REMARK VINA RESULT:    -3.934     15.954     17.026
REMARK INTER + INTRA:          -4.049
REMARK INTER:                  -4.049
REMARK INTRA:                   0.000
REMARK UNBOUND:                 0.000
REMARK SMILES Oc1ccc2[nH]ccc2c1
REMARK SMILES IDX 3 1 4 2 5 3 9 4 8 5 7 6 6 7 10 8 2 9 1 11
REMARK H PARENT 6 10 1 12
REMARK Flexibility Score: inf
ROOT
ATOM      1  C   UNL     1      27.509  38.793  19.593  1.00  0.00     0.048 A 
ATOM      2  C   UNL     1      26.455  39.555  20.132  1.00  0.00     0.030 A 
ATOM      3  C   UNL     1      25.386  38.871  20.708  1.00  0.00     0.046 A 
ATOM      4  C   UNL     1      25.348  37.503  20.754  1.00  0.00     0.003 A 
ATOM      5  C   UNL     1      24.173  37.145  21.380  1.00  0.00     0.028 A 
ATOM      6  C   UNL     1      23.544  38.347  21.686  1.00  0.00     0.083 A 
ATOM      7  N   UNL     1      24.289  39.399  21.275  1.00  0.00    -0.361 N 
ATOM      8  C   UNL     1      26.373  36.720  20.231  1.00  0.00     0.056 A 
ATOM      9  C   UNL     1      27.472  37.380  19.640  1.00  0.00     0.116 A 
ATOM     10  H   UNL     1      24.054  40.411  21.377  1.00  0.00     0.166 HD
ENDROOT
BRANCH   9  11
ATOM     11  O   UNL     1      28.528  36.650  19.099  1.00  0.00    -0.508 OA
ATOM     12  H   UNL     1      28.405  36.074  18.275  1.00  0.00     0.293 HD
ENDBRANCH   9  11
TORSDOF 1
ENDMDL
MODEL 7
REMARK VINA RESULT:    -3.882     18.361     19.353
REMARK INTER + INTRA:          -3.996
REMARK INTER:                  -3.996
REMARK INTRA:                   0.000
REMARK UNBOUND:                 0.000
REMARK SMILES Oc1ccc2[nH]ccc2c1
REMARK SMILES IDX 3 1 4 2 5 3 9 4 8 5 7 6 6 7 10 8 2 9 1 11
REMARK H PARENT 6 10 1 12
REMARK Flexibility Score: inf
ROOT
ATOM      1  C   UNL     1      27.074  43.792  20.273  1.00  0.00     0.048 A 
ATOM      2  C   UNL     1      26.399  42.974  21.197  1.00  0.00     0.030 A 
ATOM      3  C   UNL     1      26.306  41.613  20.915  1.00  0.00     0.046 A 
ATOM      4  C   UNL     1      26.848  41.075  19.778  1.00  0.00     0.003 A 
ATOM      5  C   UNL     1      26.586  39.722  19.798  1.00  0.00     0.028 A 
ATOM      6  C   UNL     1      25.879  39.506  20.976  1.00  0.00     0.083 A 
ATOM      7  N   UNL     1      25.711  40.663  21.655  1.00  0.00    -0.361 N 
ATOM      8  C   UNL     1      27.521  41.856  18.843  1.00  0.00     0.056 A 
ATOM      9  C   UNL     1      27.634  43.240  19.098  1.00  0.00     0.116 A 
ATOM     10  H   UNL     1      25.218  40.788  22.567  1.00  0.00     0.166 HD
ENDROOT
BRANCH   9  11
ATOM     11  O   UNL     1      28.297  44.072  18.199  1.00  0.00    -0.508 OA
ATOM     12  H   UNL     1      27.972  45.013  18.011  1.00  0.00     0.293 HD
ENDBRANCH   9  11
TORSDOF 1
ENDMDL
MODEL 8
REMARK VINA RESULT:    -3.859     15.650     16.697
REMARK INTER + INTRA:          -3.972
REMARK INTER:                  -3.972
REMARK INTRA:                   0.000
REMARK UNBOUND:                 0.000
REMARK SMILES Oc1ccc2[nH]ccc2c1
REMARK SMILES IDX 3 1 4 2 5 3 9 4 8 5 7 6 6 7 10 8 2 9 1 11
REMARK H PARENT 6 10 1 12
REMARK Flexibility Score: inf
ROOT
ATOM      1  C   UNL     1      26.710  38.042  21.329  1.00  0.00     0.048 A 
ATOM      2  C   UNL     1      25.310  37.894  21.336  1.00  0.00     0.030 A 
ATOM      3  C   UNL     1      24.736  37.095  20.350  1.00  0.00     0.046 A 
ATOM      4  C   UNL     1      25.496  36.469  19.397  1.00  0.00     0.003 A 
ATOM      5  C   UNL     1      24.636  35.766  18.581  1.00  0.00     0.028 A 
ATOM      6  C   UNL     1      23.367  36.009  19.095  1.00  0.00     0.083 A 
ATOM      7  N   UNL     1      23.433  36.821  20.175  1.00  0.00    -0.361 N 
ATOM      8  C   UNL     1      26.882  36.596  19.362  1.00  0.00     0.056 A 
ATOM      9  C   UNL     1      27.496  37.398  20.347  1.00  0.00     0.116 A 
ATOM     10  H   UNL     1      22.632  37.163  20.751  1.00  0.00     0.166 HD
ENDROOT
BRANCH   9  11
ATOM     11  O   UNL     1      28.880  37.562  20.363  1.00  0.00    -0.508 OA
ATOM     12  H   UNL     1      29.499  36.807  20.634  1.00  0.00     0.293 HD
ENDBRANCH   9  11
TORSDOF 1
ENDMDL
MODEL 9
REMARK VINA RESULT:    -3.773     16.421     16.773
REMARK INTER + INTRA:          -3.883
REMARK INTER:                  -3.883
REMARK INTRA:                   0.000
REMARK UNBOUND:                 0.000
REMARK SMILES Oc1ccc2[nH]ccc2c1
REMARK SMILES IDX 3 1 4 2 5 3 9 4 8 5 7 6 6 7 10 8 2 9 1 11
REMARK H PARENT 6 10 1 12
REMARK Flexibility Score: inf
ROOT
ATOM      1  C   UNL     1      28.832  29.658  22.809  1.00  0.00     0.048 A 
ATOM      2  C   UNL     1      28.769  28.924  24.008  1.00  0.00     0.030 A 
ATOM      3  C   UNL     1      28.874  29.626  25.207  1.00  0.00     0.046 A 
ATOM      4  C   UNL     1      29.037  30.986  25.234  1.00  0.00     0.003 A 
ATOM      5  C   UNL     1      29.107  31.367  26.556  1.00  0.00     0.028 A 
ATOM      6  C   UNL     1      28.981  30.186  27.281  1.00  0.00     0.083 A 
ATOM      7  N   UNL     1      28.839  29.126  26.453  1.00  0.00    -0.361 N 
ATOM      8  C   UNL     1      29.104  31.742  24.066  1.00  0.00     0.056 A 
ATOM      9  C   UNL     1      29.000  31.062  22.833  1.00  0.00     0.116 A 
ATOM     10  H   UNL     1      28.726  28.126  26.730  1.00  0.00     0.166 HD
ENDROOT
BRANCH   9  11
ATOM     11  O   UNL     1      29.060  31.765  21.632  1.00  0.00    -0.508 OA
ATOM     12  H   UNL     1      28.756  31.349  20.760  1.00  0.00     0.293 HD
ENDBRANCH   9  11
TORSDOF 1
ENDMDL
