MODEL 1
REMARK VINA RESULT:    -5.038      0.000      0.000
REMARK INTER + INTRA:         -19.219
REMARK INTER:                 -13.285
REMARK INTRA:                  -5.934
REMARK UNBOUND:                -5.934
REMARK SMILES CCCCCCCCCCCCCCCCCCCCCCCCCCCCCC(=O)[O-]
REMARK SMILES IDX 16 1 17 2 18 3 19 4 20 5 21 6 22 7 23 8 24 9 25 10 26 11
REMARK SMILES IDX 27 12 28 13 29 14 30 15 31 16 32 17 15 18 14 19 13 20 12 21
REMARK SMILES IDX 11 22 10 23 9 24 8 25 7 26 6 27 5 28 4 29 3 30 2 31 1 32
REMARK H PARENT
REMARK Flexibility Score: inf
ROOT
ATOM      1  C   UNL     1      75.586  13.865  15.038  1.00  0.00     0.000 C 
ENDROOT
BRANCH   1   2
ATOM      2  C   UNL     1      75.044  12.787  15.991  1.00  0.00     0.000 C 
BRANCH   2   3
ATOM      3  C   UNL     1      74.985  13.304  17.433  1.00  0.00     0.000 C 
BRANCH   3   4
ATOM      4  C   UNL     1      74.135  12.374  18.313  1.00  0.00     0.000 C 
BRANCH   4   5
ATOM      5  C   UNL     1      74.833  11.994  19.628  1.00  0.00     0.000 C 
BRANCH   5   6
ATOM      6  C   UNL     1      76.283  12.498  19.697  1.00  0.00     0.000 C 
BRANCH   6   7
ATOM      7  C   UNL     1      77.136  11.598  20.600  1.00  0.00     0.000 C 
BRANCH   7   8
ATOM      8  C   UNL     1      77.176  10.160  20.061  1.00  0.00     0.000 C 
BRANCH   8   9
ATOM      9  C   UNL     1      77.919  10.044  18.717  1.00  0.00     0.000 C 
BRANCH   9  10
ATOM     10  C   UNL     1      77.096   9.431  17.569  1.00  0.00     0.000 C 
BRANCH  10  11
ATOM     11  C   UNL     1      77.456  10.022  16.195  1.00  0.00     0.000 C 
BRANCH  11  12
ATOM     12  C   UNL     1      78.451  11.190  16.292  1.00  0.00     0.000 C 
BRANCH  12  13
ATOM     13  C   UNL     1      79.216  11.431  14.981  1.00  0.00     0.006 C 
BRANCH  13  14
ATOM     14  C   UNL     1      78.311  11.185  13.768  1.00  0.00     0.053 C 
BRANCH  14  15
ATOM     15  C   UNL     1      78.753  12.006  12.596  1.00  0.00     0.041 C 
ATOM     16  O   UNL     1      79.619  11.560  11.797  1.00  0.00    -0.550 OA
ATOM     17  O   UNL     1      78.209  13.269  12.387  1.00  0.00    -0.550 OA
ENDBRANCH  14  15
ENDBRANCH  13  14
ENDBRANCH  12  13
ENDBRANCH  11  12
ENDBRANCH  10  11
ENDBRANCH   9  10
ENDBRANCH   8   9
ENDBRANCH   7   8
ENDBRANCH   6   7
ENDBRANCH   5   6
ENDBRANCH   4   5
ENDBRANCH   3   4
ENDBRANCH   2   3
ENDBRANCH   1   2
BRANCH   1  18
ATOM     18  C   UNL     1      75.763  15.229  15.724  1.00  0.00     0.000 C 
BRANCH  18  19
ATOM     19  C   UNL     1      74.779  16.287  15.200  1.00  0.00     0.000 C 
BRANCH  19  20
ATOM     20  C   UNL     1      75.423  17.683  15.194  1.00  0.00     0.000 C 
BRANCH  20  21
ATOM     21  C   UNL     1      76.574  17.809  16.207  1.00  0.00     0.000 C 
BRANCH  21  22
ATOM     22  C   UNL     1      77.772  18.592  15.643  1.00  0.00     0.000 C 
BRANCH  22  23
ATOM     23  C   UNL     1      79.025  17.716  15.482  1.00  0.00     0.000 C 
BRANCH  23  24
ATOM     24  C   UNL     1      78.831  16.581  14.461  1.00  0.00    -0.000 C 
BRANCH  24  25
ATOM     25  C   UNL     1      79.350  15.230  14.980  1.00  0.00    -0.000 C 
BRANCH  25  26
ATOM     26  C   UNL     1      79.687  15.268  16.482  1.00  0.00    -0.000 C 
BRANCH  26  27
ATOM     27  C   UNL     1      78.647  14.530  17.337  1.00  0.00    -0.000 C 
BRANCH  27  28
ATOM     28  C   UNL     1      78.227  15.335  18.580  1.00  0.00    -0.000 C 
BRANCH  28  29
ATOM     29  C   UNL     1      79.289  16.362  19.011  1.00  0.00    -0.000 C 
BRANCH  29  30
ATOM     30  C   UNL     1      79.893  16.121  20.411  1.00  0.00    -0.000 C 
BRANCH  30  31
ATOM     31  C   UNL     1      80.141  14.644  20.764  1.00  0.00    -0.003 C 
ATOM     32  C   UNL     1      81.568  14.192  20.465  1.00  0.00     0.004 C 
ENDBRANCH  30  31
ENDBRANCH  29  30
ENDBRANCH  28  29
ENDBRANCH  27  28
ENDBRANCH  26  27
ENDBRANCH  25  26
ENDBRANCH  24  25
ENDBRANCH  23  24
ENDBRANCH  22  23
ENDBRANCH  21  22
ENDBRANCH  20  21
ENDBRANCH  19  20
ENDBRANCH  18  19
ENDBRANCH   1  18
TORSDOF 28
ENDMDL
MODEL 2
REMARK VINA RESULT:    -5.025      1.685      2.941
REMARK INTER + INTRA:         -19.183
REMARK INTER:                 -12.583
REMARK INTRA:                  -6.601
REMARK UNBOUND:                -5.934
REMARK SMILES CCCCCCCCCCCCCCCCCCCCCCCCCCCCCC(=O)[O-]
REMARK SMILES IDX 16 1 17 2 18 3 19 4 20 5 21 6 22 7 23 8 24 9 25 10 26 11
REMARK SMILES IDX 27 12 28 13 29 14 30 15 31 16 32 17 15 18 14 19 13 20 12 21
REMARK SMILES IDX 11 22 10 23 9 24 8 25 7 26 6 27 5 28 4 29 3 30 2 31 1 32
REMARK H PARENT
REMARK Flexibility Score: inf
ROOT
ATOM      1  C   UNL     1      75.400  15.142  15.011  1.00  0.00     0.000 C 
ENDROOT
BRANCH   1   2
ATOM      2  C   UNL     1      75.006  14.191  16.153  1.00  0.00     0.000 C 
BRANCH   2   3
ATOM      3  C   UNL     1      75.267  14.831  17.521  1.00  0.00     0.000 C 
BRANCH   3   4
ATOM      4  C   UNL     1      74.474  14.111  18.622  1.00  0.00     0.000 C 
BRANCH   4   5
ATOM      5  C   UNL     1      74.136  12.656  18.259  1.00  0.00     0.000 C 
BRANCH   5   6
ATOM      6  C   UNL     1      74.528  11.663  19.364  1.00  0.00     0.000 C 
BRANCH   6   7
ATOM      7  C   UNL     1      75.888  12.025  19.974  1.00  0.00     0.000 C 
BRANCH   7   8
ATOM      8  C   UNL     1      76.773  10.778  20.120  1.00  0.00     0.000 C 
BRANCH   8   9
ATOM      9  C   UNL     1      76.958  10.016  18.794  1.00  0.00     0.000 C 
BRANCH   9  10
ATOM     10  C   UNL     1      77.812  10.745  17.740  1.00  0.00     0.000 C 
BRANCH  10  11
ATOM     11  C   UNL     1      77.005  11.148  16.494  1.00  0.00     0.000 C 
BRANCH  11  12
ATOM     12  C   UNL     1      77.899  11.470  15.284  1.00  0.00     0.000 C 
BRANCH  12  13
ATOM     13  C   UNL     1      78.388  12.927  15.277  1.00  0.00     0.006 C 
BRANCH  13  14
ATOM     14  C   UNL     1      78.447  13.477  13.847  1.00  0.00     0.053 C 
BRANCH  14  15
ATOM     15  C   UNL     1      79.841  13.890  13.489  1.00  0.00     0.041 C 
ATOM     16  O   UNL     1      80.827  13.214  13.887  1.00  0.00    -0.550 OA
ATOM     17  O   UNL     1      80.054  15.026  12.715  1.00  0.00    -0.550 OA
ENDBRANCH  14  15
ENDBRANCH  13  14
ENDBRANCH  12  13
ENDBRANCH  11  12
ENDBRANCH  10  11
ENDBRANCH   9  10
ENDBRANCH   8   9
ENDBRANCH   7   8
ENDBRANCH   6   7
ENDBRANCH   5   6
ENDBRANCH   4   5
ENDBRANCH   3   4
ENDBRANCH   2   3
ENDBRANCH   1   2
BRANCH   1  18
ATOM     18  C   UNL     1      74.872  16.571  15.222  1.00  0.00     0.000 C 
BRANCH  18  19
ATOM     19  C   UNL     1      75.988  17.627  15.176  1.00  0.00     0.000 C 
BRANCH  19  20
ATOM     20  C   UNL     1      77.372  16.972  15.302  1.00  0.00     0.000 C 
BRANCH  20  21
ATOM     21  C   UNL     1      78.019  17.211  16.676  1.00  0.00     0.000 C 
BRANCH  21  22
ATOM     22  C   UNL     1      79.011  16.100  17.063  1.00  0.00     0.000 C 
BRANCH  22  23
ATOM     23  C   UNL     1      78.884  15.685  18.537  1.00  0.00     0.000 C 
BRANCH  23  24
ATOM     24  C   UNL     1      78.705  14.166  18.714  1.00  0.00    -0.000 C 
BRANCH  24  25
ATOM     25  C   UNL     1      79.168  13.677  20.096  1.00  0.00    -0.000 C 
BRANCH  25  26
ATOM     26  C   UNL     1      80.125  14.671  20.780  1.00  0.00    -0.000 C 
BRANCH  26  27
ATOM     27  C   UNL     1      81.565  14.142  20.859  1.00  0.00    -0.000 C 
BRANCH  27  28
ATOM     28  C   UNL     1      82.460  14.698  19.737  1.00  0.00    -0.000 C 
BRANCH  28  29
ATOM     29  C   UNL     1      82.907  13.613  18.741  1.00  0.00    -0.000 C 
BRANCH  29  30
ATOM     30  C   UNL     1      82.031  13.494  17.476  1.00  0.00    -0.000 C 
BRANCH  30  31
ATOM     31  C   UNL     1      81.445  12.094  17.223  1.00  0.00    -0.003 C 
ATOM     32  C   UNL     1      81.405  11.230  18.481  1.00  0.00     0.004 C 
ENDBRANCH  30  31
ENDBRANCH  29  30
ENDBRANCH  28  29
ENDBRANCH  27  28
ENDBRANCH  26  27
ENDBRANCH  25  26
ENDBRANCH  24  25
ENDBRANCH  23  24
ENDBRANCH  22  23
ENDBRANCH  21  22
ENDBRANCH  20  21
ENDBRANCH  19  20
ENDBRANCH  18  19
ENDBRANCH   1  18
TORSDOF 28
ENDMDL
MODEL 3
REMARK VINA RESULT:    -4.981      1.192      2.367
REMARK INTER + INTRA:         -19.068
REMARK INTER:                 -14.195
REMARK INTRA:                  -4.873
REMARK UNBOUND:                -5.934
REMARK SMILES CCCCCCCCCCCCCCCCCCCCCCCCCCCCCC(=O)[O-]
REMARK SMILES IDX 16 1 17 2 18 3 19 4 20 5 21 6 22 7 23 8 24 9 25 10 26 11
REMARK SMILES IDX 27 12 28 13 29 14 30 15 31 16 32 17 15 18 14 19 13 20 12 21
REMARK SMILES IDX 11 22 10 23 9 24 8 25 7 26 6 27 5 28 4 29 3 30 2 31 1 32
REMARK H PARENT
REMARK Flexibility Score: inf
ROOT
ATOM      1  C   UNL     1      74.802  13.275  17.493  1.00  0.00     0.000 C 
ENDROOT
BRANCH   1   2
ATOM      2  C   UNL     1      73.771  12.962  18.589  1.00  0.00     0.000 C 
BRANCH   2   3
ATOM      3  C   UNL     1      74.335  11.972  19.614  1.00  0.00     0.000 C 
BRANCH   3   4
ATOM      4  C   UNL     1      75.836  12.210  19.836  1.00  0.00     0.000 C 
BRANCH   4   5
ATOM      5  C   UNL     1      76.579  10.946  20.298  1.00  0.00     0.000 C 
BRANCH   5   6
ATOM      6  C   UNL     1      77.682  10.516  19.319  1.00  0.00     0.000 C 
BRANCH   6   7
ATOM      7  C   UNL     1      77.084   9.873  18.062  1.00  0.00     0.000 C 
BRANCH   7   8
ATOM      8  C   UNL     1      77.206  10.813  16.854  1.00  0.00     0.000 C 
BRANCH   8   9
ATOM      9  C   UNL     1      77.876  10.143  15.639  1.00  0.00     0.000 C 
BRANCH   9  10
ATOM     10  C   UNL     1      77.905  10.999  14.359  1.00  0.00     0.000 C 
BRANCH  10  11
ATOM     11  C   UNL     1      77.299  12.398  14.564  1.00  0.00     0.000 C 
BRANCH  11  12
ATOM     12  C   UNL     1      78.019  13.484  13.746  1.00  0.00     0.000 C 
BRANCH  12  13
ATOM     13  C   UNL     1      79.059  12.905  12.774  1.00  0.00     0.006 C 
BRANCH  13  14
ATOM     14  C   UNL     1      78.784  13.370  11.339  1.00  0.00     0.053 C 
BRANCH  14  15
ATOM     15  C   UNL     1      78.727  12.204  10.401  1.00  0.00     0.041 C 
ATOM     16  O   UNL     1      78.757  12.388   9.155  1.00  0.00    -0.550 OA
ATOM     17  O   UNL     1      78.640  10.910  10.904  1.00  0.00    -0.550 OA
ENDBRANCH  14  15
ENDBRANCH  13  14
ENDBRANCH  12  13
ENDBRANCH  11  12
ENDBRANCH  10  11
ENDBRANCH   9  10
ENDBRANCH   8   9
ENDBRANCH   7   8
ENDBRANCH   6   7
ENDBRANCH   5   6
ENDBRANCH   4   5
ENDBRANCH   3   4
ENDBRANCH   2   3
ENDBRANCH   1   2
BRANCH   1  18
ATOM     18  C   UNL     1      74.947  14.782  17.228  1.00  0.00     0.000 C 
BRANCH  18  19
ATOM     19  C   UNL     1      75.232  15.100  15.751  1.00  0.00     0.000 C 
BRANCH  19  20
ATOM     20  C   UNL     1      74.630  16.456  15.353  1.00  0.00     0.000 C 
BRANCH  20  21
ATOM     21  C   UNL     1      75.337  17.641  16.032  1.00  0.00     0.000 C 
BRANCH  21  22
ATOM     22  C   UNL     1      76.593  18.096  15.268  1.00  0.00     0.000 C 
BRANCH  22  23
ATOM     23  C   UNL     1      77.661  18.698  16.194  1.00  0.00     0.000 C 
BRANCH  23  24
ATOM     24  C   UNL     1      78.600  17.634  16.791  1.00  0.00    -0.000 C 
BRANCH  24  25
ATOM     25  C   UNL     1      78.748  16.405  15.879  1.00  0.00    -0.000 C 
BRANCH  25  26
ATOM     26  C   UNL     1      80.090  15.680  16.084  1.00  0.00    -0.000 C 
BRANCH  26  27
ATOM     27  C   UNL     1      80.000  14.559  17.130  1.00  0.00    -0.000 C 
BRANCH  27  28
ATOM     28  C   UNL     1      78.547  14.216  17.504  1.00  0.00    -0.000 C 
BRANCH  28  29
ATOM     29  C   UNL     1      78.245  14.451  18.995  1.00  0.00    -0.000 C 
BRANCH  29  30
ATOM     30  C   UNL     1      79.287  13.863  19.969  1.00  0.00    -0.000 C 
BRANCH  30  31
ATOM     31  C   UNL     1      80.234  14.895  20.607  1.00  0.00    -0.003 C 
ATOM     32  C   UNL     1      81.647  14.356  20.817  1.00  0.00     0.004 C 
ENDBRANCH  30  31
ENDBRANCH  29  30
ENDBRANCH  28  29
ENDBRANCH  27  28
ENDBRANCH  26  27
ENDBRANCH  25  26
ENDBRANCH  24  25
ENDBRANCH  23  24
ENDBRANCH  22  23
ENDBRANCH  21  22
ENDBRANCH  20  21
ENDBRANCH  19  20
ENDBRANCH  18  19
ENDBRANCH   1  18
TORSDOF 28
ENDMDL
MODEL 4
REMARK VINA RESULT:    -4.973      1.555      3.480
REMARK INTER + INTRA:         -19.047
REMARK INTER:                 -14.076
REMARK INTRA:                  -4.972
REMARK UNBOUND:                -5.934
REMARK SMILES CCCCCCCCCCCCCCCCCCCCCCCCCCCCCC(=O)[O-]
REMARK SMILES IDX 16 1 17 2 18 3 19 4 20 5 21 6 22 7 23 8 24 9 25 10 26 11
REMARK SMILES IDX 27 12 28 13 29 14 30 15 31 16 32 17 15 18 14 19 13 20 12 21
REMARK SMILES IDX 11 22 10 23 9 24 8 25 7 26 6 27 5 28 4 29 3 30 2 31 1 32
REMARK H PARENT
REMARK Flexibility Score: inf
ROOT
ATOM      1  C   UNL     1      74.287  11.994  19.384  1.00  0.00     0.000 C 
ENDROOT
BRANCH   1   2
ATOM      2  C   UNL     1      75.662  11.315  19.277  1.00  0.00     0.000 C 
BRANCH   2   3
ATOM      3  C   UNL     1      76.600  11.785  20.395  1.00  0.00     0.000 C 
BRANCH   3   4
ATOM      4  C   UNL     1      77.717  12.676  19.832  1.00  0.00     0.000 C 
BRANCH   4   5
ATOM      5  C   UNL     1      78.829  11.871  19.140  1.00  0.00     0.000 C 
BRANCH   5   6
ATOM      6  C   UNL     1      79.345  12.551  17.861  1.00  0.00     0.000 C 
BRANCH   6   7
ATOM      7  C   UNL     1      78.181  13.031  16.986  1.00  0.00     0.000 C 
BRANCH   7   8
ATOM      8  C   UNL     1      78.696  13.623  15.665  1.00  0.00     0.000 C 
BRANCH   8   9
ATOM      9  C   UNL     1      78.195  12.854  14.428  1.00  0.00     0.000 C 
BRANCH   9  10
ATOM     10  C   UNL     1      78.023  11.337  14.632  1.00  0.00     0.000 C 
BRANCH  10  11
ATOM     11  C   UNL     1      78.221  10.535  13.333  1.00  0.00     0.000 C 
BRANCH  11  12
ATOM     12  C   UNL     1      79.228  11.193  12.375  1.00  0.00     0.000 C 
BRANCH  12  13
ATOM     13  C   UNL     1      78.624  11.499  10.995  1.00  0.00     0.006 C 
BRANCH  13  14
ATOM     14  C   UNL     1      78.535  13.011  10.760  1.00  0.00     0.053 C 
BRANCH  14  15
ATOM     15  C   UNL     1      79.877  13.579  10.415  1.00  0.00     0.041 C 
ATOM     16  O   UNL     1      80.689  12.914   9.719  1.00  0.00    -0.550 OA
ATOM     17  O   UNL     1      80.233  14.846  10.866  1.00  0.00    -0.550 OA
ENDBRANCH  14  15
ENDBRANCH  13  14
ENDBRANCH  12  13
ENDBRANCH  11  12
ENDBRANCH  10  11
ENDBRANCH   9  10
ENDBRANCH   8   9
ENDBRANCH   7   8
ENDBRANCH   6   7
ENDBRANCH   5   6
ENDBRANCH   4   5
ENDBRANCH   3   4
ENDBRANCH   2   3
ENDBRANCH   1   2
BRANCH   1  18
ATOM     18  C   UNL     1      74.040  13.012  18.258  1.00  0.00     0.000 C 
BRANCH  18  19
ATOM     19  C   UNL     1      74.497  14.430  18.632  1.00  0.00     0.000 C 
BRANCH  19  20
ATOM     20  C   UNL     1      75.380  15.033  17.527  1.00  0.00     0.000 C 
BRANCH  20  21
ATOM     21  C   UNL     1      75.012  14.517  16.127  1.00  0.00     0.000 C 
BRANCH  21  22
ATOM     22  C   UNL     1      75.488  15.459  15.007  1.00  0.00     0.000 C 
BRANCH  22  23
ATOM     23  C   UNL     1      75.080  16.920  15.252  1.00  0.00     0.000 C 
BRANCH  23  24
ATOM     24  C   UNL     1      76.283  17.880  15.262  1.00  0.00    -0.000 C 
BRANCH  24  25
ATOM     25  C   UNL     1      77.603  17.162  15.585  1.00  0.00    -0.000 C 
BRANCH  25  26
ATOM     26  C   UNL     1      78.576  18.050  16.383  1.00  0.00    -0.000 C 
BRANCH  26  27
ATOM     27  C   UNL     1      79.478  17.238  17.324  1.00  0.00    -0.000 C 
BRANCH  27  28
ATOM     28  C   UNL     1      78.675  16.335  18.277  1.00  0.00    -0.000 C 
BRANCH  28  29
ATOM     29  C   UNL     1      79.312  16.228  19.674  1.00  0.00    -0.000 C 
BRANCH  29  30
ATOM     30  C   UNL     1      80.705  15.565  19.703  1.00  0.00    -0.000 C 
BRANCH  30  31
ATOM     31  C   UNL     1      80.902  14.519  20.815  1.00  0.00    -0.003 C 
ATOM     32  C   UNL     1      82.338  14.010  20.905  1.00  0.00     0.004 C 
ENDBRANCH  30  31
ENDBRANCH  29  30
ENDBRANCH  28  29
ENDBRANCH  27  28
ENDBRANCH  26  27
ENDBRANCH  25  26
ENDBRANCH  24  25
ENDBRANCH  23  24
ENDBRANCH  22  23
ENDBRANCH  21  22
ENDBRANCH  20  21
ENDBRANCH  19  20
ENDBRANCH  18  19
ENDBRANCH   1  18
TORSDOF 28
ENDMDL
MODEL 5
REMARK VINA RESULT:    -4.919      1.621      4.844
REMARK INTER + INTRA:         -18.906
REMARK INTER:                 -13.319
REMARK INTRA:                  -5.587
REMARK UNBOUND:                -5.934
REMARK SMILES CCCCCCCCCCCCCCCCCCCCCCCCCCCCCC(=O)[O-]
REMARK SMILES IDX 16 1 17 2 18 3 19 4 20 5 21 6 22 7 23 8 24 9 25 10 26 11
REMARK SMILES IDX 27 12 28 13 29 14 30 15 31 16 32 17 15 18 14 19 13 20 12 21
REMARK SMILES IDX 11 22 10 23 9 24 8 25 7 26 6 27 5 28 4 29 3 30 2 31 1 32
REMARK H PARENT
REMARK Flexibility Score: inf
ROOT
ATOM      1  C   UNL     1      82.647  12.373  19.351  1.00  0.00     0.000 C 
ENDROOT
BRANCH   1   2
ATOM      2  C   UNL     1      81.439  11.620  18.768  1.00  0.00     0.000 C 
BRANCH   2   3
ATOM      3  C   UNL     1      80.740  12.450  17.685  1.00  0.00     0.000 C 
BRANCH   3   4
ATOM      4  C   UNL     1      79.234  12.563  17.970  1.00  0.00     0.000 C 
BRANCH   4   5
ATOM      5  C   UNL     1      78.857  12.087  19.382  1.00  0.00     0.000 C 
BRANCH   5   6
ATOM      6  C   UNL     1      77.533  12.690  19.876  1.00  0.00     0.000 C 
BRANCH   6   7
ATOM      7  C   UNL     1      76.627  11.610  20.480  1.00  0.00     0.000 C 
BRANCH   7   8
ATOM      8  C   UNL     1      77.018  10.216  19.966  1.00  0.00     0.000 C 
BRANCH   8   9
ATOM      9  C   UNL     1      76.265   9.819  18.682  1.00  0.00     0.000 C 
BRANCH   9  10
ATOM     10  C   UNL     1      76.959   8.741  17.829  1.00  0.00     0.000 C 
BRANCH  10  11
ATOM     11  C   UNL     1      78.454   9.029  17.605  1.00  0.00     0.000 C 
BRANCH  11  12
ATOM     12  C   UNL     1      78.805   9.227  16.121  1.00  0.00     0.000 C 
BRANCH  12  13
ATOM     13  C   UNL     1      77.685   9.924  15.332  1.00  0.00     0.006 C 
BRANCH  13  14
ATOM     14  C   UNL     1      78.227  11.140  14.571  1.00  0.00     0.053 C 
BRANCH  14  15
ATOM     15  C   UNL     1      77.397  12.356  14.845  1.00  0.00     0.041 C 
ATOM     16  O   UNL     1      77.897  13.506  14.731  1.00  0.00    -0.550 OA
ATOM     17  O   UNL     1      76.067  12.218  15.228  1.00  0.00    -0.550 OA
ENDBRANCH  14  15
ENDBRANCH  13  14
ENDBRANCH  12  13
ENDBRANCH  11  12
ENDBRANCH  10  11
ENDBRANCH   9  10
ENDBRANCH   8   9
ENDBRANCH   7   8
ENDBRANCH   6   7
ENDBRANCH   5   6
ENDBRANCH   4   5
ENDBRANCH   3   4
ENDBRANCH   2   3
ENDBRANCH   1   2
BRANCH   1  18
ATOM     18  C   UNL     1      82.386  13.880  19.508  1.00  0.00     0.000 C 
BRANCH  18  19
ATOM     19  C   UNL     1      81.836  14.245  20.896  1.00  0.00     0.000 C 
BRANCH  19  20
ATOM     20  C   UNL     1      80.438  14.872  20.787  1.00  0.00     0.000 C 
BRANCH  20  21
ATOM     21  C   UNL     1      80.353  15.942  19.686  1.00  0.00     0.000 C 
BRANCH  21  22
ATOM     22  C   UNL     1      78.945  16.050  19.075  1.00  0.00     0.000 C 
BRANCH  22  23
ATOM     23  C   UNL     1      78.975  16.163  17.542  1.00  0.00     0.000 C 
BRANCH  23  24
ATOM     24  C   UNL     1      78.387  17.492  17.032  1.00  0.00    -0.000 C 
BRANCH  24  25
ATOM     25  C   UNL     1      78.316  17.551  15.498  1.00  0.00    -0.000 C 
BRANCH  25  26
ATOM     26  C   UNL     1      76.987  18.142  14.993  1.00  0.00    -0.000 C 
BRANCH  26  27
ATOM     27  C   UNL     1      75.765  17.514  15.680  1.00  0.00    -0.000 C 
BRANCH  27  28
ATOM     28  C   UNL     1      75.514  16.065  15.228  1.00  0.00    -0.000 C 
BRANCH  28  29
ATOM     29  C   UNL     1      74.682  15.260  16.243  1.00  0.00    -0.000 C 
BRANCH  29  30
ATOM     30  C   UNL     1      75.416  14.914  17.555  1.00  0.00    -0.000 C 
BRANCH  30  31
ATOM     31  C   UNL     1      74.606  14.056  18.544  1.00  0.00    -0.003 C 
ATOM     32  C   UNL     1      74.032  12.795  17.904  1.00  0.00     0.004 C 
ENDBRANCH  30  31
ENDBRANCH  29  30
ENDBRANCH  28  29
ENDBRANCH  27  28
ENDBRANCH  26  27
ENDBRANCH  25  26
ENDBRANCH  24  25
ENDBRANCH  23  24
ENDBRANCH  22  23
ENDBRANCH  21  22
ENDBRANCH  20  21
ENDBRANCH  19  20
ENDBRANCH  18  19
ENDBRANCH   1  18
TORSDOF 28
ENDMDL
MODEL 6
REMARK VINA RESULT:    -4.909      1.356      5.475
REMARK INTER + INTRA:         -18.880
REMARK INTER:                 -12.625
REMARK INTRA:                  -6.255
REMARK UNBOUND:                -5.934
REMARK SMILES CCCCCCCCCCCCCCCCCCCCCCCCCCCCCC(=O)[O-]
REMARK SMILES IDX 16 1 17 2 18 3 19 4 20 5 21 6 22 7 23 8 24 9 25 10 26 11
REMARK SMILES IDX 27 12 28 13 29 14 30 15 31 16 32 17 15 18 14 19 13 20 12 21
REMARK SMILES IDX 11 22 10 23 9 24 8 25 7 26 6 27 5 28 4 29 3 30 2 31 1 32
REMARK H PARENT
REMARK Flexibility Score: inf
ROOT
ATOM      1  C   UNL     1      76.500  13.845  18.615  1.00  0.00     0.000 C 
ENDROOT
BRANCH   1   2
ATOM      2  C   UNL     1      76.890  14.345  17.215  1.00  0.00     0.000 C 
BRANCH   2   3
ATOM      3  C   UNL     1      76.300  13.446  16.122  1.00  0.00     0.000 C 
BRANCH   3   4
ATOM      4  C   UNL     1      75.616  14.286  15.033  1.00  0.00     0.000 C 
BRANCH   4   5
ATOM      5  C   UNL     1      74.645  15.331  15.607  1.00  0.00     0.000 C 
BRANCH   5   6
ATOM      6  C   UNL     1      74.968  16.759  15.141  1.00  0.00     0.000 C 
BRANCH   6   7
ATOM      7  C   UNL     1      75.428  17.631  16.315  1.00  0.00     0.000 C 
BRANCH   7   8
ATOM      8  C   UNL     1      76.876  18.104  16.113  1.00  0.00     0.000 C 
BRANCH   8   9
ATOM      9  C   UNL     1      77.550  17.459  14.887  1.00  0.00     0.000 C 
BRANCH   9  10
ATOM     10  C   UNL     1      78.924  16.820  15.162  1.00  0.00     0.000 C 
BRANCH  10  11
ATOM     11  C   UNL     1      79.223  15.628  14.236  1.00  0.00     0.000 C 
BRANCH  11  12
ATOM     12  C   UNL     1      79.723  14.391  15.001  1.00  0.00     0.000 C 
BRANCH  12  13
ATOM     13  C   UNL     1      79.863  13.152  14.102  1.00  0.00     0.006 C 
BRANCH  13  14
ATOM     14  C   UNL     1      78.598  12.941  13.261  1.00  0.00     0.053 C 
BRANCH  14  15
ATOM     15  C   UNL     1      78.935  12.833  11.806  1.00  0.00     0.041 C 
ATOM     16  O   UNL     1      79.623  13.726  11.244  1.00  0.00    -0.550 OA
ATOM     17  O   UNL     1      78.486  11.744  11.067  1.00  0.00    -0.550 OA
ENDBRANCH  14  15
ENDBRANCH  13  14
ENDBRANCH  12  13
ENDBRANCH  11  12
ENDBRANCH  10  11
ENDBRANCH   9  10
ENDBRANCH   8   9
ENDBRANCH   7   8
ENDBRANCH   6   7
ENDBRANCH   5   6
ENDBRANCH   4   5
ENDBRANCH   3   4
ENDBRANCH   2   3
ENDBRANCH   1   2
BRANCH   1  18
ATOM     18  C   UNL     1      75.152  13.105  18.627  1.00  0.00     0.000 C 
BRANCH  18  19
ATOM     19  C   UNL     1      75.086  12.011  19.703  1.00  0.00     0.000 C 
BRANCH  19  20
ATOM     20  C   UNL     1      76.475  11.745  20.305  1.00  0.00     0.000 C 
BRANCH  20  21
ATOM     21  C   UNL     1      77.002  10.338  19.979  1.00  0.00     0.000 C 
BRANCH  21  22
ATOM     22  C   UNL     1      76.324   9.726  18.740  1.00  0.00     0.000 C 
BRANCH  22  23
ATOM     23  C   UNL     1      77.338   9.169  17.728  1.00  0.00     0.000 C 
BRANCH  23  24
ATOM     24  C   UNL     1      77.718  10.192  16.643  1.00  0.00    -0.000 C 
BRANCH  24  25
ATOM     25  C   UNL     1      79.239  10.358  16.500  1.00  0.00    -0.000 C 
BRANCH  25  26
ATOM     26  C   UNL     1      79.990  10.036  17.805  1.00  0.00    -0.000 C 
BRANCH  26  27
ATOM     27  C   UNL     1      80.725  11.256  18.378  1.00  0.00    -0.000 C 
BRANCH  27  28
ATOM     28  C   UNL     1      79.781  12.440  18.650  1.00  0.00    -0.000 C 
BRANCH  28  29
ATOM     29  C   UNL     1      80.527  13.701  19.122  1.00  0.00    -0.000 C 
BRANCH  29  30
ATOM     30  C   UNL     1      79.905  14.403  20.346  1.00  0.00    -0.000 C 
BRANCH  30  31
ATOM     31  C   UNL     1      79.790  15.933  20.227  1.00  0.00    -0.003 C 
ATOM     32  C   UNL     1      79.560  16.402  18.793  1.00  0.00     0.004 C 
ENDBRANCH  30  31
ENDBRANCH  29  30
ENDBRANCH  28  29
ENDBRANCH  27  28
ENDBRANCH  26  27
ENDBRANCH  25  26
ENDBRANCH  24  25
ENDBRANCH  23  24
ENDBRANCH  22  23
ENDBRANCH  21  22
ENDBRANCH  20  21
ENDBRANCH  19  20
ENDBRANCH  18  19
ENDBRANCH   1  18
TORSDOF 28
ENDMDL
MODEL 7
REMARK VINA RESULT:    -4.883      1.443      5.053
REMARK INTER + INTRA:         -18.809
REMARK INTER:                 -13.083
REMARK INTRA:                  -5.726
REMARK UNBOUND:                -5.934
REMARK SMILES CCCCCCCCCCCCCCCCCCCCCCCCCCCCCC(=O)[O-]
REMARK SMILES IDX 16 1 17 2 18 3 19 4 20 5 21 6 22 7 23 8 24 9 25 10 26 11
REMARK SMILES IDX 27 12 28 13 29 14 30 15 31 16 32 17 15 18 14 19 13 20 12 21
REMARK SMILES IDX 11 22 10 23 9 24 8 25 7 26 6 27 5 28 4 29 3 30 2 31 1 32
REMARK H PARENT
REMARK Flexibility Score: inf
ROOT
ATOM      1  C   UNL     1      79.037  15.094  19.444  1.00  0.00     0.000 C 
ENDROOT
BRANCH   1   2
ATOM      2  C   UNL     1      79.789  14.044  20.277  1.00  0.00     0.000 C 
BRANCH   2   3
ATOM      3  C   UNL     1      81.076  14.627  20.872  1.00  0.00     0.000 C 
BRANCH   3   4
ATOM      4  C   UNL     1      82.204  13.584  20.864  1.00  0.00     0.000 C 
BRANCH   4   5
ATOM      5  C   UNL     1      83.077  13.660  19.601  1.00  0.00     0.000 C 
BRANCH   5   6
ATOM      6  C   UNL     1      82.999  15.029  18.907  1.00  0.00     0.000 C 
BRANCH   6   7
ATOM      7  C   UNL     1      82.471  14.890  17.474  1.00  0.00     0.000 C 
BRANCH   7   8
ATOM      8  C   UNL     1      81.818  13.517  17.261  1.00  0.00     0.000 C 
BRANCH   8   9
ATOM      9  C   UNL     1      80.531  13.590  16.416  1.00  0.00     0.000 C 
BRANCH   9  10
ATOM     10  C   UNL     1      79.469  12.529  16.757  1.00  0.00     0.000 C 
BRANCH  10  11
ATOM     11  C   UNL     1      78.031  13.033  16.537  1.00  0.00     0.000 C 
BRANCH  11  12
ATOM     12  C   UNL     1      77.346  12.369  15.331  1.00  0.00     0.000 C 
BRANCH  12  13
ATOM     13  C   UNL     1      77.772  10.905  15.136  1.00  0.00     0.006 C 
BRANCH  13  14
ATOM     14  C   UNL     1      78.036  10.605  13.656  1.00  0.00     0.053 C 
BRANCH  14  15
ATOM     15  C   UNL     1      78.942  11.635  13.055  1.00  0.00     0.041 C 
ATOM     16  O   UNL     1      80.149  11.705  13.410  1.00  0.00    -0.550 OA
ATOM     17  O   UNL     1      78.453  12.521  12.102  1.00  0.00    -0.550 OA
ENDBRANCH  14  15
ENDBRANCH  13  14
ENDBRANCH  12  13
ENDBRANCH  11  12
ENDBRANCH  10  11
ENDBRANCH   9  10
ENDBRANCH   8   9
ENDBRANCH   7   8
ENDBRANCH   6   7
ENDBRANCH   5   6
ENDBRANCH   4   5
ENDBRANCH   3   4
ENDBRANCH   2   3
ENDBRANCH   1   2
BRANCH   1  18
ATOM     18  C   UNL     1      79.712  16.475  19.482  1.00  0.00     0.000 C 
BRANCH  18  19
ATOM     19  C   UNL     1      79.612  17.220  18.141  1.00  0.00     0.000 C 
BRANCH  19  20
ATOM     20  C   UNL     1      78.450  16.677  17.295  1.00  0.00     0.000 C 
BRANCH  20  21
ATOM     21  C   UNL     1      77.787  17.764  16.433  1.00  0.00     0.000 C 
BRANCH  21  22
ATOM     22  C   UNL     1      77.149  17.195  15.153  1.00  0.00     0.000 C 
BRANCH  22  23
ATOM     23  C   UNL     1      75.697  17.662  14.960  1.00  0.00     0.000 C 
BRANCH  23  24
ATOM     24  C   UNL     1      74.704  16.903  15.859  1.00  0.00    -0.000 C 
BRANCH  24  25
ATOM     25  C   UNL     1      74.971  15.389  15.879  1.00  0.00    -0.000 C 
BRANCH  25  26
ATOM     26  C   UNL     1      75.028  14.821  17.310  1.00  0.00    -0.000 C 
BRANCH  26  27
ATOM     27  C   UNL     1      74.398  13.425  17.414  1.00  0.00    -0.000 C 
BRANCH  27  28
ATOM     28  C   UNL     1      73.905  13.105  18.836  1.00  0.00    -0.000 C 
BRANCH  28  29
ATOM     29  C   UNL     1      74.513  11.808  19.399  1.00  0.00    -0.000 C 
BRANCH  29  30
ATOM     30  C   UNL     1      75.847  11.990  20.153  1.00  0.00    -0.000 C 
BRANCH  30  31
ATOM     31  C   UNL     1      77.011  11.133  19.626  1.00  0.00    -0.003 C 
ATOM     32  C   UNL     1      76.557  10.042  18.659  1.00  0.00     0.004 C 
ENDBRANCH  30  31
ENDBRANCH  29  30
ENDBRANCH  28  29
ENDBRANCH  27  28
ENDBRANCH  26  27
ENDBRANCH  25  26
ENDBRANCH  24  25
ENDBRANCH  23  24
ENDBRANCH  22  23
ENDBRANCH  21  22
ENDBRANCH  20  21
ENDBRANCH  19  20
ENDBRANCH  18  19
ENDBRANCH   1  18
TORSDOF 28
ENDMDL
MODEL 8
REMARK VINA RESULT:    -4.861      1.703      3.537
REMARK INTER + INTRA:         -18.752
REMARK INTER:                 -13.383
REMARK INTRA:                  -5.369
REMARK UNBOUND:                -5.934
REMARK SMILES CCCCCCCCCCCCCCCCCCCCCCCCCCCCCC(=O)[O-]
REMARK SMILES IDX 16 1 17 2 18 3 19 4 20 5 21 6 22 7 23 8 24 9 25 10 26 11
REMARK SMILES IDX 27 12 28 13 29 14 30 15 31 16 32 17 15 18 14 19 13 20 12 21
REMARK SMILES IDX 11 22 10 23 9 24 8 25 7 26 6 27 5 28 4 29 3 30 2 31 1 32
REMARK H PARENT
REMARK Flexibility Score: inf
ROOT
ATOM      1  C   UNL     1      74.323  11.983  19.348  1.00  0.00     0.000 C 
ENDROOT
BRANCH   1   2
ATOM      2  C   UNL     1      75.659  11.263  19.104  1.00  0.00     0.000 C 
BRANCH   2   3
ATOM      3  C   UNL     1      76.676  11.593  20.203  1.00  0.00     0.000 C 
BRANCH   3   4
ATOM      4  C   UNL     1      77.770  12.532  19.672  1.00  0.00     0.000 C 
BRANCH   4   5
ATOM      5  C   UNL     1      78.931  11.777  19.006  1.00  0.00     0.000 C 
BRANCH   5   6
ATOM      6  C   UNL     1      79.586  12.579  17.871  1.00  0.00     0.000 C 
BRANCH   6   7
ATOM      7  C   UNL     1      78.529  13.290  17.017  1.00  0.00     0.000 C 
BRANCH   7   8
ATOM      8  C   UNL     1      78.887  13.214  15.525  1.00  0.00     0.000 C 
BRANCH   8   9
ATOM      9  C   UNL     1      78.154  12.075  14.791  1.00  0.00     0.000 C 
BRANCH   9  10
ATOM     10  C   UNL     1      77.061  11.368  15.615  1.00  0.00     0.000 C 
BRANCH  10  11
ATOM     11  C   UNL     1      77.459   9.942  16.034  1.00  0.00     0.000 C 
BRANCH  11  12
ATOM     12  C   UNL     1      78.636   9.387  15.214  1.00  0.00     0.000 C 
BRANCH  12  13
ATOM     13  C   UNL     1      78.270   8.113  14.436  1.00  0.00     0.006 C 
BRANCH  13  14
ATOM     14  C   UNL     1      78.069   8.420  12.948  1.00  0.00     0.053 C 
BRANCH  14  15
ATOM     15  C   UNL     1      79.385   8.505  12.237  1.00  0.00     0.041 C 
ATOM     16  O   UNL     1      80.368   7.825  12.635  1.00  0.00    -0.550 OA
ATOM     17  O   UNL     1      79.526   9.338  11.132  1.00  0.00    -0.550 OA
ENDBRANCH  14  15
ENDBRANCH  13  14
ENDBRANCH  12  13
ENDBRANCH  11  12
ENDBRANCH  10  11
ENDBRANCH   9  10
ENDBRANCH   8   9
ENDBRANCH   7   8
ENDBRANCH   6   7
ENDBRANCH   5   6
ENDBRANCH   4   5
ENDBRANCH   3   4
ENDBRANCH   2   3
ENDBRANCH   1   2
BRANCH   1  18
ATOM     18  C   UNL     1      74.013  13.038  18.273  1.00  0.00     0.000 C 
BRANCH  18  19
ATOM     19  C   UNL     1      74.554  14.430  18.635  1.00  0.00     0.000 C 
BRANCH  19  20
ATOM     20  C   UNL     1      75.522  14.942  17.557  1.00  0.00     0.000 C 
BRANCH  20  21
ATOM     21  C   UNL     1      75.180  14.414  16.154  1.00  0.00     0.000 C 
BRANCH  21  22
ATOM     22  C   UNL     1      75.505  15.430  15.046  1.00  0.00     0.000 C 
BRANCH  22  23
ATOM     23  C   UNL     1      74.804  16.781  15.260  1.00  0.00     0.000 C 
BRANCH  23  24
ATOM     24  C   UNL     1      75.765  17.977  15.127  1.00  0.00    -0.000 C 
BRANCH  24  25
ATOM     25  C   UNL     1      77.198  17.628  15.560  1.00  0.00    -0.000 C 
BRANCH  25  26
ATOM     26  C   UNL     1      77.909  18.810  16.244  1.00  0.00    -0.000 C 
BRANCH  26  27
ATOM     27  C   UNL     1      78.854  18.358  17.368  1.00  0.00    -0.000 C 
BRANCH  27  28
ATOM     28  C   UNL     1      78.886  16.829  17.533  1.00  0.00    -0.000 C 
BRANCH  28  29
ATOM     29  C   UNL     1      79.419  16.389  18.908  1.00  0.00    -0.000 C 
BRANCH  29  30
ATOM     30  C   UNL     1      80.954  16.253  18.995  1.00  0.00    -0.000 C 
BRANCH  30  31
ATOM     31  C   UNL     1      81.453  15.104  19.889  1.00  0.00    -0.003 C 
ATOM     32  C   UNL     1      80.425  14.672  20.932  1.00  0.00     0.004 C 
ENDBRANCH  30  31
ENDBRANCH  29  30
ENDBRANCH  28  29
ENDBRANCH  27  28
ENDBRANCH  26  27
ENDBRANCH  25  26
ENDBRANCH  24  25
ENDBRANCH  23  24
ENDBRANCH  22  23
ENDBRANCH  21  22
ENDBRANCH  20  21
ENDBRANCH  19  20
ENDBRANCH  18  19
ENDBRANCH   1  18
TORSDOF 28
ENDMDL
MODEL 9
REMARK VINA RESULT:    -4.854      1.711      2.660
REMARK INTER + INTRA:         -18.734
REMARK INTER:                 -13.180
REMARK INTRA:                  -5.555
REMARK UNBOUND:                -5.934
REMARK SMILES CCCCCCCCCCCCCCCCCCCCCCCCCCCCCC(=O)[O-]
REMARK SMILES IDX 16 1 17 2 18 3 19 4 20 5 21 6 22 7 23 8 24 9 25 10 26 11
REMARK SMILES IDX 27 12 28 13 29 14 30 15 31 16 32 17 15 18 14 19 13 20 12 21
REMARK SMILES IDX 11 22 10 23 9 24 8 25 7 26 6 27 5 28 4 29 3 30 2 31 1 32
REMARK H PARENT
REMARK Flexibility Score: inf
ROOT
ATOM      1  C   UNL     1      75.137  14.086  16.381  1.00  0.00     0.000 C 
ENDROOT
BRANCH   1   2
ATOM      2  C   UNL     1      74.808  12.806  17.166  1.00  0.00     0.000 C 
BRANCH   2   3
ATOM      3  C   UNL     1      73.999  13.123  18.429  1.00  0.00     0.000 C 
BRANCH   3   4
ATOM      4  C   UNL     1      74.203  12.037  19.496  1.00  0.00     0.000 C 
BRANCH   4   5
ATOM      5  C   UNL     1      75.603  11.406  19.445  1.00  0.00     0.000 C 
BRANCH   5   6
ATOM      6  C   UNL     1      76.555  11.989  20.502  1.00  0.00     0.000 C 
BRANCH   6   7
ATOM      7  C   UNL     1      77.768  12.657  19.843  1.00  0.00     0.000 C 
BRANCH   7   8
ATOM      8  C   UNL     1      78.273  11.826  18.653  1.00  0.00     0.000 C 
BRANCH   8   9
ATOM      9  C   UNL     1      78.552  12.680  17.402  1.00  0.00     0.000 C 
BRANCH   9  10
ATOM     10  C   UNL     1      80.027  13.076  17.201  1.00  0.00     0.000 C 
BRANCH  10  11
ATOM     11  C   UNL     1      80.293  13.703  15.822  1.00  0.00     0.000 C 
BRANCH  11  12
ATOM     12  C   UNL     1      79.012  13.874  14.989  1.00  0.00     0.000 C 
BRANCH  12  13
ATOM     13  C   UNL     1      78.981  15.199  14.211  1.00  0.00     0.006 C 
BRANCH  13  14
ATOM     14  C   UNL     1      80.308  15.436  13.481  1.00  0.00     0.053 C 
BRANCH  14  15
ATOM     15  C   UNL     1      80.452  14.505  12.316  1.00  0.00     0.041 C 
ATOM     16  O   UNL     1      81.302  13.576  12.345  1.00  0.00    -0.550 OA
ATOM     17  O   UNL     1      79.646  14.666  11.194  1.00  0.00    -0.550 OA
ENDBRANCH  14  15
ENDBRANCH  13  14
ENDBRANCH  12  13
ENDBRANCH  11  12
ENDBRANCH  10  11
ENDBRANCH   9  10
ENDBRANCH   8   9
ENDBRANCH   7   8
ENDBRANCH   6   7
ENDBRANCH   5   6
ENDBRANCH   4   5
ENDBRANCH   3   4
ENDBRANCH   2   3
ENDBRANCH   1   2
BRANCH   1  18
ATOM     18  C   UNL     1      75.534  15.256  17.296  1.00  0.00     0.000 C 
BRANCH  18  19
ATOM     19  C   UNL     1      75.289  16.627  16.645  1.00  0.00     0.000 C 
BRANCH  19  20
ATOM     20  C   UNL     1      75.975  16.716  15.273  1.00  0.00     0.000 C 
BRANCH  20  21
ATOM     21  C   UNL     1      76.459  18.138  14.944  1.00  0.00     0.000 C 
BRANCH  21  22
ATOM     22  C   UNL     1      77.901  18.394  15.416  1.00  0.00     0.000 C 
BRANCH  22  23
ATOM     23  C   UNL     1      77.959  19.123  16.768  1.00  0.00     0.000 C 
BRANCH  23  24
ATOM     24  C   UNL     1      79.219  18.772  17.579  1.00  0.00    -0.000 C 
BRANCH  24  25
ATOM     25  C   UNL     1      79.701  17.336  17.322  1.00  0.00    -0.000 C 
BRANCH  25  26
ATOM     26  C   UNL     1      78.803  16.284  17.998  1.00  0.00    -0.000 C 
BRANCH  26  27
ATOM     27  C   UNL     1      79.047  16.186  19.511  1.00  0.00    -0.000 C 
BRANCH  27  28
ATOM     28  C   UNL     1      80.520  15.899  19.854  1.00  0.00    -0.000 C 
BRANCH  28  29
ATOM     29  C   UNL     1      80.694  14.636  20.716  1.00  0.00    -0.000 C 
BRANCH  29  30
ATOM     30  C   UNL     1      82.158  14.257  21.024  1.00  0.00    -0.000 C 
BRANCH  30  31
ATOM     31  C   UNL     1      82.867  13.460  19.915  1.00  0.00    -0.003 C 
ATOM     32  C   UNL     1      82.290  12.059  19.728  1.00  0.00     0.004 C 
ENDBRANCH  30  31
ENDBRANCH  29  30
ENDBRANCH  28  29
ENDBRANCH  27  28
ENDBRANCH  26  27
ENDBRANCH  25  26
ENDBRANCH  24  25
ENDBRANCH  23  24
ENDBRANCH  22  23
ENDBRANCH  21  22
ENDBRANCH  20  21
ENDBRANCH  19  20
ENDBRANCH  18  19
ENDBRANCH   1  18
TORSDOF 28
ENDMDL
