MODEL 1
REMARK VINA RESULT:    -4.065      0.000      0.000
REMARK INTER + INTRA:          -6.381
REMARK INTER:                  -6.204
REMARK INTRA:                  -0.178
REMARK UNBOUND:                -0.178
REMARK SMILES CC1=CCC[C@H](C)C(=O)C[C@H](C(C)C)C(=O)C1
REMARK SMILES IDX 8 1 9 2 6 3 7 4 5 5 4 6 3 7 2 8 1 9 10 11 11 12 15 13 16 14
REMARK SMILES IDX 17 15 12 17 13 18 14 19
REMARK H PARENT
REMARK Flexibility Score: 70.00
ROOT
ATOM      1  C   UNL     1     -13.396   7.927 -15.547  1.00  0.00     0.136 C 
ATOM      2  O   UNL     1     -14.104   8.771 -15.016  1.00  0.00    -0.299 OA
ENDROOT
BRANCH   1   3
ATOM      3  C   UNL     1     -14.019   6.826 -16.397  1.00  0.00     0.053 C 
ATOM      4  C   UNL     1     -14.843   7.387 -17.569  1.00  0.00     0.016 C 
BRANCH   3   5
ATOM      5  C   UNL     1     -12.973   5.800 -16.889  1.00  0.00     0.015 C 
BRANCH   5   6
ATOM      6  C   UNL     1     -13.120   4.419 -16.226  1.00  0.00     0.028 C 
BRANCH   6   7
ATOM      7  C   UNL     1     -11.800   3.804 -15.823  1.00  0.00    -0.028 C 
ATOM      8  C   UNL     1     -11.026   4.171 -14.768  1.00  0.00    -0.070 CG0
ATOM      9  C   UNL     1      -9.683   3.494 -14.636  1.00  0.00     0.039 C 
ATOM     10  G   UNL     1     -11.448   5.152 -13.676  1.00  0.00     0.000 G0
ENDBRANCH   6   7
ENDBRANCH   5   6
ENDBRANCH   3   5
ENDBRANCH   1   3
BRANCH   1  11
ATOM     11  C   UNL     1     -11.903   7.963 -15.314  1.00  0.00     0.087 C 
BRANCH  11  12
ATOM     12  C   UNL     1     -11.473   7.776 -13.829  1.00  0.00     0.066 C 
BRANCH  12  13
ATOM     13  C   UNL     1     -10.701   6.470 -13.643  1.00  0.00     0.140 C 
ATOM     14  O   UNL     1      -9.499   6.487 -13.417  1.00  0.00    -0.299 OA
BRANCH  13  15
ATOM     15  C   UNL     1     -11.432   5.150 -13.653  1.00  0.00     0.106 CG0
ATOM     16  G   UNL     1     -11.014   4.191 -14.766  1.00  0.00     0.000 G0
ENDBRANCH  13  15
ENDBRANCH  12  13
BRANCH  12  17
ATOM     17  C   UNL     1     -10.726   9.005 -13.202  1.00  0.00    -0.006 C 
ATOM     18  C   UNL     1     -11.319   9.358 -11.823  1.00  0.00     0.008 C 
ATOM     19  C   UNL     1     -10.778  10.262 -14.089  1.00  0.00     0.008 C 
ENDBRANCH  12  17
ENDBRANCH  11  12
ENDBRANCH   1  11
TORSDOF 1
ENDMDL
MODEL 2
REMARK VINA RESULT:    -3.898      2.296      4.716
REMARK INTER + INTRA:          -6.126
REMARK INTER:                  -5.723
REMARK INTRA:                  -0.404
REMARK UNBOUND:                -0.178
REMARK SMILES CC1=CCC[C@H](C)C(=O)C[C@H](C(C)C)C(=O)C1
REMARK SMILES IDX 8 1 9 2 6 3 7 4 5 5 4 6 3 7 2 8 1 9 10 11 11 12 15 13 16 14
REMARK SMILES IDX 17 15 12 17 13 18 14 19
REMARK H PARENT
REMARK Flexibility Score: 70.00
ROOT
ATOM      1  C   UNL     1     -13.392   2.586 -13.837  1.00  0.00     0.136 C 
ATOM      2  O   UNL     1     -14.409   2.125 -13.339  1.00  0.00    -0.299 OA
ENDROOT
BRANCH   1   3
ATOM      3  C   UNL     1     -13.220   2.610 -15.351  1.00  0.00     0.053 C 
ATOM      4  C   UNL     1     -13.786   1.348 -16.024  1.00  0.00     0.016 C 
BRANCH   3   5
ATOM      5  C   UNL     1     -13.802   3.892 -15.988  1.00  0.00     0.015 C 
BRANCH   5   6
ATOM      6  C   UNL     1     -12.740   4.756 -16.692  1.00  0.00     0.028 C 
BRANCH   6   7
ATOM      7  C   UNL     1     -12.776   6.207 -16.275  1.00  0.00    -0.028 C 
ATOM      8  C   UNL     1     -11.988   6.800 -15.340  1.00  0.00    -0.070 CG0
ATOM      9  C   UNL     1     -12.291   8.240 -15.001  1.00  0.00     0.039 C 
ATOM     10  G   UNL     1     -10.780   6.143 -14.674  1.00  0.00     0.000 G0
ENDBRANCH   6   7
ENDBRANCH   5   6
ENDBRANCH   3   5
ENDBRANCH   1   3
BRANCH   1  11
ATOM     11  C   UNL     1     -12.290   3.089 -12.933  1.00  0.00     0.087 C 
BRANCH  11  12
ATOM     12  C   UNL     1     -11.084   3.735 -13.679  1.00  0.00     0.066 C 
BRANCH  12  13
ATOM     13  C   UNL     1     -11.079   5.253 -13.497  1.00  0.00     0.140 C 
ATOM     14  O   UNL     1     -11.261   5.745 -12.392  1.00  0.00    -0.299 OA
BRANCH  13  15
ATOM     15  C   UNL     1     -10.763   6.154 -14.664  1.00  0.00     0.106 CG0
ATOM     16  G   UNL     1     -11.979   6.804 -15.323  1.00  0.00     0.000 G0
ENDBRANCH  13  15
ENDBRANCH  12  13
BRANCH  12  17
ATOM     17  C   UNL     1      -9.691   3.090 -13.355  1.00  0.00    -0.006 C 
ATOM     18  C   UNL     1      -9.036   2.536 -14.637  1.00  0.00     0.008 C 
ATOM     19  C   UNL     1      -9.775   1.951 -12.323  1.00  0.00     0.008 C 
ENDBRANCH  12  17
ENDBRANCH  11  12
ENDBRANCH   1  11
TORSDOF 1
ENDMDL
MODEL 3
REMARK VINA RESULT:    -3.690      2.087      4.475
REMARK INTER + INTRA:          -5.809
REMARK INTER:                  -5.606
REMARK INTRA:                  -0.203
REMARK UNBOUND:                -0.178
REMARK SMILES CC1=CCC[C@H](C)C(=O)C[C@H](C(C)C)C(=O)C1
REMARK SMILES IDX 8 1 9 2 6 3 7 4 5 5 4 6 3 7 2 8 1 9 10 11 11 12 15 13 16 14
REMARK SMILES IDX 17 15 12 17 13 18 14 19
REMARK H PARENT
REMARK Flexibility Score: 70.00
ROOT
ATOM      1  C   UNL     1     -11.773   5.657 -15.561  1.00  0.00     0.136 C 
ATOM      2  O   UNL     1     -11.515   4.705 -16.283  1.00  0.00    -0.299 OA
ENDROOT
BRANCH   1   3
ATOM      3  C   UNL     1     -12.372   6.929 -16.150  1.00  0.00     0.053 C 
ATOM      4  C   UNL     1     -13.591   6.641 -17.043  1.00  0.00     0.016 C 
BRANCH   3   5
ATOM      5  C   UNL     1     -12.709   7.976 -15.064  1.00  0.00     0.015 C 
BRANCH   5   6
ATOM      6  C   UNL     1     -11.566   8.977 -14.812  1.00  0.00     0.028 C 
BRANCH   6   7
ATOM      7  C   UNL     1     -11.303   9.228 -13.347  1.00  0.00    -0.028 C 
ATOM      8  C   UNL     1     -10.358   8.622 -12.579  1.00  0.00    -0.070 CG0
ATOM      9  C   UNL     1     -10.364   8.944 -11.104  1.00  0.00     0.039 C 
ATOM     10  G   UNL     1      -9.255   7.710 -13.113  1.00  0.00     0.000 G0
ENDBRANCH   6   7
ENDBRANCH   5   6
ENDBRANCH   3   5
ENDBRANCH   1   3
BRANCH   1  11
ATOM     11  C   UNL     1     -11.449   5.574 -14.087  1.00  0.00     0.087 C 
BRANCH  11  12
ATOM     12  C   UNL     1      -9.958   5.258 -13.766  1.00  0.00     0.066 C 
BRANCH  12  13
ATOM     13  C   UNL     1      -9.398   6.245 -12.743  1.00  0.00     0.140 C 
ATOM     14  O   UNL     1      -9.002   5.851 -11.655  1.00  0.00    -0.299 OA
BRANCH  13  15
ATOM     15  C   UNL     1      -9.249   7.703 -13.100  1.00  0.00     0.106 CG0
ATOM     16  G   UNL     1     -10.363   8.610 -12.579  1.00  0.00     0.000 G0
ENDBRANCH  13  15
ENDBRANCH  12  13
BRANCH  12  17
ATOM     17  C   UNL     1      -9.674   3.765 -13.374  1.00  0.00    -0.006 C 
ATOM     18  C   UNL     1      -9.135   2.977 -14.585  1.00  0.00     0.008 C 
ATOM     19  C   UNL     1     -10.915   3.034 -12.833  1.00  0.00     0.008 C 
ENDBRANCH  12  17
ENDBRANCH  11  12
ENDBRANCH   1  11
TORSDOF 1
ENDMDL
MODEL 4
REMARK VINA RESULT:    -3.578      2.148      2.867
REMARK INTER + INTRA:          -5.638
REMARK INTER:                  -5.515
REMARK INTRA:                  -0.123
REMARK UNBOUND:                -0.178
REMARK SMILES CC1=CCC[C@H](C)C(=O)C[C@H](C(C)C)C(=O)C1
REMARK SMILES IDX 8 1 9 2 6 3 7 4 5 5 4 6 3 7 2 8 1 9 10 11 11 12 15 13 16 14
REMARK SMILES IDX 17 15 12 17 13 18 14 19
REMARK H PARENT
REMARK Flexibility Score: 70.00
ROOT
ATOM      1  C   UNL     1     -11.886   6.336 -15.284  1.00  0.00     0.136 C 
ATOM      2  O   UNL     1     -11.906   7.515 -14.959  1.00  0.00    -0.299 OA
ENDROOT
BRANCH   1   3
ATOM      3  C   UNL     1     -12.934   5.787 -16.246  1.00  0.00     0.053 C 
ATOM      4  C   UNL     1     -13.897   6.877 -16.746  1.00  0.00     0.016 C 
BRANCH   3   5
ATOM      5  C   UNL     1     -12.300   5.016 -17.426  1.00  0.00     0.015 C 
BRANCH   5   6
ATOM      6  C   UNL     1     -12.376   3.487 -17.261  1.00  0.00     0.028 C 
BRANCH   6   7
ATOM      7  C   UNL     1     -13.300   3.049 -16.150  1.00  0.00    -0.028 C 
ATOM      8  C   UNL     1     -12.933   2.613 -14.916  1.00  0.00    -0.070 CG0
ATOM      9  C   UNL     1     -14.032   2.109 -14.012  1.00  0.00     0.039 C 
ATOM     10  G   UNL     1     -11.512   2.670 -14.359  1.00  0.00     0.000 G0
ENDBRANCH   6   7
ENDBRANCH   5   6
ENDBRANCH   3   5
ENDBRANCH   1   3
BRANCH   1  11
ATOM     11  C   UNL     1     -10.841   5.423 -14.687  1.00  0.00     0.087 C 
BRANCH  11  12
ATOM     12  C   UNL     1     -11.118   4.993 -13.216  1.00  0.00     0.066 C 
BRANCH  12  13
ATOM     13  C   UNL     1     -11.316   3.481 -13.115  1.00  0.00     0.140 C 
ATOM     14  O   UNL     1     -11.401   2.939 -12.022  1.00  0.00    -0.299 OA
BRANCH  13  15
ATOM     15  C   UNL     1     -11.494   2.656 -14.365  1.00  0.00     0.106 CG0
ATOM     16  G   UNL     1     -12.919   2.622 -14.917  1.00  0.00     0.000 G0
ENDBRANCH  13  15
ENDBRANCH  12  13
BRANCH  12  17
ATOM     17  C   UNL     1     -10.080   5.531 -12.169  1.00  0.00    -0.006 C 
ATOM     18  C   UNL     1     -10.783   6.378 -11.089  1.00  0.00     0.008 C 
ATOM     19  C   UNL     1      -8.964   6.381 -12.803  1.00  0.00     0.008 C 
ENDBRANCH  12  17
ENDBRANCH  11  12
ENDBRANCH   1  11
TORSDOF 1
ENDMDL
MODEL 5
REMARK VINA RESULT:    -3.522      1.965      3.635
REMARK INTER + INTRA:          -5.552
REMARK INTER:                  -5.887
REMARK INTRA:                   0.335
REMARK UNBOUND:                -0.178
REMARK SMILES CC1=CCC[C@H](C)C(=O)C[C@H](C(C)C)C(=O)C1
REMARK SMILES IDX 8 1 9 2 6 3 7 4 5 5 4 6 3 7 2 8 1 9 10 11 11 12 15 13 16 14
REMARK SMILES IDX 17 15 12 17 13 18 14 19
REMARK H PARENT
REMARK Flexibility Score: 70.00
ROOT
ATOM      1  C   UNL     1     -12.155   4.084 -16.493  1.00  0.00     0.136 C 
ATOM      2  O   UNL     1     -12.324   3.609 -17.607  1.00  0.00    -0.299 OA
ENDROOT
BRANCH   1   3
ATOM      3  C   UNL     1     -12.666   3.349 -15.259  1.00  0.00     0.053 C 
ATOM      4  C   UNL     1     -14.071   2.761 -15.468  1.00  0.00     0.016 C 
BRANCH   3   5
ATOM      5  C   UNL     1     -11.675   2.270 -14.766  1.00  0.00     0.015 C 
BRANCH   5   6
ATOM      6  C   UNL     1     -10.491   2.851 -13.971  1.00  0.00     0.028 C 
BRANCH   6   7
ATOM      7  C   UNL     1     -10.918   3.691 -12.790  1.00  0.00    -0.028 C 
ATOM      8  C   UNL     1     -10.710   5.024 -12.628  1.00  0.00    -0.070 CG0
ATOM      9  C   UNL     1     -11.116   5.626 -11.304  1.00  0.00     0.039 C 
ATOM     10  G   UNL     1     -10.171   5.960 -13.709  1.00  0.00     0.000 G0
ENDBRANCH   6   7
ENDBRANCH   5   6
ENDBRANCH   3   5
ENDBRANCH   1   3
BRANCH   1  11
ATOM     11  C   UNL     1     -11.473   5.427 -16.358  1.00  0.00     0.087 C 
BRANCH  11  12
ATOM     12  C   UNL     1     -12.162   6.406 -15.361  1.00  0.00     0.066 C 
BRANCH  12  13
ATOM     13  C   UNL     1     -11.165   6.923 -14.325  1.00  0.00     0.140 C 
ATOM     14  O   UNL     1     -11.222   8.081 -13.934  1.00  0.00    -0.299 OA
BRANCH  13  15
ATOM     15  C   UNL     1     -10.154   5.986 -13.713  1.00  0.00     0.106 CG0
ATOM     16  G   UNL     1     -10.714   5.038 -12.653  1.00  0.00     0.000 G0
ENDBRANCH  13  15
ENDBRANCH  12  13
BRANCH  12  17
ATOM     17  C   UNL     1     -12.976   7.565 -16.037  1.00  0.00    -0.006 C 
ATOM     18  C   UNL     1     -13.594   8.492 -14.971  1.00  0.00     0.008 C 
ATOM     19  C   UNL     1     -14.105   7.058 -16.953  1.00  0.00     0.008 C 
ENDBRANCH  12  17
ENDBRANCH  11  12
ENDBRANCH   1  11
TORSDOF 1
ENDMDL
MODEL 6
REMARK VINA RESULT:    -3.509     14.369     17.052
REMARK INTER + INTRA:          -5.533
REMARK INTER:                  -5.220
REMARK INTRA:                  -0.312
REMARK UNBOUND:                -0.178
REMARK SMILES CC1=CCC[C@H](C)C(=O)C[C@H](C(C)C)C(=O)C1
REMARK SMILES IDX 8 1 9 2 6 3 7 4 5 5 4 6 3 7 2 8 1 9 10 11 11 12 15 13 16 14
REMARK SMILES IDX 17 15 12 17 13 18 14 19
REMARK H PARENT
REMARK Flexibility Score: 70.00
ROOT
ATOM      1  C   UNL     1     -27.806   9.227 -23.172  1.00  0.00     0.136 C 
ATOM      2  O   UNL     1     -28.815   8.836 -23.740  1.00  0.00    -0.299 OA
ENDROOT
BRANCH   1   3
ATOM      3  C   UNL     1     -27.883  10.372 -22.169  1.00  0.00     0.053 C 
ATOM      4  C   UNL     1     -28.105  11.733 -22.851  1.00  0.00     0.016 C 
BRANCH   3   5
ATOM      5  C   UNL     1     -28.939  10.119 -21.069  1.00  0.00     0.015 C 
BRANCH   5   6
ATOM      6  C   UNL     1     -28.408   9.263 -19.904  1.00  0.00     0.028 C 
BRANCH   6   7
ATOM      7  C   UNL     1     -28.965   7.860 -19.890  1.00  0.00    -0.028 C 
ATOM      8  C   UNL     1     -28.282   6.716 -20.159  1.00  0.00    -0.070 CG0
ATOM      9  C   UNL     1     -29.080   5.435 -20.206  1.00  0.00     0.039 C 
ATOM     10  G   UNL     1     -26.767   6.627 -20.338  1.00  0.00     0.000 G0
ENDBRANCH   6   7
ENDBRANCH   5   6
ENDBRANCH   3   5
ENDBRANCH   1   3
BRANCH   1  11
ATOM     11  C   UNL     1     -26.476   8.592 -23.509  1.00  0.00     0.087 C 
BRANCH  11  12
ATOM     12  C   UNL     1     -25.688   8.046 -22.280  1.00  0.00     0.066 C 
BRANCH  12  13
ATOM     13  C   UNL     1     -26.289   6.730 -21.787  1.00  0.00     0.140 C 
ATOM     14  O   UNL     1     -26.325   5.752 -22.520  1.00  0.00    -0.299 OA
BRANCH  13  15
ATOM     15  C   UNL     1     -26.765   6.603 -20.361  1.00  0.00     0.106 CG0
ATOM     16  G   UNL     1     -28.277   6.717 -20.175  1.00  0.00     0.000 G0
ENDBRANCH  13  15
ENDBRANCH  12  13
BRANCH  12  17
ATOM     17  C   UNL     1     -24.136   7.954 -22.485  1.00  0.00    -0.006 C 
ATOM     18  C   UNL     1     -23.504   7.004 -21.447  1.00  0.00     0.008 C 
ATOM     19  C   UNL     1     -23.430   9.319 -22.386  1.00  0.00     0.008 C 
ENDBRANCH  12  17
ENDBRANCH  11  12
ENDBRANCH   1  11
TORSDOF 1
ENDMDL
MODEL 7
REMARK VINA RESULT:    -3.487      3.190      5.791
REMARK INTER + INTRA:          -5.499
REMARK INTER:                  -4.944
REMARK INTRA:                  -0.555
REMARK UNBOUND:                -0.178
REMARK SMILES CC1=CCC[C@H](C)C(=O)C[C@H](C(C)C)C(=O)C1
REMARK SMILES IDX 8 1 9 2 6 3 7 4 5 5 4 6 3 7 2 8 1 9 10 11 11 12 15 13 16 14
REMARK SMILES IDX 17 15 12 17 13 18 14 19
REMARK H PARENT
REMARK Flexibility Score: 70.00
ROOT
ATOM      1  C   UNL     1     -10.466   3.479 -11.709  1.00  0.00     0.136 C 
ATOM      2  O   UNL     1      -9.351   3.245 -11.265  1.00  0.00    -0.299 OA
ENDROOT
BRANCH   1   3
ATOM      3  C   UNL     1     -10.927   4.918 -11.909  1.00  0.00     0.053 C 
ATOM      4  C   UNL     1     -10.908   5.725 -10.601  1.00  0.00     0.016 C 
BRANCH   3   5
ATOM      5  C   UNL     1     -10.134   5.639 -13.023  1.00  0.00     0.015 C 
BRANCH   5   6
ATOM      6  C   UNL     1      -9.977   4.794 -14.300  1.00  0.00     0.028 C 
BRANCH   6   7
ATOM      7  C   UNL     1     -11.149   4.915 -15.245  1.00  0.00    -0.028 C 
ATOM      8  C   UNL     1     -12.043   3.940 -15.555  1.00  0.00    -0.070 CG0
ATOM      9  C   UNL     1     -13.061   4.256 -16.624  1.00  0.00     0.039 C 
ATOM     10  G   UNL     1     -12.138   2.588 -14.848  1.00  0.00     0.000 G0
ENDBRANCH   6   7
ENDBRANCH   5   6
ENDBRANCH   3   5
ENDBRANCH   1   3
BRANCH   1  11
ATOM     11  C   UNL     1     -11.396   2.327 -12.016  1.00  0.00     0.087 C 
BRANCH  11  12
ATOM     12  C   UNL     1     -12.864   2.744 -12.328  1.00  0.00     0.066 C 
BRANCH  12  13
ATOM     13  C   UNL     1     -13.207   2.479 -13.794  1.00  0.00     0.140 C 
ATOM     14  O   UNL     1     -14.362   2.250 -14.128  1.00  0.00    -0.299 OA
BRANCH  13  15
ATOM     15  C   UNL     1     -12.138   2.581 -14.853  1.00  0.00     0.106 CG0
ATOM     16  G   UNL     1     -12.040   3.943 -15.539  1.00  0.00     0.000 G0
ENDBRANCH  13  15
ENDBRANCH  12  13
BRANCH  12  17
ATOM     17  C   UNL     1     -13.936   2.153 -11.347  1.00  0.00    -0.006 C 
ATOM     18  C   UNL     1     -14.542   3.265 -10.467  1.00  0.00     0.008 C 
ATOM     19  C   UNL     1     -13.374   1.056 -10.424  1.00  0.00     0.008 C 
ENDBRANCH  12  17
ENDBRANCH  11  12
ENDBRANCH   1  11
TORSDOF 1
ENDMDL
MODEL 8
REMARK VINA RESULT:    -3.403      2.175      5.043
REMARK INTER + INTRA:          -5.371
REMARK INTER:                  -5.416
REMARK INTRA:                   0.045
REMARK UNBOUND:                -0.178
REMARK SMILES CC1=CCC[C@H](C)C(=O)C[C@H](C(C)C)C(=O)C1
REMARK SMILES IDX 8 1 9 2 6 3 7 4 5 5 4 6 3 7 2 8 1 9 10 11 11 12 15 13 16 14
REMARK SMILES IDX 17 15 12 17 13 18 14 19
REMARK H PARENT
REMARK Flexibility Score: 70.00
ROOT
ATOM      1  C   UNL     1     -11.279   3.030 -14.244  1.00  0.00     0.136 C 
ATOM      2  O   UNL     1     -12.482   2.819 -14.288  1.00  0.00    -0.299 OA
ENDROOT
BRANCH   1   3
ATOM      3  C   UNL     1     -10.373   2.141 -13.400  1.00  0.00     0.053 C 
ATOM      4  C   UNL     1      -8.956   2.023 -13.988  1.00  0.00     0.016 C 
BRANCH   3   5
ATOM      5  C   UNL     1     -10.329   2.584 -11.920  1.00  0.00     0.015 C 
BRANCH   5   6
ATOM      6  C   UNL     1      -9.320   3.717 -11.656  1.00  0.00     0.028 C 
BRANCH   6   7
ATOM      7  C   UNL     1      -9.965   4.987 -11.155  1.00  0.00    -0.028 C 
ATOM      8  C   UNL     1     -10.103   6.150 -11.843  1.00  0.00    -0.070 CG0
ATOM      9  C   UNL     1     -10.670   7.330 -11.091  1.00  0.00     0.039 C 
ATOM     10  G   UNL     1      -9.799   6.324 -13.331  1.00  0.00     0.000 G0
ENDBRANCH   6   7
ENDBRANCH   5   6
ENDBRANCH   3   5
ENDBRANCH   1   3
BRANCH   1  11
ATOM     11  C   UNL     1     -10.708   4.209 -14.999  1.00  0.00     0.087 C 
BRANCH  11  12
ATOM     12  C   UNL     1     -11.619   5.471 -15.016  1.00  0.00     0.066 C 
BRANCH  12  13
ATOM     13  C   UNL     1     -10.992   6.610 -14.212  1.00  0.00     0.140 C 
ATOM     14  O   UNL     1     -11.494   7.725 -14.220  1.00  0.00    -0.299 OA
BRANCH  13  15
ATOM     15  C   UNL     1      -9.795   6.346 -13.332  1.00  0.00     0.106 CG0
ATOM     16  G   UNL     1     -10.115   6.157 -11.850  1.00  0.00     0.000 G0
ENDBRANCH  13  15
ENDBRANCH  12  13
BRANCH  12  17
ATOM     17  C   UNL     1     -12.076   5.931 -16.445  1.00  0.00    -0.006 C 
ATOM     18  C   UNL     1     -13.405   6.710 -16.368  1.00  0.00     0.008 C 
ATOM     19  C   UNL     1     -12.256   4.761 -17.429  1.00  0.00     0.008 C 
ENDBRANCH  12  17
ENDBRANCH  11  12
ENDBRANCH   1  11
TORSDOF 1
ENDMDL
MODEL 9
REMARK VINA RESULT:    -3.107      4.964      6.626
REMARK INTER + INTRA:          -4.919
REMARK INTER:                  -4.782
REMARK INTRA:                  -0.138
REMARK UNBOUND:                -0.178
REMARK SMILES CC1=CCC[C@H](C)C(=O)C[C@H](C(C)C)C(=O)C1
REMARK SMILES IDX 8 1 9 2 6 3 7 4 5 5 4 6 3 7 2 8 1 9 10 11 11 12 15 13 16 14
REMARK SMILES IDX 17 15 12 17 13 18 14 19
REMARK H PARENT
REMARK Flexibility Score: 70.00
ROOT
ATOM      1  C   UNL     1     -13.433   3.175 -10.953  1.00  0.00     0.136 C 
ATOM      2  O   UNL     1     -12.901   4.205 -10.563  1.00  0.00    -0.299 OA
ENDROOT
BRANCH   1   3
ATOM      3  C   UNL     1     -14.716   2.677 -10.297  1.00  0.00     0.053 C 
ATOM      4  C   UNL     1     -15.875   2.554 -11.300  1.00  0.00     0.016 C 
BRANCH   3   5
ATOM      5  C   UNL     1     -14.505   1.356  -9.522  1.00  0.00     0.015 C 
BRANCH   5   6
ATOM      6  C   UNL     1     -13.177   1.316  -8.743  1.00  0.00     0.028 C 
BRANCH   6   7
ATOM      7  C   UNL     1     -12.313   0.129  -9.095  1.00  0.00    -0.028 C 
ATOM      8  C   UNL     1     -11.151   0.155  -9.800  1.00  0.00    -0.070 CG0
ATOM      9  C   UNL     1     -10.523  -1.176 -10.137  1.00  0.00     0.039 C 
ATOM     10  G   UNL     1     -10.403   1.425 -10.202  1.00  0.00     0.000 G0
ENDBRANCH   6   7
ENDBRANCH   5   6
ENDBRANCH   3   5
ENDBRANCH   1   3
BRANCH   1  11
ATOM     11  C   UNL     1     -12.779   2.380 -12.060  1.00  0.00     0.087 C 
BRANCH  11  12
ATOM     12  C   UNL     1     -11.285   2.735 -12.318  1.00  0.00     0.066 C 
BRANCH  12  13
ATOM     13  C   UNL     1     -10.359   1.688 -11.699  1.00  0.00     0.140 C 
ATOM     14  O   UNL     1      -9.533   1.106 -12.388  1.00  0.00    -0.299 OA
BRANCH  13  15
ATOM     15  C   UNL     1     -10.399   1.425 -10.215  1.00  0.00     0.106 CG0
ATOM     16  G   UNL     1     -11.133   0.148  -9.807  1.00  0.00     0.000 G0
ENDBRANCH  13  15
ENDBRANCH  12  13
BRANCH  12  17
ATOM     17  C   UNL     1     -10.931   3.032 -13.817  1.00  0.00    -0.006 C 
ATOM     18  C   UNL     1     -10.465   4.492 -13.989  1.00  0.00     0.008 C 
ATOM     19  C   UNL     1     -12.108   2.783 -14.779  1.00  0.00     0.008 C 
ENDBRANCH  12  17
ENDBRANCH  11  12
ENDBRANCH   1  11
TORSDOF 1
ENDMDL
