MODEL 1
REMARK VINA RESULT:    -2.278      0.000      0.000
REMARK INTER + INTRA:          -2.412
REMARK INTER:                  -2.412
REMARK INTRA:                   0.000
REMARK UNBOUND:                 0.000
REMARK SMILES O=c1ccc2cc(O)c(O)cc2o1
REMARK SMILES IDX 4 1 3 2 2 3 1 4 13 5 12 6 11 7 9 8 7 9 6 10 5 11 8 12 10 14
REMARK H PARENT 8 13 10 15
REMARK Flexibility Score: inf
ROOT
ATOM      1  C   UNL     1      20.179  13.891   2.495  1.00  0.00     0.019 A 
ATOM      2  C   UNL     1      18.971  14.078   1.825  1.00  0.00     0.094 A 
ATOM      3  C   UNL     1      18.988  14.618   0.534  1.00  0.00     0.336 A 
ATOM      4  O   UNL     1      17.908  14.795  -0.087  1.00  0.00    -0.246 OA
ATOM      5  O   UNL     1      20.141  14.947  -0.043  1.00  0.00    -0.423 OA
ATOM      6  C   UNL     1      21.316  14.784   0.561  1.00  0.00     0.142 A 
ATOM      7  C   UNL     1      22.495  15.147  -0.096  1.00  0.00     0.098 A 
ATOM      8  C   UNL     1      23.737  14.978   0.535  1.00  0.00     0.161 A 
ATOM      9  C   UNL     1      23.796  14.440   1.834  1.00  0.00     0.158 A 
ATOM     10  C   UNL     1      22.616  14.075   2.494  1.00  0.00     0.062 A 
ATOM     11  C   UNL     1      21.376  14.244   1.864  1.00  0.00     0.022 A 
ENDROOT
BRANCH   9  12
ATOM     12  O   UNL     1      25.017  14.261   2.484  1.00  0.00    -0.504 OA
ATOM     13  H   UNL     1      25.335  13.349   2.789  1.00  0.00     0.293 HD
ENDBRANCH   9  12
BRANCH   8  14
ATOM     14  O   UNL     1      24.911  15.341  -0.123  1.00  0.00    -0.504 OA
ATOM     15  H   UNL     1      25.393  16.207   0.091  1.00  0.00     0.293 HD
ENDBRANCH   8  14
TORSDOF 2
ENDMDL
MODEL 2
REMARK VINA RESULT:    -1.905      1.241      5.025
REMARK INTER + INTRA:          -2.016
REMARK INTER:                  -2.016
REMARK INTRA:                   0.000
REMARK UNBOUND:                 0.000
REMARK SMILES O=c1ccc2cc(O)c(O)cc2o1
REMARK SMILES IDX 4 1 3 2 2 3 1 4 13 5 12 6 11 7 9 8 7 9 6 10 5 11 8 12 10 14
REMARK H PARENT 8 13 10 15
REMARK Flexibility Score: inf
ROOT
ATOM      1  C   UNL     1      23.401  15.337   0.290  1.00  0.00     0.019 A 
ATOM      2  C   UNL     1      24.532  14.955   1.010  1.00  0.00     0.094 A 
ATOM      3  C   UNL     1      24.369  14.229   2.194  1.00  0.00     0.336 A 
ATOM      4  O   UNL     1      25.377  13.875   2.859  1.00  0.00    -0.246 OA
ATOM      5  O   UNL     1      23.151  13.907   2.624  1.00  0.00    -0.423 OA
ATOM      6  C   UNL     1      22.046  14.251   1.968  1.00  0.00     0.142 A 
ATOM      7  C   UNL     1      20.793  13.884   2.467  1.00  0.00     0.098 A 
ATOM      8  C   UNL     1      19.624  14.244   1.780  1.00  0.00     0.161 A 
ATOM      9  C   UNL     1      19.712  14.976   0.582  1.00  0.00     0.158 A 
ATOM     10  C   UNL     1      20.966  15.344   0.078  1.00  0.00     0.062 A 
ATOM     11  C   UNL     1      22.134  14.985   0.765  1.00  0.00     0.022 A 
ENDROOT
BRANCH   9  12
ATOM     12  O   UNL     1      18.567  15.346  -0.122  1.00  0.00    -0.504 OA
ATOM     13  H   UNL     1      18.361  16.313  -0.344  1.00  0.00     0.293 HD
ENDBRANCH   9  12
BRANCH   8  14
ATOM     14  O   UNL     1      18.376  13.877   2.282  1.00  0.00    -0.504 OA
ATOM     15  H   UNL     1      18.059  12.915   2.261  1.00  0.00     0.293 HD
ENDBRANCH   8  14
TORSDOF 2
ENDMDL
