MODEL 1
REMARK VINA RESULT:    -3.698      0.000      0.000
REMARK INTER + INTRA:          -8.830
REMARK INTER:                  -6.942
REMARK INTRA:                  -1.888
REMARK UNBOUND:                -1.888
REMARK SMILES O=C([O-])CCCCCCCCCCCCCCC(=O)[O-]
REMARK SMILES IDX 10 1 9 2 8 3 7 4 6 5 5 6 4 7 2 8 1 9 3 10 11 11 12 12 13 13
REMARK SMILES IDX 14 14 15 15 16 16 17 17 18 18 19 19 20 20
REMARK H PARENT
REMARK Flexibility Score: inf
ROOT
ATOM      1  C   UNL     1      14.016 -18.208  21.161  1.00  0.00     0.000 C 
ENDROOT
BRANCH   1   2
ATOM      2  C   UNL     1      15.143 -18.860  20.339  1.00  0.00     0.000 C 
BRANCH   2   3
ATOM      3  C   UNL     1      14.610 -19.686  19.159  1.00  0.00     0.000 C 
BRANCH   3   4
ATOM      4  C   UNL     1      15.077 -21.148  19.202  1.00  0.00     0.000 C 
BRANCH   4   5
ATOM      5  C   UNL     1      13.963 -22.066  19.722  1.00  0.00     0.000 C 
BRANCH   5   6
ATOM      6  C   UNL     1      14.443 -22.887  20.928  1.00  0.00     0.006 C 
BRANCH   6   7
ATOM      7  C   UNL     1      13.936 -22.317  22.258  1.00  0.00     0.053 C 
BRANCH   7   8
ATOM      8  C   UNL     1      14.968 -21.460  22.925  1.00  0.00     0.041 C 
ATOM      9  O   UNL     1      14.626 -20.618  23.795  1.00  0.00    -0.550 OA
ATOM     10  O   UNL     1      16.304 -21.571  22.560  1.00  0.00    -0.550 OA
ENDBRANCH   7   8
ENDBRANCH   6   7
ENDBRANCH   5   6
ENDBRANCH   4   5
ENDBRANCH   3   4
ENDBRANCH   2   3
ENDBRANCH   1   2
BRANCH   1  11
ATOM     11  C   UNL     1      12.635 -18.802  20.842  1.00  0.00     0.000 C 
BRANCH  11  12
ATOM     12  C   UNL     1      11.869 -19.224  22.105  1.00  0.00     0.000 C 
BRANCH  12  13
ATOM     13  C   UNL     1      10.718 -18.250  22.402  1.00  0.00     0.000 C 
BRANCH  13  14
ATOM     14  C   UNL     1      10.492 -17.224  21.277  1.00  0.00     0.000 C 
BRANCH  14  15
ATOM     15  C   UNL     1      10.581 -15.750  21.712  1.00  0.00     0.000 C 
BRANCH  15  16
ATOM     16  C   UNL     1      11.782 -15.014  21.093  1.00  0.00     0.006 C 
BRANCH  16  17
ATOM     17  C   UNL     1      11.762 -13.511  21.405  1.00  0.00     0.053 C 
BRANCH  17  18
ATOM     18  C   UNL     1      12.392 -13.213  22.731  1.00  0.00     0.041 C 
ATOM     19  O   UNL     1      13.629 -12.997  22.811  1.00  0.00    -0.550 OA
ATOM     20  O   UNL     1      11.605 -13.135  23.873  1.00  0.00    -0.550 OA
ENDBRANCH  17  18
ENDBRANCH  16  17
ENDBRANCH  15  16
ENDBRANCH  14  15
ENDBRANCH  13  14
ENDBRANCH  12  13
ENDBRANCH  11  12
ENDBRANCH   1  11
TORSDOF 15
ENDMDL
MODEL 2
REMARK VINA RESULT:    -3.688     11.305     14.930
REMARK INTER + INTRA:          -8.811
REMARK INTER:                  -6.787
REMARK INTRA:                  -2.024
REMARK UNBOUND:                -1.888
REMARK SMILES O=C([O-])CCCCCCCCCCCCCCC(=O)[O-]
REMARK SMILES IDX 10 1 9 2 8 3 7 4 6 5 5 6 4 7 2 8 1 9 3 10 11 11 12 12 13 13
REMARK SMILES IDX 14 14 15 15 16 16 17 17 18 18 19 19 20 20
REMARK H PARENT
REMARK Flexibility Score: inf
ROOT
ATOM      1  C   UNL     1      20.009  -5.031  30.651  1.00  0.00     0.000 C 
ENDROOT
BRANCH   1   2
ATOM      2  C   UNL     1      20.712  -5.829  29.539  1.00  0.00     0.000 C 
BRANCH   2   3
ATOM      3  C   UNL     1      19.827  -6.011  28.296  1.00  0.00     0.000 C 
BRANCH   3   4
ATOM      4  C   UNL     1      20.031  -7.374  27.619  1.00  0.00     0.000 C 
BRANCH   4   5
ATOM      5  C   UNL     1      20.539  -8.416  28.625  1.00  0.00     0.000 C 
BRANCH   5   6
ATOM      6  C   UNL     1      20.631  -9.806  27.979  1.00  0.00     0.006 C 
BRANCH   6   7
ATOM      7  C   UNL     1      19.292 -10.552  28.010  1.00  0.00     0.053 C 
BRANCH   7   8
ATOM      8  C   UNL     1      18.886 -11.023  26.647  1.00  0.00     0.041 C 
ATOM      9  O   UNL     1      19.384 -10.493  25.619  1.00  0.00    -0.550 OA
ATOM     10  O   UNL     1      17.935 -12.026  26.513  1.00  0.00    -0.550 OA
ENDBRANCH   7   8
ENDBRANCH   6   7
ENDBRANCH   5   6
ENDBRANCH   4   5
ENDBRANCH   3   4
ENDBRANCH   2   3
ENDBRANCH   1   2
BRANCH   1  11
ATOM     11  C   UNL     1      18.645  -5.627  31.034  1.00  0.00     0.000 C 
BRANCH  11  12
ATOM     12  C   UNL     1      18.771  -6.997  31.719  1.00  0.00     0.000 C 
BRANCH  12  13
ATOM     13  C   UNL     1      17.691  -7.966  31.214  1.00  0.00     0.000 C 
BRANCH  13  14
ATOM     14  C   UNL     1      18.137  -9.438  31.256  1.00  0.00     0.000 C 
BRANCH  14  15
ATOM     15  C   UNL     1      18.722  -9.904  32.601  1.00  0.00     0.000 C 
BRANCH  15  16
ATOM     16  C   UNL     1      20.233 -10.186  32.533  1.00  0.00     0.006 C 
BRANCH  16  17
ATOM     17  C   UNL     1      20.594 -11.122  31.371  1.00  0.00     0.053 C 
BRANCH  17  18
ATOM     18  C   UNL     1      21.068 -12.456  31.862  1.00  0.00     0.041 C 
ATOM     19  O   UNL     1      21.795 -13.178  31.131  1.00  0.00    -0.550 OA
ATOM     20  O   UNL     1      20.737 -12.884  33.141  1.00  0.00    -0.550 OA
ENDBRANCH  17  18
ENDBRANCH  16  17
ENDBRANCH  15  16
ENDBRANCH  14  15
ENDBRANCH  13  14
ENDBRANCH  12  13
ENDBRANCH  11  12
ENDBRANCH   1  11
TORSDOF 15
ENDMDL
MODEL 3
REMARK VINA RESULT:    -3.670     13.941     17.106
REMARK INTER + INTRA:          -8.776
REMARK INTER:                  -6.509
REMARK INTRA:                  -2.268
REMARK UNBOUND:                -1.888
REMARK SMILES O=C([O-])CCCCCCCCCCCCCCC(=O)[O-]
REMARK SMILES IDX 10 1 9 2 8 3 7 4 6 5 5 6 4 7 2 8 1 9 3 10 11 11 12 12 13 13
REMARK SMILES IDX 14 14 15 15 16 16 17 17 18 18 19 19 20 20
REMARK H PARENT
REMARK Flexibility Score: inf
ROOT
ATOM      1  C   UNL     1      17.972  -7.518  34.399  1.00  0.00     0.000 C 
ENDROOT
BRANCH   1   2
ATOM      2  C   UNL     1      17.212  -6.524  33.503  1.00  0.00     0.000 C 
BRANCH   2   3
ATOM      3  C   UNL     1      16.958  -7.079  32.093  1.00  0.00     0.000 C 
BRANCH   3   4
ATOM      4  C   UNL     1      17.652  -6.254  30.999  1.00  0.00     0.000 C 
BRANCH   4   5
ATOM      5  C   UNL     1      18.576  -5.194  31.613  1.00  0.00     0.000 C 
BRANCH   5   6
ATOM      6  C   UNL     1      19.826  -4.983  30.746  1.00  0.00     0.006 C 
BRANCH   6   7
ATOM      7  C   UNL     1      19.704  -5.661  29.376  1.00  0.00     0.053 C 
BRANCH   7   8
ATOM      8  C   UNL     1      21.033  -6.135  28.871  1.00  0.00     0.041 C 
ATOM      9  O   UNL     1      22.083  -5.501  29.158  1.00  0.00    -0.550 OA
ATOM     10  O   UNL     1      21.107  -7.258  28.057  1.00  0.00    -0.550 OA
ENDBRANCH   7   8
ENDBRANCH   6   7
ENDBRANCH   5   6
ENDBRANCH   4   5
ENDBRANCH   3   4
ENDBRANCH   2   3
ENDBRANCH   1   2
BRANCH   1  11
ATOM     11  C   UNL     1      19.314  -6.957  34.897  1.00  0.00     0.000 C 
BRANCH  11  12
ATOM     12  C   UNL     1      20.475  -7.272  33.943  1.00  0.00     0.000 C 
BRANCH  12  13
ATOM     13  C   UNL     1      20.244  -8.606  33.216  1.00  0.00     0.000 C 
BRANCH  13  14
ATOM     14  C   UNL     1      20.521  -8.523  31.704  1.00  0.00     0.000 C 
BRANCH  14  15
ATOM     15  C   UNL     1      20.570  -9.879  30.976  1.00  0.00     0.000 C 
BRANCH  15  16
ATOM     16  C   UNL     1      19.296 -10.716  31.179  1.00  0.00     0.006 C 
BRANCH  16  17
ATOM     17  C   UNL     1      19.612 -12.188  31.473  1.00  0.00     0.053 C 
BRANCH  17  18
ATOM     18  C   UNL     1      20.575 -12.331  32.612  1.00  0.00     0.041 C 
ATOM     19  O   UNL     1      21.784 -12.603  32.390  1.00  0.00    -0.550 OA
ATOM     20  O   UNL     1      20.144 -12.127  33.917  1.00  0.00    -0.550 OA
ENDBRANCH  17  18
ENDBRANCH  16  17
ENDBRANCH  15  16
ENDBRANCH  14  15
ENDBRANCH  13  14
ENDBRANCH  12  13
ENDBRANCH  11  12
ENDBRANCH   1  11
TORSDOF 15
ENDMDL
MODEL 4
REMARK VINA RESULT:    -3.661     11.627     15.169
REMARK INTER + INTRA:          -8.760
REMARK INTER:                  -6.267
REMARK INTRA:                  -2.493
REMARK UNBOUND:                -1.888
REMARK SMILES O=C([O-])CCCCCCCCCCCCCCC(=O)[O-]
REMARK SMILES IDX 10 1 9 2 8 3 7 4 6 5 5 6 4 7 2 8 1 9 3 10 11 11 12 12 13 13
REMARK SMILES IDX 14 14 15 15 16 16 17 17 18 18 19 19 20 20
REMARK H PARENT
REMARK Flexibility Score: inf
ROOT
ATOM      1  C   UNL     1      18.329  -5.988  31.183  1.00  0.00     0.000 C 
ENDROOT
BRANCH   1   2
ATOM      2  C   UNL     1      18.247  -7.145  32.195  1.00  0.00     0.000 C 
BRANCH   2   3
ATOM      3  C   UNL     1      19.501  -7.245  33.077  1.00  0.00     0.000 C 
BRANCH   3   4
ATOM      4  C   UNL     1      20.205  -8.604  32.951  1.00  0.00     0.000 C 
BRANCH   4   5
ATOM      5  C   UNL     1      19.651  -9.402  31.764  1.00  0.00     0.000 C 
BRANCH   5   6
ATOM      6  C   UNL     1      20.779  -9.836  30.817  1.00  0.00     0.006 C 
BRANCH   6   7
ATOM      7  C   UNL     1      20.617 -11.286  30.346  1.00  0.00     0.053 C 
BRANCH   7   8
ATOM      8  C   UNL     1      20.583 -12.244  31.498  1.00  0.00     0.041 C 
ATOM      9  O   UNL     1      21.595 -12.387  32.233  1.00  0.00    -0.550 OA
ATOM     10  O   UNL     1      19.444 -13.001  31.739  1.00  0.00    -0.550 OA
ENDBRANCH   7   8
ENDBRANCH   6   7
ENDBRANCH   5   6
ENDBRANCH   4   5
ENDBRANCH   3   4
ENDBRANCH   2   3
ENDBRANCH   1   2
BRANCH   1  11
ATOM     11  C   UNL     1      19.555  -5.090  31.410  1.00  0.00     0.000 C 
BRANCH  11  12
ATOM     12  C   UNL     1      20.409  -4.928  30.144  1.00  0.00     0.000 C 
BRANCH  12  13
ATOM     13  C   UNL     1      21.034  -6.268  29.725  1.00  0.00     0.000 C 
BRANCH  13  14
ATOM     14  C   UNL     1      20.833  -6.586  28.233  1.00  0.00     0.000 C 
BRANCH  14  15
ATOM     15  C   UNL     1      20.207  -7.961  27.938  1.00  0.00     0.000 C 
BRANCH  15  16
ATOM     16  C   UNL     1      18.696  -8.006  28.222  1.00  0.00     0.006 C 
BRANCH  16  17
ATOM     17  C   UNL     1      18.143  -9.437  28.185  1.00  0.00     0.053 C 
BRANCH  17  18
ATOM     18  C   UNL     1      18.522 -10.144  26.920  1.00  0.00     0.041 C 
ATOM     19  O   UNL     1      19.183 -11.215  26.965  1.00  0.00    -0.550 OA
ATOM     20  O   UNL     1      18.113  -9.641  25.692  1.00  0.00    -0.550 OA
ENDBRANCH  17  18
ENDBRANCH  16  17
ENDBRANCH  15  16
ENDBRANCH  14  15
ENDBRANCH  13  14
ENDBRANCH  12  13
ENDBRANCH  11  12
ENDBRANCH   1  11
TORSDOF 15
ENDMDL
MODEL 5
REMARK VINA RESULT:    -3.653     12.886     15.101
REMARK INTER + INTRA:          -8.745
REMARK INTER:                  -6.465
REMARK INTRA:                  -2.280
REMARK UNBOUND:                -1.888
REMARK SMILES O=C([O-])CCCCCCCCCCCCCCC(=O)[O-]
REMARK SMILES IDX 10 1 9 2 8 3 7 4 6 5 5 6 4 7 2 8 1 9 3 10 11 11 12 12 13 13
REMARK SMILES IDX 14 14 15 15 16 16 17 17 18 18 19 19 20 20
REMARK H PARENT
REMARK Flexibility Score: inf
ROOT
ATOM      1  C   UNL     1      18.197 -12.873  32.769  1.00  0.00     0.000 C 
ENDROOT
BRANCH   1   2
ATOM      2  C   UNL     1      19.564 -13.194  33.398  1.00  0.00     0.000 C 
BRANCH   2   3
ATOM      3  C   UNL     1      20.685 -12.290  32.863  1.00  0.00     0.000 C 
BRANCH   3   4
ATOM      4  C   UNL     1      21.472 -12.940  31.715  1.00  0.00     0.000 C 
BRANCH   4   5
ATOM      5  C   UNL     1      21.449 -12.054  30.463  1.00  0.00     0.000 C 
BRANCH   5   6
ATOM      6  C   UNL     1      20.638 -10.773  30.708  1.00  0.00     0.006 C 
BRANCH   6   7
ATOM      7  C   UNL     1      19.511 -10.595  29.684  1.00  0.00     0.053 C 
BRANCH   7   8
ATOM      8  C   UNL     1      20.045 -10.297  28.316  1.00  0.00     0.041 C 
ATOM      9  O   UNL     1      19.596 -10.911  27.313  1.00  0.00    -0.550 OA
ATOM     10  O   UNL     1      21.062  -9.365  28.155  1.00  0.00    -0.550 OA
ENDBRANCH   7   8
ENDBRANCH   6   7
ENDBRANCH   5   6
ENDBRANCH   4   5
ENDBRANCH   3   4
ENDBRANCH   2   3
ENDBRANCH   1   2
BRANCH   1  11
ATOM     11  C   UNL     1      17.505 -11.675  33.438  1.00  0.00     0.000 C 
BRANCH  11  12
ATOM     12  C   UNL     1      17.227 -10.530  32.452  1.00  0.00     0.000 C 
BRANCH  12  13
ATOM     13  C   UNL     1      17.787  -9.200  32.980  1.00  0.00     0.000 C 
BRANCH  13  14
ATOM     14  C   UNL     1      18.825  -9.387  34.102  1.00  0.00     0.000 C 
BRANCH  14  15
ATOM     15  C   UNL     1      20.173  -8.684  33.865  1.00  0.00     0.000 C 
BRANCH  15  16
ATOM     16  C   UNL     1      20.155  -7.744  32.648  1.00  0.00     0.006 C 
BRANCH  16  17
ATOM     17  C   UNL     1      19.838  -6.295  33.041  1.00  0.00     0.053 C 
BRANCH  17  18
ATOM     18  C   UNL     1      19.329  -5.504  31.876  1.00  0.00     0.041 C 
ATOM     19  O   UNL     1      18.126  -5.605  31.518  1.00  0.00    -0.550 OA
ATOM     20  O   UNL     1      20.173  -4.626  31.208  1.00  0.00    -0.550 OA
ENDBRANCH  17  18
ENDBRANCH  16  17
ENDBRANCH  15  16
ENDBRANCH  14  15
ENDBRANCH  13  14
ENDBRANCH  12  13
ENDBRANCH  11  12
ENDBRANCH   1  11
TORSDOF 15
ENDMDL
MODEL 6
REMARK VINA RESULT:    -3.644     13.908     16.271
REMARK INTER + INTRA:          -8.727
REMARK INTER:                  -6.184
REMARK INTRA:                  -2.544
REMARK UNBOUND:                -1.888
REMARK SMILES O=C([O-])CCCCCCCCCCCCCCC(=O)[O-]
REMARK SMILES IDX 10 1 9 2 8 3 7 4 6 5 5 6 4 7 2 8 1 9 3 10 11 11 12 12 13 13
REMARK SMILES IDX 14 14 15 15 16 16 17 17 18 18 19 19 20 20
REMARK H PARENT
REMARK Flexibility Score: inf
ROOT
ATOM      1  C   UNL     1      19.031  -5.696  29.829  1.00  0.00     0.000 C 
ENDROOT
BRANCH   1   2
ATOM      2  C   UNL     1      20.417  -6.152  30.317  1.00  0.00     0.000 C 
BRANCH   2   3
ATOM      3  C   UNL     1      20.712  -7.618  29.966  1.00  0.00     0.000 C 
BRANCH   3   4
ATOM      4  C   UNL     1      19.580  -8.273  29.162  1.00  0.00     0.000 C 
BRANCH   4   5
ATOM      5  C   UNL     1      19.192  -9.630  29.763  1.00  0.00     0.000 C 
BRANCH   5   6
ATOM      6  C   UNL     1      20.433 -10.506  29.994  1.00  0.00     0.006 C 
BRANCH   6   7
ATOM      7  C   UNL     1      20.595 -10.906  31.466  1.00  0.00     0.053 C 
BRANCH   7   8
ATOM      8  C   UNL     1      21.312 -12.214  31.609  1.00  0.00     0.041 C 
ATOM      9  O   UNL     1      21.891 -12.732  30.619  1.00  0.00    -0.550 OA
ATOM     10  O   UNL     1      21.312 -12.876  32.831  1.00  0.00    -0.550 OA
ENDBRANCH   7   8
ENDBRANCH   6   7
ENDBRANCH   5   6
ENDBRANCH   4   5
ENDBRANCH   3   4
ENDBRANCH   2   3
ENDBRANCH   1   2
BRANCH   1  11
ATOM     11  C   UNL     1      18.077  -5.364  30.987  1.00  0.00     0.000 C 
BRANCH  11  12
ATOM     12  C   UNL     1      16.782  -6.189  30.939  1.00  0.00     0.000 C 
BRANCH  12  13
ATOM     13  C   UNL     1      16.907  -7.459  31.794  1.00  0.00     0.000 C 
BRANCH  13  14
ATOM     14  C   UNL     1      17.754  -7.250  33.062  1.00  0.00     0.000 C 
BRANCH  14  15
ATOM     15  C   UNL     1      18.729  -8.396  33.390  1.00  0.00     0.000 C 
BRANCH  15  16
ATOM     16  C   UNL     1      20.178  -7.915  33.578  1.00  0.00     0.006 C 
BRANCH  16  17
ATOM     17  C   UNL     1      20.248  -6.540  34.256  1.00  0.00     0.053 C 
BRANCH  17  18
ATOM     18  C   UNL     1      20.861  -6.626  35.620  1.00  0.00     0.041 C 
ATOM     19  O   UNL     1      21.144  -5.576  36.255  1.00  0.00    -0.550 OA
ATOM     20  O   UNL     1      21.085  -7.865  36.205  1.00  0.00    -0.550 OA
ENDBRANCH  17  18
ENDBRANCH  16  17
ENDBRANCH  15  16
ENDBRANCH  14  15
ENDBRANCH  13  14
ENDBRANCH  12  13
ENDBRANCH  11  12
ENDBRANCH   1  11
TORSDOF 15
ENDMDL
MODEL 7
REMARK VINA RESULT:    -3.641     13.736     15.491
REMARK INTER + INTRA:          -8.721
REMARK INTER:                  -6.414
REMARK INTRA:                  -2.307
REMARK UNBOUND:                -1.888
REMARK SMILES O=C([O-])CCCCCCCCCCCCCCC(=O)[O-]
REMARK SMILES IDX 10 1 9 2 8 3 7 4 6 5 5 6 4 7 2 8 1 9 3 10 11 11 12 12 13 13
REMARK SMILES IDX 14 14 15 15 16 16 17 17 18 18 19 19 20 20
REMARK H PARENT
REMARK Flexibility Score: inf
ROOT
ATOM      1  C   UNL     1      17.211  -6.728  33.632  1.00  0.00     0.000 C 
ENDROOT
BRANCH   1   2
ATOM      2  C   UNL     1      18.656  -6.607  33.117  1.00  0.00     0.000 C 
BRANCH   2   3
ATOM      3  C   UNL     1      19.236  -7.957  32.667  1.00  0.00     0.000 C 
BRANCH   3   4
ATOM      4  C   UNL     1      18.151  -8.945  32.213  1.00  0.00     0.000 C 
BRANCH   4   5
ATOM      5  C   UNL     1      18.639  -9.791  31.030  1.00  0.00     0.000 C 
BRANCH   5   6
ATOM      6  C   UNL     1      20.171  -9.899  31.024  1.00  0.00     0.006 C 
BRANCH   6   7
ATOM      7  C   UNL     1      20.657 -11.231  30.441  1.00  0.00     0.053 C 
BRANCH   7   8
ATOM      8  C   UNL     1      20.664 -12.319  31.472  1.00  0.00     0.041 C 
ATOM      9  O   UNL     1      21.729 -12.612  32.077  1.00  0.00    -0.550 OA
ATOM     10  O   UNL     1      19.501 -13.029  31.740  1.00  0.00    -0.550 OA
ENDBRANCH   7   8
ENDBRANCH   6   7
ENDBRANCH   5   6
ENDBRANCH   4   5
ENDBRANCH   3   4
ENDBRANCH   2   3
ENDBRANCH   1   2
BRANCH   1  11
ATOM     11  C   UNL     1      16.237  -5.808  32.880  1.00  0.00     0.000 C 
BRANCH  11  12
ATOM     12  C   UNL     1      16.959  -4.815  31.956  1.00  0.00     0.000 C 
BRANCH  12  13
ATOM     13  C   UNL     1      16.497  -4.982  30.500  1.00  0.00     0.000 C 
BRANCH  13  14
ATOM     14  C   UNL     1      16.248  -6.451  30.112  1.00  0.00     0.000 C 
BRANCH  14  15
ATOM     15  C   UNL     1      17.279  -7.052  29.141  1.00  0.00     0.000 C 
BRANCH  15  16
ATOM     16  C   UNL     1      18.388  -6.058  28.752  1.00  0.00     0.006 C 
BRANCH  16  17
ATOM     17  C   UNL     1      19.701  -6.338  29.495  1.00  0.00     0.053 C 
BRANCH  17  18
ATOM     18  C   UNL     1      20.811  -6.680  28.548  1.00  0.00     0.041 C 
ATOM     19  O   UNL     1      20.820  -7.792  27.958  1.00  0.00    -0.550 OA
ATOM     20  O   UNL     1      21.815  -5.756  28.289  1.00  0.00    -0.550 OA
ENDBRANCH  17  18
ENDBRANCH  16  17
ENDBRANCH  15  16
ENDBRANCH  14  15
ENDBRANCH  13  14
ENDBRANCH  12  13
ENDBRANCH  11  12
ENDBRANCH   1  11
TORSDOF 15
ENDMDL
MODEL 8
REMARK VINA RESULT:    -3.613     13.573     15.127
REMARK INTER + INTRA:          -8.670
REMARK INTER:                  -6.331
REMARK INTRA:                  -2.339
REMARK UNBOUND:                -1.888
REMARK SMILES O=C([O-])CCCCCCCCCCCCCCC(=O)[O-]
REMARK SMILES IDX 10 1 9 2 8 3 7 4 6 5 5 6 4 7 2 8 1 9 3 10 11 11 12 12 13 13
REMARK SMILES IDX 14 14 15 15 16 16 17 17 18 18 19 19 20 20
REMARK H PARENT
REMARK Flexibility Score: inf
ROOT
ATOM      1  C   UNL     1      20.574  -6.397  28.224  1.00  0.00     0.000 C 
ENDROOT
BRANCH   1   2
ATOM      2  C   UNL     1      19.351  -7.287  27.943  1.00  0.00     0.000 C 
BRANCH   2   3
ATOM      3  C   UNL     1      19.389  -8.607  28.729  1.00  0.00     0.000 C 
BRANCH   3   4
ATOM      4  C   UNL     1      20.325  -9.646  28.094  1.00  0.00     0.000 C 
BRANCH   4   5
ATOM      5  C   UNL     1      20.794 -10.671  29.134  1.00  0.00     0.000 C 
BRANCH   5   6
ATOM      6  C   UNL     1      20.550 -10.160  30.561  1.00  0.00     0.006 C 
BRANCH   6   7
ATOM      7  C   UNL     1      19.748 -11.157  31.406  1.00  0.00     0.053 C 
BRANCH   7   8
ATOM      8  C   UNL     1      20.612 -11.849  32.417  1.00  0.00     0.041 C 
ATOM      9  O   UNL     1      21.687 -12.398  32.062  1.00  0.00    -0.550 OA
ATOM     10  O   UNL     1      20.211 -11.914  33.746  1.00  0.00    -0.550 OA
ENDBRANCH   7   8
ENDBRANCH   6   7
ENDBRANCH   5   6
ENDBRANCH   4   5
ENDBRANCH   3   4
ENDBRANCH   2   3
ENDBRANCH   1   2
BRANCH   1  11
ATOM     11  C   UNL     1      20.918  -6.321  29.720  1.00  0.00     0.000 C 
BRANCH  11  12
ATOM     12  C   UNL     1      20.390  -5.039  30.382  1.00  0.00     0.000 C 
BRANCH  12  13
ATOM     13  C   UNL     1      19.682  -5.356  31.708  1.00  0.00     0.000 C 
BRANCH  13  14
ATOM     14  C   UNL     1      19.502  -6.866  31.949  1.00  0.00     0.000 C 
BRANCH  14  15
ATOM     15  C   UNL     1      18.042  -7.335  32.080  1.00  0.00     0.000 C 
BRANCH  15  16
ATOM     16  C   UNL     1      17.028  -6.281  31.602  1.00  0.00     0.006 C 
BRANCH  16  17
ATOM     17  C   UNL     1      16.501  -6.584  30.192  1.00  0.00     0.053 C 
BRANCH  17  18
ATOM     18  C   UNL     1      16.275  -5.330  29.405  1.00  0.00     0.041 C 
ATOM     19  O   UNL     1      17.254  -4.675  28.960  1.00  0.00    -0.550 OA
ATOM     20  O   UNL     1      14.982  -4.904  29.131  1.00  0.00    -0.550 OA
ENDBRANCH  17  18
ENDBRANCH  16  17
ENDBRANCH  15  16
ENDBRANCH  14  15
ENDBRANCH  13  14
ENDBRANCH  12  13
ENDBRANCH  11  12
ENDBRANCH   1  11
TORSDOF 15
ENDMDL
MODEL 9
REMARK VINA RESULT:    -3.607     12.334     15.550
REMARK INTER + INTRA:          -8.658
REMARK INTER:                  -6.203
REMARK INTRA:                  -2.455
REMARK UNBOUND:                -1.888
REMARK SMILES O=C([O-])CCCCCCCCCCCCCCC(=O)[O-]
REMARK SMILES IDX 10 1 9 2 8 3 7 4 6 5 5 6 4 7 2 8 1 9 3 10 11 11 12 12 13 13
REMARK SMILES IDX 14 14 15 15 16 16 17 17 18 18 19 19 20 20
REMARK H PARENT
REMARK Flexibility Score: inf
ROOT
ATOM      1  C   UNL     1      18.851  -7.024  27.082  1.00  0.00     0.000 C 
ENDROOT
BRANCH   1   2
ATOM      2  C   UNL     1      19.378  -5.695  27.651  1.00  0.00     0.000 C 
BRANCH   2   3
ATOM      3  C   UNL     1      20.822  -5.804  28.163  1.00  0.00     0.000 C 
BRANCH   3   4
ATOM      4  C   UNL     1      20.894  -6.132  29.662  1.00  0.00     0.000 C 
BRANCH   4   5
ATOM      5  C   UNL     1      20.336  -4.978  30.505  1.00  0.00     0.000 C 
BRANCH   5   6
ATOM      6  C   UNL     1      19.560  -5.507  31.720  1.00  0.00     0.006 C 
BRANCH   6   7
ATOM      7  C   UNL     1      18.991  -6.911  31.479  1.00  0.00     0.053 C 
BRANCH   7   8
ATOM      8  C   UNL     1      19.391  -7.866  32.562  1.00  0.00     0.041 C 
ATOM      9  O   UNL     1      18.536  -8.627  33.084  1.00  0.00    -0.550 OA
ATOM     10  O   UNL     1      20.704  -7.891  33.016  1.00  0.00    -0.550 OA
ENDBRANCH   7   8
ENDBRANCH   6   7
ENDBRANCH   5   6
ENDBRANCH   4   5
ENDBRANCH   3   4
ENDBRANCH   2   3
ENDBRANCH   1   2
BRANCH   1  11
ATOM     11  C   UNL     1      17.827  -7.699  28.008  1.00  0.00     0.000 C 
BRANCH  11  12
ATOM     12  C   UNL     1      17.452  -9.114  27.541  1.00  0.00     0.000 C 
BRANCH  12  13
ATOM     13  C   UNL     1      18.593  -9.746  26.729  1.00  0.00     0.000 C 
BRANCH  13  14
ATOM     14  C   UNL     1      19.499 -10.660  27.573  1.00  0.00     0.000 C 
BRANCH  14  15
ATOM     15  C   UNL     1      20.786  -9.997  28.097  1.00  0.00     0.000 C 
BRANCH  15  16
ATOM     16  C   UNL     1      20.744  -9.718  29.609  1.00  0.00     0.006 C 
BRANCH  16  17
ATOM     17  C   UNL     1      19.894 -10.748  30.364  1.00  0.00     0.053 C 
BRANCH  17  18
ATOM     18  C   UNL     1      20.731 -11.608  31.260  1.00  0.00     0.041 C 
ATOM     19  O   UNL     1      21.573 -12.404  30.769  1.00  0.00    -0.550 OA
ATOM     20  O   UNL     1      20.608 -11.502  32.640  1.00  0.00    -0.550 OA
ENDBRANCH  17  18
ENDBRANCH  16  17
ENDBRANCH  15  16
ENDBRANCH  14  15
ENDBRANCH  13  14
ENDBRANCH  12  13
ENDBRANCH  11  12
ENDBRANCH   1  11
TORSDOF 15
ENDMDL
