MODEL 1
REMARK VINA RESULT:    -4.769      0.000      0.000
REMARK INTER + INTRA:          -5.437
REMARK INTER:                  -5.187
REMARK INTRA:                  -0.250
REMARK UNBOUND:                -0.250
REMARK SMILES O=C([O-])c1ccccc1O
REMARK SMILES IDX 4 1 9 2 5 3 8 4 6 5 7 6 2 7 1 8 3 9 10 10
REMARK H PARENT 10 11
REMARK Flexibility Score: inf
ROOT
ATOM      1  C   UNL     1       5.834 -53.754 577.189  1.00  0.00     0.039 A 
ATOM      2  C   UNL     1       6.256 -54.978 577.767  1.00  0.00     0.124 A 
ATOM      3  C   UNL     1       6.125 -53.505 575.834  1.00  0.00     0.014 A 
ATOM      4  C   UNL     1       6.892 -55.938 576.970  1.00  0.00     0.047 A 
ATOM      5  C   UNL     1       6.781 -54.464 575.059  1.00  0.00     0.001 A 
ATOM      6  C   UNL     1       7.154 -55.682 575.624  1.00  0.00     0.004 A 
ENDROOT
BRANCH   1   7
ATOM      7  C   UNL     1       5.066 -52.741 577.947  1.00  0.00     0.075 C 
ATOM      8  O   UNL     1       5.159 -51.521 577.645  1.00  0.00    -0.545 OA
ATOM      9  O   UNL     1       4.184 -53.122 578.951  1.00  0.00    -0.545 OA
ENDBRANCH   1   7
BRANCH   2  10
ATOM     10  O   UNL     1       6.094 -55.264 579.125  1.00  0.00    -0.507 OA
ATOM     11  H   UNL     1       5.982 -56.200 579.486  1.00  0.00     0.293 HD
ENDBRANCH   2  10
TORSDOF 2
ENDMDL
MODEL 2
REMARK VINA RESULT:    -4.434     10.696     11.343
REMARK INTER + INTRA:          -5.072
REMARK INTER:                  -4.838
REMARK INTRA:                  -0.235
REMARK UNBOUND:                -0.250
REMARK SMILES O=C([O-])c1ccccc1O
REMARK SMILES IDX 4 1 9 2 5 3 8 4 6 5 7 6 2 7 1 8 3 9 10 10
REMARK H PARENT 10 11
REMARK Flexibility Score: inf
ROOT
ATOM      1  C   UNL     1      -1.159 -62.350 577.593  1.00  0.00     0.039 A 
ATOM      2  C   UNL     1      -1.934 -63.419 578.108  1.00  0.00     0.124 A 
ATOM      3  C   UNL     1      -0.161 -62.630 576.639  1.00  0.00     0.014 A 
ATOM      4  C   UNL     1      -1.738 -64.717 577.617  1.00  0.00     0.047 A 
ATOM      5  C   UNL     1       0.036 -63.933 576.176  1.00  0.00     0.001 A 
ATOM      6  C   UNL     1      -0.759 -64.973 576.657  1.00  0.00     0.004 A 
ENDROOT
BRANCH   1   7
ATOM      7  C   UNL     1      -1.383 -60.942 577.991  1.00  0.00     0.075 C 
ATOM      8  O   UNL     1      -2.519 -60.571 578.391  1.00  0.00    -0.545 OA
ATOM      9  O   UNL     1      -0.335 -60.030 577.997  1.00  0.00    -0.545 OA
ENDBRANCH   1   7
BRANCH   2  10
ATOM     10  O   UNL     1      -2.875 -63.244 579.125  1.00  0.00    -0.507 OA
ATOM     11  H   UNL     1      -3.314 -62.357 579.328  1.00  0.00     0.293 HD
ENDBRANCH   2  10
TORSDOF 2
ENDMDL
MODEL 3
REMARK VINA RESULT:    -4.420      1.960      3.425
REMARK INTER + INTRA:          -5.058
REMARK INTER:                  -4.805
REMARK INTRA:                  -0.253
REMARK UNBOUND:                -0.250
REMARK SMILES O=C([O-])c1ccccc1O
REMARK SMILES IDX 4 1 9 2 5 3 8 4 6 5 7 6 2 7 1 8 3 9 10 10
REMARK H PARENT 10 11
REMARK Flexibility Score: inf
ROOT
ATOM      1  C   UNL     1       6.082 -54.474 576.981  1.00  0.00     0.039 A 
ATOM      2  C   UNL     1       5.941 -54.570 578.388  1.00  0.00     0.124 A 
ATOM      3  C   UNL     1       5.775 -53.254 576.347  1.00  0.00     0.014 A 
ATOM      4  C   UNL     1       5.562 -53.440 579.125  1.00  0.00     0.047 A 
ATOM      5  C   UNL     1       5.378 -52.144 577.094  1.00  0.00     0.001 A 
ATOM      6  C   UNL     1       5.281 -52.234 578.482  1.00  0.00     0.004 A 
ENDROOT
BRANCH   1   7
ATOM      7  C   UNL     1       6.577 -55.597 576.154  1.00  0.00     0.075 C 
ATOM      8  O   UNL     1       6.138 -55.763 574.985  1.00  0.00    -0.545 OA
ATOM      9  O   UNL     1       7.577 -56.439 576.625  1.00  0.00    -0.545 OA
ENDBRANCH   1   7
BRANCH   2  10
ATOM     10  O   UNL     1       6.130 -55.766 579.083  1.00  0.00    -0.507 OA
ATOM     11  H   UNL     1       5.491 -56.107 579.787  1.00  0.00     0.293 HD
ENDBRANCH   2  10
TORSDOF 2
ENDMDL
MODEL 4
REMARK VINA RESULT:    -4.409      2.436      3.447
REMARK INTER + INTRA:          -5.045
REMARK INTER:                  -4.833
REMARK INTRA:                  -0.212
REMARK UNBOUND:                -0.250
REMARK SMILES O=C([O-])c1ccccc1O
REMARK SMILES IDX 4 1 9 2 5 3 8 4 6 5 7 6 2 7 1 8 3 9 10 10
REMARK H PARENT 10 11
REMARK Flexibility Score: inf
ROOT
ATOM      1  C   UNL     1       6.422 -54.217 576.368  1.00  0.00     0.039 A 
ATOM      2  C   UNL     1       6.684 -55.298 577.247  1.00  0.00     0.124 A 
ATOM      3  C   UNL     1       5.873 -53.031 576.892  1.00  0.00     0.014 A 
ATOM      4  C   UNL     1       6.452 -55.146 578.620  1.00  0.00     0.047 A 
ATOM      5  C   UNL     1       5.628 -52.904 578.261  1.00  0.00     0.001 A 
ATOM      6  C   UNL     1       5.927 -53.957 579.125  1.00  0.00     0.004 A 
ENDROOT
BRANCH   1   7
ATOM      7  C   UNL     1       6.739 -54.273 574.923  1.00  0.00     0.075 C 
ATOM      8  O   UNL     1       6.147 -55.098 574.177  1.00  0.00    -0.545 OA
ATOM      9  O   UNL     1       7.638 -53.377 574.358  1.00  0.00    -0.545 OA
ENDBRANCH   1   7
BRANCH   2  10
ATOM     10  O   UNL     1       7.136 -56.540 576.797  1.00  0.00    -0.507 OA
ATOM     11  H   UNL     1       6.722 -57.418 577.078  1.00  0.00     0.293 HD
ENDBRANCH   2  10
TORSDOF 2
ENDMDL
MODEL 5
REMARK VINA RESULT:    -4.308     11.513     12.648
REMARK INTER + INTRA:          -4.935
REMARK INTER:                  -4.701
REMARK INTRA:                  -0.235
REMARK UNBOUND:                -0.250
REMARK SMILES O=C([O-])c1ccccc1O
REMARK SMILES IDX 4 1 9 2 5 3 8 4 6 5 7 6 2 7 1 8 3 9 10 10
REMARK H PARENT 10 11
REMARK Flexibility Score: inf
ROOT
ATOM      1  C   UNL     1       8.067 -57.183 565.566  1.00  0.00     0.039 A 
ATOM      2  C   UNL     1       7.870 -58.432 564.925  1.00  0.00     0.124 A 
ATOM      3  C   UNL     1       8.718 -56.151 564.862  1.00  0.00     0.014 A 
ATOM      4  C   UNL     1       8.265 -58.596 563.590  1.00  0.00     0.047 A 
ATOM      5  C   UNL     1       9.125 -56.339 563.539  1.00  0.00     0.001 A 
ATOM      6  C   UNL     1       8.889 -57.556 562.901  1.00  0.00     0.004 A 
ENDROOT
BRANCH   1   7
ATOM      7  C   UNL     1       7.583 -56.909 566.937  1.00  0.00     0.075 C 
ATOM      8  O   UNL     1       6.763 -55.974 567.143  1.00  0.00    -0.545 OA
ATOM      9  O   UNL     1       7.966 -57.716 568.001  1.00  0.00    -0.545 OA
ENDBRANCH   1   7
BRANCH   2  10
ATOM     10  O   UNL     1       7.322 -59.536 565.581  1.00  0.00    -0.507 OA
ATOM     11  H   UNL     1       7.877 -60.298 565.943  1.00  0.00     0.293 HD
ENDBRANCH   2  10
TORSDOF 2
ENDMDL
MODEL 6
REMARK VINA RESULT:    -4.272      1.746      2.572
REMARK INTER + INTRA:          -4.897
REMARK INTER:                  -4.648
REMARK INTRA:                  -0.249
REMARK UNBOUND:                -0.250
REMARK SMILES O=C([O-])c1ccccc1O
REMARK SMILES IDX 4 1 9 2 5 3 8 4 6 5 7 6 2 7 1 8 3 9 10 10
REMARK H PARENT 10 11
REMARK Flexibility Score: inf
ROOT
ATOM      1  C   UNL     1       6.711 -54.835 576.974  1.00  0.00     0.039 A 
ATOM      2  C   UNL     1       7.071 -55.982 576.222  1.00  0.00     0.124 A 
ATOM      3  C   UNL     1       6.232 -53.698 576.296  1.00  0.00     0.014 A 
ATOM      4  C   UNL     1       6.884 -55.986 574.833  1.00  0.00     0.047 A 
ATOM      5  C   UNL     1       6.073 -53.711 574.909  1.00  0.00     0.001 A 
ATOM      6  C   UNL     1       6.388 -54.857 574.180  1.00  0.00     0.004 A 
ENDROOT
BRANCH   1   7
ATOM      7  C   UNL     1       6.786 -54.800 578.452  1.00  0.00     0.075 C 
ATOM      8  O   UNL     1       6.486 -55.822 579.125  1.00  0.00    -0.545 OA
ATOM      9  O   UNL     1       7.251 -53.670 579.113  1.00  0.00    -0.545 OA
ENDBRANCH   1   7
BRANCH   2  10
ATOM     10  O   UNL     1       7.644 -57.114 576.804  1.00  0.00    -0.507 OA
ATOM     11  H   UNL     1       7.160 -57.996 576.898  1.00  0.00     0.293 HD
ENDBRANCH   2  10
TORSDOF 2
ENDMDL
MODEL 7
REMARK VINA RESULT:    -4.227      2.169      3.902
REMARK INTER + INTRA:          -4.848
REMARK INTER:                  -4.670
REMARK INTRA:                  -0.178
REMARK UNBOUND:                -0.250
REMARK SMILES O=C([O-])c1ccccc1O
REMARK SMILES IDX 4 1 9 2 5 3 8 4 6 5 7 6 2 7 1 8 3 9 10 10
REMARK H PARENT 10 11
REMARK Flexibility Score: inf
ROOT
ATOM      1  C   UNL     1       5.830 -53.852 577.337  1.00  0.00     0.039 A 
ATOM      2  C   UNL     1       6.698 -52.731 577.320  1.00  0.00     0.124 A 
ATOM      3  C   UNL     1       4.644 -53.784 578.092  1.00  0.00     0.014 A 
ATOM      4  C   UNL     1       6.331 -51.561 577.998  1.00  0.00     0.047 A 
ATOM      5  C   UNL     1       4.304 -52.617 578.780  1.00  0.00     0.001 A 
ATOM      6  C   UNL     1       5.141 -51.504 578.724  1.00  0.00     0.004 A 
ENDROOT
BRANCH   1   7
ATOM      7  C   UNL     1       6.106 -55.081 576.560  1.00  0.00     0.075 C 
ATOM      8  O   UNL     1       5.402 -55.365 575.554  1.00  0.00    -0.545 OA
ATOM      9  O   UNL     1       7.182 -55.900 576.883  1.00  0.00    -0.545 OA
ENDBRANCH   1   7
BRANCH   2  10
ATOM     10  O   UNL     1       7.938 -52.749 576.678  1.00  0.00    -0.507 OA
ATOM     11  H   UNL     1       8.642 -53.452 576.850  1.00  0.00     0.293 HD
ENDBRANCH   2  10
TORSDOF 2
ENDMDL
MODEL 8
REMARK VINA RESULT:    -4.222      1.702      2.180
REMARK INTER + INTRA:          -4.842
REMARK INTER:                  -4.594
REMARK INTRA:                  -0.248
REMARK UNBOUND:                -0.250
REMARK SMILES O=C([O-])c1ccccc1O
REMARK SMILES IDX 4 1 9 2 5 3 8 4 6 5 7 6 2 7 1 8 3 9 10 10
REMARK H PARENT 10 11
REMARK Flexibility Score: inf
ROOT
ATOM      1  C   UNL     1       7.041 -53.467 576.805  1.00  0.00     0.039 A 
ATOM      2  C   UNL     1       6.037 -54.452 576.977  1.00  0.00     0.124 A 
ATOM      3  C   UNL     1       7.619 -53.298 575.532  1.00  0.00     0.014 A 
ATOM      4  C   UNL     1       5.594 -55.191 575.872  1.00  0.00     0.047 A 
ATOM      5  C   UNL     1       7.181 -54.059 574.445  1.00  0.00     0.001 A 
ATOM      6  C   UNL     1       6.163 -54.996 574.613  1.00  0.00     0.004 A 
ENDROOT
BRANCH   1   7
ATOM      7  C   UNL     1       7.482 -52.582 577.906  1.00  0.00     0.075 C 
ATOM      8  O   UNL     1       7.683 -53.055 579.056  1.00  0.00    -0.545 OA
ATOM      9  O   UNL     1       7.748 -51.238 577.674  1.00  0.00    -0.545 OA
ENDBRANCH   1   7
BRANCH   2  10
ATOM     10  O   UNL     1       5.482 -54.751 578.224  1.00  0.00    -0.507 OA
ATOM     11  H   UNL     1       4.890 -55.552 578.391  1.00  0.00     0.293 HD
ENDBRANCH   2  10
TORSDOF 2
ENDMDL
MODEL 9
REMARK VINA RESULT:    -4.148      1.511      2.508
REMARK INTER + INTRA:          -4.762
REMARK INTER:                  -4.575
REMARK INTRA:                  -0.187
REMARK UNBOUND:                -0.250
REMARK SMILES O=C([O-])c1ccccc1O
REMARK SMILES IDX 4 1 9 2 5 3 8 4 6 5 7 6 2 7 1 8 3 9 10 10
REMARK H PARENT 10 11
REMARK Flexibility Score: inf
ROOT
ATOM      1  C   UNL     1       6.436 -54.412 576.947  1.00  0.00     0.039 A 
ATOM      2  C   UNL     1       7.372 -53.467 576.458  1.00  0.00     0.124 A 
ATOM      3  C   UNL     1       5.779 -55.257 576.032  1.00  0.00     0.014 A 
ATOM      4  C   UNL     1       7.672 -53.433 575.089  1.00  0.00     0.047 A 
ATOM      5  C   UNL     1       6.074 -55.195 574.668  1.00  0.00     0.001 A 
ATOM      6  C   UNL     1       7.026 -54.291 574.199  1.00  0.00     0.004 A 
ENDROOT
BRANCH   1   7
ATOM      7  C   UNL     1       6.149 -54.572 578.390  1.00  0.00     0.075 C 
ATOM      8  O   UNL     1       5.542 -53.664 579.018  1.00  0.00    -0.545 OA
ATOM      9  O   UNL     1       6.480 -55.746 579.055  1.00  0.00    -0.545 OA
ENDBRANCH   1   7
BRANCH   2  10
ATOM     10  O   UNL     1       7.995 -52.528 577.283  1.00  0.00    -0.507 OA
ATOM     11  H   UNL     1       7.522 -51.720 577.661  1.00  0.00     0.293 HD
ENDBRANCH   2  10
TORSDOF 2
ENDMDL
