MODEL 1
REMARK VINA RESULT:    38.741      0.000      0.000
REMARK INTER + INTRA:          57.420
REMARK INTER:                  55.727
REMARK INTRA:                   1.693
REMARK UNBOUND:                 1.693
REMARK SMILES O=c1c(O[C@H]2O[C@H](CO)[C@H](O)[C@H](O)[C@H]2O)c(-c2ccc(O)cc2)oc2cc(O)cc(O)c12
REMARK SMILES IDX 4 1 3 2 16 3 24 4 2 5 25 6 1 7 32 8 26 9 30 10 27 11 29 12
REMARK SMILES IDX 17 13 18 14 19 15 20 16 23 17 22 18 21 19 31 21 28 23 5 25
REMARK SMILES IDX 14 26 6 27 12 28 7 29 10 30 15 31 13 33 8 35 9 36 11 38
REMARK H PARENT 21 20 31 22 28 24 15 32 13 34 9 37 11 39
REMARK Flexibility Score: inf
ROOT
ATOM      1  O   UNL     1       7.880  23.886  36.589  1.00  0.00    -0.454 OA
ENDROOT
BRANCH   1   2
ATOM      2  C   UNL     1       8.548  24.997  37.127  1.00  0.00     0.214 A 
ATOM      3  C   UNL     1       9.765  24.875  37.835  1.00  0.00     0.180 A 
ATOM      4  O   UNL     1      10.295  25.943  38.425  1.00  0.00    -0.452 OA
ATOM      5  C   UNL     1       7.994  26.273  36.962  1.00  0.00     0.239 A 
ATOM      6  C   UNL     1       9.768  27.158  38.343  1.00  0.00     0.146 A 
ATOM      7  O   UNL     1       6.954  26.407  36.262  1.00  0.00    -0.285 OA
ATOM      8  C   UNL     1       8.594  27.384  37.588  1.00  0.00     0.111 A 
ATOM      9  C   UNL     1      10.396  28.219  39.003  1.00  0.00     0.094 A 
ATOM     10  C   UNL     1       8.070  28.696  37.503  1.00  0.00     0.134 A 
ATOM     11  C   UNL     1       9.875  29.511  38.919  1.00  0.00     0.123 A 
ATOM     12  C   UNL     1       8.717  29.748  38.169  1.00  0.00     0.093 A 
BRANCH   3  13
ATOM     13  C   UNL     1      10.509  23.601  37.925  1.00  0.00     0.021 A 
ATOM     14  C   UNL     1      11.511  23.445  38.895  1.00  0.00     0.016 A 
ATOM     15  C   UNL     1      12.228  22.248  38.983  1.00  0.00     0.047 A 
ATOM     16  C   UNL     1      11.960  21.200  38.093  1.00  0.00     0.115 A 
ATOM     17  C   UNL     1      10.261  22.555  37.020  1.00  0.00     0.016 A 
ATOM     18  C   UNL     1      10.978  21.358  37.111  1.00  0.00     0.047 A 
BRANCH  16  19
ATOM     19  O   UNL     1      12.665  20.001  38.174  1.00  0.00    -0.508 OA
ATOM     20  H   UNL     1      12.701  19.355  37.394  1.00  0.00     0.293 HD
ENDBRANCH  16  19
ENDBRANCH   3  13
BRANCH  10  21
ATOM     21  O   UNL     1       6.914  28.963  36.768  1.00  0.00    -0.507 OA
ATOM     22  H   UNL     1       6.024  29.137  37.218  1.00  0.00     0.293 HD
ENDBRANCH  10  21
BRANCH  11  23
ATOM     23  O   UNL     1      10.517  30.555  39.582  1.00  0.00    -0.508 OA
ATOM     24  H   UNL     1      10.927  31.331  39.077  1.00  0.00     0.293 HD
ENDBRANCH  11  23
ENDBRANCH   1   2
BRANCH   1  25
ATOM     25  C   UNL     1       7.535  23.784  35.200  1.00  0.00     0.339 C 
ATOM     26  C   UNL     1       6.683  22.524  34.919  1.00  0.00     0.214 C 
ATOM     27  O   UNL     1       8.697  23.820  34.382  1.00  0.00    -0.332 OA
ATOM     28  C   UNL     1       7.539  21.243  35.029  1.00  0.00     0.180 C 
ATOM     29  C   UNL     1       9.532  22.693  34.601  1.00  0.00     0.179 C 
ATOM     30  C   UNL     1       8.817  21.387  34.185  1.00  0.00     0.177 C 
BRANCH  26  31
ATOM     31  O   UNL     1       5.563  22.467  35.768  1.00  0.00    -0.384 OA
ATOM     32  H   UNL     1       5.531  23.313  36.286  1.00  0.00     0.211 HD
ENDBRANCH  26  31
BRANCH  28  33
ATOM     33  O   UNL     1       6.808  20.101  34.657  1.00  0.00    -0.387 OA
ATOM     34  H   UNL     1       7.246  19.309  35.065  1.00  0.00     0.211 HD
ENDBRANCH  28  33
BRANCH  29  35
ATOM     35  C   UNL     1      10.841  22.885  33.828  1.00  0.00     0.191 C 
BRANCH  35  36
ATOM     36  O   UNL     1      10.554  23.170  32.486  1.00  0.00    -0.394 OA
ATOM     37  H   UNL     1      10.358  24.142  32.447  1.00  0.00     0.210 HD
ENDBRANCH  35  36
ENDBRANCH  29  35
BRANCH  30  38
ATOM     38  O   UNL     1       8.490  21.424  32.817  1.00  0.00    -0.387 OA
ATOM     39  H   UNL     1       9.251  21.854  32.346  1.00  0.00     0.211 HD
ENDBRANCH  30  38
ENDBRANCH   1  25
TORSDOF 11
ENDMDL
MODEL 2
REMARK VINA RESULT:    38.811      2.268      3.620
REMARK INTER + INTRA:          57.521
REMARK INTER:                  56.894
REMARK INTRA:                   0.627
REMARK UNBOUND:                 1.693
REMARK SMILES O=c1c(O[C@H]2O[C@H](CO)[C@H](O)[C@H](O)[C@H]2O)c(-c2ccc(O)cc2)oc2cc(O)cc(O)c12
REMARK SMILES IDX 4 1 3 2 16 3 24 4 2 5 25 6 1 7 32 8 26 9 30 10 27 11 29 12
REMARK SMILES IDX 17 13 18 14 19 15 20 16 23 17 22 18 21 19 31 21 28 23 5 25
REMARK SMILES IDX 14 26 6 27 12 28 7 29 10 30 15 31 13 33 8 35 9 36 11 38
REMARK H PARENT 21 20 31 22 28 24 15 32 13 34 9 37 11 39
REMARK Flexibility Score: inf
ROOT
ATOM      1  O   UNL     1       7.070  22.774  36.857  1.00  0.00    -0.454 OA
ENDROOT
BRANCH   1   2
ATOM      2  C   UNL     1       7.701  23.987  37.173  1.00  0.00     0.214 A 
ATOM      3  C   UNL     1       8.765  24.508  36.403  1.00  0.00     0.180 A 
ATOM      4  O   UNL     1       9.403  25.600  36.814  1.00  0.00    -0.452 OA
ATOM      5  C   UNL     1       7.267  24.710  38.293  1.00  0.00     0.239 A 
ATOM      6  C   UNL     1       9.062  26.280  37.902  1.00  0.00     0.146 A 
ATOM      7  O   UNL     1       6.265  24.301  38.940  1.00  0.00    -0.285 OA
ATOM      8  C   UNL     1       7.958  25.872  38.687  1.00  0.00     0.111 A 
ATOM      9  C   UNL     1       9.798  27.414  38.256  1.00  0.00     0.094 A 
ATOM     10  C   UNL     1       7.607  26.632  39.829  1.00  0.00     0.134 A 
ATOM     11  C   UNL     1       9.450  28.159  39.383  1.00  0.00     0.123 A 
ATOM     12  C   UNL     1       8.356  27.770  40.165  1.00  0.00     0.093 A 
BRANCH   3  13
ATOM     13  C   UNL     1       9.188  23.907  35.121  1.00  0.00     0.021 A 
ATOM     14  C   UNL     1       8.776  24.484  33.911  1.00  0.00     0.016 A 
ATOM     15  C   UNL     1       9.162  23.918  32.692  1.00  0.00     0.047 A 
ATOM     16  C   UNL     1       9.951  22.760  32.671  1.00  0.00     0.115 A 
ATOM     17  C   UNL     1       9.958  22.731  35.095  1.00  0.00     0.016 A 
ATOM     18  C   UNL     1      10.344  22.168  33.875  1.00  0.00     0.047 A 
BRANCH  16  19
ATOM     19  O   UNL     1      10.344  22.190  31.463  1.00  0.00    -0.508 OA
ATOM     20  H   UNL     1      10.974  21.395  31.432  1.00  0.00     0.293 HD
ENDBRANCH  16  19
ENDBRANCH   3  13
BRANCH  10  21
ATOM     21  O   UNL     1       6.525  26.266  40.631  1.00  0.00    -0.507 OA
ATOM     22  H   UNL     1       6.591  25.513  41.305  1.00  0.00     0.293 HD
ENDBRANCH  10  21
BRANCH  11  23
ATOM     23  O   UNL     1      10.196  29.287  39.718  1.00  0.00    -0.508 OA
ATOM     24  H   UNL     1       9.977  29.844  40.536  1.00  0.00     0.293 HD
ENDBRANCH  11  23
ENDBRANCH   1   2
BRANCH   1  25
ATOM     25  C   UNL     1       6.842  22.345  35.507  1.00  0.00     0.339 C 
ATOM     26  C   UNL     1       5.333  22.163  35.218  1.00  0.00     0.214 C 
ATOM     27  O   UNL     1       7.574  21.162  35.217  1.00  0.00    -0.332 OA
ATOM     28  C   UNL     1       4.778  20.917  35.941  1.00  0.00     0.180 C 
ATOM     29  C   UNL     1       7.128  20.061  35.995  1.00  0.00     0.179 C 
ATOM     30  C   UNL     1       5.667  19.696  35.649  1.00  0.00     0.177 C 
BRANCH  26  31
ATOM     31  O   UNL     1       4.607  23.319  35.555  1.00  0.00    -0.384 OA
ATOM     32  H   UNL     1       4.447  23.833  34.721  1.00  0.00     0.211 HD
ENDBRANCH  26  31
BRANCH  28  33
ATOM     33  O   UNL     1       3.439  20.670  35.591  1.00  0.00    -0.387 OA
ATOM     34  H   UNL     1       3.161  19.818  36.016  1.00  0.00     0.211 HD
ENDBRANCH  28  33
BRANCH  29  35
ATOM     35  C   UNL     1       8.071  18.875  35.766  1.00  0.00     0.191 C 
BRANCH  35  36
ATOM     36  O   UNL     1       9.358  19.208  36.208  1.00  0.00    -0.394 OA
ATOM     37  H   UNL     1       9.777  19.722  35.471  1.00  0.00     0.210 HD
ENDBRANCH  35  36
ENDBRANCH  29  35
BRANCH  30  38
ATOM     38  O   UNL     1       5.561  19.338  34.293  1.00  0.00    -0.387 OA
ATOM     39  H   UNL     1       6.417  19.588  33.857  1.00  0.00     0.211 HD
ENDBRANCH  30  38
ENDBRANCH   1  25
TORSDOF 11
ENDMDL
MODEL 3
REMARK VINA RESULT:    40.361      1.913      6.232
REMARK INTER + INTRA:          59.750
REMARK INTER:                  54.595
REMARK INTRA:                   5.155
REMARK UNBOUND:                 1.693
REMARK SMILES O=c1c(O[C@H]2O[C@H](CO)[C@H](O)[C@H](O)[C@H]2O)c(-c2ccc(O)cc2)oc2cc(O)cc(O)c12
REMARK SMILES IDX 4 1 3 2 16 3 24 4 2 5 25 6 1 7 32 8 26 9 30 10 27 11 29 12
REMARK SMILES IDX 17 13 18 14 19 15 20 16 23 17 22 18 21 19 31 21 28 23 5 25
REMARK SMILES IDX 14 26 6 27 12 28 7 29 10 30 15 31 13 33 8 35 9 36 11 38
REMARK H PARENT 21 20 31 22 28 24 15 32 13 34 9 37 11 39
REMARK Flexibility Score: inf
ROOT
ATOM      1  O   UNL     1       8.971  23.363  34.885  1.00  0.00    -0.454 OA
ENDROOT
BRANCH   1   2
ATOM      2  C   UNL     1       9.862  22.674  35.722  1.00  0.00     0.214 A 
ATOM      3  C   UNL     1      10.283  23.193  36.968  1.00  0.00     0.180 A 
ATOM      4  O   UNL     1      11.217  22.556  37.667  1.00  0.00    -0.452 OA
ATOM      5  C   UNL     1      10.359  21.429  35.313  1.00  0.00     0.239 A 
ATOM      6  C   UNL     1      11.757  21.405  37.284  1.00  0.00     0.146 A 
ATOM      7  O   UNL     1       9.929  20.916  34.245  1.00  0.00    -0.285 OA
ATOM      8  C   UNL     1      11.337  20.775  36.089  1.00  0.00     0.111 A 
ATOM      9  C   UNL     1      12.739  20.813  38.085  1.00  0.00     0.094 A 
ATOM     10  C   UNL     1      11.916  19.537  35.721  1.00  0.00     0.134 A 
ATOM     11  C   UNL     1      13.309  19.593  37.717  1.00  0.00     0.123 A 
ATOM     12  C   UNL     1      12.897  18.958  36.540  1.00  0.00     0.093 A 
BRANCH   3  13
ATOM     13  C   UNL     1       9.697  24.415  37.558  1.00  0.00     0.021 A 
ATOM     14  C   UNL     1       8.316  24.483  37.794  1.00  0.00     0.016 A 
ATOM     15  C   UNL     1       7.749  25.637  38.343  1.00  0.00     0.047 A 
ATOM     16  C   UNL     1       8.556  26.741  38.649  1.00  0.00     0.115 A 
ATOM     17  C   UNL     1      10.499  25.534  37.845  1.00  0.00     0.016 A 
ATOM     18  C   UNL     1       9.930  26.686  38.395  1.00  0.00     0.047 A 
BRANCH  16  19
ATOM     19  O   UNL     1       8.004  27.895  39.199  1.00  0.00    -0.508 OA
ATOM     20  H   UNL     1       7.304  28.435  38.704  1.00  0.00     0.293 HD
ENDBRANCH  16  19
ENDBRANCH   3  13
BRANCH  10  21
ATOM     21  O   UNL     1      11.530  18.882  34.551  1.00  0.00    -0.507 OA
ATOM     22  H   UNL     1      10.624  18.438  34.463  1.00  0.00     0.293 HD
ENDBRANCH  10  21
BRANCH  11  23
ATOM     23  O   UNL     1      14.285  19.020  38.530  1.00  0.00    -0.508 OA
ATOM     24  H   UNL     1      14.973  19.586  39.011  1.00  0.00     0.293 HD
ENDBRANCH  11  23
ENDBRANCH   1   2
BRANCH   1  25
ATOM     25  C   UNL     1       8.064  22.695  33.996  1.00  0.00     0.339 C 
ATOM     26  C   UNL     1       6.632  23.266  34.114  1.00  0.00     0.214 C 
ATOM     27  O   UNL     1       8.085  21.289  34.209  1.00  0.00    -0.332 OA
ATOM     28  C   UNL     1       5.978  22.849  35.449  1.00  0.00     0.180 C 
ATOM     29  C   UNL     1       7.600  20.944  35.499  1.00  0.00     0.179 C 
ATOM     30  C   UNL     1       6.111  21.329  35.651  1.00  0.00     0.177 C 
BRANCH  26  31
ATOM     31  O   UNL     1       6.626  24.663  33.954  1.00  0.00    -0.384 OA
ATOM     32  H   UNL     1       6.970  25.068  34.793  1.00  0.00     0.211 HD
ENDBRANCH  26  31
BRANCH  28  33
ATOM     33  O   UNL     1       4.635  23.258  35.517  1.00  0.00    -0.387 OA
ATOM     34  H   UNL     1       4.585  24.202  35.218  1.00  0.00     0.211 HD
ENDBRANCH  28  33
BRANCH  29  35
ATOM     35  C   UNL     1       7.816  19.445  35.727  1.00  0.00     0.191 C 
BRANCH  35  36
ATOM     36  O   UNL     1       6.644  18.875  36.241  1.00  0.00    -0.394 OA
ATOM     37  H   UNL     1       6.436  19.377  37.071  1.00  0.00     0.210 HD
ENDBRANCH  35  36
ENDBRANCH  29  35
BRANCH  30  38
ATOM     38  O   UNL     1       5.331  20.648  34.699  1.00  0.00    -0.387 OA
ATOM     39  H   UNL     1       4.980  21.329  34.067  1.00  0.00     0.211 HD
ENDBRANCH  30  38
ENDBRANCH   1  25
TORSDOF 11
ENDMDL
MODEL 4
REMARK VINA RESULT:    40.476      1.964      4.287
REMARK INTER + INTRA:          59.916
REMARK INTER:                  58.897
REMARK INTRA:                   1.018
REMARK UNBOUND:                 1.693
REMARK SMILES O=c1c(O[C@H]2O[C@H](CO)[C@H](O)[C@H](O)[C@H]2O)c(-c2ccc(O)cc2)oc2cc(O)cc(O)c12
REMARK SMILES IDX 4 1 3 2 16 3 24 4 2 5 25 6 1 7 32 8 26 9 30 10 27 11 29 12
REMARK SMILES IDX 17 13 18 14 19 15 20 16 23 17 22 18 21 19 31 21 28 23 5 25
REMARK SMILES IDX 14 26 6 27 12 28 7 29 10 30 15 31 13 33 8 35 9 36 11 38
REMARK H PARENT 21 20 31 22 28 24 15 32 13 34 9 37 11 39
REMARK Flexibility Score: inf
ROOT
ATOM      1  O   UNL     1       9.337  22.279  36.384  1.00  0.00    -0.454 OA
ENDROOT
BRANCH   1   2
ATOM      2  C   UNL     1       9.060  23.555  36.899  1.00  0.00     0.214 A 
ATOM      3  C   UNL     1       7.765  24.118  36.864  1.00  0.00     0.180 A 
ATOM      4  O   UNL     1       7.581  25.375  37.259  1.00  0.00    -0.452 OA
ATOM      5  C   UNL     1      10.101  24.302  37.467  1.00  0.00     0.239 A 
ATOM      6  C   UNL     1       8.553  26.136  37.746  1.00  0.00     0.146 A 
ATOM      7  O   UNL     1      11.243  23.780  37.581  1.00  0.00    -0.285 OA
ATOM      8  C   UNL     1       9.864  25.625  37.890  1.00  0.00     0.111 A 
ATOM      9  C   UNL     1       8.263  27.449  38.131  1.00  0.00     0.094 A 
ATOM     10  C   UNL     1      10.873  26.456  38.434  1.00  0.00     0.134 A 
ATOM     11  C   UNL     1       9.261  28.266  38.664  1.00  0.00     0.123 A 
ATOM     12  C   UNL     1      10.561  27.769  38.817  1.00  0.00     0.093 A 
BRANCH   3  13
ATOM     13  C   UNL     1       6.576  23.353  36.435  1.00  0.00     0.021 A 
ATOM     14  C   UNL     1       6.147  23.422  35.100  1.00  0.00     0.016 A 
ATOM     15  C   UNL     1       5.018  22.710  34.684  1.00  0.00     0.047 A 
ATOM     16  C   UNL     1       4.298  21.933  35.601  1.00  0.00     0.115 A 
ATOM     17  C   UNL     1       5.836  22.591  37.356  1.00  0.00     0.016 A 
ATOM     18  C   UNL     1       4.708  21.879  36.937  1.00  0.00     0.047 A 
BRANCH  16  19
ATOM     19  O   UNL     1       3.174  21.216  35.198  1.00  0.00    -0.508 OA
ATOM     20  H   UNL     1       3.256  20.307  34.757  1.00  0.00     0.293 HD
ENDBRANCH  16  19
ENDBRANCH   3  13
BRANCH  10  21
ATOM     21  O   UNL     1      12.179  25.990  38.594  1.00  0.00    -0.507 OA
ATOM     22  H   UNL     1      12.377  25.019  38.803  1.00  0.00     0.293 HD
ENDBRANCH  10  21
BRANCH  11  23
ATOM     23  O   UNL     1       8.951  29.571  39.042  1.00  0.00    -0.508 OA
ATOM     24  H   UNL     1       7.992  29.895  39.089  1.00  0.00     0.293 HD
ENDBRANCH  11  23
ENDBRANCH   1   2
BRANCH   1  25
ATOM     25  C   UNL     1       8.656  21.736  35.244  1.00  0.00     0.339 C 
ATOM     26  C   UNL     1       9.314  20.420  34.766  1.00  0.00     0.214 C 
ATOM     27  O   UNL     1       8.578  22.691  34.194  1.00  0.00    -0.332 OA
ATOM     28  C   UNL     1      10.678  20.695  34.097  1.00  0.00     0.180 C 
ATOM     29  C   UNL     1       9.862  23.024  33.686  1.00  0.00     0.179 C 
ATOM     30  C   UNL     1      10.532  21.795  33.032  1.00  0.00     0.177 C 
BRANCH  26  31
ATOM     31  O   UNL     1       9.435  19.499  35.822  1.00  0.00    -0.384 OA
ATOM     32  H   UNL     1       9.105  18.620  35.499  1.00  0.00     0.211 HD
ENDBRANCH  26  31
BRANCH  28  33
ATOM     33  O   UNL     1      11.230  19.524  33.549  1.00  0.00    -0.387 OA
ATOM     34  H   UNL     1      12.108  19.365  33.983  1.00  0.00     0.211 HD
ENDBRANCH  28  33
BRANCH  29  35
ATOM     35  C   UNL     1       9.719  24.180  32.692  1.00  0.00     0.191 C 
BRANCH  35  36
ATOM     36  O   UNL     1       8.502  24.839  32.912  1.00  0.00    -0.394 OA
ATOM     37  H   UNL     1       8.699  25.809  32.852  1.00  0.00     0.210 HD
ENDBRANCH  35  36
ENDBRANCH  29  35
BRANCH  30  38
ATOM     38  O   UNL     1       9.751  21.327  31.959  1.00  0.00    -0.387 OA
ATOM     39  H   UNL     1       9.234  20.548  32.293  1.00  0.00     0.211 HD
ENDBRANCH  30  38
ENDBRANCH   1  25
TORSDOF 11
ENDMDL
