MODEL 1
REMARK VINA RESULT:    -2.967      0.000      0.000
REMARK INTER + INTRA:          -4.799
REMARK INTER:                  -4.529
REMARK INTRA:                  -0.271
REMARK UNBOUND:                -0.271
REMARK SMILES CC1=CCC[C@@H](C)C(=O)C[C@H](C(C)C)C(=O)C1
REMARK SMILES IDX 8 1 9 2 6 3 7 4 5 5 4 6 3 7 2 8 1 9 10 11 11 12 15 13 16 14
REMARK SMILES IDX 17 15 12 17 13 18 14 19
REMARK H PARENT
REMARK Flexibility Score: 70.00
ROOT
ATOM      1  C   UNL     1       8.633  29.204  16.362  1.00  0.00     0.136 C 
ATOM      2  O   UNL     1       8.985  30.313  16.735  1.00  0.00    -0.299 OA
ENDROOT
BRANCH   1   3
ATOM      3  C   UNL     1       9.261  28.621  15.108  1.00  0.00     0.053 C 
ATOM      4  C   UNL     1      10.792  28.723  15.165  1.00  0.00     0.016 C 
BRANCH   3   5
ATOM      5  C   UNL     1       8.702  29.290  13.837  1.00  0.00     0.015 C 
BRANCH   5   6
ATOM      6  C   UNL     1       7.569  28.460  13.201  1.00  0.00     0.028 C 
BRANCH   6   7
ATOM      7  C   UNL     1       7.746  26.988  13.465  1.00  0.00    -0.028 C 
ATOM      8  C   UNL     1       6.843  26.205  14.099  1.00  0.00    -0.070 CG0
ATOM      9  C   UNL     1       7.163  24.741  14.262  1.00  0.00     0.039 C 
ATOM     10  G   UNL     1       5.524  26.726  14.646  1.00  0.00     0.000 G0
ENDBRANCH   6   7
ENDBRANCH   5   6
ENDBRANCH   3   5
ENDBRANCH   1   3
BRANCH   1  11
ATOM     11  C   UNL     1       7.532  28.479  17.112  1.00  0.00     0.087 C 
BRANCH  11  12
ATOM     12  C   UNL     1       6.120  28.569  16.478  1.00  0.00     0.066 C 
BRANCH  12  13
ATOM     13  C   UNL     1       5.614  27.184  16.094  1.00  0.00     0.140 C 
ATOM     14  O   UNL     1       5.308  26.408  16.988  1.00  0.00    -0.299 OA
BRANCH  13  15
ATOM     15  C   UNL     1       5.520  26.724  14.654  1.00  0.00     0.106 CG0
ATOM     16  G   UNL     1       6.849  26.221  14.116  1.00  0.00     0.000 G0
ENDBRANCH  13  15
ENDBRANCH  12  13
BRANCH  12  17
ATOM     17  C   UNL     1       5.073  29.417  17.274  1.00  0.00    -0.006 C 
ATOM     18  C   UNL     1       5.565  30.849  17.548  1.00  0.00     0.008 C 
ATOM     19  C   UNL     1       3.740  29.501  16.506  1.00  0.00     0.008 C 
ENDBRANCH  12  17
ENDBRANCH  11  12
ENDBRANCH   1  11
TORSDOF 1
ENDMDL
MODEL 2
REMARK VINA RESULT:    -2.959      1.831      3.534
REMARK INTER + INTRA:          -4.787
REMARK INTER:                  -4.504
REMARK INTRA:                  -0.283
REMARK UNBOUND:                -0.271
REMARK SMILES CC1=CCC[C@@H](C)C(=O)C[C@H](C(C)C)C(=O)C1
REMARK SMILES IDX 8 1 9 2 6 3 7 4 5 5 4 6 3 7 2 8 1 9 10 11 11 12 15 13 16 14
REMARK SMILES IDX 17 15 12 17 13 18 14 19
REMARK H PARENT
REMARK Flexibility Score: 70.00
ROOT
ATOM      1  C   UNL     1       5.585  28.881  17.161  1.00  0.00     0.136 C 
ATOM      2  O   UNL     1       4.458  29.121  17.569  1.00  0.00    -0.299 OA
ENDROOT
BRANCH   1   3
ATOM      3  C   UNL     1       6.501  30.043  16.818  1.00  0.00     0.053 C 
ATOM      4  C   UNL     1       6.568  31.048  17.976  1.00  0.00     0.016 C 
BRANCH   3   5
ATOM      5  C   UNL     1       6.071  30.728  15.506  1.00  0.00     0.015 C 
BRANCH   5   6
ATOM      6  C   UNL     1       6.822  30.160  14.286  1.00  0.00     0.028 C 
BRANCH   6   7
ATOM      7  C   UNL     1       8.206  29.696  14.656  1.00  0.00    -0.028 C 
ATOM      8  C   UNL     1       8.676  28.442  14.460  1.00  0.00    -0.070 CG0
ATOM      9  C   UNL     1      10.097  28.145  14.866  1.00  0.00     0.039 C 
ATOM     10  G   UNL     1       7.846  27.325  13.846  1.00  0.00     0.000 G0
ENDBRANCH   6   7
ENDBRANCH   5   6
ENDBRANCH   3   5
ENDBRANCH   1   3
BRANCH   1  11
ATOM     11  C   UNL     1       6.007  27.442  16.940  1.00  0.00     0.087 C 
BRANCH  11  12
ATOM     12  C   UNL     1       5.801  26.899  15.501  1.00  0.00     0.066 C 
BRANCH  12  13
ATOM     13  C   UNL     1       7.133  26.483  14.889  1.00  0.00     0.140 C 
ATOM     14  O   UNL     1       7.656  25.450  15.282  1.00  0.00    -0.299 OA
BRANCH  13  15
ATOM     15  C   UNL     1       7.846  27.322  13.849  1.00  0.00     0.106 CG0
ATOM     16  G   UNL     1       8.672  28.438  14.469  1.00  0.00     0.000 G0
ENDBRANCH  13  15
ENDBRANCH  12  13
BRANCH  12  17
ATOM     17  C   UNL     1       4.676  25.823  15.338  1.00  0.00    -0.006 C 
ATOM     18  C   UNL     1       4.405  25.056  16.644  1.00  0.00     0.008 C 
ATOM     19  C   UNL     1       3.359  26.476  14.876  1.00  0.00     0.008 C 
ENDBRANCH  12  17
ENDBRANCH  11  12
ENDBRANCH   1  11
TORSDOF 1
ENDMDL
MODEL 3
REMARK VINA RESULT:    -2.944      6.369      8.570
REMARK INTER + INTRA:          -4.764
REMARK INTER:                  -4.513
REMARK INTRA:                  -0.251
REMARK UNBOUND:                -0.271
REMARK SMILES CC1=CCC[C@@H](C)C(=O)C[C@H](C(C)C)C(=O)C1
REMARK SMILES IDX 8 1 9 2 6 3 7 4 5 5 4 6 3 7 2 8 1 9 10 11 11 12 15 13 16 14
REMARK SMILES IDX 17 15 12 17 13 18 14 19
REMARK H PARENT
REMARK Flexibility Score: 70.00
ROOT
ATOM      1  C   UNL     1      15.127  24.092  14.733  1.00  0.00     0.136 C 
ATOM      2  O   UNL     1      14.837  22.933  14.991  1.00  0.00    -0.299 OA
ENDROOT
BRANCH   1   3
ATOM      3  C   UNL     1      16.498  24.609  15.132  1.00  0.00     0.053 C 
ATOM      4  C   UNL     1      16.470  25.197  16.550  1.00  0.00     0.016 C 
BRANCH   3   5
ATOM      5  C   UNL     1      17.029  25.634  14.110  1.00  0.00     0.015 C 
BRANCH   5   6
ATOM      6  C   UNL     1      17.079  27.058  14.697  1.00  0.00     0.028 C 
BRANCH   6   7
ATOM      7  C   UNL     1      16.350  28.043  13.821  1.00  0.00    -0.028 C 
ATOM      8  C   UNL     1      15.102  28.510  14.059  1.00  0.00    -0.070 CG0
ATOM      9  C   UNL     1      14.523  29.513  13.094  1.00  0.00     0.039 C 
ATOM     10  G   UNL     1      14.263  28.079  15.252  1.00  0.00     0.000 G0
ENDBRANCH   6   7
ENDBRANCH   5   6
ENDBRANCH   3   5
ENDBRANCH   1   3
BRANCH   1  11
ATOM     11  C   UNL     1      14.090  24.995  14.094  1.00  0.00     0.087 C 
BRANCH  11  12
ATOM     12  C   UNL     1      13.096  25.669  15.075  1.00  0.00     0.066 C 
BRANCH  12  13
ATOM     13  C   UNL     1      13.090  27.180  14.880  1.00  0.00     0.140 C 
ATOM     14  O   UNL     1      12.113  27.696  14.356  1.00  0.00    -0.299 OA
BRANCH  13  15
ATOM     15  C   UNL     1      14.264  28.054  15.271  1.00  0.00     0.106 CG0
ATOM     16  G   UNL     1      15.083  28.500  14.070  1.00  0.00     0.000 G0
ENDBRANCH  13  15
ENDBRANCH  12  13
BRANCH  12  17
ATOM     17  C   UNL     1      11.663  25.041  15.125  1.00  0.00    -0.006 C 
ATOM     18  C   UNL     1      11.288  24.333  13.812  1.00  0.00     0.008 C 
ATOM     19  C   UNL     1      11.553  24.022  16.275  1.00  0.00     0.008 C 
ENDBRANCH  12  17
ENDBRANCH  11  12
ENDBRANCH   1  11
TORSDOF 1
ENDMDL
MODEL 4
REMARK VINA RESULT:    -2.943      2.081      2.805
REMARK INTER + INTRA:          -4.762
REMARK INTER:                  -4.496
REMARK INTRA:                  -0.266
REMARK UNBOUND:                -0.271
REMARK SMILES CC1=CCC[C@@H](C)C(=O)C[C@H](C(C)C)C(=O)C1
REMARK SMILES IDX 8 1 9 2 6 3 7 4 5 5 4 6 3 7 2 8 1 9 10 11 11 12 15 13 16 14
REMARK SMILES IDX 17 15 12 17 13 18 14 19
REMARK H PARENT
REMARK Flexibility Score: 70.00
ROOT
ATOM      1  C   UNL     1       6.008  29.596  16.767  1.00  0.00     0.136 C 
ATOM      2  O   UNL     1       5.985  30.703  16.250  1.00  0.00    -0.299 OA
ENDROOT
BRANCH   1   3
ATOM      3  C   UNL     1       7.347  28.901  16.945  1.00  0.00     0.053 C 
ATOM      4  C   UNL     1       8.496  29.919  16.954  1.00  0.00     0.016 C 
BRANCH   3   5
ATOM      5  C   UNL     1       7.565  27.819  15.868  1.00  0.00     0.015 C 
BRANCH   5   6
ATOM      6  C   UNL     1       7.381  26.398  16.435  1.00  0.00     0.028 C 
BRANCH   6   7
ATOM      7  C   UNL     1       6.580  25.529  15.500  1.00  0.00    -0.028 C 
ATOM      8  C   UNL     1       5.251  25.298  15.612  1.00  0.00    -0.070 CG0
ATOM      9  C   UNL     1       4.594  24.421  14.577  1.00  0.00     0.039 C 
ATOM     10  G   UNL     1       4.392  25.884  16.721  1.00  0.00     0.000 G0
ENDBRANCH   6   7
ENDBRANCH   5   6
ENDBRANCH   3   5
ENDBRANCH   1   3
BRANCH   1  11
ATOM     11  C   UNL     1       4.704  28.922  17.145  1.00  0.00     0.087 C 
BRANCH  11  12
ATOM     12  C   UNL     1       3.867  28.374  15.959  1.00  0.00     0.066 C 
BRANCH  12  13
ATOM     13  C   UNL     1       3.419  26.944  16.233  1.00  0.00     0.140 C 
ATOM     14  O   UNL     1       2.239  26.664  16.079  1.00  0.00    -0.299 OA
BRANCH  13  15
ATOM     15  C   UNL     1       4.371  25.876  16.729  1.00  0.00     0.106 CG0
ATOM     16  G   UNL     1       5.246  25.315  15.619  1.00  0.00     0.000 G0
ENDBRANCH  13  15
ENDBRANCH  12  13
BRANCH  12  17
ATOM     17  C   UNL     1       2.712  29.305  15.459  1.00  0.00    -0.006 C 
ATOM     18  C   UNL     1       2.554  30.563  16.331  1.00  0.00     0.008 C 
ATOM     19  C   UNL     1       2.960  29.750  14.005  1.00  0.00     0.008 C 
ENDBRANCH  12  17
ENDBRANCH  11  12
ENDBRANCH   1  11
TORSDOF 1
ENDMDL
MODEL 5
REMARK VINA RESULT:    -2.914     13.584     15.643
REMARK INTER + INTRA:          -4.719
REMARK INTER:                  -4.919
REMARK INTRA:                   0.200
REMARK UNBOUND:                -0.271
REMARK SMILES CC1=CCC[C@@H](C)C(=O)C[C@H](C(C)C)C(=O)C1
REMARK SMILES IDX 8 1 9 2 6 3 7 4 5 5 4 6 3 7 2 8 1 9 10 11 11 12 15 13 16 14
REMARK SMILES IDX 17 15 12 17 13 18 14 19
REMARK H PARENT
REMARK Flexibility Score: 70.00
ROOT
ATOM      1  C   UNL     1      16.541  14.354  14.714  1.00  0.00     0.136 C 
ATOM      2  O   UNL     1      16.192  14.296  13.544  1.00  0.00    -0.299 OA
ENDROOT
BRANCH   1   3
ATOM      3  C   UNL     1      16.929  13.070  15.426  1.00  0.00     0.053 C 
ATOM      4  C   UNL     1      18.155  12.425  14.764  1.00  0.00     0.016 C 
BRANCH   3   5
ATOM      5  C   UNL     1      15.745  12.085  15.490  1.00  0.00     0.015 C 
BRANCH   5   6
ATOM      6  C   UNL     1      14.635  12.580  16.438  1.00  0.00     0.028 C 
BRANCH   6   7
ATOM      7  C   UNL     1      13.416  13.028  15.676  1.00  0.00    -0.028 C 
ATOM      8  C   UNL     1      13.006  14.313  15.564  1.00  0.00    -0.070 CG0
ATOM      9  C   UNL     1      11.774  14.597  14.744  1.00  0.00     0.039 C 
ATOM     10  G   UNL     1      13.730  15.480  16.217  1.00  0.00     0.000 G0
ENDBRANCH   6   7
ENDBRANCH   5   6
ENDBRANCH   3   5
ENDBRANCH   1   3
BRANCH   1  11
ATOM     11  C   UNL     1      16.507  15.686  15.437  1.00  0.00     0.087 C 
BRANCH  11  12
ATOM     12  C   UNL     1      15.597  16.769  14.801  1.00  0.00     0.066 C 
BRANCH  12  13
ATOM     13  C   UNL     1      14.148  16.574  15.231  1.00  0.00     0.140 C 
ATOM     14  O   UNL     1      13.303  17.339  14.791  1.00  0.00    -0.299 OA
BRANCH  13  15
ATOM     15  C   UNL     1      13.731  15.499  16.214  1.00  0.00     0.106 CG0
ATOM     16  G   UNL     1      13.011  14.343  15.539  1.00  0.00     0.000 G0
ENDBRANCH  13  15
ENDBRANCH  12  13
BRANCH  12  17
ATOM     17  C   UNL     1      16.098  18.245  14.946  1.00  0.00    -0.006 C 
ATOM     18  C   UNL     1      16.992  18.441  16.182  1.00  0.00     0.008 C 
ATOM     19  C   UNL     1      16.891  18.678  13.698  1.00  0.00     0.008 C 
ENDBRANCH  12  17
ENDBRANCH  11  12
ENDBRANCH   1  11
TORSDOF 1
ENDMDL
MODEL 6
REMARK VINA RESULT:    -2.899      2.104      3.966
REMARK INTER + INTRA:          -4.695
REMARK INTER:                  -4.838
REMARK INTRA:                   0.143
REMARK UNBOUND:                -0.271
REMARK SMILES CC1=CCC[C@@H](C)C(=O)C[C@H](C(C)C)C(=O)C1
REMARK SMILES IDX 8 1 9 2 6 3 7 4 5 5 4 6 3 7 2 8 1 9 10 11 11 12 15 13 16 14
REMARK SMILES IDX 17 15 12 17 13 18 14 19
REMARK H PARENT
REMARK Flexibility Score: 70.00
ROOT
ATOM      1  C   UNL     1       6.126  27.206  15.939  1.00  0.00     0.136 C 
ATOM      2  O   UNL     1       6.041  26.934  17.127  1.00  0.00    -0.299 OA
ENDROOT
BRANCH   1   3
ATOM      3  C   UNL     1       6.872  26.253  15.022  1.00  0.00     0.053 C 
ATOM      4  C   UNL     1       6.273  24.841  15.096  1.00  0.00     0.016 C 
BRANCH   3   5
ATOM      5  C   UNL     1       8.381  26.239  15.335  1.00  0.00     0.015 C 
BRANCH   5   6
ATOM      6  C   UNL     1       9.171  27.177  14.402  1.00  0.00     0.028 C 
BRANCH   6   7
ATOM      7  C   UNL     1       9.684  28.387  15.138  1.00  0.00    -0.028 C 
ATOM      8  C   UNL     1       9.318  29.662  14.874  1.00  0.00    -0.070 CG0
ATOM      9  C   UNL     1       9.907  30.760  15.721  1.00  0.00     0.039 C 
ATOM     10  G   UNL     1       8.340  30.039  13.772  1.00  0.00     0.000 G0
ENDBRANCH   6   7
ENDBRANCH   5   6
ENDBRANCH   3   5
ENDBRANCH   1   3
BRANCH   1  11
ATOM     11  C   UNL     1       5.553  28.515  15.431  1.00  0.00     0.087 C 
BRANCH  11  12
ATOM     12  C   UNL     1       6.452  29.762  15.636  1.00  0.00     0.066 C 
BRANCH  12  13
ATOM     13  C   UNL     1       6.931  30.306  14.296  1.00  0.00     0.140 C 
ATOM     14  O   UNL     1       6.142  30.937  13.608  1.00  0.00    -0.299 OA
BRANCH  13  15
ATOM     15  C   UNL     1       8.330  30.055  13.772  1.00  0.00     0.106 CG0
ATOM     16  G   UNL     1       9.300  29.655  14.872  1.00  0.00     0.000 G0
ENDBRANCH  13  15
ENDBRANCH  12  13
BRANCH  12  17
ATOM     17  C   UNL     1       5.873  30.864  16.586  1.00  0.00    -0.006 C 
ATOM     18  C   UNL     1       4.345  30.765  16.736  1.00  0.00     0.008 C 
ATOM     19  C   UNL     1       6.507  30.766  17.987  1.00  0.00     0.008 C 
ENDBRANCH  12  17
ENDBRANCH  11  12
ENDBRANCH   1  11
TORSDOF 1
ENDMDL
MODEL 7
REMARK VINA RESULT:    -2.889      2.652      4.896
REMARK INTER + INTRA:          -4.681
REMARK INTER:                  -4.603
REMARK INTRA:                  -0.078
REMARK UNBOUND:                -0.271
REMARK SMILES CC1=CCC[C@@H](C)C(=O)C[C@H](C(C)C)C(=O)C1
REMARK SMILES IDX 8 1 9 2 6 3 7 4 5 5 4 6 3 7 2 8 1 9 10 11 11 12 15 13 16 14
REMARK SMILES IDX 17 15 12 17 13 18 14 19
REMARK H PARENT
REMARK Flexibility Score: 70.00
ROOT
ATOM      1  C   UNL     1       3.121  26.848  15.477  1.00  0.00     0.136 C 
ATOM      2  O   UNL     1       1.931  26.582  15.563  1.00  0.00    -0.299 OA
ENDROOT
BRANCH   1   3
ATOM      3  C   UNL     1       4.137  25.753  15.750  1.00  0.00     0.053 C 
ATOM      4  C   UNL     1       3.895  25.111  17.123  1.00  0.00     0.016 C 
BRANCH   3   5
ATOM      5  C   UNL     1       5.579  26.282  15.625  1.00  0.00     0.015 C 
BRANCH   5   6
ATOM      6  C   UNL     1       6.199  26.593  17.002  1.00  0.00     0.028 C 
BRANCH   6   7
ATOM      7  C   UNL     1       7.247  27.670  16.906  1.00  0.00    -0.028 C 
ATOM      8  C   UNL     1       7.050  28.969  17.234  1.00  0.00    -0.070 CG0
ATOM      9  C   UNL     1       8.213  29.918  17.103  1.00  0.00     0.039 C 
ATOM     10  G   UNL     1       5.720  29.511  17.733  1.00  0.00     0.000 G0
ENDBRANCH   6   7
ENDBRANCH   5   6
ENDBRANCH   3   5
ENDBRANCH   1   3
BRANCH   1  11
ATOM     11  C   UNL     1       3.546  28.272  15.176  1.00  0.00     0.087 C 
BRANCH  11  12
ATOM     12  C   UNL     1       3.459  29.261  16.367  1.00  0.00     0.066 C 
BRANCH  12  13
ATOM     13  C   UNL     1       4.805  29.935  16.606  1.00  0.00     0.140 C 
ATOM     14  O   UNL     1       5.167  30.804  15.825  1.00  0.00    -0.299 OA
BRANCH  13  15
ATOM     15  C   UNL     1       5.722  29.537  17.744  1.00  0.00     0.106 CG0
ATOM     16  G   UNL     1       7.041  28.962  17.254  1.00  0.00     0.000 G0
ENDBRANCH  13  15
ENDBRANCH  12  13
BRANCH  12  17
ATOM     17  C   UNL     1       2.258  30.264  16.328  1.00  0.00    -0.006 C 
ATOM     18  C   UNL     1       1.887  30.678  14.894  1.00  0.00     0.008 C 
ATOM     19  C   UNL     1       1.011  29.649  16.994  1.00  0.00     0.008 C 
ENDBRANCH  12  17
ENDBRANCH  11  12
ENDBRANCH   1  11
TORSDOF 1
ENDMDL
MODEL 8
REMARK VINA RESULT:    -2.889      2.428      4.538
REMARK INTER + INTRA:          -4.680
REMARK INTER:                  -4.396
REMARK INTRA:                  -0.284
REMARK UNBOUND:                -0.271
REMARK SMILES CC1=CCC[C@@H](C)C(=O)C[C@H](C(C)C)C(=O)C1
REMARK SMILES IDX 8 1 9 2 6 3 7 4 5 5 4 6 3 7 2 8 1 9 10 11 11 12 15 13 16 14
REMARK SMILES IDX 17 15 12 17 13 18 14 19
REMARK H PARENT
REMARK Flexibility Score: 70.00
ROOT
ATOM      1  C   UNL     1       6.503  26.883  16.696  1.00  0.00     0.136 C 
ATOM      2  O   UNL     1       6.873  26.391  17.752  1.00  0.00    -0.299 OA
ENDROOT
BRANCH   1   3
ATOM      3  C   UNL     1       6.784  28.352  16.436  1.00  0.00     0.053 C 
ATOM      4  C   UNL     1       8.293  28.606  16.303  1.00  0.00     0.016 C 
BRANCH   3   5
ATOM      5  C   UNL     1       6.161  29.245  17.528  1.00  0.00     0.015 C 
BRANCH   5   6
ATOM      6  C   UNL     1       4.634  29.373  17.364  1.00  0.00     0.028 C 
BRANCH   6   7
ATOM      7  C   UNL     1       4.264  29.846  15.983  1.00  0.00    -0.028 C 
ATOM      8  C   UNL     1       3.370  29.233  15.172  1.00  0.00    -0.070 CG0
ATOM      9  C   UNL     1       3.093  29.850  13.825  1.00  0.00     0.039 C 
ATOM     10  G   UNL     1       2.629  27.961  15.556  1.00  0.00     0.000 G0
ENDBRANCH   6   7
ENDBRANCH   5   6
ENDBRANCH   3   5
ENDBRANCH   1   3
BRANCH   1  11
ATOM     11  C   UNL     1       5.713  26.038  15.716  1.00  0.00     0.087 C 
BRANCH  11  12
ATOM     12  C   UNL     1       4.209  25.859  16.049  1.00  0.00     0.066 C 
BRANCH  12  13
ATOM     13  C   UNL     1       3.347  26.685  15.102  1.00  0.00     0.140 C 
ATOM     14  O   UNL     1       3.261  26.331  13.935  1.00  0.00    -0.299 OA
BRANCH  13  15
ATOM     15  C   UNL     1       2.633  27.945  15.546  1.00  0.00     0.106 CG0
ATOM     16  G   UNL     1       3.382  29.207  15.153  1.00  0.00     0.000 G0
ENDBRANCH  13  15
ENDBRANCH  12  13
BRANCH  12  17
ATOM     17  C   UNL     1       3.722  24.379  16.206  1.00  0.00    -0.006 C 
ATOM     18  C   UNL     1       4.699  23.371  15.576  1.00  0.00     0.008 C 
ATOM     19  C   UNL     1       3.542  24.018  17.693  1.00  0.00     0.008 C 
ENDBRANCH  12  17
ENDBRANCH  11  12
ENDBRANCH   1  11
TORSDOF 1
ENDMDL
MODEL 9
REMARK VINA RESULT:    -2.861     14.397     17.108
REMARK INTER + INTRA:          -4.638
REMARK INTER:                  -4.492
REMARK INTRA:                  -0.146
REMARK UNBOUND:                -0.271
REMARK SMILES CC1=CCC[C@@H](C)C(=O)C[C@H](C(C)C)C(=O)C1
REMARK SMILES IDX 8 1 9 2 6 3 7 4 5 5 4 6 3 7 2 8 1 9 10 11 11 12 15 13 16 14
REMARK SMILES IDX 17 15 12 17 13 18 14 19
REMARK H PARENT
REMARK Flexibility Score: 70.00
ROOT
ATOM      1  C   UNL     1      16.022  12.964  15.686  1.00  0.00     0.136 C 
ATOM      2  O   UNL     1      16.074  11.998  14.940  1.00  0.00    -0.299 OA
ENDROOT
BRANCH   1   3
ATOM      3  C   UNL     1      14.710  13.278  16.385  1.00  0.00     0.053 C 
ATOM      4  C   UNL     1      13.895  11.999  16.620  1.00  0.00     0.016 C 
BRANCH   3   5
ATOM      5  C   UNL     1      13.894  14.326  15.601  1.00  0.00     0.015 C 
BRANCH   5   6
ATOM      6  C   UNL     1      14.226  15.763  16.046  1.00  0.00     0.028 C 
BRANCH   6   7
ATOM      7  C   UNL     1      14.485  16.662  14.865  1.00  0.00    -0.028 C 
ATOM      8  C   UNL     1      15.711  17.076  14.467  1.00  0.00    -0.070 CG0
ATOM      9  C   UNL     1      15.800  17.957  13.247  1.00  0.00     0.039 C 
ATOM     10  G   UNL     1      16.995  16.693  15.184  1.00  0.00     0.000 G0
ENDBRANCH   6   7
ENDBRANCH   5   6
ENDBRANCH   3   5
ENDBRANCH   1   3
BRANCH   1  11
ATOM     11  C   UNL     1      17.237  13.859  15.834  1.00  0.00     0.087 C 
BRANCH  11  12
ATOM     12  C   UNL     1      17.921  14.281  14.508  1.00  0.00     0.066 C 
BRANCH  12  13
ATOM     13  C   UNL     1      17.901  15.797  14.352  1.00  0.00     0.140 C 
ATOM     14  O   UNL     1      18.665  16.308  13.546  1.00  0.00    -0.299 OA
BRANCH  13  15
ATOM     15  C   UNL     1      17.006  16.687  15.188  1.00  0.00     0.106 CG0
ATOM     16  G   UNL     1      15.737  17.089  14.453  1.00  0.00     0.000 G0
ENDBRANCH  13  15
ENDBRANCH  12  13
BRANCH  12  17
ATOM     17  C   UNL     1      19.325  13.644  14.238  1.00  0.00    -0.006 C 
ATOM     18  C   UNL     1      19.884  12.913  15.472  1.00  0.00     0.008 C 
ATOM     19  C   UNL     1      19.256  12.642  13.070  1.00  0.00     0.008 C 
ENDBRANCH  12  17
ENDBRANCH  11  12
ENDBRANCH   1  11
TORSDOF 1
ENDMDL
