MODEL 1
REMARK VINA RESULT:    -4.182      0.000      0.000
REMARK INTER + INTRA:          -6.657
REMARK INTER:                  -6.137
REMARK INTRA:                  -0.520
REMARK UNBOUND:                -0.520
REMARK SMILES O=C([O-])CCCCCCCC(=O)[O-]
REMARK SMILES IDX 7 1 6 2 5 3 4 4 2 5 1 6 3 7 8 8 9 9 10 10 11 11 12 12 13 13
REMARK H PARENT
REMARK Flexibility Score: inf
ROOT
ATOM      1  C   UNL     1      31.435   6.293  47.459  1.00  0.00     0.000 C 
ENDROOT
BRANCH   1   2
ATOM      2  C   UNL     1      30.285   6.557  48.443  1.00  0.00     0.000 C 
BRANCH   2   3
ATOM      3  C   UNL     1      30.215   8.027  48.896  1.00  0.00     0.006 C 
BRANCH   3   4
ATOM      4  C   UNL     1      31.531   8.578  49.466  1.00  0.00     0.053 C 
BRANCH   4   5
ATOM      5  C   UNL     1      32.090   9.682  48.621  1.00  0.00     0.041 C 
ATOM      6  O   UNL     1      31.675  10.862  48.766  1.00  0.00    -0.550 OA
ATOM      7  O   UNL     1      33.091   9.413  47.698  1.00  0.00    -0.550 OA
ENDBRANCH   4   5
ENDBRANCH   3   4
ENDBRANCH   2   3
ENDBRANCH   1   2
BRANCH   1   8
ATOM      8  C   UNL     1      32.420   5.266  48.031  1.00  0.00     0.000 C 
BRANCH   8   9
ATOM      9  C   UNL     1      33.833   5.860  48.141  1.00  0.00     0.006 C 
BRANCH   9  10
ATOM     10  C   UNL     1      34.902   4.928  47.557  1.00  0.00     0.053 C 
BRANCH  10  11
ATOM     11  C   UNL     1      34.920   4.972  46.060  1.00  0.00     0.041 C 
ATOM     12  O   UNL     1      35.402   4.012  45.402  1.00  0.00    -0.550 OA
ATOM     13  O   UNL     1      34.433   6.088  45.392  1.00  0.00    -0.550 OA
ENDBRANCH  10  11
ENDBRANCH   9  10
ENDBRANCH   8   9
ENDBRANCH   1   8
TORSDOF 8
ENDMDL
MODEL 2
REMARK VINA RESULT:    -4.052      0.151      5.160
REMARK INTER + INTRA:          -6.468
REMARK INTER:                  -5.958
REMARK INTRA:                  -0.510
REMARK UNBOUND:                -0.520
REMARK SMILES O=C([O-])CCCCCCCC(=O)[O-]
REMARK SMILES IDX 7 1 6 2 5 3 4 4 2 5 1 6 3 7 8 8 9 9 10 10 11 11 12 12 13 13
REMARK H PARENT
REMARK Flexibility Score: inf
ROOT
ATOM      1  C   UNL     1      31.351   6.204  47.507  1.00  0.00     0.000 C 
ENDROOT
BRANCH   1   2
ATOM      2  C   UNL     1      32.390   5.147  47.913  1.00  0.00     0.000 C 
BRANCH   2   3
ATOM      3  C   UNL     1      33.791   5.745  48.139  1.00  0.00     0.006 C 
BRANCH   3   4
ATOM      4  C   UNL     1      34.936   4.927  47.523  1.00  0.00     0.053 C 
BRANCH   4   5
ATOM      5  C   UNL     1      34.937   5.000  46.027  1.00  0.00     0.041 C 
ATOM      6  O   UNL     1      35.383   4.039  45.345  1.00  0.00    -0.550 OA
ATOM      7  O   UNL     1      34.414   6.115  45.384  1.00  0.00    -0.550 OA
ENDBRANCH   4   5
ENDBRANCH   3   4
ENDBRANCH   2   3
ENDBRANCH   1   2
BRANCH   1   8
ATOM      8  C   UNL     1      30.344   6.445  48.637  1.00  0.00     0.000 C 
BRANCH   8   9
ATOM      9  C   UNL     1      30.270   7.936  49.000  1.00  0.00     0.006 C 
BRANCH   9  10
ATOM     10  C   UNL     1      31.603   8.468  49.541  1.00  0.00     0.053 C 
BRANCH  10  11
ATOM     11  C   UNL     1      32.183   9.522  48.648  1.00  0.00     0.041 C 
ATOM     12  O   UNL     1      33.166   9.254  47.907  1.00  0.00    -0.550 OA
ATOM     13  O   UNL     1      31.659  10.808  48.658  1.00  0.00    -0.550 OA
ENDBRANCH  10  11
ENDBRANCH   9  10
ENDBRANCH   8   9
ENDBRANCH   1   8
TORSDOF 8
ENDMDL
MODEL 3
REMARK VINA RESULT:    -4.029      1.190      1.880
REMARK INTER + INTRA:          -6.433
REMARK INTER:                  -5.777
REMARK INTRA:                  -0.656
REMARK UNBOUND:                -0.520
REMARK SMILES O=C([O-])CCCCCCCC(=O)[O-]
REMARK SMILES IDX 7 1 6 2 5 3 4 4 2 5 1 6 3 7 8 8 9 9 10 10 11 11 12 12 13 13
REMARK H PARENT
REMARK Flexibility Score: inf
ROOT
ATOM      1  C   UNL     1      30.457   6.615  48.839  1.00  0.00     0.000 C 
ENDROOT
BRANCH   1   2
ATOM      2  C   UNL     1      30.266   8.129  49.015  1.00  0.00     0.000 C 
BRANCH   2   3
ATOM      3  C   UNL     1      31.582   8.862  49.335  1.00  0.00     0.006 C 
BRANCH   3   4
ATOM      4  C   UNL     1      32.002   9.900  48.282  1.00  0.00     0.053 C 
BRANCH   4   5
ATOM      5  C   UNL     1      33.464   9.822  47.970  1.00  0.00     0.041 C 
ATOM      6  O   UNL     1      34.301   9.644  48.894  1.00  0.00    -0.550 OA
ATOM      7  O   UNL     1      33.901   9.914  46.654  1.00  0.00    -0.550 OA
ENDBRANCH   4   5
ENDBRANCH   3   4
ENDBRANCH   2   3
ENDBRANCH   1   2
BRANCH   1   8
ATOM      8  C   UNL     1      31.222   6.305  47.546  1.00  0.00     0.000 C 
BRANCH   8   9
ATOM      9  C   UNL     1      32.505   5.513  47.842  1.00  0.00     0.006 C 
BRANCH   9  10
ATOM     10  C   UNL     1      33.771   6.305  47.488  1.00  0.00     0.053 C 
BRANCH  10  11
ATOM     11  C   UNL     1      34.232   6.018  46.092  1.00  0.00     0.041 C 
ATOM     12  O   UNL     1      33.844   6.740  45.135  1.00  0.00    -0.550 OA
ATOM     13  O   UNL     1      35.064   4.934  45.843  1.00  0.00    -0.550 OA
ENDBRANCH  10  11
ENDBRANCH   9  10
ENDBRANCH   8   9
ENDBRANCH   1   8
TORSDOF 8
ENDMDL
MODEL 4
REMARK VINA RESULT:    -3.889      2.601      5.284
REMARK INTER + INTRA:          -6.228
REMARK INTER:                  -5.665
REMARK INTRA:                  -0.562
REMARK UNBOUND:                -0.520
REMARK SMILES O=C([O-])CCCCCCCC(=O)[O-]
REMARK SMILES IDX 7 1 6 2 5 3 4 4 2 5 1 6 3 7 8 8 9 9 10 10 11 11 12 12 13 13
REMARK H PARENT
REMARK Flexibility Score: inf
ROOT
ATOM      1  C   UNL     1      32.869   8.398  48.100  1.00  0.00     0.000 C 
ENDROOT
BRANCH   1   2
ATOM      2  C   UNL     1      33.596   7.787  49.308  1.00  0.00     0.000 C 
BRANCH   2   3
ATOM      3  C   UNL     1      34.396   6.523  48.945  1.00  0.00     0.006 C 
BRANCH   3   4
ATOM      4  C   UNL     1      33.697   5.598  47.936  1.00  0.00     0.053 C 
BRANCH   4   5
ATOM      5  C   UNL     1      34.503   5.421  46.686  1.00  0.00     0.041 C 
ATOM      6  O   UNL     1      35.377   4.517  46.619  1.00  0.00    -0.550 OA
ATOM      7  O   UNL     1      34.266   6.232  45.584  1.00  0.00    -0.550 OA
ENDBRANCH   4   5
ENDBRANCH   3   4
ENDBRANCH   2   3
ENDBRANCH   1   2
BRANCH   1   8
ATOM      8  C   UNL     1      31.548   9.050  48.528  1.00  0.00     0.000 C 
BRANCH   8   9
ATOM      9  C   UNL     1      30.592   8.011  49.134  1.00  0.00     0.006 C 
BRANCH   9  10
ATOM     10  C   UNL     1      30.213   6.915  48.129  1.00  0.00     0.053 C 
BRANCH  10  11
ATOM     11  C   UNL     1      29.184   5.982  48.689  1.00  0.00     0.041 C 
ATOM     12  O   UNL     1      29.236   5.631  49.897  1.00  0.00    -0.550 OA
ATOM     13  O   UNL     1      28.185   5.474  47.867  1.00  0.00    -0.550 OA
ENDBRANCH  10  11
ENDBRANCH   9  10
ENDBRANCH   8   9
ENDBRANCH   1   8
TORSDOF 8
ENDMDL
MODEL 5
REMARK VINA RESULT:    -3.859      2.117      2.822
REMARK INTER + INTRA:          -6.184
REMARK INTER:                  -5.683
REMARK INTRA:                  -0.501
REMARK UNBOUND:                -0.520
REMARK SMILES O=C([O-])CCCCCCCC(=O)[O-]
REMARK SMILES IDX 7 1 6 2 5 3 4 4 2 5 1 6 3 7 8 8 9 9 10 10 11 11 12 12 13 13
REMARK H PARENT
REMARK Flexibility Score: inf
ROOT
ATOM      1  C   UNL     1      33.264   7.973  48.237  1.00  0.00     0.000 C 
ENDROOT
BRANCH   1   2
ATOM      2  C   UNL     1      32.397   8.706  49.272  1.00  0.00     0.000 C 
BRANCH   2   3
ATOM      3  C   UNL     1      30.906   8.732  48.889  1.00  0.00     0.006 C 
BRANCH   3   4
ATOM      4  C   UNL     1      30.057   7.651  49.576  1.00  0.00     0.053 C 
BRANCH   4   5
ATOM      5  C   UNL     1      29.769   6.499  48.663  1.00  0.00     0.041 C 
ATOM      6  O   UNL     1      28.930   5.621  48.997  1.00  0.00    -0.550 OA
ATOM      7  O   UNL     1      30.402   6.413  47.430  1.00  0.00    -0.550 OA
ENDBRANCH   4   5
ENDBRANCH   3   4
ENDBRANCH   2   3
ENDBRANCH   1   2
BRANCH   1   8
ATOM      8  C   UNL     1      33.975   6.771  48.871  1.00  0.00     0.000 C 
BRANCH   8   9
ATOM      9  C   UNL     1      33.649   5.475  48.111  1.00  0.00     0.006 C 
BRANCH   9  10
ATOM     10  C   UNL     1      34.904   4.816  47.524  1.00  0.00     0.053 C 
BRANCH  10  11
ATOM     11  C   UNL     1      34.963   4.965  46.035  1.00  0.00     0.041 C 
ATOM     12  O   UNL     1      34.459   5.976  45.477  1.00  0.00    -0.550 OA
ATOM     13  O   UNL     1      35.547   3.971  45.259  1.00  0.00    -0.550 OA
ENDBRANCH  10  11
ENDBRANCH   9  10
ENDBRANCH   8   9
ENDBRANCH   1   8
TORSDOF 8
ENDMDL
MODEL 6
REMARK VINA RESULT:    -3.847      1.245      4.609
REMARK INTER + INTRA:          -6.167
REMARK INTER:                  -5.481
REMARK INTRA:                  -0.686
REMARK UNBOUND:                -0.520
REMARK SMILES O=C([O-])CCCCCCCC(=O)[O-]
REMARK SMILES IDX 7 1 6 2 5 3 4 4 2 5 1 6 3 7 8 8 9 9 10 10 11 11 12 12 13 13
REMARK H PARENT
REMARK Flexibility Score: inf
ROOT
ATOM      1  C   UNL     1      30.463   6.654  49.034  1.00  0.00     0.000 C 
ENDROOT
BRANCH   1   2
ATOM      2  C   UNL     1      30.643   6.279  47.555  1.00  0.00     0.000 C 
BRANCH   2   3
ATOM      3  C   UNL     1      32.119   6.285  47.114  1.00  0.00     0.006 C 
BRANCH   3   4
ATOM      4  C   UNL     1      33.092   5.700  48.150  1.00  0.00     0.053 C 
BRANCH   4   5
ATOM      5  C   UNL     1      34.411   5.340  47.539  1.00  0.00     0.041 C 
ATOM      6  O   UNL     1      35.306   4.795  48.239  1.00  0.00    -0.550 OA
ATOM      7  O   UNL     1      34.642   5.575  46.190  1.00  0.00    -0.550 OA
ENDBRANCH   4   5
ENDBRANCH   3   4
ENDBRANCH   2   3
ENDBRANCH   1   2
BRANCH   1   8
ATOM      8  C   UNL     1      30.162   8.149  49.188  1.00  0.00     0.000 C 
BRANCH   8   9
ATOM      9  C   UNL     1      31.433   8.932  49.553  1.00  0.00     0.006 C 
BRANCH   9  10
ATOM     10  C   UNL     1      31.889   9.860  48.419  1.00  0.00     0.053 C 
BRANCH  10  11
ATOM     11  C   UNL     1      33.308   9.593  48.021  1.00  0.00     0.041 C 
ATOM     12  O   UNL     1      33.706   9.881  46.861  1.00  0.00    -0.550 OA
ATOM     13  O   UNL     1      34.182   8.996  48.920  1.00  0.00    -0.550 OA
ENDBRANCH  10  11
ENDBRANCH   9  10
ENDBRANCH   8   9
ENDBRANCH   1   8
TORSDOF 8
ENDMDL
MODEL 7
REMARK VINA RESULT:    -3.837      2.785      3.646
REMARK INTER + INTRA:          -6.151
REMARK INTER:                  -5.525
REMARK INTRA:                  -0.627
REMARK UNBOUND:                -0.520
REMARK SMILES O=C([O-])CCCCCCCC(=O)[O-]
REMARK SMILES IDX 7 1 6 2 5 3 4 4 2 5 1 6 3 7 8 8 9 9 10 10 11 11 12 12 13 13
REMARK H PARENT
REMARK Flexibility Score: inf
ROOT
ATOM      1  C   UNL     1      32.111   9.891  48.787  1.00  0.00     0.000 C 
ENDROOT
BRANCH   1   2
ATOM      2  C   UNL     1      31.606   8.647  49.533  1.00  0.00     0.000 C 
BRANCH   2   3
ATOM      3  C   UNL     1      30.195   8.218  49.090  1.00  0.00     0.006 C 
BRANCH   3   4
ATOM      4  C   UNL     1      30.159   6.939  48.238  1.00  0.00     0.053 C 
BRANCH   4   5
ATOM      5  C   UNL     1      29.186   5.935  48.773  1.00  0.00     0.041 C 
ATOM      6  O   UNL     1      29.254   5.565  49.975  1.00  0.00    -0.550 OA
ATOM      7  O   UNL     1      28.183   5.432  47.954  1.00  0.00    -0.550 OA
ENDBRANCH   4   5
ENDBRANCH   3   4
ENDBRANCH   2   3
ENDBRANCH   1   2
BRANCH   1   8
ATOM      8  C   UNL     1      32.939   9.496  47.559  1.00  0.00     0.000 C 
BRANCH   8   9
ATOM      9  C   UNL     1      33.692   8.178  47.803  1.00  0.00     0.006 C 
BRANCH   9  10
ATOM     10  C   UNL     1      33.543   7.199  46.632  1.00  0.00     0.053 C 
BRANCH  10  11
ATOM     11  C   UNL     1      33.934   5.806  47.020  1.00  0.00     0.041 C 
ATOM     12  O   UNL     1      34.874   5.220  46.420  1.00  0.00    -0.550 OA
ATOM     13  O   UNL     1      33.238   5.143  48.023  1.00  0.00    -0.550 OA
ENDBRANCH  10  11
ENDBRANCH   9  10
ENDBRANCH   8   9
ENDBRANCH   1   8
TORSDOF 8
ENDMDL
MODEL 8
REMARK VINA RESULT:    -3.728      3.420      5.074
REMARK INTER + INTRA:          -5.992
REMARK INTER:                  -5.669
REMARK INTRA:                  -0.323
REMARK UNBOUND:                -0.520
REMARK SMILES O=C([O-])CCCCCCCC(=O)[O-]
REMARK SMILES IDX 7 1 6 2 5 3 4 4 2 5 1 6 3 7 8 8 9 9 10 10 11 11 12 12 13 13
REMARK H PARENT
REMARK Flexibility Score: inf
ROOT
ATOM      1  C   UNL     1      32.582  10.759  49.039  1.00  0.00     0.000 C 
ENDROOT
BRANCH   1   2
ATOM      2  C   UNL     1      34.011  10.575  48.508  1.00  0.00     0.000 C 
BRANCH   2   3
ATOM      3  C   UNL     1      34.046  10.042  47.064  1.00  0.00     0.006 C 
BRANCH   3   4
ATOM      4  C   UNL     1      35.043  10.766  46.145  1.00  0.00     0.053 C 
BRANCH   4   5
ATOM      5  C   UNL     1      34.698  10.597  44.698  1.00  0.00     0.041 C 
ATOM      6  O   UNL     1      34.285  11.580  44.026  1.00  0.00    -0.550 OA
ATOM      7  O   UNL     1      34.861   9.363  44.082  1.00  0.00    -0.550 OA
ENDBRANCH   4   5
ENDBRANCH   3   4
ENDBRANCH   2   3
ENDBRANCH   1   2
BRANCH   1   8
ATOM      8  C   UNL     1      31.613   9.785  48.358  1.00  0.00     0.000 C 
BRANCH   8   9
ATOM      9  C   UNL     1      31.443   8.505  49.191  1.00  0.00     0.006 C 
BRANCH   9  10
ATOM     10  C   UNL     1      30.072   7.851  48.977  1.00  0.00     0.053 C 
BRANCH  10  11
ATOM     11  C   UNL     1      30.191   6.520  48.302  1.00  0.00     0.041 C 
ATOM     12  O   UNL     1      29.443   5.565  48.644  1.00  0.00    -0.550 OA
ATOM     13  O   UNL     1      31.151   6.323  47.317  1.00  0.00    -0.550 OA
ENDBRANCH  10  11
ENDBRANCH   9  10
ENDBRANCH   8   9
ENDBRANCH   1   8
TORSDOF 8
ENDMDL
MODEL 9
REMARK VINA RESULT:    -3.727      2.823      4.620
REMARK INTER + INTRA:          -5.990
REMARK INTER:                  -5.488
REMARK INTRA:                  -0.503
REMARK UNBOUND:                -0.520
REMARK SMILES O=C([O-])CCCCCCCC(=O)[O-]
REMARK SMILES IDX 7 1 6 2 5 3 4 4 2 5 1 6 3 7 8 8 9 9 10 10 11 11 12 12 13 13
REMARK H PARENT
REMARK Flexibility Score: inf
ROOT
ATOM      1  C   UNL     1      31.968   9.933  48.304  1.00  0.00     0.000 C 
ENDROOT
BRANCH   1   2
ATOM      2  C   UNL     1      31.643   8.669  49.114  1.00  0.00     0.000 C 
BRANCH   2   3
ATOM      3  C   UNL     1      30.902   7.603  48.284  1.00  0.00     0.006 C 
BRANCH   3   4
ATOM      4  C   UNL     1      31.514   6.196  48.370  1.00  0.00     0.053 C 
BRANCH   4   5
ATOM      5  C   UNL     1      32.932   6.170  47.890  1.00  0.00     0.041 C 
ATOM      6  O   UNL     1      33.191   6.336  46.669  1.00  0.00    -0.550 OA
ATOM      7  O   UNL     1      33.971   5.994  48.795  1.00  0.00    -0.550 OA
ENDBRANCH   4   5
ENDBRANCH   3   4
ENDBRANCH   2   3
ENDBRANCH   1   2
BRANCH   1   8
ATOM      8  C   UNL     1      33.482  10.090  48.117  1.00  0.00     0.000 C 
BRANCH   8   9
ATOM      9  C   UNL     1      33.906   9.686  46.696  1.00  0.00     0.006 C 
BRANCH   9  10
ATOM     10  C   UNL     1      34.824  10.729  46.046  1.00  0.00     0.053 C 
BRANCH  10  11
ATOM     11  C   UNL     1      34.616  10.806  44.565  1.00  0.00     0.041 C 
ATOM     12  O   UNL     1      34.356  11.911  44.017  1.00  0.00    -0.550 OA
ATOM     13  O   UNL     1      34.676   9.653  43.793  1.00  0.00    -0.550 OA
ENDBRANCH  10  11
ENDBRANCH   9  10
ENDBRANCH   8   9
ENDBRANCH   1   8
TORSDOF 8
ENDMDL
