MODEL 1
REMARK VINA RESULT:    -5.917      0.000      0.000
REMARK INTER + INTRA:          -8.566
REMARK INTER:                  -7.473
REMARK INTRA:                  -1.093
REMARK UNBOUND:                -1.093
REMARK SMILES O[C@H]1OC[C@@H](Cc2ccc3c(c2)OCO3)[C@H]1Cc1ccc2c(c1)OCO2
REMARK SMILES IDX 4 1 5 2 16 3 2 4 3 5 6 6 7 7 12 8 8 9 11 10 9 11 10 12 13 13
REMARK SMILES IDX 15 14 14 15 17 16 18 17 23 18 19 19 22 20 20 21 21 22 24 23
REMARK SMILES IDX 26 24 25 25 1 26
REMARK H PARENT 1 27
REMARK Flexibility Score: inf
ROOT
ATOM      1  C   UNL     1     -13.169 -33.918 -15.154  1.00  0.00     0.168 C 
ATOM      2  C   UNL     1     -14.138 -34.157 -14.002  1.00  0.00     0.028 C 
ATOM      3  C   UNL     1     -14.863 -35.425 -14.434  1.00  0.00     0.055 C 
ATOM      4  C   UNL     1     -13.718 -36.126 -15.180  1.00  0.00     0.250 C 
ATOM      5  O   UNL     1     -12.917 -35.145 -15.805  1.00  0.00    -0.352 OA
ENDROOT
BRANCH   2   6
ATOM      6  C   UNL     1     -15.020 -32.933 -13.667  1.00  0.00     0.042 C 
BRANCH   6   7
ATOM      7  C   UNL     1     -14.604 -32.307 -12.361  1.00  0.00    -0.044 A 
ATOM      8  C   UNL     1     -15.276 -31.161 -11.880  1.00  0.00     0.054 A 
ATOM      9  C   UNL     1     -13.569 -32.890 -11.583  1.00  0.00     0.008 A 
ATOM     10  C   UNL     1     -14.880 -30.636 -10.653  1.00  0.00     0.166 A 
ATOM     11  C   UNL     1     -13.201 -32.328 -10.348  1.00  0.00     0.051 A 
ATOM     12  C   UNL     1     -13.885 -31.196  -9.919  1.00  0.00     0.165 A 
ATOM     13  O   UNL     1     -15.380 -29.534  -9.987  1.00  0.00    -0.454 OA
ATOM     14  O   UNL     1     -13.709 -30.472  -8.756  1.00  0.00    -0.454 OA
ATOM     15  C   UNL     1     -14.653 -29.392  -8.758  1.00  0.00     0.468 C 
ENDBRANCH   6   7
ENDBRANCH   2   6
BRANCH   3  16
ATOM     16  C   UNL     1     -16.117 -35.161 -15.320  1.00  0.00     0.044 C 
BRANCH  16  17
ATOM     17  C   UNL     1     -17.407 -35.578 -14.655  1.00  0.00    -0.044 A 
ATOM     18  C   UNL     1     -18.578 -34.801 -14.815  1.00  0.00     0.054 A 
ATOM     19  C   UNL     1     -17.443 -36.735 -13.831  1.00  0.00     0.008 A 
ATOM     20  C   UNL     1     -19.737 -35.222 -14.169  1.00  0.00     0.166 A 
ATOM     21  C   UNL     1     -18.637 -37.124 -13.197  1.00  0.00     0.051 A 
ATOM     22  C   UNL     1     -19.765 -36.335 -13.395  1.00  0.00     0.165 A 
ATOM     23  O   UNL     1     -20.989 -34.639 -14.183  1.00  0.00    -0.454 OA
ATOM     24  O   UNL     1     -21.036 -36.509 -12.884  1.00  0.00    -0.454 OA
ATOM     25  C   UNL     1     -21.858 -35.436 -13.368  1.00  0.00     0.468 C 
ENDBRANCH  16  17
ENDBRANCH   3  16
BRANCH   4  26
ATOM     26  O   UNL     1     -14.179 -37.045 -16.132  1.00  0.00    -0.368 OA
ATOM     27  H   UNL     1     -14.361 -36.526 -16.958  1.00  0.00     0.213 HD
ENDBRANCH   4  26
TORSDOF 5
ENDMDL
MODEL 2
REMARK VINA RESULT:    -5.067      1.065      6.917
REMARK INTER + INTRA:          -7.493
REMARK INTER:                  -7.107
REMARK INTRA:                  -0.386
REMARK UNBOUND:                -1.093
REMARK SMILES O[C@H]1OC[C@@H](Cc2ccc3c(c2)OCO3)[C@H]1Cc1ccc2c(c1)OCO2
REMARK SMILES IDX 4 1 5 2 16 3 2 4 3 5 6 6 7 7 12 8 8 9 11 10 9 11 10 12 13 13
REMARK SMILES IDX 15 14 14 15 17 16 18 17 23 18 19 19 22 20 20 21 21 22 24 23
REMARK SMILES IDX 26 24 25 25 1 26
REMARK H PARENT 1 27
REMARK Flexibility Score: inf
ROOT
ATOM      1  C   UNL     1     -13.782 -35.579 -15.405  1.00  0.00     0.168 C 
ATOM      2  C   UNL     1     -15.159 -35.148 -14.912  1.00  0.00     0.028 C 
ATOM      3  C   UNL     1     -14.840 -33.923 -14.064  1.00  0.00     0.055 C 
ATOM      4  C   UNL     1     -13.643 -33.375 -14.856  1.00  0.00     0.250 C 
ATOM      5  O   UNL     1     -12.919 -34.463 -15.391  1.00  0.00    -0.352 OA
ENDROOT
BRANCH   2   6
ATOM      6  C   UNL     1     -15.956 -36.279 -14.224  1.00  0.00     0.042 C 
BRANCH   6   7
ATOM      7  C   UNL     1     -17.431 -35.972 -14.211  1.00  0.00    -0.044 A 
ATOM      8  C   UNL     1     -18.322 -36.807 -13.501  1.00  0.00     0.054 A 
ATOM      9  C   UNL     1     -17.929 -34.817 -14.870  1.00  0.00     0.008 A 
ATOM     10  C   UNL     1     -19.671 -36.466 -13.489  1.00  0.00     0.166 A 
ATOM     11  C   UNL     1     -19.301 -34.509 -14.833  1.00  0.00     0.051 A 
ATOM     12  C   UNL     1     -20.140 -35.365 -14.128  1.00  0.00     0.165 A 
ATOM     13  O   UNL     1     -20.719 -37.122 -12.872  1.00  0.00    -0.454 OA
ATOM     14  O   UNL     1     -21.506 -35.274 -13.947  1.00  0.00    -0.454 OA
ATOM     15  C   UNL     1     -21.922 -36.388 -13.143  1.00  0.00     0.468 C 
ENDBRANCH   6   7
ENDBRANCH   2   6
BRANCH   3  16
ATOM     16  C   UNL     1     -14.507 -34.255 -12.579  1.00  0.00     0.044 C 
BRANCH  16  17
ATOM     17  C   UNL     1     -14.417 -33.026 -11.706  1.00  0.00    -0.044 A 
ATOM     18  C   UNL     1     -15.195 -31.882 -12.001  1.00  0.00     0.054 A 
ATOM     19  C   UNL     1     -13.522 -32.997 -10.604  1.00  0.00     0.008 A 
ATOM     20  C   UNL     1     -15.065 -30.770 -11.174  1.00  0.00     0.166 A 
ATOM     21  C   UNL     1     -13.422 -31.852  -9.793  1.00  0.00     0.051 A 
ATOM     22  C   UNL     1     -14.217 -30.757 -10.115  1.00  0.00     0.165 A 
ATOM     23  O   UNL     1     -15.719 -29.557 -11.255  1.00  0.00    -0.454 OA
ATOM     24  O   UNL     1     -14.294 -29.534  -9.479  1.00  0.00    -0.454 OA
ATOM     25  C   UNL     1     -15.253 -28.729 -10.182  1.00  0.00     0.468 C 
ENDBRANCH  16  17
ENDBRANCH   3  16
BRANCH   4  26
ATOM     26  O   UNL     1     -12.799 -32.577 -14.073  1.00  0.00    -0.368 OA
ATOM     27  H   UNL     1     -13.292 -31.733 -13.901  1.00  0.00     0.213 HD
ENDBRANCH   4  26
TORSDOF 5
ENDMDL
MODEL 3
REMARK VINA RESULT:    -3.286      1.390      6.752
REMARK INTER + INTRA:          -5.244
REMARK INTER:                  -4.016
REMARK INTRA:                  -1.227
REMARK UNBOUND:                -1.093
REMARK SMILES O[C@H]1OC[C@@H](Cc2ccc3c(c2)OCO3)[C@H]1Cc1ccc2c(c1)OCO2
REMARK SMILES IDX 4 1 5 2 16 3 2 4 3 5 6 6 7 7 12 8 8 9 11 10 9 11 10 12 13 13
REMARK SMILES IDX 15 14 14 15 17 16 18 17 23 18 19 19 22 20 20 21 21 22 24 23
REMARK SMILES IDX 26 24 25 25 1 26
REMARK H PARENT 1 27
REMARK Flexibility Score: inf
ROOT
ATOM      1  C   UNL     1     -15.414 -37.125 -16.643  1.00  0.00     0.168 C 
ATOM      2  C   UNL     1     -16.129 -36.090 -15.781  1.00  0.00     0.028 C 
ATOM      3  C   UNL     1     -15.066 -35.015 -15.601  1.00  0.00     0.055 C 
ATOM      4  C   UNL     1     -14.355 -35.136 -16.957  1.00  0.00     0.250 C 
ATOM      5  O   UNL     1     -14.382 -36.489 -17.362  1.00  0.00    -0.352 OA
ENDROOT
BRANCH   2   6
ATOM      6  C   UNL     1     -16.750 -36.675 -14.492  1.00  0.00     0.042 C 
BRANCH   6   7
ATOM      7  C   UNL     1     -18.177 -36.223 -14.324  1.00  0.00    -0.044 A 
ATOM      8  C   UNL     1     -19.087 -37.011 -13.583  1.00  0.00     0.054 A 
ATOM      9  C   UNL     1     -18.605 -34.982 -14.865  1.00  0.00     0.008 A 
ATOM     10  C   UNL     1     -20.386 -36.537 -13.426  1.00  0.00     0.166 A 
ATOM     11  C   UNL     1     -19.927 -34.541 -14.682  1.00  0.00     0.051 A 
ATOM     12  C   UNL     1     -20.788 -35.354 -13.953  1.00  0.00     0.165 A 
ATOM     13  O   UNL     1     -21.440 -37.125 -12.753  1.00  0.00    -0.454 OA
ATOM     14  O   UNL     1     -22.116 -35.139 -13.640  1.00  0.00    -0.454 OA
ATOM     15  C   UNL     1     -22.576 -36.256 -12.867  1.00  0.00     0.468 C 
ENDBRANCH   6   7
ENDBRANCH   2   6
BRANCH   3  16
ATOM     16  C   UNL     1     -14.127 -35.257 -14.380  1.00  0.00     0.044 C 
BRANCH  16  17
ATOM     17  C   UNL     1     -14.067 -34.076 -13.440  1.00  0.00    -0.044 A 
ATOM     18  C   UNL     1     -14.967 -33.983 -12.353  1.00  0.00     0.054 A 
ATOM     19  C   UNL     1     -13.131 -33.032 -13.665  1.00  0.00     0.008 A 
ATOM     20  C   UNL     1     -14.879 -32.867 -11.525  1.00  0.00     0.166 A 
ATOM     21  C   UNL     1     -13.077 -31.922 -12.802  1.00  0.00     0.051 A 
ATOM     22  C   UNL     1     -13.973 -31.882 -11.739  1.00  0.00     0.165 A 
ATOM     23  O   UNL     1     -15.634 -32.564 -10.409  1.00  0.00    -0.454 OA
ATOM     24  O   UNL     1     -14.113 -30.908 -10.770  1.00  0.00    -0.454 OA
ATOM     25  C   UNL     1     -15.174 -31.309  -9.891  1.00  0.00     0.468 C 
ENDBRANCH  16  17
ENDBRANCH   3  16
BRANCH   4  26
ATOM     26  O   UNL     1     -13.033 -34.674 -16.916  1.00  0.00    -0.368 OA
ATOM     27  H   UNL     1     -12.580 -35.048 -17.715  1.00  0.00     0.213 HD
ENDBRANCH   4  26
TORSDOF 5
ENDMDL
MODEL 4
REMARK VINA RESULT:    -2.930      2.777      5.620
REMARK INTER + INTRA:          -4.794
REMARK INTER:                  -6.123
REMARK INTRA:                   1.330
REMARK UNBOUND:                -1.093
REMARK SMILES O[C@H]1OC[C@@H](Cc2ccc3c(c2)OCO3)[C@H]1Cc1ccc2c(c1)OCO2
REMARK SMILES IDX 4 1 5 2 16 3 2 4 3 5 6 6 7 7 12 8 8 9 11 10 9 11 10 12 13 13
REMARK SMILES IDX 15 14 14 15 17 16 18 17 23 18 19 19 22 20 20 21 21 22 24 23
REMARK SMILES IDX 26 24 25 25 1 26
REMARK H PARENT 1 27
REMARK Flexibility Score: inf
ROOT
ATOM      1  C   UNL     1     -13.865 -30.389  -9.265  1.00  0.00     0.168 C 
ATOM      2  C   UNL     1     -15.072 -30.778 -10.112  1.00  0.00     0.028 C 
ATOM      3  C   UNL     1     -14.565 -31.995 -10.874  1.00  0.00     0.055 C 
ATOM      4  C   UNL     1     -13.628 -32.586  -9.809  1.00  0.00     0.250 C 
ATOM      5  O   UNL     1     -13.050 -31.525  -9.078  1.00  0.00    -0.352 OA
ENDROOT
BRANCH   2   6
ATOM      6  C   UNL     1     -15.639 -29.616 -10.958  1.00  0.00     0.042 C 
BRANCH   6   7
ATOM      7  C   UNL     1     -14.971 -28.312 -10.605  1.00  0.00    -0.044 A 
ATOM      8  C   UNL     1     -14.127 -28.233  -9.475  1.00  0.00     0.054 A 
ATOM      9  C   UNL     1     -15.146 -27.170 -11.430  1.00  0.00     0.008 A 
ATOM     10  C   UNL     1     -13.504 -27.017  -9.206  1.00  0.00     0.166 A 
ATOM     11  C   UNL     1     -14.498 -25.961 -11.122  1.00  0.00     0.051 A 
ATOM     12  C   UNL     1     -13.683 -25.929  -9.996  1.00  0.00     0.165 A 
ATOM     13  O   UNL     1     -12.647 -26.701  -8.171  1.00  0.00    -0.454 OA
ATOM     14  O   UNL     1     -12.948 -24.872  -9.495  1.00  0.00    -0.454 OA
ATOM     15  C   UNL     1     -12.264 -25.326  -8.318  1.00  0.00     0.468 C 
ENDBRANCH   6   7
ENDBRANCH   2   6
BRANCH   3  16
ATOM     16  C   UNL     1     -13.848 -31.646 -12.213  1.00  0.00     0.044 C 
BRANCH  16  17
ATOM     17  C   UNL     1     -13.960 -32.742 -13.245  1.00  0.00    -0.044 A 
ATOM     18  C   UNL     1     -15.133 -33.527 -13.329  1.00  0.00     0.054 A 
ATOM     19  C   UNL     1     -12.870 -33.018 -14.114  1.00  0.00     0.008 A 
ATOM     20  C   UNL     1     -15.180 -34.534 -14.289  1.00  0.00     0.166 A 
ATOM     21  C   UNL     1     -12.961 -34.046 -15.070  1.00  0.00     0.051 A 
ATOM     22  C   UNL     1     -14.140 -34.781 -15.123  1.00  0.00     0.165 A 
ATOM     23  O   UNL     1     -16.209 -35.413 -14.563  1.00  0.00    -0.454 OA
ATOM     24  O   UNL     1     -14.462 -35.829 -15.964  1.00  0.00    -0.454 OA
ATOM     25  C   UNL     1     -15.790 -36.266 -15.637  1.00  0.00     0.468 C 
ENDBRANCH  16  17
ENDBRANCH   3  16
BRANCH   4  26
ATOM     26  O   UNL     1     -12.624 -33.391 -10.363  1.00  0.00    -0.368 OA
ATOM     27  H   UNL     1     -12.047 -32.789 -10.902  1.00  0.00     0.213 HD
ENDBRANCH   4  26
TORSDOF 5
ENDMDL
