MODEL 1
REMARK VINA RESULT:    -5.565      0.000      0.000
REMARK INTER + INTRA:          -5.728
REMARK INTER:                  -5.728
REMARK INTRA:                   0.000
REMARK UNBOUND:                 0.000
REMARK SMILES O=c1ccc2ccc(O)cc2o1
REMARK SMILES IDX 6 1 7 2 8 3 10 4 11 5 5 6 4 7 3 8 2 9 1 10 12 11 9 12
REMARK H PARENT 9 13
REMARK Flexibility Score: inf
ROOT
ATOM      1  C   UNL     1      26.515  -0.542  29.991  1.00  0.00     0.016 A 
ATOM      2  C   UNL     1      26.927   0.740  29.615  1.00  0.00     0.047 A 
ATOM      3  C   UNL     1      28.269   0.989  29.305  1.00  0.00     0.119 A 
ATOM      4  C   UNL     1      29.208  -0.051  29.372  1.00  0.00     0.094 A 
ATOM      5  C   UNL     1      28.806  -1.337  29.748  1.00  0.00     0.142 A 
ATOM      6  C   UNL     1      27.450  -1.585  30.060  1.00  0.00     0.018 A 
ATOM      7  C   UNL     1      27.078  -2.880  30.433  1.00  0.00     0.019 A 
ATOM      8  C   UNL     1      28.046  -3.882  30.485  1.00  0.00     0.094 A 
ATOM      9  C   UNL     1      29.370  -3.564  30.163  1.00  0.00     0.336 A 
ATOM     10  O   UNL     1      30.259  -4.455  30.204  1.00  0.00    -0.246 OA
ATOM     11  O   UNL     1      29.698  -2.322  29.811  1.00  0.00    -0.423 OA
ENDROOT
BRANCH   3  12
ATOM     12  O   UNL     1      28.660   2.273  28.932  1.00  0.00    -0.508 OA
ATOM     13  H   UNL     1      28.250   2.741  28.133  1.00  0.00     0.293 HD
ENDBRANCH   3  12
TORSDOF 1
ENDMDL
MODEL 2
REMARK VINA RESULT:    -5.564      1.888      2.525
REMARK INTER + INTRA:          -5.726
REMARK INTER:                  -5.726
REMARK INTRA:                   0.000
REMARK UNBOUND:                 0.000
REMARK SMILES O=c1ccc2ccc(O)cc2o1
REMARK SMILES IDX 6 1 7 2 8 3 10 4 11 5 5 6 4 7 3 8 2 9 1 10 12 11 9 12
REMARK H PARENT 9 13
REMARK Flexibility Score: inf
ROOT
ATOM      1  C   UNL     1      30.099  -0.467  30.462  1.00  0.00     0.016 A 
ATOM      2  C   UNL     1      29.482   0.718  30.875  1.00  0.00     0.047 A 
ATOM      3  C   UNL     1      28.141   0.714  31.278  1.00  0.00     0.119 A 
ATOM      4  C   UNL     1      27.410  -0.482  31.266  1.00  0.00     0.094 A 
ATOM      5  C   UNL     1      28.018  -1.673  30.854  1.00  0.00     0.142 A 
ATOM      6  C   UNL     1      29.372  -1.666  30.449  1.00  0.00     0.018 A 
ATOM      7  C   UNL     1      29.952  -2.871  30.041  1.00  0.00     0.019 A 
ATOM      8  C   UNL     1      29.186  -4.036  30.047  1.00  0.00     0.094 A 
ATOM      9  C   UNL     1      27.851  -3.968  30.461  1.00  0.00     0.336 A 
ATOM     10  O   UNL     1      27.143  -5.009  30.472  1.00  0.00    -0.246 OA
ATOM     11  O   UNL     1      27.322  -2.808  30.843  1.00  0.00    -0.423 OA
ENDROOT
BRANCH   3  12
ATOM     12  O   UNL     1      27.545   1.905  31.686  1.00  0.00    -0.508 OA
ATOM     13  H   UNL     1      27.376   2.663  31.036  1.00  0.00     0.293 HD
ENDBRANCH   3  12
TORSDOF 1
ENDMDL
MODEL 3
REMARK VINA RESULT:    -5.357      2.083      5.183
REMARK INTER + INTRA:          -5.513
REMARK INTER:                  -5.513
REMARK INTRA:                   0.000
REMARK UNBOUND:                 0.000
REMARK SMILES O=c1ccc2ccc(O)cc2o1
REMARK SMILES IDX 6 1 7 2 8 3 10 4 11 5 5 6 4 7 3 8 2 9 1 10 12 11 9 12
REMARK H PARENT 9 13
REMARK Flexibility Score: inf
ROOT
ATOM      1  C   UNL     1      30.168  -3.990  30.028  1.00  0.00     0.016 A 
ATOM      2  C   UNL     1      30.001  -5.318  30.434  1.00  0.00     0.047 A 
ATOM      3  C   UNL     1      28.745  -5.779  30.847  1.00  0.00     0.119 A 
ATOM      4  C   UNL     1      27.647  -4.906  30.856  1.00  0.00     0.094 A 
ATOM      5  C   UNL     1      27.804  -3.576  30.452  1.00  0.00     0.142 A 
ATOM      6  C   UNL     1      29.072  -3.114  30.035  1.00  0.00     0.018 A 
ATOM      7  C   UNL     1      29.199  -1.779  29.638  1.00  0.00     0.019 A 
ATOM      8  C   UNL     1      28.079  -0.949  29.663  1.00  0.00     0.094 A 
ATOM      9  C   UNL     1      26.854  -1.475  30.087  1.00  0.00     0.336 A 
ATOM     10  O   UNL     1      25.831  -0.742  30.117  1.00  0.00    -0.246 OA
ATOM     11  O   UNL     1      26.760  -2.750  30.461  1.00  0.00    -0.423 OA
ENDROOT
BRANCH   3  12
ATOM     12  O   UNL     1      28.599  -7.105  31.247  1.00  0.00    -0.508 OA
ATOM     13  H   UNL     1      27.789  -7.414  31.771  1.00  0.00     0.293 HD
ENDBRANCH   3  12
TORSDOF 1
ENDMDL
MODEL 4
REMARK VINA RESULT:    -5.279      2.110      5.017
REMARK INTER + INTRA:          -5.433
REMARK INTER:                  -5.433
REMARK INTRA:                   0.000
REMARK UNBOUND:                 0.000
REMARK SMILES O=c1ccc2ccc(O)cc2o1
REMARK SMILES IDX 6 1 7 2 8 3 10 4 11 5 5 6 4 7 3 8 2 9 1 10 12 11 9 12
REMARK H PARENT 9 13
REMARK Flexibility Score: inf
ROOT
ATOM      1  C   UNL     1      26.927  -0.380  29.037  1.00  0.00     0.016 A 
ATOM      2  C   UNL     1      27.070  -1.543  29.800  1.00  0.00     0.047 A 
ATOM      3  C   UNL     1      27.601  -1.480  31.094  1.00  0.00     0.119 A 
ATOM      4  C   UNL     1      27.995  -0.245  31.630  1.00  0.00     0.094 A 
ATOM      5  C   UNL     1      27.857   0.924  30.874  1.00  0.00     0.142 A 
ATOM      6  C   UNL     1      27.320   0.857  29.569  1.00  0.00     0.018 A 
ATOM      7  C   UNL     1      27.194   2.042  28.838  1.00  0.00     0.019 A 
ATOM      8  C   UNL     1      27.598   3.246  29.412  1.00  0.00     0.094 A 
ATOM      9  C   UNL     1      28.122   3.237  30.710  1.00  0.00     0.336 A 
ATOM     10  O   UNL     1      28.492   4.315  31.246  1.00  0.00    -0.246 OA
ATOM     11  O   UNL     1      28.231   2.095  31.385  1.00  0.00    -0.423 OA
ENDROOT
BRANCH   3  12
ATOM     12  O   UNL     1      27.735  -2.650  31.838  1.00  0.00    -0.508 OA
ATOM     13  H   UNL     1      26.938  -3.237  32.050  1.00  0.00     0.293 HD
ENDBRANCH   3  12
TORSDOF 1
ENDMDL
MODEL 5
REMARK VINA RESULT:    -5.276      1.430      1.713
REMARK INTER + INTRA:          -5.430
REMARK INTER:                  -5.430
REMARK INTRA:                   0.000
REMARK UNBOUND:                 0.000
REMARK SMILES O=c1ccc2ccc(O)cc2o1
REMARK SMILES IDX 6 1 7 2 8 3 10 4 11 5 5 6 4 7 3 8 2 9 1 10 12 11 9 12
REMARK H PARENT 9 13
REMARK Flexibility Score: inf
ROOT
ATOM      1  C   UNL     1      27.119  -1.438  30.805  1.00  0.00     0.016 A 
ATOM      2  C   UNL     1      27.908  -0.285  30.752  1.00  0.00     0.047 A 
ATOM      3  C   UNL     1      29.275  -0.377  30.463  1.00  0.00     0.119 A 
ATOM      4  C   UNL     1      29.859  -1.630  30.228  1.00  0.00     0.094 A 
ATOM      5  C   UNL     1      29.077  -2.789  30.280  1.00  0.00     0.142 A 
ATOM      6  C   UNL     1      27.698  -2.694  30.570  1.00  0.00     0.018 A 
ATOM      7  C   UNL     1      26.942  -3.869  30.616  1.00  0.00     0.019 A 
ATOM      8  C   UNL     1      27.566  -5.093  30.375  1.00  0.00     0.094 A 
ATOM      9  C   UNL     1      28.937  -5.112  30.093  1.00  0.00     0.336 A 
ATOM     10  O   UNL     1      29.518  -6.207  29.872  1.00  0.00    -0.246 OA
ATOM     11  O   UNL     1      29.633  -3.978  30.056  1.00  0.00    -0.423 OA
ENDROOT
BRANCH   3  12
ATOM     12  O   UNL     1      30.045   0.783  30.414  1.00  0.00    -0.508 OA
ATOM     13  H   UNL     1      31.056   0.752  30.474  1.00  0.00     0.293 HD
ENDBRANCH   3  12
TORSDOF 1
ENDMDL
MODEL 6
REMARK VINA RESULT:    -5.272      1.911      4.767
REMARK INTER + INTRA:          -5.426
REMARK INTER:                  -5.426
REMARK INTRA:                   0.000
REMARK UNBOUND:                 0.000
REMARK SMILES O=c1ccc2ccc(O)cc2o1
REMARK SMILES IDX 6 1 7 2 8 3 10 4 11 5 5 6 4 7 3 8 2 9 1 10 12 11 9 12
REMARK H PARENT 9 13
REMARK Flexibility Score: inf
ROOT
ATOM      1  C   UNL     1      26.839  -4.729  30.373  1.00  0.00     0.016 A 
ATOM      2  C   UNL     1      27.283  -5.994  29.975  1.00  0.00     0.047 A 
ATOM      3  C   UNL     1      28.621  -6.191  29.613  1.00  0.00     0.119 A 
ATOM      4  C   UNL     1      29.523  -5.117  29.649  1.00  0.00     0.094 A 
ATOM      5  C   UNL     1      29.087  -3.849  30.046  1.00  0.00     0.142 A 
ATOM      6  C   UNL     1      27.736  -3.652  30.411  1.00  0.00     0.018 A 
ATOM      7  C   UNL     1      27.329  -2.373  30.802  1.00  0.00     0.019 A 
ATOM      8  C   UNL     1      28.261  -1.336  30.823  1.00  0.00     0.094 A 
ATOM      9  C   UNL     1      29.583  -1.603  30.449  1.00  0.00     0.336 A 
ATOM     10  O   UNL     1      30.438  -0.680  30.461  1.00  0.00    -0.246 OA
ATOM     11  O   UNL     1      29.944  -2.830  30.080  1.00  0.00    -0.423 OA
ENDROOT
BRANCH   3  12
ATOM     12  O   UNL     1      29.046  -7.458  29.219  1.00  0.00    -0.508 OA
ATOM     13  H   UNL     1      29.164  -7.698  28.242  1.00  0.00     0.293 HD
ENDBRANCH   3  12
TORSDOF 1
ENDMDL
MODEL 7
REMARK VINA RESULT:    -5.247      1.902      5.077
REMARK INTER + INTRA:          -5.400
REMARK INTER:                  -5.400
REMARK INTRA:                   0.000
REMARK UNBOUND:                 0.000
REMARK SMILES O=c1ccc2ccc(O)cc2o1
REMARK SMILES IDX 6 1 7 2 8 3 10 4 11 5 5 6 4 7 3 8 2 9 1 10 12 11 9 12
REMARK H PARENT 9 13
REMARK Flexibility Score: inf
ROOT
ATOM      1  C   UNL     1      29.534  -0.237  31.514  1.00  0.00     0.016 A 
ATOM      2  C   UNL     1      29.553  -1.368  30.691  1.00  0.00     0.047 A 
ATOM      3  C   UNL     1      29.019  -1.310  29.398  1.00  0.00     0.119 A 
ATOM      4  C   UNL     1      28.461  -0.114  28.924  1.00  0.00     0.094 A 
ATOM      5  C   UNL     1      28.437   1.022  29.741  1.00  0.00     0.142 A 
ATOM      6  C   UNL     1      28.977   0.961  31.044  1.00  0.00     0.018 A 
ATOM      7  C   UNL     1      28.939   2.112  31.838  1.00  0.00     0.019 A 
ATOM      8  C   UNL     1      28.375   3.278  31.323  1.00  0.00     0.094 A 
ATOM      9  C   UNL     1      27.858   3.266  30.023  1.00  0.00     0.336 A 
ATOM     10  O   UNL     1      27.345   4.310  29.540  1.00  0.00    -0.246 OA
ATOM     11  O   UNL     1      27.907   2.157  29.288  1.00  0.00    -0.423 OA
ENDROOT
BRANCH   3  12
ATOM     12  O   UNL     1      29.047  -2.446  28.593  1.00  0.00    -0.508 OA
ATOM     13  H   UNL     1      29.880  -3.016  28.510  1.00  0.00     0.293 HD
ENDBRANCH   3  12
TORSDOF 1
ENDMDL
MODEL 8
REMARK VINA RESULT:    -5.158      1.893      4.667
REMARK INTER + INTRA:          -5.309
REMARK INTER:                  -5.309
REMARK INTRA:                   0.000
REMARK UNBOUND:                 0.000
REMARK SMILES O=c1ccc2ccc(O)cc2o1
REMARK SMILES IDX 6 1 7 2 8 3 10 4 11 5 5 6 4 7 3 8 2 9 1 10 12 11 9 12
REMARK H PARENT 9 13
REMARK Flexibility Score: inf
ROOT
ATOM      1  C   UNL     1      29.987  -3.238  30.046  1.00  0.00     0.016 A 
ATOM      2  C   UNL     1      29.068  -4.291  29.992  1.00  0.00     0.047 A 
ATOM      3  C   UNL     1      27.707  -4.053  30.220  1.00  0.00     0.119 A 
ATOM      4  C   UNL     1      27.261  -2.754  30.506  1.00  0.00     0.094 A 
ATOM      5  C   UNL     1      28.174  -1.695  30.562  1.00  0.00     0.142 A 
ATOM      6  C   UNL     1      29.546  -1.938  30.331  1.00  0.00     0.018 A 
ATOM      7  C   UNL     1      30.434  -0.860  30.394  1.00  0.00     0.019 A 
ATOM      8  C   UNL     1      29.945   0.413  30.680  1.00  0.00     0.094 A 
ATOM      9  C   UNL     1      28.573   0.580  30.899  1.00  0.00     0.336 A 
ATOM     10  O   UNL     1      28.111   1.722  31.159  1.00  0.00    -0.246 OA
ATOM     11  O   UNL     1      27.748  -0.463  30.833  1.00  0.00    -0.423 OA
ENDROOT
BRANCH   3  12
ATOM     12  O   UNL     1      26.807  -5.114  30.162  1.00  0.00    -0.508 OA
ATOM     13  H   UNL     1      26.078  -5.153  29.460  1.00  0.00     0.293 HD
ENDBRANCH   3  12
TORSDOF 1
ENDMDL
MODEL 9
REMARK VINA RESULT:    -5.132      1.179      4.473
REMARK INTER + INTRA:          -5.282
REMARK INTER:                  -5.282
REMARK INTRA:                   0.000
REMARK UNBOUND:                 0.000
REMARK SMILES O=c1ccc2ccc(O)cc2o1
REMARK SMILES IDX 6 1 7 2 8 3 10 4 11 5 5 6 4 7 3 8 2 9 1 10 12 11 9 12
REMARK H PARENT 9 13
REMARK Flexibility Score: inf
ROOT
ATOM      1  C   UNL     1      26.974  -4.100  30.677  1.00  0.00     0.016 A 
ATOM      2  C   UNL     1      27.772  -5.248  30.715  1.00  0.00     0.047 A 
ATOM      3  C   UNL     1      29.131  -5.175  30.385  1.00  0.00     0.119 A 
ATOM      4  C   UNL     1      29.697  -3.946  30.013  1.00  0.00     0.094 A 
ATOM      5  C   UNL     1      28.906  -2.793  29.972  1.00  0.00     0.142 A 
ATOM      6  C   UNL     1      27.535  -2.870  30.306  1.00  0.00     0.018 A 
ATOM      7  C   UNL     1      26.769  -1.701  30.255  1.00  0.00     0.019 A 
ATOM      8  C   UNL     1      27.375  -0.503  29.881  1.00  0.00     0.094 A 
ATOM      9  C   UNL     1      28.738  -0.501  29.563  1.00  0.00     0.336 A 
ATOM     10  O   UNL     1      29.303   0.571  29.223  1.00  0.00    -0.246 OA
ATOM     11  O   UNL     1      29.444  -1.628  29.619  1.00  0.00    -0.423 OA
ENDROOT
BRANCH   3  12
ATOM     12  O   UNL     1      29.910  -6.329  30.428  1.00  0.00    -0.508 OA
ATOM     13  H   UNL     1      30.489  -6.548  31.230  1.00  0.00     0.293 HD
ENDBRANCH   3  12
TORSDOF 1
ENDMDL
