MODEL 1
REMARK VINA RESULT:    -3.431      0.000      0.000
REMARK INTER + INTRA:          -3.531
REMARK INTER:                  -3.531
REMARK INTRA:                   0.000
REMARK UNBOUND:                 0.000
REMARK SMILES CC1(C)[C@H]2CC[C@]1(C)[C@@H](O)C2
REMARK SMILES IDX 1 1 2 2 4 3 5 4 6 5 7 6 9 7 11 8 8 9 3 10 10 11
REMARK H PARENT 10 12
REMARK Flexibility Score: inf
ROOT
ATOM      1  C   UNL     1     137.218 147.358 140.928  1.00  0.00     0.012 C 
ATOM      2  C   UNL     1     136.106 147.635 139.868  1.00  0.00    -0.025 C 
ATOM      3  C   UNL     1     134.812 148.214 140.460  1.00  0.00    -0.002 C 
ATOM      4  C   UNL     1     135.264 149.578 141.035  1.00  0.00     0.005 C 
ATOM      5  C   UNL     1     136.326 150.044 140.018  1.00  0.00     0.010 C 
ATOM      6  C   UNL     1     136.334 148.885 138.983  1.00  0.00    -0.001 C 
ATOM      7  C   UNL     1     135.004 149.030 138.185  1.00  0.00     0.121 C 
ATOM      8  C   UNL     1     133.954 148.535 139.209  1.00  0.00     0.036 C 
ATOM      9  C   UNL     1     137.599 148.874 138.112  1.00  0.00     0.015 C 
ATOM     10  C   UNL     1     135.903 146.287 139.110  1.00  0.00     0.012 C 
ENDROOT
BRANCH   7  11
ATOM     11  O   UNL     1     135.003 148.246 137.019  1.00  0.00    -0.393 OA
ATOM     12  H   UNL     1     134.426 148.718 136.363  1.00  0.00     0.210 HD
ENDBRANCH   7  11
TORSDOF 1
ENDMDL
MODEL 2
REMARK VINA RESULT:    -3.401     16.891     18.644
REMARK INTER + INTRA:          -3.500
REMARK INTER:                  -3.500
REMARK INTRA:                   0.000
REMARK UNBOUND:                 0.000
REMARK SMILES CC1(C)[C@H]2CC[C@]1(C)[C@@H](O)C2
REMARK SMILES IDX 1 1 2 2 4 3 5 4 6 5 7 6 9 7 11 8 8 9 3 10 10 11
REMARK H PARENT 10 12
REMARK Flexibility Score: inf
ROOT
ATOM      1  C   UNL     1     144.398 133.994 140.989  1.00  0.00     0.012 C 
ATOM      2  C   UNL     1     145.502 133.776 139.907  1.00  0.00    -0.025 C 
ATOM      3  C   UNL     1     146.822 133.225 140.467  1.00  0.00    -0.002 C 
ATOM      4  C   UNL     1     146.422 131.835 141.017  1.00  0.00     0.005 C 
ATOM      5  C   UNL     1     145.360 131.359 140.004  1.00  0.00     0.010 C 
ATOM      6  C   UNL     1     145.300 132.540 138.996  1.00  0.00    -0.001 C 
ATOM      7  C   UNL     1     146.622 132.456 138.177  1.00  0.00     0.121 C 
ATOM      8  C   UNL     1     147.671 132.960 139.197  1.00  0.00     0.036 C 
ATOM      9  C   UNL     1     144.023 132.532 138.144  1.00  0.00     0.015 C 
ATOM     10  C   UNL     1     145.652 135.147 139.178  1.00  0.00     0.012 C 
ENDROOT
BRANCH   7  11
ATOM     11  O   UNL     1     146.582 133.266 137.029  1.00  0.00    -0.393 OA
ATOM     12  H   UNL     1     147.354 133.886 137.094  1.00  0.00     0.210 HD
ENDBRANCH   7  11
TORSDOF 1
ENDMDL
MODEL 3
REMARK VINA RESULT:    -3.392     11.691     13.150
REMARK INTER + INTRA:          -3.491
REMARK INTER:                  -3.491
REMARK INTRA:                   0.000
REMARK UNBOUND:                 0.000
REMARK SMILES CC1(C)[C@H]2CC[C@]1(C)[C@@H](O)C2
REMARK SMILES IDX 1 1 2 2 4 3 5 4 6 5 7 6 9 7 11 8 8 9 3 10 10 11
REMARK H PARENT 10 12
REMARK Flexibility Score: inf
ROOT
ATOM      1  C   UNL     1     147.454 144.214 140.877  1.00  0.00     0.012 C 
ATOM      2  C   UNL     1     147.698 145.345 139.829  1.00  0.00    -0.025 C 
ATOM      3  C   UNL     1     148.271 146.638 140.430  1.00  0.00    -0.002 C 
ATOM      4  C   UNL     1     149.651 146.195 140.974  1.00  0.00     0.005 C 
ATOM      5  C   UNL     1     150.112 145.154 139.933  1.00  0.00     0.010 C 
ATOM      6  C   UNL     1     148.935 145.146 138.918  1.00  0.00    -0.001 C 
ATOM      7  C   UNL     1     149.048 146.489 138.138  1.00  0.00     0.121 C 
ATOM      8  C   UNL     1     148.559 147.518 139.186  1.00  0.00     0.036 C 
ATOM      9  C   UNL     1     148.924 143.894 138.029  1.00  0.00     0.015 C 
ATOM     10  C   UNL     1     146.334 145.542 139.098  1.00  0.00     0.012 C 
ENDROOT
BRANCH   7  11
ATOM     11  O   UNL     1     148.244 146.497 136.985  1.00  0.00    -0.393 OA
ATOM     12  H   UNL     1     148.665 145.868 136.344  1.00  0.00     0.210 HD
ENDBRANCH   7  11
TORSDOF 1
ENDMDL
MODEL 4
REMARK VINA RESULT:    -3.391     11.609     13.066
REMARK INTER + INTRA:          -3.490
REMARK INTER:                  -3.490
REMARK INTRA:                   0.000
REMARK UNBOUND:                 0.000
REMARK SMILES CC1(C)[C@H]2CC[C@]1(C)[C@@H](O)C2
REMARK SMILES IDX 1 1 2 2 4 3 5 4 6 5 7 6 9 7 11 8 8 9 3 10 10 11
REMARK H PARENT 10 12
REMARK Flexibility Score: inf
ROOT
ATOM      1  C   UNL     1     134.218 137.232 140.907  1.00  0.00     0.012 C 
ATOM      2  C   UNL     1     133.941 136.115 139.852  1.00  0.00    -0.025 C 
ATOM      3  C   UNL     1     133.340 134.832 140.447  1.00  0.00    -0.002 C 
ATOM      4  C   UNL     1     131.975 135.304 141.002  1.00  0.00     0.005 C 
ATOM      5  C   UNL     1     131.532 136.363 139.972  1.00  0.00     0.010 C 
ATOM      6  C   UNL     1     132.703 136.351 138.950  1.00  0.00    -0.001 C 
ATOM      7  C   UNL     1     132.553 135.016 138.161  1.00  0.00     0.121 C 
ATOM      8  C   UNL     1     133.024 133.968 139.198  1.00  0.00     0.036 C 
ATOM      9  C   UNL     1     132.739 137.609 138.070  1.00  0.00     0.015 C 
ATOM     10  C   UNL     1     135.295 135.891 139.112  1.00  0.00     0.012 C 
ENDROOT
BRANCH   7  11
ATOM     11  O   UNL     1     133.350 134.998 137.004  1.00  0.00    -0.393 OA
ATOM     12  H   UNL     1     134.244 134.669 137.283  1.00  0.00     0.210 HD
ENDBRANCH   7  11
TORSDOF 1
ENDMDL
MODEL 5
REMARK VINA RESULT:    -3.222     11.932     13.312
REMARK INTER + INTRA:          -3.316
REMARK INTER:                  -3.316
REMARK INTRA:                   0.000
REMARK UNBOUND:                 0.000
REMARK SMILES CC1(C)[C@H]2CC[C@]1(C)[C@@H](O)C2
REMARK SMILES IDX 1 1 2 2 4 3 5 4 6 5 7 6 9 7 11 8 8 9 3 10 10 11
REMARK H PARENT 10 12
REMARK Flexibility Score: inf
ROOT
ATOM      1  C   UNL     1     133.645 134.912 141.598  1.00  0.00     0.012 C 
ATOM      2  C   UNL     1     133.106 134.813 140.137  1.00  0.00    -0.025 C 
ATOM      3  C   UNL     1     131.613 135.152 140.000  1.00  0.00    -0.002 C 
ATOM      4  C   UNL     1     131.545 136.638 140.427  1.00  0.00     0.005 C 
ATOM      5  C   UNL     1     132.869 137.212 139.882  1.00  0.00     0.010 C 
ATOM      6  C   UNL     1     133.519 135.975 139.200  1.00  0.00    -0.001 C 
ATOM      7  C   UNL     1     132.689 135.729 137.905  1.00  0.00     0.121 C 
ATOM      8  C   UNL     1     131.376 135.131 138.468  1.00  0.00     0.036 C 
ATOM      9  C   UNL     1     135.027 136.149 138.965  1.00  0.00     0.015 C 
ATOM     10  C   UNL     1     133.472 133.378 139.650  1.00  0.00     0.012 C 
ENDROOT
BRANCH   7  11
ATOM     11  O   UNL     1     133.333 134.839 137.029  1.00  0.00    -0.393 OA
ATOM     12  H   UNL     1     132.620 134.406 136.493  1.00  0.00     0.210 HD
ENDBRANCH   7  11
TORSDOF 1
ENDMDL
MODEL 6
REMARK VINA RESULT:    -3.130     16.845     18.567
REMARK INTER + INTRA:          -3.221
REMARK INTER:                  -3.221
REMARK INTRA:                   0.000
REMARK UNBOUND:                 0.000
REMARK SMILES CC1(C)[C@H]2CC[C@]1(C)[C@@H](O)C2
REMARK SMILES IDX 1 1 2 2 4 3 5 4 6 5 7 6 9 7 11 8 8 9 3 10 10 11
REMARK H PARENT 10 12
REMARK Flexibility Score: inf
ROOT
ATOM      1  C   UNL     1     144.021 133.232 141.098  1.00  0.00     0.012 C 
ATOM      2  C   UNL     1     145.495 133.114 140.597  1.00  0.00    -0.025 C 
ATOM      3  C   UNL     1     145.842 131.742 139.999  1.00  0.00    -0.002 C 
ATOM      4  C   UNL     1     144.915 131.650 138.762  1.00  0.00     0.005 C 
ATOM      5  C   UNL     1     144.876 133.105 138.253  1.00  0.00     0.010 C 
ATOM      6  C   UNL     1     145.799 133.842 139.264  1.00  0.00    -0.001 C 
ATOM      7  C   UNL     1     147.248 133.390 138.910  1.00  0.00     0.121 C 
ATOM      8  C   UNL     1     147.278 131.939 139.449  1.00  0.00     0.036 C 
ATOM      9  C   UNL     1     145.590 135.363 139.262  1.00  0.00     0.015 C 
ATOM     10  C   UNL     1     146.385 133.513 141.813  1.00  0.00     0.012 C 
ENDROOT
BRANCH   7  11
ATOM     11  O   UNL     1     148.216 134.197 139.532  1.00  0.00    -0.393 OA
ATOM     12  H   UNL     1     147.759 135.040 139.786  1.00  0.00     0.210 HD
ENDBRANCH   7  11
TORSDOF 1
ENDMDL
MODEL 7
REMARK VINA RESULT:    -3.129      1.319      2.283
REMARK INTER + INTRA:          -3.221
REMARK INTER:                  -3.221
REMARK INTRA:                   0.000
REMARK UNBOUND:                 0.000
REMARK SMILES CC1(C)[C@H]2CC[C@]1(C)[C@@H](O)C2
REMARK SMILES IDX 1 1 2 2 4 3 5 4 6 5 7 6 9 7 11 8 8 9 3 10 10 11
REMARK H PARENT 10 12
REMARK Flexibility Score: inf
ROOT
ATOM      1  C   UNL     1     137.676 148.065 141.044  1.00  0.00     0.012 C 
ATOM      2  C   UNL     1     136.210 148.268 140.548  1.00  0.00    -0.025 C 
ATOM      3  C   UNL     1     135.948 149.650 139.930  1.00  0.00    -0.002 C 
ATOM      4  C   UNL     1     136.871 149.663 138.687  1.00  0.00     0.005 C 
ATOM      5  C   UNL     1     136.815 148.201 138.202  1.00  0.00     0.010 C 
ATOM      6  C   UNL     1     135.853 147.540 139.229  1.00  0.00    -0.001 C 
ATOM      7  C   UNL     1     134.433 148.076 138.875  1.00  0.00     0.121 C 
ATOM      8  C   UNL     1     134.498 149.535 139.390  1.00  0.00     0.036 C 
ATOM      9  C   UNL     1     135.965 146.009 139.251  1.00  0.00     0.015 C 
ATOM     10  C   UNL     1     135.304 147.946 141.775  1.00  0.00     0.012 C 
ENDROOT
BRANCH   7  11
ATOM     11  O   UNL     1     133.420 147.343 139.514  1.00  0.00    -0.393 OA
ATOM     12  H   UNL     1     132.609 147.431 138.949  1.00  0.00     0.210 HD
ENDBRANCH   7  11
TORSDOF 1
ENDMDL
MODEL 8
REMARK VINA RESULT:    -3.108     11.412     12.981
REMARK INTER + INTRA:          -3.199
REMARK INTER:                  -3.199
REMARK INTRA:                   0.000
REMARK UNBOUND:                 0.000
REMARK SMILES CC1(C)[C@H]2CC[C@]1(C)[C@@H](O)C2
REMARK SMILES IDX 1 1 2 2 4 3 5 4 6 5 7 6 9 7 11 8 8 9 3 10 10 11
REMARK H PARENT 10 12
REMARK Flexibility Score: inf
ROOT
ATOM      1  C   UNL     1     146.328 141.763 140.655  1.00  0.00     0.012 C 
ATOM      2  C   UNL     1     147.281 142.712 139.863  1.00  0.00    -0.025 C 
ATOM      3  C   UNL     1     148.137 141.995 138.807  1.00  0.00    -0.002 C 
ATOM      4  C   UNL     1     147.086 141.447 137.812  1.00  0.00     0.005 C 
ATOM      5  C   UNL     1     146.009 142.551 137.806  1.00  0.00     0.010 C 
ATOM      6  C   UNL     1     146.593 143.598 138.795  1.00  0.00    -0.001 C 
ATOM      7  C   UNL     1     147.780 144.268 138.040  1.00  0.00     0.121 C 
ATOM      8  C   UNL     1     148.858 143.157 138.077  1.00  0.00     0.036 C 
ATOM      9  C   UNL     1     145.535 144.582 139.314  1.00  0.00     0.015 C 
ATOM     10  C   UNL     1     148.116 143.465 140.943  1.00  0.00     0.012 C 
ENDROOT
BRANCH   7  11
ATOM     11  O   UNL     1     148.217 145.439 138.681  1.00  0.00    -0.393 OA
ATOM     12  H   UNL     1     147.930 146.197 138.109  1.00  0.00     0.210 HD
ENDBRANCH   7  11
TORSDOF 1
ENDMDL
MODEL 9
REMARK VINA RESULT:    -3.103     11.444     13.052
REMARK INTER + INTRA:          -3.194
REMARK INTER:                  -3.194
REMARK INTRA:                   0.000
REMARK UNBOUND:                 0.000
REMARK SMILES CC1(C)[C@H]2CC[C@]1(C)[C@@H](O)C2
REMARK SMILES IDX 1 1 2 2 4 3 5 4 6 5 7 6 9 7 11 8 8 9 3 10 10 11
REMARK H PARENT 10 12
REMARK Flexibility Score: inf
ROOT
ATOM      1  C   UNL     1     148.057 143.731 140.906  1.00  0.00     0.012 C 
ATOM      2  C   UNL     1     148.260 145.204 140.431  1.00  0.00    -0.025 C 
ATOM      3  C   UNL     1     149.642 145.475 139.816  1.00  0.00    -0.002 C 
ATOM      4  C   UNL     1     149.654 144.571 138.560  1.00  0.00     0.005 C 
ATOM      5  C   UNL     1     148.191 144.634 138.077  1.00  0.00     0.010 C 
ATOM      6  C   UNL     1     147.532 145.581 139.118  1.00  0.00    -0.001 C 
ATOM      7  C   UNL     1     148.069 147.005 138.784  1.00  0.00     0.121 C 
ATOM      8  C   UNL     1     149.527 146.932 139.298  1.00  0.00     0.036 C 
ATOM      9  C   UNL     1     146.000 145.469 139.139  1.00  0.00     0.015 C 
ATOM     10  C   UNL     1     147.939 146.093 141.672  1.00  0.00     0.012 C 
ENDROOT
BRANCH   7  11
ATOM     11  O   UNL     1     147.336 148.010 139.439  1.00  0.00    -0.393 OA
ATOM     12  H   UNL     1     146.674 148.349 138.781  1.00  0.00     0.210 HD
ENDBRANCH   7  11
TORSDOF 1
ENDMDL
