MODEL 1
REMARK VINA RESULT:    -5.469      0.000      0.000
REMARK INTER + INTRA:         -10.299
REMARK INTER:                  -8.506
REMARK INTRA:                  -1.793
REMARK UNBOUND:                -1.793
REMARK SMILES COc1cc(CNC(=O)CCCCC=CC(C)C)ccc1O
REMARK SMILES IDX 11 1 12 2 13 3 14 4 15 5 16 6 17 7 18 8 10 9 8 10 9 11 7 12
REMARK SMILES IDX 6 14 5 15 4 16 19 17 3 18 20 19 21 20 2 21 1 22 22 23
REMARK H PARENT 7 13 22 24
REMARK Flexibility Score: inf
ROOT
ATOM      1  C   UNL     1     -16.083 -17.195 -23.702  1.00  0.00     0.010 C 
ENDROOT
BRANCH   1   2
ATOM      2  C   UNL     1     -16.649 -15.828 -23.291  1.00  0.00     0.005 C 
BRANCH   2   3
ATOM      3  C   UNL     1     -15.634 -14.712 -23.562  1.00  0.00     0.027 C 
BRANCH   3   4
ATOM      4  C   UNL     1     -16.320 -13.390 -23.757  1.00  0.00    -0.031 C 
ATOM      5  C   UNL     1     -17.572 -13.315 -24.240  1.00  0.00    -0.028 C 
BRANCH   5   6
ATOM      6  C   UNL     1     -18.282 -12.003 -24.483  1.00  0.00     0.005 C 
ATOM      7  C   UNL     1     -19.802 -12.158 -24.364  1.00  0.00     0.012 C 
ATOM      8  C   UNL     1     -17.761 -10.904 -23.551  1.00  0.00     0.012 C 
ENDBRANCH   5   6
ENDBRANCH   3   4
ENDBRANCH   2   3
ENDBRANCH   1   2
BRANCH   1   9
ATOM      9  C   UNL     1     -15.462 -17.173 -25.106  1.00  0.00     0.100 C 
BRANCH   9  10
ATOM     10  C   UNL     1     -16.500 -16.933 -26.163  1.00  0.00     0.220 C 
ATOM     11  O   UNL     1     -17.380 -17.811 -26.375  1.00  0.00    -0.275 OA
ATOM     12  N   UNL     1     -16.465 -15.734 -26.948  1.00  0.00    -0.352 N 
ATOM     13  H   UNL     1     -15.732 -15.020 -26.743  1.00  0.00     0.163 HD
BRANCH  12  14
ATOM     14  C   UNL     1     -17.275 -15.550 -28.149  1.00  0.00     0.151 C 
BRANCH  14  15
ATOM     15  C   UNL     1     -17.957 -14.211 -28.102  1.00  0.00    -0.025 A 
ATOM     16  C   UNL     1     -17.193 -13.035 -28.074  1.00  0.00     0.056 A 
ATOM     17  C   UNL     1     -19.356 -14.124 -28.130  1.00  0.00     0.009 A 
ATOM     18  C   UNL     1     -17.820 -11.773 -28.025  1.00  0.00     0.160 A 
ATOM     19  C   UNL     1     -19.984 -12.877 -28.083  1.00  0.00     0.050 A 
ATOM     20  C   UNL     1     -19.225 -11.704 -28.021  1.00  0.00     0.157 A 
BRANCH  18  21
ATOM     21  O   UNL     1     -17.082 -10.579 -27.975  1.00  0.00    -0.493 OA
ATOM     22  C   UNL     1     -16.522  -9.927 -29.112  1.00  0.00     0.278 C 
ENDBRANCH  18  21
BRANCH  20  23
ATOM     23  O   UNL     1     -19.886 -10.477 -27.953  1.00  0.00    -0.504 OA
ATOM     24  H   UNL     1     -19.989  -9.966 -27.085  1.00  0.00     0.293 HD
ENDBRANCH  20  23
ENDBRANCH  14  15
ENDBRANCH  12  14
ENDBRANCH   9  10
ENDBRANCH   1   9
TORSDOF 10
ENDMDL
MODEL 2
REMARK VINA RESULT:    -5.464      0.820      2.087
REMARK INTER + INTRA:         -10.291
REMARK INTER:                  -8.449
REMARK INTRA:                  -1.843
REMARK UNBOUND:                -1.793
REMARK SMILES COc1cc(CNC(=O)CCCCC=CC(C)C)ccc1O
REMARK SMILES IDX 11 1 12 2 13 3 14 4 15 5 16 6 17 7 18 8 10 9 8 10 9 11 7 12
REMARK SMILES IDX 6 14 5 15 4 16 19 17 3 18 20 19 21 20 2 21 1 22 22 23
REMARK H PARENT 7 13 22 24
REMARK Flexibility Score: inf
ROOT
ATOM      1  C   UNL     1     -16.193 -17.274 -23.778  1.00  0.00     0.010 C 
ENDROOT
BRANCH   1   2
ATOM      2  C   UNL     1     -16.710 -15.901 -23.326  1.00  0.00     0.005 C 
BRANCH   2   3
ATOM      3  C   UNL     1     -15.699 -14.799 -23.660  1.00  0.00     0.027 C 
BRANCH   3   4
ATOM      4  C   UNL     1     -16.381 -13.472 -23.835  1.00  0.00    -0.031 C 
ATOM      5  C   UNL     1     -17.606 -13.381 -24.382  1.00  0.00    -0.028 C 
BRANCH   5   6
ATOM      6  C   UNL     1     -18.309 -12.062 -24.607  1.00  0.00     0.005 C 
ATOM      7  C   UNL     1     -19.817 -12.182 -24.364  1.00  0.00     0.012 C 
ATOM      8  C   UNL     1     -17.696 -10.948 -23.752  1.00  0.00     0.012 C 
ENDBRANCH   5   6
ENDBRANCH   3   4
ENDBRANCH   2   3
ENDBRANCH   1   2
BRANCH   1   9
ATOM      9  C   UNL     1     -15.564 -17.230 -25.178  1.00  0.00     0.100 C 
BRANCH   9  10
ATOM     10  C   UNL     1     -16.596 -16.976 -26.238  1.00  0.00     0.220 C 
ATOM     11  O   UNL     1     -17.503 -17.831 -26.433  1.00  0.00    -0.275 OA
ATOM     12  N   UNL     1     -16.526 -15.793 -27.044  1.00  0.00    -0.352 N 
ATOM     13  H   UNL     1     -15.771 -15.099 -26.853  1.00  0.00     0.163 HD
BRANCH  12  14
ATOM     14  C   UNL     1     -17.332 -15.606 -28.247  1.00  0.00     0.151 C 
BRANCH  14  15
ATOM     15  C   UNL     1     -18.005 -14.262 -28.203  1.00  0.00    -0.025 A 
ATOM     16  C   UNL     1     -19.398 -14.178 -28.071  1.00  0.00     0.056 A 
ATOM     17  C   UNL     1     -17.244 -13.085 -28.250  1.00  0.00     0.009 A 
ATOM     18  C   UNL     1     -20.042 -12.925 -28.035  1.00  0.00     0.160 A 
ATOM     19  C   UNL     1     -17.875 -11.839 -28.212  1.00  0.00     0.050 A 
ATOM     20  C   UNL     1     -19.267 -11.753 -28.115  1.00  0.00     0.157 A 
BRANCH  18  21
ATOM     21  O   UNL     1     -21.438 -12.809 -27.924  1.00  0.00    -0.493 OA
ATOM     22  C   UNL     1     -22.374 -13.610 -28.641  1.00  0.00     0.278 C 
ENDBRANCH  18  21
BRANCH  20  23
ATOM     23  O   UNL     1     -19.865 -10.492 -28.101  1.00  0.00    -0.504 OA
ATOM     24  H   UNL     1     -20.631 -10.264 -27.478  1.00  0.00     0.293 HD
ENDBRANCH  20  23
ENDBRANCH  14  15
ENDBRANCH  12  14
ENDBRANCH   9  10
ENDBRANCH   1   9
TORSDOF 10
ENDMDL
MODEL 3
REMARK VINA RESULT:    -5.453      2.619      5.656
REMARK INTER + INTRA:         -10.275
REMARK INTER:                  -8.937
REMARK INTRA:                  -1.338
REMARK UNBOUND:                -1.793
REMARK SMILES COc1cc(CNC(=O)CCCCC=CC(C)C)ccc1O
REMARK SMILES IDX 11 1 12 2 13 3 14 4 15 5 16 6 17 7 18 8 10 9 8 10 9 11 7 12
REMARK SMILES IDX 6 14 5 15 4 16 19 17 3 18 20 19 21 20 2 21 1 22 22 23
REMARK H PARENT 7 13 22 24
REMARK Flexibility Score: inf
ROOT
ATOM      1  C   UNL     1     -16.197 -12.276 -24.419  1.00  0.00     0.010 C 
ENDROOT
BRANCH   1   2
ATOM      2  C   UNL     1     -17.452 -11.500 -23.993  1.00  0.00     0.005 C 
BRANCH   2   3
ATOM      3  C   UNL     1     -18.721 -12.300 -24.302  1.00  0.00     0.027 C 
BRANCH   3   4
ATOM      4  C   UNL     1     -19.108 -12.166 -25.747  1.00  0.00    -0.031 C 
ATOM      5  C   UNL     1     -18.845 -13.140 -26.636  1.00  0.00    -0.028 C 
BRANCH   5   6
ATOM      6  C   UNL     1     -19.187 -13.027 -28.104  1.00  0.00     0.005 C 
ATOM      7  C   UNL     1     -17.943 -13.193 -28.983  1.00  0.00     0.012 C 
ATOM      8  C   UNL     1     -20.284 -14.019 -28.501  1.00  0.00     0.012 C 
ENDBRANCH   5   6
ENDBRANCH   3   4
ENDBRANCH   2   3
ENDBRANCH   1   2
BRANCH   1   9
ATOM      9  C   UNL     1     -15.677 -13.201 -23.310  1.00  0.00     0.100 C 
BRANCH   9  10
ATOM     10  C   UNL     1     -16.080 -14.627 -23.548  1.00  0.00     0.220 C 
ATOM     11  O   UNL     1     -17.079 -15.096 -22.939  1.00  0.00    -0.275 OA
ATOM     12  N   UNL     1     -15.311 -15.455 -24.429  1.00  0.00    -0.352 N 
ATOM     13  H   UNL     1     -14.495 -15.037 -24.928  1.00  0.00     0.163 HD
BRANCH  12  14
ATOM     14  C   UNL     1     -15.488 -16.902 -24.511  1.00  0.00     0.151 C 
BRANCH  14  15
ATOM     15  C   UNL     1     -16.109 -17.264 -25.833  1.00  0.00    -0.025 A 
ATOM     16  C   UNL     1     -15.885 -18.531 -26.390  1.00  0.00     0.056 A 
ATOM     17  C   UNL     1     -16.949 -16.358 -26.495  1.00  0.00     0.009 A 
ATOM     18  C   UNL     1     -16.456 -18.881 -27.630  1.00  0.00     0.160 A 
ATOM     19  C   UNL     1     -17.520 -16.698 -27.724  1.00  0.00     0.050 A 
ATOM     20  C   UNL     1     -17.271 -17.949 -28.298  1.00  0.00     0.157 A 
BRANCH  18  21
ATOM     21  O   UNL     1     -16.232 -20.135 -28.223  1.00  0.00    -0.493 OA
ATOM     22  C   UNL     1     -15.020 -20.875 -28.114  1.00  0.00     0.278 C 
ENDBRANCH  18  21
BRANCH  20  23
ATOM     23  O   UNL     1     -17.840 -18.247 -29.536  1.00  0.00    -0.504 OA
ATOM     24  H   UNL     1     -17.475 -17.871 -30.403  1.00  0.00     0.293 HD
ENDBRANCH  20  23
ENDBRANCH  14  15
ENDBRANCH  12  14
ENDBRANCH   9  10
ENDBRANCH   1   9
TORSDOF 10
ENDMDL
MODEL 4
REMARK VINA RESULT:    -5.324      2.115      6.012
REMARK INTER + INTRA:         -10.075
REMARK INTER:                  -8.838
REMARK INTRA:                  -1.237
REMARK UNBOUND:                -1.793
REMARK SMILES COc1cc(CNC(=O)CCCCC=CC(C)C)ccc1O
REMARK SMILES IDX 11 1 12 2 13 3 14 4 15 5 16 6 17 7 18 8 10 9 8 10 9 11 7 12
REMARK SMILES IDX 6 14 5 15 4 16 19 17 3 18 20 19 21 20 2 21 1 22 22 23
REMARK H PARENT 7 13 22 24
REMARK Flexibility Score: inf
ROOT
ATOM      1  C   UNL     1     -19.823 -11.863 -24.253  1.00  0.00     0.010 C 
ENDROOT
BRANCH   1   2
ATOM      2  C   UNL     1     -20.681 -10.640 -24.608  1.00  0.00     0.005 C 
BRANCH   2   3
ATOM      3  C   UNL     1     -21.466 -10.880 -25.902  1.00  0.00     0.027 C 
BRANCH   3   4
ATOM      4  C   UNL     1     -20.835 -11.966 -26.725  1.00  0.00    -0.031 C 
ATOM      5  C   UNL     1     -21.286 -12.264 -27.956  1.00  0.00    -0.028 C 
BRANCH   5   6
ATOM      6  C   UNL     1     -20.700 -13.373 -28.799  1.00  0.00     0.005 C 
ATOM      7  C   UNL     1     -19.296 -13.758 -28.323  1.00  0.00     0.012 C 
ATOM      8  C   UNL     1     -21.626 -14.593 -28.841  1.00  0.00     0.012 C 
ENDBRANCH   5   6
ENDBRANCH   3   4
ENDBRANCH   2   3
ENDBRANCH   1   2
BRANCH   1   9
ATOM      9  C   UNL     1     -18.438 -11.469 -23.720  1.00  0.00     0.100 C 
BRANCH   9  10
ATOM     10  C   UNL     1     -17.340 -12.147 -24.485  1.00  0.00     0.220 C 
ATOM     11  O   UNL     1     -17.298 -12.028 -25.739  1.00  0.00    -0.275 OA
ATOM     12  N   UNL     1     -16.373 -12.951 -23.798  1.00  0.00    -0.352 N 
ATOM     13  H   UNL     1     -16.426 -13.023 -22.758  1.00  0.00     0.163 HD
BRANCH  12  14
ATOM     14  C   UNL     1     -15.441 -13.836 -24.492  1.00  0.00     0.151 C 
BRANCH  14  15
ATOM     15  C   UNL     1     -16.118 -15.142 -24.804  1.00  0.00    -0.025 A 
ATOM     16  C   UNL     1     -16.593 -15.394 -26.100  1.00  0.00     0.056 A 
ATOM     17  C   UNL     1     -16.241 -16.132 -23.819  1.00  0.00     0.009 A 
ATOM     18  C   UNL     1     -17.234 -16.612 -26.404  1.00  0.00     0.160 A 
ATOM     19  C   UNL     1     -16.873 -17.342 -24.114  1.00  0.00     0.050 A 
ATOM     20  C   UNL     1     -17.378 -17.583 -25.396  1.00  0.00     0.157 A 
BRANCH  18  21
ATOM     21  O   UNL     1     -17.739 -16.885 -27.687  1.00  0.00    -0.493 OA
ATOM     22  C   UNL     1     -17.021 -17.575 -28.707  1.00  0.00     0.278 C 
ENDBRANCH  18  21
BRANCH  20  23
ATOM     23  O   UNL     1     -18.022 -18.794 -25.649  1.00  0.00    -0.504 OA
ATOM     24  H   UNL     1     -18.110 -19.174 -26.584  1.00  0.00     0.293 HD
ENDBRANCH  20  23
ENDBRANCH  14  15
ENDBRANCH  12  14
ENDBRANCH   9  10
ENDBRANCH   1   9
TORSDOF 10
ENDMDL
MODEL 5
REMARK VINA RESULT:    -5.316      2.075      4.092
REMARK INTER + INTRA:         -10.062
REMARK INTER:                  -8.623
REMARK INTRA:                  -1.439
REMARK UNBOUND:                -1.793
REMARK SMILES COc1cc(CNC(=O)CCCCC=CC(C)C)ccc1O
REMARK SMILES IDX 11 1 12 2 13 3 14 4 15 5 16 6 17 7 18 8 10 9 8 10 9 11 7 12
REMARK SMILES IDX 6 14 5 15 4 16 19 17 3 18 20 19 21 20 2 21 1 22 22 23
REMARK H PARENT 7 13 22 24
REMARK Flexibility Score: inf
ROOT
ATOM      1  C   UNL     1     -16.995 -15.754 -23.197  1.00  0.00     0.010 C 
ENDROOT
BRANCH   1   2
ATOM      2  C   UNL     1     -16.517 -17.164 -23.577  1.00  0.00     0.005 C 
BRANCH   2   3
ATOM      3  C   UNL     1     -15.455 -17.104 -24.678  1.00  0.00     0.027 C 
BRANCH   3   4
ATOM      4  C   UNL     1     -16.014 -17.559 -25.996  1.00  0.00    -0.031 C 
ATOM      5  C   UNL     1     -16.813 -16.765 -26.731  1.00  0.00    -0.028 C 
BRANCH   5   6
ATOM      6  C   UNL     1     -17.422 -17.200 -28.043  1.00  0.00     0.005 C 
ATOM      7  C   UNL     1     -16.920 -18.586 -28.462  1.00  0.00     0.012 C 
ATOM      8  C   UNL     1     -18.953 -17.157 -27.991  1.00  0.00     0.012 C 
ENDBRANCH   5   6
ENDBRANCH   3   4
ENDBRANCH   2   3
ENDBRANCH   1   2
BRANCH   1   9
ATOM      9  C   UNL     1     -15.830 -14.766 -23.040  1.00  0.00     0.100 C 
BRANCH   9  10
ATOM     10  C   UNL     1     -16.057 -13.516 -23.838  1.00  0.00     0.220 C 
ATOM     11  O   UNL     1     -15.126 -12.671 -23.938  1.00  0.00    -0.275 OA
ATOM     12  N   UNL     1     -17.331 -13.270 -24.446  1.00  0.00    -0.352 N 
ATOM     13  H   UNL     1     -18.079 -13.991 -24.355  1.00  0.00     0.163 HD
BRANCH  12  14
ATOM     14  C   UNL     1     -17.701 -11.976 -25.013  1.00  0.00     0.151 C 
BRANCH  14  15
ATOM     15  C   UNL     1     -17.685 -12.056 -26.514  1.00  0.00    -0.025 A 
ATOM     16  C   UNL     1     -17.481 -10.898 -27.277  1.00  0.00     0.056 A 
ATOM     17  C   UNL     1     -17.829 -13.292 -27.161  1.00  0.00     0.009 A 
ATOM     18  C   UNL     1     -17.469 -10.959 -28.686  1.00  0.00     0.160 A 
ATOM     19  C   UNL     1     -17.816 -13.360 -28.556  1.00  0.00     0.050 A 
ATOM     20  C   UNL     1     -17.647 -12.201 -29.321  1.00  0.00     0.157 A 
BRANCH  18  21
ATOM     21  O   UNL     1     -17.288  -9.812 -29.477  1.00  0.00    -0.493 OA
ATOM     22  C   UNL     1     -16.020  -9.294 -29.871  1.00  0.00     0.278 C 
ENDBRANCH  18  21
BRANCH  20  23
ATOM     23  O   UNL     1     -17.661 -12.304 -30.712  1.00  0.00    -0.504 OA
ATOM     24  H   UNL     1     -17.135 -13.014 -31.206  1.00  0.00     0.293 HD
ENDBRANCH  20  23
ENDBRANCH  14  15
ENDBRANCH  12  14
ENDBRANCH   9  10
ENDBRANCH   1   9
TORSDOF 10
ENDMDL
MODEL 6
REMARK VINA RESULT:    -5.278      2.090      3.922
REMARK INTER + INTRA:         -10.002
REMARK INTER:                  -8.668
REMARK INTRA:                  -1.334
REMARK UNBOUND:                -1.793
REMARK SMILES COc1cc(CNC(=O)CCCCC=CC(C)C)ccc1O
REMARK SMILES IDX 11 1 12 2 13 3 14 4 15 5 16 6 17 7 18 8 10 9 8 10 9 11 7 12
REMARK SMILES IDX 6 14 5 15 4 16 19 17 3 18 20 19 21 20 2 21 1 22 22 23
REMARK H PARENT 7 13 22 24
REMARK Flexibility Score: inf
ROOT
ATOM      1  C   UNL     1     -16.860 -15.692 -23.252  1.00  0.00     0.010 C 
ENDROOT
BRANCH   1   2
ATOM      2  C   UNL     1     -16.408 -17.148 -23.439  1.00  0.00     0.005 C 
BRANCH   2   3
ATOM      3  C   UNL     1     -15.501 -17.287 -24.665  1.00  0.00     0.027 C 
BRANCH   3   4
ATOM      4  C   UNL     1     -16.232 -16.921 -25.925  1.00  0.00    -0.031 C 
ATOM      5  C   UNL     1     -17.231 -17.683 -26.402  1.00  0.00    -0.028 C 
BRANCH   5   6
ATOM      6  C   UNL     1     -17.966 -17.367 -27.684  1.00  0.00     0.005 C 
ATOM      7  C   UNL     1     -18.297 -15.874 -27.787  1.00  0.00     0.012 C 
ATOM      8  C   UNL     1     -17.184 -17.848 -28.911  1.00  0.00     0.012 C 
ENDBRANCH   5   6
ENDBRANCH   3   4
ENDBRANCH   2   3
ENDBRANCH   1   2
BRANCH   1   9
ATOM      9  C   UNL     1     -15.674 -14.725 -23.123  1.00  0.00     0.100 C 
BRANCH   9  10
ATOM     10  C   UNL     1     -15.921 -13.447 -23.869  1.00  0.00     0.220 C 
ATOM     11  O   UNL     1     -15.054 -12.533 -23.831  1.00  0.00    -0.275 OA
ATOM     12  N   UNL     1     -17.148 -13.256 -24.585  1.00  0.00    -0.352 N 
ATOM     13  H   UNL     1     -17.843 -14.034 -24.608  1.00  0.00     0.163 HD
BRANCH  12  14
ATOM     14  C   UNL     1     -17.562 -11.960 -25.114  1.00  0.00     0.151 C 
BRANCH  14  15
ATOM     15  C   UNL     1     -18.316 -12.153 -26.401  1.00  0.00    -0.025 A 
ATOM     16  C   UNL     1     -17.638 -12.098 -27.627  1.00  0.00     0.056 A 
ATOM     17  C   UNL     1     -19.689 -12.434 -26.384  1.00  0.00     0.009 A 
ATOM     18  C   UNL     1     -18.334 -12.272 -28.840  1.00  0.00     0.160 A 
ATOM     19  C   UNL     1     -20.385 -12.609 -27.583  1.00  0.00     0.050 A 
ATOM     20  C   UNL     1     -19.718 -12.521 -28.808  1.00  0.00     0.157 A 
BRANCH  18  21
ATOM     21  O   UNL     1     -17.685 -12.201 -30.085  1.00  0.00    -0.493 OA
ATOM     22  C   UNL     1     -17.235 -10.994 -30.694  1.00  0.00     0.278 C 
ENDBRANCH  18  21
BRANCH  20  23
ATOM     23  O   UNL     1     -20.448 -12.681 -29.986  1.00  0.00    -0.504 OA
ATOM     24  H   UNL     1     -20.437 -11.990 -30.727  1.00  0.00     0.293 HD
ENDBRANCH  20  23
ENDBRANCH  14  15
ENDBRANCH  12  14
ENDBRANCH   9  10
ENDBRANCH   1   9
TORSDOF 10
ENDMDL
MODEL 7
REMARK VINA RESULT:    -5.266      2.430      4.610
REMARK INTER + INTRA:          -9.984
REMARK INTER:                  -8.578
REMARK INTRA:                  -1.406
REMARK UNBOUND:                -1.793
REMARK SMILES COc1cc(CNC(=O)CCCCC=CC(C)C)ccc1O
REMARK SMILES IDX 11 1 12 2 13 3 14 4 15 5 16 6 17 7 18 8 10 9 8 10 9 11 7 12
REMARK SMILES IDX 6 14 5 15 4 16 19 17 3 18 20 19 21 20 2 21 1 22 22 23
REMARK H PARENT 7 13 22 24
REMARK Flexibility Score: inf
ROOT
ATOM      1  C   UNL     1     -15.707 -14.727 -23.087  1.00  0.00     0.010 C 
ENDROOT
BRANCH   1   2
ATOM      2  C   UNL     1     -15.501 -15.880 -24.081  1.00  0.00     0.005 C 
BRANCH   2   3
ATOM      3  C   UNL     1     -16.632 -16.908 -23.969  1.00  0.00     0.027 C 
BRANCH   3   4
ATOM      4  C   UNL     1     -17.106 -17.341 -25.327  1.00  0.00    -0.031 C 
ATOM      5  C   UNL     1     -16.774 -16.659 -26.436  1.00  0.00    -0.028 C 
BRANCH   5   6
ATOM      6  C   UNL     1     -17.261 -17.044 -27.814  1.00  0.00     0.005 C 
ATOM      7  C   UNL     1     -16.544 -18.296 -28.333  1.00  0.00     0.012 C 
ATOM      8  C   UNL     1     -18.782 -17.224 -27.840  1.00  0.00     0.012 C 
ENDBRANCH   5   6
ENDBRANCH   3   4
ENDBRANCH   2   3
ENDBRANCH   1   2
BRANCH   1   9
ATOM      9  C   UNL     1     -15.253 -13.377 -23.658  1.00  0.00     0.100 C 
BRANCH   9  10
ATOM     10  C   UNL     1     -16.415 -12.572 -24.162  1.00  0.00     0.220 C 
ATOM     11  O   UNL     1     -16.259 -11.343 -24.395  1.00  0.00    -0.275 OA
ATOM     12  N   UNL     1     -17.696 -13.190 -24.340  1.00  0.00    -0.352 N 
ATOM     13  H   UNL     1     -17.792 -14.211 -24.149  1.00  0.00     0.163 HD
BRANCH  12  14
ATOM     14  C   UNL     1     -18.916 -12.425 -24.579  1.00  0.00     0.151 C 
BRANCH  14  15
ATOM     15  C   UNL     1     -19.354 -12.600 -26.007  1.00  0.00    -0.025 A 
ATOM     16  C   UNL     1     -20.499 -11.941 -26.476  1.00  0.00     0.056 A 
ATOM     17  C   UNL     1     -18.599 -13.385 -26.891  1.00  0.00     0.009 A 
ATOM     18  C   UNL     1     -20.923 -12.100 -27.811  1.00  0.00     0.160 A 
ATOM     19  C   UNL     1     -19.012 -13.546 -28.215  1.00  0.00     0.050 A 
ATOM     20  C   UNL     1     -20.173 -12.917 -28.677  1.00  0.00     0.157 A 
BRANCH  18  21
ATOM     21  O   UNL     1     -22.078 -11.469 -28.305  1.00  0.00    -0.493 OA
ATOM     22  C   UNL     1     -23.404 -11.958 -28.126  1.00  0.00     0.278 C 
ENDBRANCH  18  21
BRANCH  20  23
ATOM     23  O   UNL     1     -20.567 -13.117 -30.000  1.00  0.00    -0.504 OA
ATOM     24  H   UNL     1     -20.255 -13.915 -30.541  1.00  0.00     0.293 HD
ENDBRANCH  20  23
ENDBRANCH  14  15
ENDBRANCH  12  14
ENDBRANCH   9  10
ENDBRANCH   1   9
TORSDOF 10
ENDMDL
MODEL 8
REMARK VINA RESULT:    -5.213      1.762      3.762
REMARK INTER + INTRA:          -9.902
REMARK INTER:                  -7.907
REMARK INTRA:                  -1.995
REMARK UNBOUND:                -1.793
REMARK SMILES COc1cc(CNC(=O)CCCCC=CC(C)C)ccc1O
REMARK SMILES IDX 11 1 12 2 13 3 14 4 15 5 16 6 17 7 18 8 10 9 8 10 9 11 7 12
REMARK SMILES IDX 6 14 5 15 4 16 19 17 3 18 20 19 21 20 2 21 1 22 22 23
REMARK H PARENT 7 13 22 24
REMARK Flexibility Score: inf
ROOT
ATOM      1  C   UNL     1     -15.904 -17.816 -25.746  1.00  0.00     0.010 C 
ENDROOT
BRANCH   1   2
ATOM      2  C   UNL     1     -17.333 -18.039 -26.260  1.00  0.00     0.005 C 
BRANCH   2   3
ATOM      3  C   UNL     1     -17.556 -17.311 -27.590  1.00  0.00     0.027 C 
BRANCH   3   4
ATOM      4  C   UNL     1     -18.078 -15.920 -27.366  1.00  0.00    -0.031 C 
ATOM      5  C   UNL     1     -17.480 -14.850 -27.917  1.00  0.00    -0.028 C 
BRANCH   5   6
ATOM      6  C   UNL     1     -17.954 -13.434 -27.686  1.00  0.00     0.005 C 
ATOM      7  C   UNL     1     -17.223 -12.443 -28.597  1.00  0.00     0.012 C 
ATOM      8  C   UNL     1     -19.473 -13.319 -27.845  1.00  0.00     0.012 C 
ENDBRANCH   5   6
ENDBRANCH   3   4
ENDBRANCH   2   3
ENDBRANCH   1   2
BRANCH   1   9
ATOM      9  C   UNL     1     -15.874 -17.041 -24.421  1.00  0.00     0.100 C 
BRANCH   9  10
ATOM     10  C   UNL     1     -15.644 -15.575 -24.646  1.00  0.00     0.220 C 
ATOM     11  O   UNL     1     -14.801 -15.208 -25.510  1.00  0.00    -0.275 OA
ATOM     12  N   UNL     1     -16.348 -14.606 -23.859  1.00  0.00    -0.352 N 
ATOM     13  H   UNL     1     -17.047 -14.939 -23.159  1.00  0.00     0.163 HD
BRANCH  12  14
ATOM     14  C   UNL     1     -15.993 -13.190 -23.844  1.00  0.00     0.151 C 
BRANCH  14  15
ATOM     15  C   UNL     1     -17.185 -12.363 -24.239  1.00  0.00    -0.025 A 
ATOM     16  C   UNL     1     -17.003 -11.133 -24.887  1.00  0.00     0.056 A 
ATOM     17  C   UNL     1     -18.485 -12.833 -24.005  1.00  0.00     0.009 A 
ATOM     18  C   UNL     1     -18.112 -10.346 -25.258  1.00  0.00     0.160 A 
ATOM     19  C   UNL     1     -19.589 -12.059 -24.371  1.00  0.00     0.050 A 
ATOM     20  C   UNL     1     -19.410 -10.816 -24.987  1.00  0.00     0.157 A 
BRANCH  18  21
ATOM     21  O   UNL     1     -17.960  -9.099 -25.889  1.00  0.00    -0.493 OA
ATOM     22  C   UNL     1     -17.375  -8.911 -27.175  1.00  0.00     0.278 C 
ENDBRANCH  18  21
BRANCH  20  23
ATOM     23  O   UNL     1     -20.534 -10.061 -25.320  1.00  0.00    -0.504 OA
ATOM     24  H   UNL     1     -20.462  -9.138 -25.731  1.00  0.00     0.293 HD
ENDBRANCH  20  23
ENDBRANCH  14  15
ENDBRANCH  12  14
ENDBRANCH   9  10
ENDBRANCH   1   9
TORSDOF 10
ENDMDL
MODEL 9
REMARK VINA RESULT:    -5.019      2.383      4.479
REMARK INTER + INTRA:          -9.600
REMARK INTER:                  -8.503
REMARK INTRA:                  -1.097
REMARK UNBOUND:                -1.793
REMARK SMILES COc1cc(CNC(=O)CCCCC=CC(C)C)ccc1O
REMARK SMILES IDX 11 1 12 2 13 3 14 4 15 5 16 6 17 7 18 8 10 9 8 10 9 11 7 12
REMARK SMILES IDX 6 14 5 15 4 16 19 17 3 18 20 19 21 20 2 21 1 22 22 23
REMARK H PARENT 7 13 22 24
REMARK Flexibility Score: inf
ROOT
ATOM      1  C   UNL     1     -16.843 -15.673 -23.248  1.00  0.00     0.010 C 
ENDROOT
BRANCH   1   2
ATOM      2  C   UNL     1     -16.583 -17.144 -23.606  1.00  0.00     0.005 C 
BRANCH   2   3
ATOM      3  C   UNL     1     -15.529 -17.259 -24.711  1.00  0.00     0.027 C 
BRANCH   3   4
ATOM      4  C   UNL     1     -16.125 -16.976 -26.060  1.00  0.00    -0.031 C 
ATOM      5  C   UNL     1     -17.357 -17.404 -26.387  1.00  0.00    -0.028 C 
BRANCH   5   6
ATOM      6  C   UNL     1     -17.975 -17.169 -27.745  1.00  0.00     0.005 C 
ATOM      7  C   UNL     1     -18.224 -15.678 -27.998  1.00  0.00     0.012 C 
ATOM      8  C   UNL     1     -17.127 -17.787 -28.861  1.00  0.00     0.012 C 
ENDBRANCH   5   6
ENDBRANCH   3   4
ENDBRANCH   2   3
ENDBRANCH   1   2
BRANCH   1   9
ATOM      9  C   UNL     1     -15.545 -14.864 -23.123  1.00  0.00     0.100 C 
BRANCH   9  10
ATOM     10  C   UNL     1     -15.664 -13.524 -23.788  1.00  0.00     0.220 C 
ATOM     11  O   UNL     1     -14.728 -12.689 -23.665  1.00  0.00    -0.275 OA
ATOM     12  N   UNL     1     -16.848 -13.187 -24.522  1.00  0.00    -0.352 N 
ATOM     13  H   UNL     1     -17.602 -13.902 -24.616  1.00  0.00     0.163 HD
BRANCH  12  14
ATOM     14  C   UNL     1     -17.139 -11.829 -24.974  1.00  0.00     0.151 C 
BRANCH  14  15
ATOM     15  C   UNL     1     -18.601 -11.707 -25.305  1.00  0.00    -0.025 A 
ATOM     16  C   UNL     1     -19.070 -12.101 -26.566  1.00  0.00     0.056 A 
ATOM     17  C   UNL     1     -19.511 -11.242 -24.345  1.00  0.00     0.009 A 
ATOM     18  C   UNL     1     -20.437 -11.986 -26.891  1.00  0.00     0.160 A 
ATOM     19  C   UNL     1     -20.867 -11.128 -24.659  1.00  0.00     0.050 A 
ATOM     20  C   UNL     1     -21.333 -11.488 -25.927  1.00  0.00     0.157 A 
BRANCH  18  21
ATOM     21  O   UNL     1     -20.934 -12.353 -28.154  1.00  0.00    -0.493 OA
ATOM     22  C   UNL     1     -21.299 -13.680 -28.523  1.00  0.00     0.278 C 
ENDBRANCH  18  21
BRANCH  20  23
ATOM     23  O   UNL     1     -22.690 -11.341 -26.213  1.00  0.00    -0.504 OA
ATOM     24  H   UNL     1     -23.229 -12.070 -26.665  1.00  0.00     0.293 HD
ENDBRANCH  20  23
ENDBRANCH  14  15
ENDBRANCH  12  14
ENDBRANCH   9  10
ENDBRANCH   1   9
TORSDOF 10
ENDMDL
