MODEL 1
REMARK VINA RESULT:    -5.263      0.000      0.000
REMARK INTER + INTRA:          -6.879
REMARK INTER:                  -7.109
REMARK INTRA:                   0.230
REMARK UNBOUND:                 0.230
REMARK SMILES C=C1CCC=C(C)CC[C@H]2[C@H]1CC2(C)C
REMARK SMILES IDX 11 1 12 2 13 3 10 4 14 5 15 6 9 7 8 8 6 9 7 10 5 11 2 13
REMARK SMILES IDX 1 14 3 15 4 16
REMARK H PARENT
REMARK Flexibility Score: 70.00
ROOT
ATOM      1  C   UNL     1     111.746 111.087 112.559  1.00  0.00     0.018 C 
ATOM      2  C   UNL     1     111.649 111.105 114.088  1.00  0.00     0.015 C 
ATOM      3  C   UNL     1     110.135 111.342 113.999  1.00  0.00    -0.031 C 
ATOM      4  C   UNL     1     110.215 111.244 112.454  1.00  0.00     0.002 C 
ATOM      5  C   UNL     1     109.321 110.196 114.627  1.00  0.00     0.011 C 
ATOM      6  C   UNL     1     109.724 112.708 114.586  1.00  0.00     0.011 C 
ENDROOT
BRANCH   4   7
ATOM      7  C   UNL     1     109.778 112.485 111.643  1.00  0.00     0.009 C 
BRANCH   7   8
ATOM      8  C   UNL     1     110.698 112.773 110.445  1.00  0.00     0.030 C 
BRANCH   8   9
ATOM      9  C   UNL     1     110.363 111.937 109.219  1.00  0.00    -0.077 C 
ATOM     10  C   UNL     1     109.180 112.343 108.379  1.00  0.00     0.039 C 
ATOM     11  C   UNL     1     111.082 110.859 108.822  1.00  0.00    -0.028 CG0
ATOM     12  G   UNL     1     112.358 110.364 109.468  1.00  0.00     0.000 G0
ENDBRANCH   8   9
ENDBRANCH   7   8
ENDBRANCH   4   7
BRANCH   1  13
ATOM     13  C   UNL     1     112.376 109.816 112.002  1.00  0.00    -0.074 C 
ATOM     14  C   UNL     1     113.238 109.149 112.787  1.00  0.00     0.008 C 
BRANCH  13  15
ATOM     15  C   UNL     1     112.125 109.316 110.585  1.00  0.00     0.035 C 
BRANCH  15  16
ATOM     16  C   UNL     1     112.358 110.353 109.462  1.00  0.00     0.032 CG0
ATOM     17  G   UNL     1     111.086 110.862 108.818  1.00  0.00     0.000 G0
ENDBRANCH  15  16
ENDBRANCH  13  15
ENDBRANCH   1  13
TORSDOF 0
ENDMDL
MODEL 2
REMARK VINA RESULT:    -5.239      2.436      5.193
REMARK INTER + INTRA:          -6.846
REMARK INTER:                  -6.754
REMARK INTRA:                  -0.091
REMARK UNBOUND:                 0.230
REMARK SMILES C=C1CCC=C(C)CC[C@H]2[C@H]1CC2(C)C
REMARK SMILES IDX 11 1 12 2 13 3 10 4 14 5 15 6 9 7 8 8 6 9 7 10 5 11 2 13
REMARK SMILES IDX 1 14 3 15 4 16
REMARK H PARENT
REMARK Flexibility Score: 70.00
ROOT
ATOM      1  C   UNL     1     110.791 111.562 111.951  1.00  0.00     0.018 C 
ATOM      2  C   UNL     1     110.815 111.969 110.474  1.00  0.00     0.015 C 
ATOM      3  C   UNL     1     112.231 111.393 110.328  1.00  0.00    -0.031 C 
ATOM      4  C   UNL     1     112.180 110.907 111.799  1.00  0.00     0.002 C 
ATOM      5  C   UNL     1     112.293 110.232 109.319  1.00  0.00     0.011 C 
ATOM      6  C   UNL     1     113.270 112.482 109.993  1.00  0.00     0.011 C 
ENDROOT
BRANCH   4   7
ATOM      7  C   UNL     1     113.239 111.479 112.770  1.00  0.00     0.009 C 
BRANCH   7   8
ATOM      8  C   UNL     1     113.287 110.733 114.113  1.00  0.00     0.030 C 
BRANCH   8   9
ATOM      9  C   UNL     1     112.378 111.343 115.169  1.00  0.00    -0.077 C 
ATOM     10  C   UNL     1     112.897 112.509 115.971  1.00  0.00     0.039 C 
ATOM     11  C   UNL     1     111.116 110.914 115.417  1.00  0.00    -0.028 CG0
ATOM     12  G   UNL     1     110.385 109.835 114.648  1.00  0.00     0.000 G0
ENDBRANCH   8   9
ENDBRANCH   7   8
ENDBRANCH   4   7
BRANCH   1  13
ATOM     13  C   UNL     1     109.615 110.667 112.320  1.00  0.00    -0.074 C 
ATOM     14  C   UNL     1     108.859 110.183 111.319  1.00  0.00     0.008 C 
BRANCH  13  15
ATOM     15  C   UNL     1     109.222 110.359 113.759  1.00  0.00     0.035 C 
BRANCH  15  16
ATOM     16  C   UNL     1     110.362 109.831 114.662  1.00  0.00     0.032 CG0
ATOM     17  G   UNL     1     111.116 110.915 115.402  1.00  0.00     0.000 G0
ENDBRANCH  15  16
ENDBRANCH  13  15
ENDBRANCH   1  13
TORSDOF 0
ENDMDL
MODEL 3
REMARK VINA RESULT:    -5.226      2.543      4.892
REMARK INTER + INTRA:          -6.829
REMARK INTER:                  -6.786
REMARK INTRA:                  -0.043
REMARK UNBOUND:                 0.230
REMARK SMILES C=C1CCC=C(C)CC[C@H]2[C@H]1CC2(C)C
REMARK SMILES IDX 11 1 12 2 13 3 10 4 14 5 15 6 9 7 8 8 6 9 7 10 5 11 2 13
REMARK SMILES IDX 1 14 3 15 4 16
REMARK H PARENT
REMARK Flexibility Score: 70.00
ROOT
ATOM      1  C   UNL     1     111.412 110.794 112.176  1.00  0.00     0.018 C 
ATOM      2  C   UNL     1     111.299 110.343 110.716  1.00  0.00     0.015 C 
ATOM      3  C   UNL     1     109.891 110.948 110.627  1.00  0.00    -0.031 C 
ATOM      4  C   UNL     1     110.032 111.477 112.077  1.00  0.00     0.002 C 
ATOM      5  C   UNL     1     109.800 112.080 109.587  1.00  0.00     0.011 C 
ATOM      6  C   UNL     1     108.810 109.875 110.383  1.00  0.00     0.011 C 
ENDROOT
BRANCH   4   7
ATOM      7  C   UNL     1     109.014 110.961 113.121  1.00  0.00     0.009 C 
BRANCH   7   8
ATOM      8  C   UNL     1     109.109 111.696 114.467  1.00  0.00     0.030 C 
BRANCH   8   9
ATOM      9  C   UNL     1     110.065 111.030 115.446  1.00  0.00    -0.077 C 
ATOM     10  C   UNL     1     109.564 109.854 116.244  1.00  0.00     0.039 C 
ATOM     11  C   UNL     1     111.351 111.419 115.627  1.00  0.00    -0.028 CG0
ATOM     12  G   UNL     1     112.063 112.501 114.845  1.00  0.00     0.000 G0
ENDBRANCH   8   9
ENDBRANCH   7   8
ENDBRANCH   4   7
BRANCH   1  13
ATOM     13  C   UNL     1     112.626 111.671 112.453  1.00  0.00    -0.074 C 
ATOM     14  C   UNL     1     113.304 112.153 111.397  1.00  0.00     0.008 C 
BRANCH  13  15
ATOM     15  C   UNL     1     113.139 111.963 113.857  1.00  0.00     0.035 C 
BRANCH  15  16
ATOM     16  C   UNL     1     112.085 112.506 114.851  1.00  0.00     0.032 CG0
ATOM     17  G   UNL     1     111.347 111.430 115.618  1.00  0.00     0.000 G0
ENDBRANCH  15  16
ENDBRANCH  13  15
ENDBRANCH   1  13
TORSDOF 0
ENDMDL
MODEL 4
REMARK VINA RESULT:    -5.203      1.010      3.247
REMARK INTER + INTRA:          -6.797
REMARK INTER:                  -6.963
REMARK INTRA:                   0.166
REMARK UNBOUND:                 0.230
REMARK SMILES C=C1CCC=C(C)CC[C@H]2[C@H]1CC2(C)C
REMARK SMILES IDX 11 1 12 2 13 3 10 4 14 5 15 6 9 7 8 8 6 9 7 10 5 11 2 13
REMARK SMILES IDX 1 14 3 15 4 16
REMARK H PARENT
REMARK Flexibility Score: 70.00
ROOT
ATOM      1  C   UNL     1     110.497 111.067 112.651  1.00  0.00     0.018 C 
ATOM      2  C   UNL     1     110.611 111.049 114.179  1.00  0.00     0.015 C 
ATOM      3  C   UNL     1     112.130 110.854 114.073  1.00  0.00    -0.031 C 
ATOM      4  C   UNL     1     112.031 110.953 112.529  1.00  0.00     0.002 C 
ATOM      5  C   UNL     1     112.919 112.021 114.695  1.00  0.00     0.011 C 
ATOM      6  C   UNL     1     112.585 109.499 114.653  1.00  0.00     0.011 C 
ENDROOT
BRANCH   4   7
ATOM      7  C   UNL     1     112.493 109.725 111.711  1.00  0.00     0.009 C 
BRANCH   7   8
ATOM      8  C   UNL     1     111.696 109.536 110.410  1.00  0.00     0.030 C 
BRANCH   8   9
ATOM      9  C   UNL     1     112.119 110.491 109.305  1.00  0.00    -0.077 C 
ATOM     10  C   UNL     1     113.374 110.178 108.532  1.00  0.00     0.039 C 
ATOM     11  C   UNL     1     111.420 111.599 108.956  1.00  0.00    -0.028 CG0
ATOM     12  G   UNL     1     110.087 112.020 109.538  1.00  0.00     0.000 G0
ENDBRANCH   8   9
ENDBRANCH   7   8
ENDBRANCH   4   7
BRANCH   1  13
ATOM     13  C   UNL     1     109.827 112.321 112.103  1.00  0.00    -0.074 C 
ATOM     14  C   UNL     1     108.811 112.846 112.808  1.00  0.00     0.008 C 
BRANCH  13  15
ATOM     15  C   UNL     1     110.209 112.954 110.771  1.00  0.00     0.035 C 
BRANCH  15  16
ATOM     16  C   UNL     1     110.093 112.029 109.536  1.00  0.00     0.032 CG0
ATOM     17  G   UNL     1     111.424 111.603 108.957  1.00  0.00     0.000 G0
ENDBRANCH  15  16
ENDBRANCH  13  15
ENDBRANCH   1  13
TORSDOF 0
ENDMDL
MODEL 5
REMARK VINA RESULT:    -5.152      2.539      5.650
REMARK INTER + INTRA:          -6.729
REMARK INTER:                  -6.700
REMARK INTRA:                  -0.029
REMARK UNBOUND:                 0.230
REMARK SMILES C=C1CCC=C(C)CC[C@H]2[C@H]1CC2(C)C
REMARK SMILES IDX 11 1 12 2 13 3 10 4 14 5 15 6 9 7 8 8 6 9 7 10 5 11 2 13
REMARK SMILES IDX 1 14 3 15 4 16
REMARK H PARENT
REMARK Flexibility Score: 70.00
ROOT
ATOM      1  C   UNL     1     111.447 110.699 107.155  1.00  0.00     0.018 C 
ATOM      2  C   UNL     1     111.369 110.199 105.709  1.00  0.00     0.015 C 
ATOM      3  C   UNL     1     109.940 110.748 105.585  1.00  0.00    -0.031 C 
ATOM      4  C   UNL     1     110.044 111.327 107.019  1.00  0.00     0.002 C 
ATOM      5  C   UNL     1     109.821 111.842 104.508  1.00  0.00     0.011 C 
ATOM      6  C   UNL     1     108.903 109.628 105.364  1.00  0.00     0.011 C 
ENDROOT
BRANCH   4   7
ATOM      7  C   UNL     1     109.034 110.807 108.067  1.00  0.00     0.009 C 
BRANCH   7   8
ATOM      8  C   UNL     1     109.080 111.592 109.388  1.00  0.00     0.030 C 
BRANCH   8   9
ATOM      9  C   UNL     1     110.046 110.999 110.403  1.00  0.00    -0.077 C 
ATOM     10  C   UNL     1     109.580 109.833 111.236  1.00  0.00     0.039 C 
ATOM     11  C   UNL     1     111.314 111.443 110.586  1.00  0.00    -0.028 CG0
ATOM     12  G   UNL     1     111.995 112.523 109.775  1.00  0.00     0.000 G0
ENDBRANCH   8   9
ENDBRANCH   7   8
ENDBRANCH   4   7
BRANCH   1  13
ATOM     13  C   UNL     1     112.625 111.629 107.417  1.00  0.00    -0.074 C 
ATOM     14  C   UNL     1     113.306 112.091 106.355  1.00  0.00     0.008 C 
BRANCH  13  15
ATOM     15  C   UNL     1     113.100 111.995 108.817  1.00  0.00     0.035 C 
BRANCH  15  16
ATOM     16  C   UNL     1     112.007 112.527 109.773  1.00  0.00     0.032 CG0
ATOM     17  G   UNL     1     111.314 111.450 110.580  1.00  0.00     0.000 G0
ENDBRANCH  15  16
ENDBRANCH  13  15
ENDBRANCH   1  13
TORSDOF 0
ENDMDL
MODEL 6
REMARK VINA RESULT:    -5.146      3.441      4.910
REMARK INTER + INTRA:          -6.721
REMARK INTER:                  -6.923
REMARK INTRA:                   0.202
REMARK UNBOUND:                 0.230
REMARK SMILES C=C1CCC=C(C)CC[C@H]2[C@H]1CC2(C)C
REMARK SMILES IDX 11 1 12 2 13 3 10 4 14 5 15 6 9 7 8 8 6 9 7 10 5 11 2 13
REMARK SMILES IDX 1 14 3 15 4 16
REMARK H PARENT
REMARK Flexibility Score: 70.00
ROOT
ATOM      1  C   UNL     1     111.707 111.177 117.490  1.00  0.00     0.018 C 
ATOM      2  C   UNL     1     111.573 111.177 119.016  1.00  0.00     0.015 C 
ATOM      3  C   UNL     1     110.061 111.419 118.892  1.00  0.00    -0.031 C 
ATOM      4  C   UNL     1     110.179 111.339 117.349  1.00  0.00     0.002 C 
ATOM      5  C   UNL     1     109.229 110.268 119.487  1.00  0.00     0.011 C 
ATOM      6  C   UNL     1     109.640 112.779 119.485  1.00  0.00     0.011 C 
ENDROOT
BRANCH   4   7
ATOM      7  C   UNL     1     109.766 112.591 116.542  1.00  0.00     0.009 C 
BRANCH   7   8
ATOM      8  C   UNL     1     110.667 112.845 115.322  1.00  0.00     0.030 C 
BRANCH   8   9
ATOM      9  C   UNL     1     110.307 111.983 114.122  1.00  0.00    -0.077 C 
ATOM     10  C   UNL     1     109.115 112.381 113.289  1.00  0.00     0.039 C 
ATOM     11  C   UNL     1     111.010 110.888 113.741  1.00  0.00    -0.028 CG0
ATOM     12  G   UNL     1     112.290 110.395 114.381  1.00  0.00     0.000 G0
ENDBRANCH   8   9
ENDBRANCH   7   8
ENDBRANCH   4   7
BRANCH   1  13
ATOM     13  C   UNL     1     112.347 109.911 116.933  1.00  0.00    -0.074 C 
ATOM     14  C   UNL     1     113.249 109.276 117.700  1.00  0.00     0.008 C 
BRANCH  13  15
ATOM     15  C   UNL     1     112.062 109.381 115.533  1.00  0.00     0.035 C 
BRANCH  15  16
ATOM     16  C   UNL     1     112.295 110.386 114.381  1.00  0.00     0.032 CG0
ATOM     17  G   UNL     1     111.022 110.896 113.739  1.00  0.00     0.000 G0
ENDBRANCH  15  16
ENDBRANCH  13  15
ENDBRANCH   1  13
TORSDOF 0
ENDMDL
MODEL 7
REMARK VINA RESULT:    -5.128      3.585      5.898
REMARK INTER + INTRA:          -6.696
REMARK INTER:                  -6.968
REMARK INTRA:                   0.272
REMARK UNBOUND:                 0.230
REMARK SMILES C=C1CCC=C(C)CC[C@H]2[C@H]1CC2(C)C
REMARK SMILES IDX 11 1 12 2 13 3 10 4 14 5 15 6 9 7 8 8 6 9 7 10 5 11 2 13
REMARK SMILES IDX 1 14 3 15 4 16
REMARK H PARENT
REMARK Flexibility Score: 70.00
ROOT
ATOM      1  C   UNL     1     110.525 111.128 117.453  1.00  0.00     0.018 C 
ATOM      2  C   UNL     1     110.541 111.046 118.982  1.00  0.00     0.015 C 
ATOM      3  C   UNL     1     112.068 110.887 118.968  1.00  0.00    -0.031 C 
ATOM      4  C   UNL     1     112.066 111.051 117.427  1.00  0.00     0.002 C 
ATOM      5  C   UNL     1     112.788 112.042 119.689  1.00  0.00     0.011 C 
ATOM      6  C   UNL     1     112.516 109.518 119.519  1.00  0.00     0.011 C 
ENDROOT
BRANCH   4   7
ATOM      7  C   UNL     1     112.608 109.870 116.589  1.00  0.00     0.009 C 
BRANCH   7   8
ATOM      8  C   UNL     1     111.723 109.536 115.378  1.00  0.00     0.030 C 
BRANCH   8   9
ATOM      9  C   UNL     1     112.024 110.397 114.161  1.00  0.00    -0.077 C 
ATOM     10  C   UNL     1     113.248 110.075 113.343  1.00  0.00     0.039 C 
ATOM     11  C   UNL     1     111.241 111.426 113.753  1.00  0.00    -0.028 CG0
ATOM     12  G   UNL     1     109.923 111.832 114.376  1.00  0.00     0.000 G0
ENDBRANCH   8   9
ENDBRANCH   7   8
ENDBRANCH   4   7
BRANCH   1  13
ATOM     13  C   UNL     1     109.863 112.390 116.915  1.00  0.00    -0.074 C 
ATOM     14  C   UNL     1     109.007 113.040 117.722  1.00  0.00     0.008 C 
BRANCH  13  15
ATOM     15  C   UNL     1     110.075 112.901 115.496  1.00  0.00     0.035 C 
BRANCH  15  16
ATOM     16  C   UNL     1     109.923 111.843 114.378  1.00  0.00     0.032 CG0
ATOM     17  G   UNL     1     111.233 111.414 113.752  1.00  0.00     0.000 G0
ENDBRANCH  15  16
ENDBRANCH  13  15
ENDBRANCH   1  13
TORSDOF 0
ENDMDL
MODEL 8
REMARK VINA RESULT:    -5.098      3.449      4.903
REMARK INTER + INTRA:          -6.656
REMARK INTER:                  -6.947
REMARK INTRA:                   0.291
REMARK UNBOUND:                 0.230
REMARK SMILES C=C1CCC=C(C)CC[C@H]2[C@H]1CC2(C)C
REMARK SMILES IDX 11 1 12 2 13 3 10 4 14 5 15 6 9 7 8 8 6 9 7 10 5 11 2 13
REMARK SMILES IDX 1 14 3 15 4 16
REMARK H PARENT
REMARK Flexibility Score: 70.00
ROOT
ATOM      1  C   UNL     1     111.679 111.148 107.618  1.00  0.00     0.018 C 
ATOM      2  C   UNL     1     111.655 111.165 109.150  1.00  0.00     0.015 C 
ATOM      3  C   UNL     1     110.121 111.234 109.134  1.00  0.00    -0.031 C 
ATOM      4  C   UNL     1     110.137 111.136 107.587  1.00  0.00     0.002 C 
ATOM      5  C   UNL     1     109.469 110.010 109.802  1.00  0.00     0.011 C 
ATOM      6  C   UNL     1     109.591 112.551 109.739  1.00  0.00     0.011 C 
ENDROOT
BRANCH   4   7
ATOM      7  C   UNL     1     109.528 112.317 106.797  1.00  0.00     0.009 C 
BRANCH   7   8
ATOM      8  C   UNL     1     110.420 112.787 105.637  1.00  0.00     0.030 C 
BRANCH   8   9
ATOM      9  C   UNL     1     110.205 111.993 104.357  1.00  0.00    -0.077 C 
ATOM     10  C   UNL     1     108.981 112.291 103.530  1.00  0.00     0.039 C 
ATOM     11  C   UNL     1     111.063 111.047 103.902  1.00  0.00    -0.028 CG0
ATOM     12  G   UNL     1     112.391 110.686 104.532  1.00  0.00     0.000 G0
ENDBRANCH   8   9
ENDBRANCH   7   8
ENDBRANCH   4   7
BRANCH   1  13
ATOM     13  C   UNL     1     112.417 109.951 107.032  1.00  0.00    -0.074 C 
ATOM     14  C   UNL     1     113.259 109.280 107.836  1.00  0.00     0.008 C 
BRANCH  13  15
ATOM     15  C   UNL     1     112.293 109.531 105.573  1.00  0.00     0.035 C 
BRANCH  15  16
ATOM     16  C   UNL     1     112.388 110.678 104.540  1.00  0.00     0.032 CG0
ATOM     17  G   UNL     1     111.064 111.052 103.909  1.00  0.00     0.000 G0
ENDBRANCH  15  16
ENDBRANCH  13  15
ENDBRANCH   1  13
TORSDOF 0
ENDMDL
MODEL 9
REMARK VINA RESULT:    -5.089      3.427      5.725
REMARK INTER + INTRA:          -6.644
REMARK INTER:                  -6.835
REMARK INTRA:                   0.191
REMARK UNBOUND:                 0.230
REMARK SMILES C=C1CCC=C(C)CC[C@H]2[C@H]1CC2(C)C
REMARK SMILES IDX 11 1 12 2 13 3 10 4 14 5 15 6 9 7 8 8 6 9 7 10 5 11 2 13
REMARK SMILES IDX 1 14 3 15 4 16
REMARK H PARENT
REMARK Flexibility Score: 70.00
ROOT
ATOM      1  C   UNL     1     110.440 111.103 107.840  1.00  0.00     0.018 C 
ATOM      2  C   UNL     1     110.541 111.099 109.369  1.00  0.00     0.015 C 
ATOM      3  C   UNL     1     112.063 110.912 109.278  1.00  0.00    -0.031 C 
ATOM      4  C   UNL     1     111.976 110.995 107.732  1.00  0.00     0.002 C 
ATOM      5  C   UNL     1     112.840 112.089 109.895  1.00  0.00     0.011 C 
ATOM      6  C   UNL     1     112.520 109.565 109.874  1.00  0.00     0.011 C 
ENDROOT
BRANCH   4   7
ATOM      7  C   UNL     1     112.451 109.763 106.930  1.00  0.00     0.009 C 
BRANCH   7   8
ATOM      8  C   UNL     1     111.622 109.517 105.659  1.00  0.00     0.030 C 
BRANCH   8   9
ATOM      9  C   UNL     1     112.013 110.427 104.504  1.00  0.00    -0.077 C 
ATOM     10  C   UNL     1     113.253 110.089 103.717  1.00  0.00     0.039 C 
ATOM     11  C   UNL     1     111.298 111.515 104.125  1.00  0.00    -0.028 CG0
ATOM     12  G   UNL     1     109.976 111.951 104.718  1.00  0.00     0.000 G0
ENDBRANCH   8   9
ENDBRANCH   7   8
ENDBRANCH   4   7
BRANCH   1  13
ATOM     13  C   UNL     1     109.768 112.347 107.275  1.00  0.00    -0.074 C 
ATOM     14  C   UNL     1     108.786 112.911 107.997  1.00  0.00     0.008 C 
BRANCH  13  15
ATOM     15  C   UNL     1     110.112 112.931 105.910  1.00  0.00     0.035 C 
BRANCH  15  16
ATOM     16  C   UNL     1     109.980 111.956 104.716  1.00  0.00     0.032 CG0
ATOM     17  G   UNL     1     111.304 111.519 104.128  1.00  0.00     0.000 G0
ENDBRANCH  15  16
ENDBRANCH  13  15
ENDBRANCH   1  13
TORSDOF 0
ENDMDL
