MODEL 1
REMARK VINA RESULT:    -3.205      0.000      0.000
REMARK INTER + INTRA:          -3.993
REMARK INTER:                  -3.767
REMARK INTRA:                  -0.226
REMARK UNBOUND:                -0.226
REMARK SMILES [NH3+][C@@H](CO)C(=O)[O-]
REMARK SMILES IDX 3 1 2 2 1 3 5 7 6 8 7 9 4 10
REMARK H PARENT 1 4 1 5 1 6 4 11
REMARK Flexibility Score: inf
ROOT
ATOM      1  C   UNL     1     132.110 108.097 116.266  1.00  0.00     0.227 C 
ENDROOT
BRANCH   1   2
ATOM      2  C   UNL     1     132.628 108.856 115.031  1.00  0.00     0.253 C 
BRANCH   2   3
ATOM      3  N   UNL     1     131.517 109.351 114.209  1.00  0.00    -0.348 N 
ATOM      4  H   UNL     1     131.848 110.126 113.591  1.00  0.00     0.345 HD
ATOM      5  H   UNL     1     130.737 109.702 114.812  1.00  0.00     0.345 HD
ATOM      6  H   UNL     1     131.157 108.580 113.598  1.00  0.00     0.345 HD
ENDBRANCH   2   3
BRANCH   2   7
ATOM      7  C   UNL     1     133.520 107.960 114.215  1.00  0.00     0.102 C 
ATOM      8  O   UNL     1     133.570 106.725 114.460  1.00  0.00    -0.544 OA
ATOM      9  O   UNL     1     134.282 108.483 113.177  1.00  0.00    -0.544 OA
ENDBRANCH   2   7
ENDBRANCH   1   2
BRANCH   1  10
ATOM     10  O   UNL     1     133.148 107.867 117.180  1.00  0.00    -0.390 OA
ATOM     11  H   UNL     1     133.114 108.609 117.840  1.00  0.00     0.210 HD
ENDBRANCH   1  10
TORSDOF 4
ENDMDL
MODEL 2
REMARK VINA RESULT:    -3.196      1.408      3.281
REMARK INTER + INTRA:          -3.982
REMARK INTER:                  -3.768
REMARK INTRA:                  -0.214
REMARK UNBOUND:                -0.226
REMARK SMILES [NH3+][C@@H](CO)C(=O)[O-]
REMARK SMILES IDX 3 1 2 2 1 3 5 7 6 8 7 9 4 10
REMARK H PARENT 1 4 1 5 1 6 4 11
REMARK Flexibility Score: inf
ROOT
ATOM      1  C   UNL     1     133.085 107.929 115.054  1.00  0.00     0.227 C 
ENDROOT
BRANCH   1   2
ATOM      2  C   UNL     1     131.876 107.973 116.008  1.00  0.00     0.253 C 
BRANCH   2   3
ATOM      3  N   UNL     1     131.427 109.353 116.228  1.00  0.00    -0.348 N 
ATOM      4  H   UNL     1     130.692 109.604 115.529  1.00  0.00     0.345 HD
ATOM      5  H   UNL     1     132.226 110.022 116.140  1.00  0.00     0.345 HD
ATOM      6  H   UNL     1     131.009 109.441 117.184  1.00  0.00     0.345 HD
ENDBRANCH   2   3
BRANCH   2   7
ATOM      7  C   UNL     1     132.234 107.326 117.318  1.00  0.00     0.102 C 
ATOM      8  O   UNL     1     133.280 106.631 117.416  1.00  0.00    -0.544 OA
ATOM      9  O   UNL     1     131.422 107.501 118.433  1.00  0.00    -0.544 OA
ENDBRANCH   2   7
ENDBRANCH   1   2
BRANCH   1  10
ATOM     10  O   UNL     1     133.133 106.707 114.368  1.00  0.00    -0.390 OA
ATOM     11  H   UNL     1     132.191 106.438 114.202  1.00  0.00     0.210 HD
ENDBRANCH   1  10
TORSDOF 4
ENDMDL
MODEL 3
REMARK VINA RESULT:    -3.145     10.450     10.779
REMARK INTER + INTRA:          -3.922
REMARK INTER:                  -3.526
REMARK INTRA:                  -0.397
REMARK UNBOUND:                -0.226
REMARK SMILES [NH3+][C@@H](CO)C(=O)[O-]
REMARK SMILES IDX 3 1 2 2 1 3 5 7 6 8 7 9 4 10
REMARK H PARENT 1 4 1 5 1 6 4 11
REMARK Flexibility Score: inf
ROOT
ATOM      1  C   UNL     1     124.478 111.219 109.962  1.00  0.00     0.227 C 
ENDROOT
BRANCH   1   2
ATOM      2  C   UNL     1     123.245 111.846 110.639  1.00  0.00     0.253 C 
BRANCH   2   3
ATOM      3  N   UNL     1     122.968 113.183 110.098  1.00  0.00    -0.348 N 
ATOM      4  H   UNL     1     122.226 113.123 109.363  1.00  0.00     0.345 HD
ATOM      5  H   UNL     1     123.831 113.601 109.680  1.00  0.00     0.345 HD
ATOM      6  H   UNL     1     122.618 113.808 110.861  1.00  0.00     0.345 HD
ENDBRANCH   2   3
BRANCH   2   7
ATOM      7  C   UNL     1     123.459 111.921 112.126  1.00  0.00     0.102 C 
ATOM      8  O   UNL     1     122.989 111.026 112.879  1.00  0.00    -0.544 OA
ATOM      9  O   UNL     1     124.188 112.967 112.680  1.00  0.00    -0.544 OA
ENDBRANCH   2   7
ENDBRANCH   1   2
BRANCH   1  10
ATOM     10  O   UNL     1     125.321 110.629 110.915  1.00  0.00    -0.390 OA
ATOM     11  H   UNL     1     125.950 110.045 110.414  1.00  0.00     0.210 HD
ENDBRANCH   1  10
TORSDOF 4
ENDMDL
MODEL 4
REMARK VINA RESULT:    -3.129      2.027      3.187
REMARK INTER + INTRA:          -3.904
REMARK INTER:                  -3.888
REMARK INTRA:                  -0.017
REMARK UNBOUND:                -0.226
REMARK SMILES [NH3+][C@@H](CO)C(=O)[O-]
REMARK SMILES IDX 3 1 2 2 1 3 5 7 6 8 7 9 4 10
REMARK H PARENT 1 4 1 5 1 6 4 11
REMARK Flexibility Score: inf
ROOT
ATOM      1  C   UNL     1     131.891 109.254 115.080  1.00  0.00     0.227 C 
ENDROOT
BRANCH   1   2
ATOM      2  C   UNL     1     132.841 108.109 115.477  1.00  0.00     0.253 C 
BRANCH   2   3
ATOM      3  N   UNL     1     132.889 107.077 114.434  1.00  0.00    -0.348 N 
ATOM      4  H   UNL     1     132.256 107.339 113.644  1.00  0.00     0.345 HD
ATOM      5  H   UNL     1     132.593 106.149 114.816  1.00  0.00     0.345 HD
ATOM      6  H   UNL     1     133.862 106.998 114.056  1.00  0.00     0.345 HD
ENDBRANCH   2   3
BRANCH   2   7
ATOM      7  C   UNL     1     132.402 107.508 116.784  1.00  0.00     0.102 C 
ATOM      8  O   UNL     1     133.141 106.679 117.379  1.00  0.00    -0.544 OA
ATOM      9  O   UNL     1     131.188 107.874 117.353  1.00  0.00    -0.544 OA
ENDBRANCH   2   7
ENDBRANCH   1   2
BRANCH   1  10
ATOM     10  O   UNL     1     131.596 109.204 113.710  1.00  0.00    -0.390 OA
ATOM     11  H   UNL     1     131.482 110.144 113.410  1.00  0.00     0.210 HD
ENDBRANCH   1  10
TORSDOF 4
ENDMDL
MODEL 5
REMARK VINA RESULT:    -3.112     10.480     11.371
REMARK INTER + INTRA:          -3.884
REMARK INTER:                  -3.485
REMARK INTRA:                  -0.399
REMARK UNBOUND:                -0.226
REMARK SMILES [NH3+][C@@H](CO)C(=O)[O-]
REMARK SMILES IDX 3 1 2 2 1 3 5 7 6 8 7 9 4 10
REMARK H PARENT 1 4 1 5 1 6 4 11
REMARK Flexibility Score: inf
ROOT
ATOM      1  C   UNL     1     131.630 109.436 124.497  1.00  0.00     0.227 C 
ENDROOT
BRANCH   1   2
ATOM      2  C   UNL     1     132.442 108.333 125.201  1.00  0.00     0.253 C 
BRANCH   2   3
ATOM      3  N   UNL     1     132.157 107.015 124.622  1.00  0.00    -0.348 N 
ATOM      4  H   UNL     1     131.673 107.127 123.702  1.00  0.00     0.345 HD
ATOM      5  H   UNL     1     131.550 106.451 125.261  1.00  0.00     0.345 HD
ATOM      6  H   UNL     1     133.053 106.499 124.456  1.00  0.00     0.345 HD
ENDBRANCH   2   3
BRANCH   2   7
ATOM      7  C   UNL     1     132.135 108.332 126.674  1.00  0.00     0.102 C 
ATOM      8  O   UNL     1     132.922 108.890 127.485  1.00  0.00    -0.544 OA
ATOM      9  O   UNL     1     130.976 107.730 127.150  1.00  0.00    -0.544 OA
ENDBRANCH   2   7
ENDBRANCH   1   2
BRANCH   1  10
ATOM     10  O   UNL     1     130.876 110.168 125.426  1.00  0.00    -0.390 OA
ATOM     11  H   UNL     1     130.988 109.714 126.303  1.00  0.00     0.210 HD
ENDBRANCH   1  10
TORSDOF 4
ENDMDL
MODEL 6
REMARK VINA RESULT:    -3.038     10.396     10.811
REMARK INTER + INTRA:          -3.797
REMARK INTER:                  -3.459
REMARK INTRA:                  -0.338
REMARK UNBOUND:                -0.226
REMARK SMILES [NH3+][C@@H](CO)C(=O)[O-]
REMARK SMILES IDX 3 1 2 2 1 3 5 7 6 8 7 9 4 10
REMARK H PARENT 1 4 1 5 1 6 4 11
REMARK Flexibility Score: inf
ROOT
ATOM      1  C   UNL     1     124.283 112.032 110.047  1.00  0.00     0.227 C 
ENDROOT
BRANCH   1   2
ATOM      2  C   UNL     1     124.742 111.971 111.516  1.00  0.00     0.253 C 
BRANCH   2   3
ATOM      3  N   UNL     1     125.564 110.781 111.764  1.00  0.00    -0.348 N 
ATOM      4  H   UNL     1     125.383 110.062 111.026  1.00  0.00     0.345 HD
ATOM      5  H   UNL     1     125.349 110.369 112.701  1.00  0.00     0.345 HD
ATOM      6  H   UNL     1     126.578 111.036 111.726  1.00  0.00     0.345 HD
ENDBRANCH   2   3
BRANCH   2   7
ATOM      7  C   UNL     1     123.544 111.975 112.428  1.00  0.00     0.102 C 
ATOM      8  O   UNL     1     123.023 113.066 112.782  1.00  0.00    -0.544 OA
ATOM      9  O   UNL     1     122.996 110.778 112.872  1.00  0.00    -0.544 OA
ENDBRANCH   2   7
ENDBRANCH   1   2
BRANCH   1  10
ATOM     10  O   UNL     1     122.993 111.499 109.907  1.00  0.00    -0.390 OA
ATOM     11  H   UNL     1     122.770 111.547 108.940  1.00  0.00     0.210 HD
ENDBRANCH   1  10
TORSDOF 4
ENDMDL
MODEL 7
REMARK VINA RESULT:    -3.027     12.319     12.961
REMARK INTER + INTRA:          -3.784
REMARK INTER:                  -3.554
REMARK INTRA:                  -0.230
REMARK UNBOUND:                -0.226
REMARK SMILES [NH3+][C@@H](CO)C(=O)[O-]
REMARK SMILES IDX 3 1 2 2 1 3 5 7 6 8 7 9 4 10
REMARK H PARENT 1 4 1 5 1 6 4 11
REMARK Flexibility Score: inf
ROOT
ATOM      1  C   UNL     1     130.506 107.632 128.499  1.00  0.00     0.227 C 
ENDROOT
BRANCH   1   2
ATOM      2  C   UNL     1     130.842 109.089 128.130  1.00  0.00     0.253 C 
BRANCH   2   3
ATOM      3  N   UNL     1     129.954 109.584 127.072  1.00  0.00    -0.348 N 
ATOM      4  H   UNL     1     129.118 110.049 127.496  1.00  0.00     0.345 HD
ATOM      5  H   UNL     1     129.634 108.800 126.457  1.00  0.00     0.345 HD
ATOM      6  H   UNL     1     130.457 110.294 126.490  1.00  0.00     0.345 HD
ENDBRANCH   2   3
BRANCH   2   7
ATOM      7  C   UNL     1     132.279 109.188 127.693  1.00  0.00     0.102 C 
ATOM      8  O   UNL     1     133.117 109.796 128.410  1.00  0.00    -0.544 OA
ATOM      9  O   UNL     1     132.694 108.598 126.505  1.00  0.00    -0.544 OA
ENDBRANCH   2   7
ENDBRANCH   1   2
BRANCH   1  10
ATOM     10  O   UNL     1     130.513 106.816 127.358  1.00  0.00    -0.390 OA
ATOM     11  H   UNL     1     131.390 106.349 127.349  1.00  0.00     0.210 HD
ENDBRANCH   1  10
TORSDOF 4
ENDMDL
MODEL 8
REMARK VINA RESULT:    -3.023     11.771     12.441
REMARK INTER + INTRA:          -3.779
REMARK INTER:                  -3.382
REMARK INTRA:                  -0.397
REMARK UNBOUND:                -0.226
REMARK SMILES [NH3+][C@@H](CO)C(=O)[O-]
REMARK SMILES IDX 3 1 2 2 1 3 5 7 6 8 7 9 4 10
REMARK H PARENT 1 4 1 5 1 6 4 11
REMARK Flexibility Score: inf
ROOT
ATOM      1  C   UNL     1     130.111 109.521 127.128  1.00  0.00     0.227 C 
ENDROOT
BRANCH   1   2
ATOM      2  C   UNL     1     130.877 108.205 126.896  1.00  0.00     0.253 C 
BRANCH   2   3
ATOM      3  N   UNL     1     130.582 107.229 127.952  1.00  0.00    -0.348 N 
ATOM      4  H   UNL     1     130.734 107.663 128.891  1.00  0.00     0.345 HD
ATOM      5  H   UNL     1     131.195 106.386 127.861  1.00  0.00     0.345 HD
ATOM      6  H   UNL     1     129.580 106.932 127.890  1.00  0.00     0.345 HD
ENDBRANCH   2   3
BRANCH   2   7
ATOM      7  C   UNL     1     132.356 108.477 126.836  1.00  0.00     0.102 C 
ATOM      8  O   UNL     1     132.949 108.511 125.725  1.00  0.00    -0.544 OA
ATOM      9  O   UNL     1     133.075 108.707 128.003  1.00  0.00    -0.544 OA
ENDBRANCH   2   7
ENDBRANCH   1   2
BRANCH   1  10
ATOM     10  O   UNL     1     130.961 110.625 126.970  1.00  0.00    -0.390 OA
ATOM     11  H   UNL     1     131.280 110.605 126.030  1.00  0.00     0.210 HD
ENDBRANCH   1  10
TORSDOF 4
ENDMDL
MODEL 9
REMARK VINA RESULT:    -3.010      2.625      3.191
REMARK INTER + INTRA:          -3.764
REMARK INTER:                  -3.747
REMARK INTRA:                  -0.017
REMARK UNBOUND:                -0.226
REMARK SMILES [NH3+][C@@H](CO)C(=O)[O-]
REMARK SMILES IDX 3 1 2 2 1 3 5 7 6 8 7 9 4 10
REMARK H PARENT 1 4 1 5 1 6 4 11
REMARK Flexibility Score: inf
ROOT
ATOM      1  C   UNL     1     130.742 107.635 118.156  1.00  0.00     0.227 C 
ENDROOT
BRANCH   1   2
ATOM      2  C   UNL     1     131.823 107.335 117.101  1.00  0.00     0.253 C 
BRANCH   2   3
ATOM      3  N   UNL     1     133.121 107.073 117.735  1.00  0.00    -0.348 N 
ATOM      4  H   UNL     1     133.152 107.518 118.681  1.00  0.00     0.345 HD
ATOM      5  H   UNL     1     133.903 107.453 117.152  1.00  0.00     0.345 HD
ATOM      6  H   UNL     1     133.254 106.042 117.857  1.00  0.00     0.345 HD
ENDBRANCH   2   3
BRANCH   2   7
ATOM      7  C   UNL     1     131.936 108.489 116.141  1.00  0.00     0.102 C 
ATOM      8  O   UNL     1     131.150 109.469 116.235  1.00  0.00    -0.544 OA
ATOM      9  O   UNL     1     132.916 108.489 115.156  1.00  0.00    -0.544 OA
ENDBRANCH   2   7
ENDBRANCH   1   2
BRANCH   1  10
ATOM     10  O   UNL     1     131.171 107.245 119.432  1.00  0.00    -0.390 OA
ATOM     11  H   UNL     1     130.555 106.525 119.731  1.00  0.00     0.210 HD
ENDBRANCH   1  10
TORSDOF 4
ENDMDL
