MODEL 1
REMARK VINA RESULT:    -3.836      0.000      0.000
REMARK INTER + INTRA:          -8.879
REMARK INTER:                  -6.976
REMARK INTRA:                  -1.903
REMARK UNBOUND:                -1.903
REMARK SMILES CCCCCCCCCCCCCCCC(=O)[O-]
REMARK SMILES IDX 9 1 10 2 11 3 12 4 13 5 14 6 15 7 16 8 17 9 18 10 8 11 7 12
REMARK SMILES IDX 6 13 5 14 4 15 3 16 2 17 1 18
REMARK H PARENT
REMARK Flexibility Score: inf
ROOT
ATOM      1  C   UNL     1     -40.386 -48.882  34.522  1.00  0.00     0.000 C 
ENDROOT
BRANCH   1   2
ATOM      2  C   UNL     1     -41.304 -47.671  34.293  1.00  0.00     0.000 C 
BRANCH   2   3
ATOM      3  C   UNL     1     -42.778 -47.980  34.608  1.00  0.00     0.000 C 
BRANCH   3   4
ATOM      4  C   UNL     1     -43.072 -49.489  34.623  1.00  0.00     0.000 C 
BRANCH   4   5
ATOM      5  C   UNL     1     -43.918 -49.917  35.835  1.00  0.00     0.000 C 
BRANCH   5   6
ATOM      6  C   UNL     1     -44.535 -48.720  36.582  1.00  0.00     0.006 C 
BRANCH   6   7
ATOM      7  C   UNL     1     -46.006 -48.918  36.981  1.00  0.00     0.053 C 
BRANCH   7   8
ATOM      8  C   UNL     1     -46.195 -50.128  37.843  1.00  0.00     0.041 C 
ATOM      9  O   UNL     1     -45.694 -50.169  38.998  1.00  0.00    -0.550 OA
ATOM     10  O   UNL     1     -46.896 -51.225  37.358  1.00  0.00    -0.550 OA
ENDBRANCH   7   8
ENDBRANCH   6   7
ENDBRANCH   5   6
ENDBRANCH   4   5
ENDBRANCH   3   4
ENDBRANCH   2   3
ENDBRANCH   1   2
BRANCH   1  11
ATOM     11  C   UNL     1     -39.185 -48.555  35.422  1.00  0.00     0.000 C 
BRANCH  11  12
ATOM     12  C   UNL     1     -39.604 -47.642  36.582  1.00  0.00    -0.000 C 
BRANCH  12  13
ATOM     13  C   UNL     1     -40.400 -48.420  37.636  1.00  0.00    -0.000 C 
BRANCH  13  14
ATOM     14  C   UNL     1     -41.568 -47.584  38.173  1.00  0.00    -0.000 C 
BRANCH  14  15
ATOM     15  C   UNL     1     -42.176 -48.230  39.427  1.00  0.00    -0.000 C 
BRANCH  15  16
ATOM     16  C   UNL     1     -43.414 -47.477  39.948  1.00  0.00    -0.000 C 
BRANCH  16  17
ATOM     17  C   UNL     1     -43.248 -45.950  40.050  1.00  0.00    -0.003 C 
ATOM     18  C   UNL     1     -42.470 -45.516  41.292  1.00  0.00     0.004 C 
ENDBRANCH  16  17
ENDBRANCH  15  16
ENDBRANCH  14  15
ENDBRANCH  13  14
ENDBRANCH  12  13
ENDBRANCH  11  12
ENDBRANCH   1  11
TORSDOF 14
ENDMDL
MODEL 2
REMARK VINA RESULT:    -3.829      2.506      6.323
REMARK INTER + INTRA:          -8.866
REMARK INTER:                  -6.974
REMARK INTRA:                  -1.892
REMARK UNBOUND:                -1.903
REMARK SMILES CCCCCCCCCCCCCCCC(=O)[O-]
REMARK SMILES IDX 9 1 10 2 11 3 12 4 13 5 14 6 15 7 16 8 17 9 18 10 8 11 7 12
REMARK SMILES IDX 6 13 5 14 4 15 3 16 2 17 1 18
REMARK H PARENT
REMARK Flexibility Score: inf
ROOT
ATOM      1  C   UNL     1     -45.418 -51.692  39.632  1.00  0.00     0.000 C 
ENDROOT
BRANCH   1   2
ATOM      2  C   UNL     1     -45.451 -50.415  40.489  1.00  0.00     0.000 C 
BRANCH   2   3
ATOM      3  C   UNL     1     -44.059 -49.783  40.658  1.00  0.00     0.000 C 
BRANCH   3   4
ATOM      4  C   UNL     1     -43.104 -50.148  39.511  1.00  0.00     0.000 C 
BRANCH   4   5
ATOM      5  C   UNL     1     -42.241 -48.957  39.055  1.00  0.00     0.000 C 
BRANCH   5   6
ATOM      6  C   UNL     1     -42.989 -47.613  39.142  1.00  0.00     0.006 C 
BRANCH   6   7
ATOM      7  C   UNL     1     -42.128 -46.446  39.650  1.00  0.00     0.053 C 
BRANCH   7   8
ATOM      8  C   UNL     1     -42.918 -45.495  40.497  1.00  0.00     0.041 C 
ATOM      9  O   UNL     1     -44.064 -45.123  40.133  1.00  0.00    -0.550 OA
ATOM     10  O   UNL     1     -42.372 -44.994  41.672  1.00  0.00    -0.550 OA
ENDBRANCH   7   8
ENDBRANCH   6   7
ENDBRANCH   5   6
ENDBRANCH   4   5
ENDBRANCH   3   4
ENDBRANCH   2   3
ENDBRANCH   1   2
BRANCH   1  11
ATOM     11  C   UNL     1     -46.660 -51.840  38.740  1.00  0.00     0.000 C 
BRANCH  11  12
ATOM     12  C   UNL     1     -46.344 -51.446  37.292  1.00  0.00    -0.000 C 
BRANCH  12  13
ATOM     13  C   UNL     1     -46.758 -49.996  37.012  1.00  0.00    -0.000 C 
BRANCH  13  14
ATOM     14  C   UNL     1     -45.539 -49.066  37.009  1.00  0.00    -0.000 C 
BRANCH  14  15
ATOM     15  C   UNL     1     -44.473 -49.560  36.019  1.00  0.00    -0.000 C 
BRANCH  15  16
ATOM     16  C   UNL     1     -43.484 -48.456  35.603  1.00  0.00    -0.000 C 
BRANCH  16  17
ATOM     17  C   UNL     1     -42.426 -48.890  34.572  1.00  0.00    -0.003 C 
ATOM     18  C   UNL     1     -41.257 -47.911  34.468  1.00  0.00     0.004 C 
ENDBRANCH  16  17
ENDBRANCH  15  16
ENDBRANCH  14  15
ENDBRANCH  13  14
ENDBRANCH  12  13
ENDBRANCH  11  12
ENDBRANCH   1  11
TORSDOF 14
ENDMDL
MODEL 3
REMARK VINA RESULT:    -3.788      3.269      6.738
REMARK INTER + INTRA:          -8.791
REMARK INTER:                  -6.867
REMARK INTRA:                  -1.924
REMARK UNBOUND:                -1.903
REMARK SMILES CCCCCCCCCCCCCCCC(=O)[O-]
REMARK SMILES IDX 9 1 10 2 11 3 12 4 13 5 14 6 15 7 16 8 17 9 18 10 8 11 7 12
REMARK SMILES IDX 6 13 5 14 4 15 3 16 2 17 1 18
REMARK H PARENT
REMARK Flexibility Score: inf
ROOT
ATOM      1  C   UNL     1     -45.321 -51.196  39.134  1.00  0.00     0.000 C 
ENDROOT
BRANCH   1   2
ATOM      2  C   UNL     1     -45.295 -50.168  40.278  1.00  0.00     0.000 C 
BRANCH   2   3
ATOM      3  C   UNL     1     -43.910 -49.525  40.462  1.00  0.00     0.000 C 
BRANCH   3   4
ATOM      4  C   UNL     1     -43.784 -48.179  39.729  1.00  0.00     0.000 C 
BRANCH   4   5
ATOM      5  C   UNL     1     -43.034 -48.299  38.391  1.00  0.00     0.000 C 
BRANCH   5   6
ATOM      6  C   UNL     1     -43.983 -48.318  37.178  1.00  0.00     0.006 C 
BRANCH   6   7
ATOM      7  C   UNL     1     -43.267 -48.279  35.818  1.00  0.00     0.053 C 
BRANCH   7   8
ATOM      8  C   UNL     1     -43.480 -49.540  35.037  1.00  0.00     0.041 C 
ATOM      9  O   UNL     1     -43.322 -49.546  33.788  1.00  0.00    -0.550 OA
ATOM     10  O   UNL     1     -43.884 -50.700  35.686  1.00  0.00    -0.550 OA
ENDBRANCH   7   8
ENDBRANCH   6   7
ENDBRANCH   5   6
ENDBRANCH   4   5
ENDBRANCH   3   4
ENDBRANCH   2   3
ENDBRANCH   1   2
BRANCH   1  11
ATOM     11  C   UNL     1     -46.523 -51.010  38.196  1.00  0.00     0.000 C 
BRANCH  11  12
ATOM     12  C   UNL     1     -46.702 -52.233  37.287  1.00  0.00    -0.000 C 
BRANCH  12  13
ATOM     13  C   UNL     1     -47.851 -53.121  37.778  1.00  0.00    -0.000 C 
BRANCH  13  14
ATOM     14  C   UNL     1     -47.320 -54.322  38.569  1.00  0.00    -0.000 C 
BRANCH  14  15
ATOM     15  C   UNL     1     -47.599 -54.159  40.071  1.00  0.00    -0.000 C 
BRANCH  15  16
ATOM     16  C   UNL     1     -48.719 -53.145  40.366  1.00  0.00    -0.000 C 
BRANCH  16  17
ATOM     17  C   UNL     1     -48.358 -52.064  41.400  1.00  0.00    -0.003 C 
ATOM     18  C   UNL     1     -47.346 -52.545  42.440  1.00  0.00     0.004 C 
ENDBRANCH  16  17
ENDBRANCH  15  16
ENDBRANCH  14  15
ENDBRANCH  13  14
ENDBRANCH  12  13
ENDBRANCH  11  12
ENDBRANCH   1  11
TORSDOF 14
ENDMDL
MODEL 4
REMARK VINA RESULT:    -3.722      2.315      4.527
REMARK INTER + INTRA:          -8.671
REMARK INTER:                  -6.309
REMARK INTRA:                  -2.361
REMARK UNBOUND:                -1.903
REMARK SMILES CCCCCCCCCCCCCCCC(=O)[O-]
REMARK SMILES IDX 9 1 10 2 11 3 12 4 13 5 14 6 15 7 16 8 17 9 18 10 8 11 7 12
REMARK SMILES IDX 6 13 5 14 4 15 3 16 2 17 1 18
REMARK H PARENT
REMARK Flexibility Score: inf
ROOT
ATOM      1  C   UNL     1     -39.722 -48.588  36.969  1.00  0.00     0.000 C 
ENDROOT
BRANCH   1   2
ATOM      2  C   UNL     1     -40.174 -50.030  36.680  1.00  0.00     0.000 C 
BRANCH   2   3
ATOM      3  C   UNL     1     -41.251 -50.519  37.664  1.00  0.00     0.000 C 
BRANCH   3   4
ATOM      4  C   UNL     1     -41.709 -49.415  38.631  1.00  0.00     0.000 C 
BRANCH   4   5
ATOM      5  C   UNL     1     -42.835 -49.879  39.571  1.00  0.00     0.000 C 
BRANCH   5   6
ATOM      6  C   UNL     1     -43.669 -48.708  40.124  1.00  0.00     0.006 C 
BRANCH   6   7
ATOM      7  C   UNL     1     -43.495 -47.391  39.351  1.00  0.00     0.053 C 
BRANCH   7   8
ATOM      8  C   UNL     1     -43.361 -46.216  40.271  1.00  0.00     0.041 C 
ATOM      9  O   UNL     1     -44.128 -45.224  40.149  1.00  0.00    -0.550 OA
ATOM     10  O   UNL     1     -42.368 -46.202  41.242  1.00  0.00    -0.550 OA
ENDBRANCH   7   8
ENDBRANCH   6   7
ENDBRANCH   5   6
ENDBRANCH   4   5
ENDBRANCH   3   4
ENDBRANCH   2   3
ENDBRANCH   1   2
BRANCH   1  11
ATOM     11  C   UNL     1     -40.153 -47.601  35.874  1.00  0.00     0.000 C 
BRANCH  11  12
ATOM     12  C   UNL     1     -40.664 -48.346  34.635  1.00  0.00    -0.000 C 
BRANCH  12  13
ATOM     13  C   UNL     1     -42.075 -47.882  34.255  1.00  0.00    -0.000 C 
BRANCH  13  14
ATOM     14  C   UNL     1     -43.114 -48.968  34.559  1.00  0.00    -0.000 C 
BRANCH  14  15
ATOM     15  C   UNL     1     -43.863 -48.664  35.865  1.00  0.00    -0.000 C 
BRANCH  15  16
ATOM     16  C   UNL     1     -44.747 -49.832  36.335  1.00  0.00    -0.000 C 
BRANCH  16  17
ATOM     17  C   UNL     1     -46.073 -49.416  36.997  1.00  0.00    -0.003 C 
ATOM     18  C   UNL     1     -46.439 -50.283  38.200  1.00  0.00     0.004 C 
ENDBRANCH  16  17
ENDBRANCH  15  16
ENDBRANCH  14  15
ENDBRANCH  13  14
ENDBRANCH  12  13
ENDBRANCH  11  12
ENDBRANCH   1  11
TORSDOF 14
ENDMDL
MODEL 5
REMARK VINA RESULT:    -3.711      3.074      6.585
REMARK INTER + INTRA:          -8.651
REMARK INTER:                  -6.402
REMARK INTRA:                  -2.249
REMARK UNBOUND:                -1.903
REMARK SMILES CCCCCCCCCCCCCCCC(=O)[O-]
REMARK SMILES IDX 9 1 10 2 11 3 12 4 13 5 14 6 15 7 16 8 17 9 18 10 8 11 7 12
REMARK SMILES IDX 6 13 5 14 4 15 3 16 2 17 1 18
REMARK H PARENT
REMARK Flexibility Score: inf
ROOT
ATOM      1  C   UNL     1     -44.733 -51.207  40.807  1.00  0.00     0.000 C 
ENDROOT
BRANCH   1   2
ATOM      2  C   UNL     1     -43.601 -50.358  40.205  1.00  0.00     0.000 C 
BRANCH   2   3
ATOM      3  C   UNL     1     -43.937 -48.856  40.186  1.00  0.00     0.000 C 
BRANCH   3   4
ATOM      4  C   UNL     1     -43.495 -48.171  38.883  1.00  0.00     0.000 C 
BRANCH   4   5
ATOM      5  C   UNL     1     -42.368 -48.935  38.164  1.00  0.00     0.000 C 
BRANCH   5   6
ATOM      6  C   UNL     1     -41.961 -48.278  36.831  1.00  0.00     0.006 C 
BRANCH   6   7
ATOM      7  C   UNL     1     -43.088 -48.219  35.789  1.00  0.00     0.053 C 
BRANCH   7   8
ATOM      8  C   UNL     1     -42.555 -48.174  34.389  1.00  0.00     0.041 C 
ATOM      9  O   UNL     1     -41.724 -47.288  34.056  1.00  0.00    -0.550 OA
ATOM     10  O   UNL     1     -43.001 -49.089  33.445  1.00  0.00    -0.550 OA
ENDBRANCH   7   8
ENDBRANCH   6   7
ENDBRANCH   5   6
ENDBRANCH   4   5
ENDBRANCH   3   4
ENDBRANCH   2   3
ENDBRANCH   1   2
BRANCH   1  11
ATOM     11  C   UNL     1     -46.127 -50.627  40.520  1.00  0.00     0.000 C 
BRANCH  11  12
ATOM     12  C   UNL     1     -47.190 -51.733  40.514  1.00  0.00    -0.000 C 
BRANCH  12  13
ATOM     13  C   UNL     1     -46.715 -52.950  39.711  1.00  0.00    -0.000 C 
BRANCH  13  14
ATOM     14  C   UNL     1     -47.669 -53.249  38.548  1.00  0.00    -0.000 C 
BRANCH  14  15
ATOM     15  C   UNL     1     -47.309 -52.411  37.312  1.00  0.00    -0.000 C 
BRANCH  15  16
ATOM     16  C   UNL     1     -45.790 -52.255  37.115  1.00  0.00    -0.000 C 
BRANCH  16  17
ATOM     17  C   UNL     1     -45.312 -50.810  36.885  1.00  0.00    -0.003 C 
ATOM     18  C   UNL     1     -46.436 -49.781  37.011  1.00  0.00     0.004 C 
ENDBRANCH  16  17
ENDBRANCH  15  16
ENDBRANCH  14  15
ENDBRANCH  13  14
ENDBRANCH  12  13
ENDBRANCH  11  12
ENDBRANCH   1  11
TORSDOF 14
ENDMDL
MODEL 6
REMARK VINA RESULT:    -3.678      3.320      6.320
REMARK INTER + INTRA:          -8.591
REMARK INTER:                  -6.502
REMARK INTRA:                  -2.089
REMARK UNBOUND:                -1.903
REMARK SMILES CCCCCCCCCCCCCCCC(=O)[O-]
REMARK SMILES IDX 9 1 10 2 11 3 12 4 13 5 14 6 15 7 16 8 17 9 18 10 8 11 7 12
REMARK SMILES IDX 6 13 5 14 4 15 3 16 2 17 1 18
REMARK H PARENT
REMARK Flexibility Score: inf
ROOT
ATOM      1  C   UNL     1     -44.912 -47.988  37.643  1.00  0.00     0.000 C 
ENDROOT
BRANCH   1   2
ATOM      2  C   UNL     1     -44.204 -47.734  38.984  1.00  0.00     0.000 C 
BRANCH   2   3
ATOM      3  C   UNL     1     -43.711 -49.033  39.646  1.00  0.00     0.000 C 
BRANCH   3   4
ATOM      4  C   UNL     1     -44.848 -49.818  40.321  1.00  0.00     0.000 C 
BRANCH   4   5
ATOM      5  C   UNL     1     -44.426 -51.240  40.730  1.00  0.00     0.000 C 
BRANCH   5   6
ATOM      6  C   UNL     1     -45.607 -52.089  41.236  1.00  0.00     0.006 C 
BRANCH   6   7
ATOM      7  C   UNL     1     -46.989 -51.480  40.949  1.00  0.00     0.053 C 
BRANCH   7   8
ATOM      8  C   UNL     1     -48.099 -52.334  41.482  1.00  0.00     0.041 C 
ATOM      9  O   UNL     1     -47.881 -53.142  42.423  1.00  0.00    -0.550 OA
ATOM     10  O   UNL     1     -49.365 -52.261  40.916  1.00  0.00    -0.550 OA
ENDBRANCH   7   8
ENDBRANCH   6   7
ENDBRANCH   5   6
ENDBRANCH   4   5
ENDBRANCH   3   4
ENDBRANCH   2   3
ENDBRANCH   1   2
BRANCH   1  11
ATOM     11  C   UNL     1     -44.003 -48.675  36.613  1.00  0.00     0.000 C 
BRANCH  11  12
ATOM     12  C   UNL     1     -44.628 -49.985  36.117  1.00  0.00    -0.000 C 
BRANCH  12  13
ATOM     13  C   UNL     1     -45.868 -50.351  36.941  1.00  0.00    -0.000 C 
BRANCH  13  14
ATOM     14  C   UNL     1     -45.897 -51.851  37.256  1.00  0.00    -0.000 C 
BRANCH  14  15
ATOM     15  C   UNL     1     -47.288 -52.444  36.983  1.00  0.00    -0.000 C 
BRANCH  15  16
ATOM     16  C   UNL     1     -47.709 -53.490  38.030  1.00  0.00    -0.000 C 
BRANCH  16  17
ATOM     17  C   UNL     1     -46.658 -54.576  38.320  1.00  0.00    -0.003 C 
ATOM     18  C   UNL     1     -46.938 -55.351  39.607  1.00  0.00     0.004 C 
ENDBRANCH  16  17
ENDBRANCH  15  16
ENDBRANCH  14  15
ENDBRANCH  13  14
ENDBRANCH  12  13
ENDBRANCH  11  12
ENDBRANCH   1  11
TORSDOF 14
ENDMDL
MODEL 7
REMARK VINA RESULT:    -3.669      3.110      5.406
REMARK INTER + INTRA:          -8.574
REMARK INTER:                  -6.835
REMARK INTRA:                  -1.739
REMARK UNBOUND:                -1.903
REMARK SMILES CCCCCCCCCCCCCCCC(=O)[O-]
REMARK SMILES IDX 9 1 10 2 11 3 12 4 13 5 14 6 15 7 16 8 17 9 18 10 8 11 7 12
REMARK SMILES IDX 6 13 5 14 4 15 3 16 2 17 1 18
REMARK H PARENT
REMARK Flexibility Score: inf
ROOT
ATOM      1  C   UNL     1     -46.826 -49.505  36.899  1.00  0.00     0.000 C 
ENDROOT
BRANCH   1   2
ATOM      2  C   UNL     1     -46.851 -50.639  37.938  1.00  0.00     0.000 C 
BRANCH   2   3
ATOM      3  C   UNL     1     -46.725 -52.031  37.294  1.00  0.00     0.000 C 
BRANCH   3   4
ATOM      4  C   UNL     1     -47.785 -53.017  37.811  1.00  0.00     0.000 C 
BRANCH   4   5
ATOM      5  C   UNL     1     -47.180 -54.147  38.662  1.00  0.00     0.000 C 
BRANCH   5   6
ATOM      6  C   UNL     1     -47.633 -54.092  40.133  1.00  0.00     0.006 C 
BRANCH   6   7
ATOM      7  C   UNL     1     -46.966 -52.979  40.956  1.00  0.00     0.053 C 
BRANCH   7   8
ATOM      8  C   UNL     1     -47.913 -52.368  41.944  1.00  0.00     0.041 C 
ATOM      9  O   UNL     1     -47.910 -52.749  43.144  1.00  0.00    -0.550 OA
ATOM     10  O   UNL     1     -48.821 -51.403  41.530  1.00  0.00    -0.550 OA
ENDBRANCH   7   8
ENDBRANCH   6   7
ENDBRANCH   5   6
ENDBRANCH   4   5
ENDBRANCH   3   4
ENDBRANCH   2   3
ENDBRANCH   1   2
BRANCH   1  11
ATOM     11  C   UNL     1     -45.814 -48.403  37.249  1.00  0.00     0.000 C 
BRANCH  11  12
ATOM     12  C   UNL     1     -44.428 -48.734  36.682  1.00  0.00    -0.000 C 
BRANCH  12  13
ATOM     13  C   UNL     1     -43.319 -48.293  37.646  1.00  0.00    -0.000 C 
BRANCH  13  14
ATOM     14  C   UNL     1     -43.909 -47.741  38.949  1.00  0.00    -0.000 C 
BRANCH  14  15
ATOM     15  C   UNL     1     -42.884 -47.814  40.091  1.00  0.00    -0.000 C 
BRANCH  15  16
ATOM     16  C   UNL     1     -42.989 -49.115  40.907  1.00  0.00    -0.000 C 
BRANCH  16  17
ATOM     17  C   UNL     1     -44.227 -49.976  40.597  1.00  0.00    -0.003 C 
ATOM     18  C   UNL     1     -43.880 -51.295  39.908  1.00  0.00     0.004 C 
ENDBRANCH  16  17
ENDBRANCH  15  16
ENDBRANCH  14  15
ENDBRANCH  13  14
ENDBRANCH  12  13
ENDBRANCH  11  12
ENDBRANCH   1  11
TORSDOF 14
ENDMDL
MODEL 8
REMARK VINA RESULT:    -3.665      1.738      4.277
REMARK INTER + INTRA:          -8.567
REMARK INTER:                  -6.299
REMARK INTRA:                  -2.269
REMARK UNBOUND:                -1.903
REMARK SMILES CCCCCCCCCCCCCCCC(=O)[O-]
REMARK SMILES IDX 9 1 10 2 11 3 12 4 13 5 14 6 15 7 16 8 17 9 18 10 8 11 7 12
REMARK SMILES IDX 6 13 5 14 4 15 3 16 2 17 1 18
REMARK H PARENT
REMARK Flexibility Score: inf
ROOT
ATOM      1  C   UNL     1     -41.645 -48.536  38.340  1.00  0.00     0.000 C 
ENDROOT
BRANCH   1   2
ATOM      2  C   UNL     1     -42.864 -49.418  38.659  1.00  0.00     0.000 C 
BRANCH   2   3
ATOM      3  C   UNL     1     -44.186 -48.631  38.624  1.00  0.00     0.000 C 
BRANCH   3   4
ATOM      4  C   UNL     1     -44.588 -48.220  37.198  1.00  0.00     0.000 C 
BRANCH   4   5
ATOM      5  C   UNL     1     -45.421 -49.297  36.482  1.00  0.00     0.000 C 
BRANCH   5   6
ATOM      6  C   UNL     1     -46.610 -49.789  37.329  1.00  0.00     0.006 C 
BRANCH   6   7
ATOM      7  C   UNL     1     -46.854 -51.305  37.252  1.00  0.00     0.053 C 
BRANCH   7   8
ATOM      8  C   UNL     1     -46.875 -51.938  38.609  1.00  0.00     0.041 C 
ATOM      9  O   UNL     1     -47.790 -52.746  38.918  1.00  0.00    -0.550 OA
ATOM     10  O   UNL     1     -45.902 -51.609  39.545  1.00  0.00    -0.550 OA
ENDBRANCH   7   8
ENDBRANCH   6   7
ENDBRANCH   5   6
ENDBRANCH   4   5
ENDBRANCH   3   4
ENDBRANCH   2   3
ENDBRANCH   1   2
BRANCH   1  11
ATOM     11  C   UNL     1     -40.419 -49.354  37.906  1.00  0.00     0.000 C 
BRANCH  11  12
ATOM     12  C   UNL     1     -39.724 -48.705  36.703  1.00  0.00    -0.000 C 
BRANCH  12  13
ATOM     13  C   UNL     1     -40.632 -47.662  36.039  1.00  0.00    -0.000 C 
BRANCH  13  14
ATOM     14  C   UNL     1     -40.881 -48.006  34.566  1.00  0.00    -0.000 C 
BRANCH  14  15
ATOM     15  C   UNL     1     -42.375 -47.911  34.224  1.00  0.00    -0.000 C 
BRANCH  15  16
ATOM     16  C   UNL     1     -42.961 -49.244  33.723  1.00  0.00    -0.000 C 
BRANCH  16  17
ATOM     17  C   UNL     1     -42.108 -50.486  34.040  1.00  0.00    -0.003 C 
ATOM     18  C   UNL     1     -42.583 -51.237  35.283  1.00  0.00     0.004 C 
ENDBRANCH  16  17
ENDBRANCH  15  16
ENDBRANCH  14  15
ENDBRANCH  13  14
ENDBRANCH  12  13
ENDBRANCH  11  12
ENDBRANCH   1  11
TORSDOF 14
ENDMDL
MODEL 9
REMARK VINA RESULT:    -3.648      1.969      4.239
REMARK INTER + INTRA:          -8.536
REMARK INTER:                  -6.185
REMARK INTRA:                  -2.351
REMARK UNBOUND:                -1.903
REMARK SMILES CCCCCCCCCCCCCCCC(=O)[O-]
REMARK SMILES IDX 9 1 10 2 11 3 12 4 13 5 14 6 15 7 16 8 17 9 18 10 8 11 7 12
REMARK SMILES IDX 6 13 5 14 4 15 3 16 2 17 1 18
REMARK H PARENT
REMARK Flexibility Score: inf
ROOT
ATOM      1  C   UNL     1     -41.933 -50.965  36.446  1.00  0.00     0.000 C 
ENDROOT
BRANCH   1   2
ATOM      2  C   UNL     1     -42.886 -50.620  37.602  1.00  0.00     0.000 C 
BRANCH   2   3
ATOM      3  C   UNL     1     -42.903 -49.115  37.922  1.00  0.00     0.000 C 
BRANCH   3   4
ATOM      4  C   UNL     1     -44.330 -48.553  38.035  1.00  0.00     0.000 C 
BRANCH   4   5
ATOM      5  C   UNL     1     -45.146 -48.744  36.744  1.00  0.00     0.000 C 
BRANCH   5   6
ATOM      6  C   UNL     1     -46.415 -49.590  36.963  1.00  0.00     0.006 C 
BRANCH   6   7
ATOM      7  C   UNL     1     -46.477 -50.291  38.329  1.00  0.00     0.053 C 
BRANCH   7   8
ATOM      8  C   UNL     1     -46.789 -51.750  38.196  1.00  0.00     0.041 C 
ATOM      9  O   UNL     1     -47.221 -52.209  37.106  1.00  0.00    -0.550 OA
ATOM     10  O   UNL     1     -46.634 -52.596  39.287  1.00  0.00    -0.550 OA
ENDBRANCH   7   8
ENDBRANCH   6   7
ENDBRANCH   5   6
ENDBRANCH   4   5
ENDBRANCH   3   4
ENDBRANCH   2   3
ENDBRANCH   1   2
BRANCH   1  11
ATOM     11  C   UNL     1     -42.673 -51.223  35.124  1.00  0.00     0.000 C 
BRANCH  11  12
ATOM     12  C   UNL     1     -42.129 -50.323  34.007  1.00  0.00    -0.000 C 
BRANCH  12  13
ATOM     13  C   UNL     1     -43.042 -49.111  33.782  1.00  0.00    -0.000 C 
BRANCH  13  14
ATOM     14  C   UNL     1     -42.420 -47.837  34.365  1.00  0.00    -0.000 C 
BRANCH  14  15
ATOM     15  C   UNL     1     -40.890 -47.954  34.438  1.00  0.00    -0.000 C 
BRANCH  15  16
ATOM     16  C   UNL     1     -40.334 -47.669  35.844  1.00  0.00    -0.000 C 
BRANCH  16  17
ATOM     17  C   UNL     1     -38.872 -48.100  36.063  1.00  0.00    -0.003 C 
ATOM     18  C   UNL     1     -38.588 -49.519  35.573  1.00  0.00     0.004 C 
ENDBRANCH  16  17
ENDBRANCH  15  16
ENDBRANCH  14  15
ENDBRANCH  13  14
ENDBRANCH  12  13
ENDBRANCH  11  12
ENDBRANCH   1  11
TORSDOF 14
ENDMDL
