MODEL 1
REMARK VINA RESULT:    -5.871      0.000      0.000
REMARK INTER + INTRA:          -7.395
REMARK INTER:                  -7.073
REMARK INTRA:                  -0.322
REMARK UNBOUND:                -0.322
REMARK SMILES O=c1c(O)c(-c2ccc(O)c(O)c2)oc2cc(O)cc(O)c12
REMARK SMILES IDX 5 1 3 2 2 3 1 4 22 5 20 6 19 7 17 8 16 9 15 10 14 11 6 12
REMARK SMILES IDX 7 13 8 14 9 15 13 16 11 17 10 18 12 20 4 22 21 24 18 26
REMARK H PARENT 10 19 12 21 4 23 21 25 18 27
REMARK Flexibility Score: inf
ROOT
ATOM      1  C   UNL     1      83.846  -8.444  28.008  1.00  0.00     0.180 A 
ATOM      2  C   UNL     1      82.490  -8.362  28.370  1.00  0.00     0.208 A 
ATOM      3  C   UNL     1      81.512  -8.440  27.365  1.00  0.00     0.238 A 
ATOM      4  O   UNL     1      80.299  -8.421  27.700  1.00  0.00    -0.285 OA
ATOM      5  C   UNL     1      81.901  -8.583  26.011  1.00  0.00     0.111 A 
ATOM      6  C   UNL     1      80.997  -8.633  24.909  1.00  0.00     0.134 A 
ATOM      7  C   UNL     1      81.486  -8.908  23.626  1.00  0.00     0.093 A 
ATOM      8  C   UNL     1      82.854  -9.070  23.396  1.00  0.00     0.123 A 
ATOM      9  C   UNL     1      83.751  -8.964  24.457  1.00  0.00     0.094 A 
ATOM     10  C   UNL     1      83.289  -8.727  25.754  1.00  0.00     0.146 A 
ATOM     11  O   UNL     1      84.178  -8.644  26.738  1.00  0.00    -0.452 OA
ENDROOT
BRANCH   1  12
ATOM     12  C   UNL     1      84.935  -8.345  29.007  1.00  0.00     0.025 A 
ATOM     13  C   UNL     1      85.410  -9.480  29.687  1.00  0.00     0.016 A 
ATOM     14  C   UNL     1      86.422  -9.359  30.643  1.00  0.00     0.051 A 
ATOM     15  C   UNL     1      86.964  -8.103  30.944  1.00  0.00     0.157 A 
ATOM     16  C   UNL     1      85.467  -7.085  29.327  1.00  0.00     0.062 A 
ATOM     17  C   UNL     1      86.482  -6.960  30.283  1.00  0.00     0.158 A 
BRANCH  15  18
ATOM     18  O   UNL     1      87.975  -7.985  31.896  1.00  0.00    -0.504 OA
ATOM     19  H   UNL     1      88.309  -7.080  32.206  1.00  0.00     0.293 HD
ENDBRANCH  15  18
BRANCH  17  20
ATOM     20  O   UNL     1      86.994  -5.694  30.564  1.00  0.00    -0.504 OA
ATOM     21  H   UNL     1      86.946  -5.288  31.491  1.00  0.00     0.293 HD
ENDBRANCH  17  20
ENDBRANCH   1  12
BRANCH   2  22
ATOM     22  O   UNL     1      82.127  -8.243  29.713  1.00  0.00    -0.502 OA
ATOM     23  H   UNL     1      82.801  -8.049  30.444  1.00  0.00     0.293 HD
ENDBRANCH   2  22
BRANCH   6  24
ATOM     24  O   UNL     1      79.623  -8.393  25.014  1.00  0.00    -0.507 OA
ATOM     25  H   UNL     1      79.039  -8.719  25.770  1.00  0.00     0.293 HD
ENDBRANCH   6  24
BRANCH   8  26
ATOM     26  O   UNL     1      83.335  -9.328  22.114  1.00  0.00    -0.508 OA
ATOM     27  H   UNL     1      84.165  -9.889  21.963  1.00  0.00     0.293 HD
ENDBRANCH   8  26
TORSDOF 6
ENDMDL
MODEL 2
REMARK VINA RESULT:    -5.044      1.864      7.142
REMARK INTER + INTRA:          -6.399
REMARK INTER:                  -6.952
REMARK INTRA:                   0.554
REMARK UNBOUND:                -0.322
REMARK SMILES O=c1c(O)c(-c2ccc(O)c(O)c2)oc2cc(O)cc(O)c12
REMARK SMILES IDX 5 1 3 2 2 3 1 4 22 5 20 6 19 7 17 8 16 9 15 10 14 11 6 12
REMARK SMILES IDX 7 13 8 14 9 15 13 16 11 17 10 18 12 20 4 22 21 24 18 26
REMARK H PARENT 10 19 12 21 4 23 21 25 18 27
REMARK Flexibility Score: inf
ROOT
ATOM      1  C   UNL     1      82.018  -8.889  25.009  1.00  0.00     0.180 A 
ATOM      2  C   UNL     1      80.862  -9.074  25.789  1.00  0.00     0.208 A 
ATOM      3  C   UNL     1      80.934  -8.852  27.173  1.00  0.00     0.238 A 
ATOM      4  O   UNL     1      79.884  -8.966  27.858  1.00  0.00    -0.285 OA
ATOM      5  C   UNL     1      82.161  -8.464  27.763  1.00  0.00     0.111 A 
ATOM      6  C   UNL     1      82.357  -8.252  29.161  1.00  0.00     0.134 A 
ATOM      7  C   UNL     1      83.580  -7.744  29.617  1.00  0.00     0.093 A 
ATOM      8  C   UNL     1      84.634  -7.504  28.734  1.00  0.00     0.123 A 
ATOM      9  C   UNL     1      84.472  -7.765  27.375  1.00  0.00     0.094 A 
ATOM     10  C   UNL     1      83.252  -8.237  26.885  1.00  0.00     0.146 A 
ATOM     11  O   UNL     1      83.137  -8.463  25.582  1.00  0.00    -0.452 OA
ENDROOT
BRANCH   1  12
ATOM     12  C   UNL     1      82.028  -9.128  23.547  1.00  0.00     0.025 A 
ATOM     13  C   UNL     1      83.190  -8.927  22.781  1.00  0.00     0.016 A 
ATOM     14  C   UNL     1      83.170  -9.135  21.399  1.00  0.00     0.051 A 
ATOM     15  C   UNL     1      81.987  -9.532  20.761  1.00  0.00     0.157 A 
ATOM     16  C   UNL     1      80.840  -9.505  22.900  1.00  0.00     0.062 A 
ATOM     17  C   UNL     1      80.817  -9.716  21.516  1.00  0.00     0.158 A 
BRANCH  15  18
ATOM     18  O   UNL     1      81.970  -9.741  19.383  1.00  0.00    -0.504 OA
ATOM     19  H   UNL     1      82.572  -9.216  18.760  1.00  0.00     0.293 HD
ENDBRANCH  15  18
BRANCH  17  20
ATOM     20  O   UNL     1      79.621 -10.103  20.911  1.00  0.00    -0.504 OA
ATOM     21  H   UNL     1      78.905  -9.433  20.658  1.00  0.00     0.293 HD
ENDBRANCH  17  20
ENDBRANCH   1  12
BRANCH   2  22
ATOM     22  O   UNL     1      79.657  -9.435  25.184  1.00  0.00    -0.502 OA
ATOM     23  H   UNL     1      78.879  -9.818  25.707  1.00  0.00     0.293 HD
ENDBRANCH   2  22
BRANCH   6  24
ATOM     24  O   UNL     1      81.401  -8.547  30.137  1.00  0.00    -0.507 OA
ATOM     25  H   UNL     1      81.563  -9.135  30.942  1.00  0.00     0.293 HD
ENDBRANCH   6  24
BRANCH   8  26
ATOM     26  O   UNL     1      85.853  -7.013  29.198  1.00  0.00    -0.508 OA
ATOM     27  H   UNL     1      86.285  -6.194  28.786  1.00  0.00     0.293 HD
ENDBRANCH   8  26
TORSDOF 6
ENDMDL
MODEL 3
REMARK VINA RESULT:    -5.027      1.333      2.107
REMARK INTER + INTRA:          -6.378
REMARK INTER:                  -6.139
REMARK INTRA:                  -0.238
REMARK UNBOUND:                -0.322
REMARK SMILES O=c1c(O)c(-c2ccc(O)c(O)c2)oc2cc(O)cc(O)c12
REMARK SMILES IDX 5 1 3 2 2 3 1 4 22 5 20 6 19 7 17 8 16 9 15 10 14 11 6 12
REMARK SMILES IDX 7 13 8 14 9 15 13 16 11 17 10 18 12 20 4 22 21 24 18 26
REMARK H PARENT 10 19 12 21 4 23 21 25 18 27
REMARK Flexibility Score: inf
ROOT
ATOM      1  C   UNL     1      84.440  -8.019  29.213  1.00  0.00     0.180 A 
ATOM      2  C   UNL     1      83.235  -8.384  29.839  1.00  0.00     0.208 A 
ATOM      3  C   UNL     1      82.111  -8.658  29.043  1.00  0.00     0.238 A 
ATOM      4  O   UNL     1      81.051  -9.037  29.606  1.00  0.00    -0.285 OA
ATOM      5  C   UNL     1      82.201  -8.548  27.634  1.00  0.00     0.111 A 
ATOM      6  C   UNL     1      81.115  -8.764  26.734  1.00  0.00     0.134 A 
ATOM      7  C   UNL     1      81.350  -8.755  25.354  1.00  0.00     0.093 A 
ATOM      8  C   UNL     1      82.619  -8.475  24.841  1.00  0.00     0.123 A 
ATOM      9  C   UNL     1      83.672  -8.205  25.712  1.00  0.00     0.094 A 
ATOM     10  C   UNL     1      83.476  -8.241  27.094  1.00  0.00     0.146 A 
ATOM     11  O   UNL     1      84.511  -7.988  27.888  1.00  0.00    -0.452 OA
ENDROOT
BRANCH   1  12
ATOM     12  C   UNL     1      85.661  -7.691  29.985  1.00  0.00     0.025 A 
ATOM     13  C   UNL     1      86.138  -6.371  30.074  1.00  0.00     0.016 A 
ATOM     14  C   UNL     1      87.306  -6.089  30.787  1.00  0.00     0.051 A 
ATOM     15  C   UNL     1      88.020  -7.120  31.411  1.00  0.00     0.157 A 
ATOM     16  C   UNL     1      86.392  -8.724  30.594  1.00  0.00     0.062 A 
ATOM     17  C   UNL     1      87.561  -8.444  31.311  1.00  0.00     0.158 A 
BRANCH  15  18
ATOM     18  O   UNL     1      89.183  -6.835  32.125  1.00  0.00    -0.504 OA
ATOM     19  H   UNL     1      90.101  -7.026  31.741  1.00  0.00     0.293 HD
ENDBRANCH  15  18
BRANCH  17  20
ATOM     20  O   UNL     1      88.253  -9.495  31.914  1.00  0.00    -0.504 OA
ATOM     21  H   UNL     1      87.801 -10.370  32.150  1.00  0.00     0.293 HD
ENDBRANCH  17  20
ENDBRANCH   1  12
BRANCH   2  22
ATOM     22  O   UNL     1      83.174  -8.507  31.229  1.00  0.00    -0.502 OA
ATOM     23  H   UNL     1      83.775  -9.139  31.746  1.00  0.00     0.293 HD
ENDBRANCH   2  22
BRANCH   6  24
ATOM     24  O   UNL     1      79.791  -8.960  27.140  1.00  0.00    -0.507 OA
ATOM     25  H   UNL     1      79.402  -9.847  27.423  1.00  0.00     0.293 HD
ENDBRANCH   6  24
BRANCH   8  26
ATOM     26  O   UNL     1      82.841  -8.454  23.466  1.00  0.00    -0.508 OA
ATOM     27  H   UNL     1      83.518  -9.069  23.029  1.00  0.00     0.293 HD
ENDBRANCH   8  26
TORSDOF 6
ENDMDL
MODEL 4
REMARK VINA RESULT:    -4.884      1.550      2.247
REMARK INTER + INTRA:          -6.205
REMARK INTER:                  -6.032
REMARK INTRA:                  -0.173
REMARK UNBOUND:                -0.322
REMARK SMILES O=c1c(O)c(-c2ccc(O)c(O)c2)oc2cc(O)cc(O)c12
REMARK SMILES IDX 5 1 3 2 2 3 1 4 22 5 20 6 19 7 17 8 16 9 15 10 14 11 6 12
REMARK SMILES IDX 7 13 8 14 9 15 13 16 11 17 10 18 12 20 4 22 21 24 18 26
REMARK H PARENT 10 19 12 21 4 23 21 25 18 27
REMARK Flexibility Score: inf
ROOT
ATOM      1  C   UNL     1      83.181  -8.993  26.145  1.00  0.00     0.180 A 
ATOM      2  C   UNL     1      81.844  -9.400  26.303  1.00  0.00     0.208 A 
ATOM      3  C   UNL     1      81.088  -9.709  25.161  1.00  0.00     0.238 A 
ATOM      4  O   UNL     1      79.910 -10.125  25.312  1.00  0.00    -0.285 OA
ATOM      5  C   UNL     1      81.672  -9.593  23.876  1.00  0.00     0.111 A 
ATOM      6  C   UNL     1      80.986  -9.842  22.649  1.00  0.00     0.134 A 
ATOM      7  C   UNL     1      81.699  -9.822  21.444  1.00  0.00     0.093 A 
ATOM      8  C   UNL     1      83.057  -9.498  21.416  1.00  0.00     0.123 A 
ATOM      9  C   UNL     1      83.721  -9.195  22.603  1.00  0.00     0.094 A 
ATOM     10  C   UNL     1      83.045  -9.242  23.824  1.00  0.00     0.146 A 
ATOM     11  O   UNL     1      83.719  -8.957  24.932  1.00  0.00    -0.452 OA
ENDROOT
BRANCH   1  12
ATOM     12  C   UNL     1      84.035  -8.627  27.299  1.00  0.00     0.025 A 
ATOM     13  C   UNL     1      84.411  -9.579  28.263  1.00  0.00     0.016 A 
ATOM     14  C   UNL     1      85.196  -9.205  29.356  1.00  0.00     0.051 A 
ATOM     15  C   UNL     1      85.605  -7.874  29.512  1.00  0.00     0.157 A 
ATOM     16  C   UNL     1      84.428  -7.290  27.471  1.00  0.00     0.062 A 
ATOM     17  C   UNL     1      85.217  -6.912  28.564  1.00  0.00     0.158 A 
BRANCH  15  18
ATOM     18  O   UNL     1      86.390  -7.505  30.602  1.00  0.00    -0.504 OA
ATOM     19  H   UNL     1      86.109  -6.762  31.230  1.00  0.00     0.293 HD
ENDBRANCH  15  18
BRANCH  17  20
ATOM     20  O   UNL     1      85.600  -5.577  28.693  1.00  0.00    -0.504 OA
ATOM     21  H   UNL     1      85.939  -5.037  27.906  1.00  0.00     0.293 HD
ENDBRANCH  17  20
ENDBRANCH   1  12
BRANCH   2  22
ATOM     22  O   UNL     1      81.295  -9.529  27.581  1.00  0.00    -0.502 OA
ATOM     23  H   UNL     1      80.899 -10.399  27.918  1.00  0.00     0.293 HD
ENDBRANCH   2  22
BRANCH   6  24
ATOM     24  O   UNL     1      79.612 -10.083  22.558  1.00  0.00    -0.507 OA
ATOM     25  H   UNL     1      79.041  -9.860  21.756  1.00  0.00     0.293 HD
ENDBRANCH   6  24
BRANCH   8  26
ATOM     26  O   UNL     1      83.755  -9.466  20.211  1.00  0.00    -0.508 OA
ATOM     27  H   UNL     1      83.927 -10.309  19.675  1.00  0.00     0.293 HD
ENDBRANCH   8  26
TORSDOF 6
ENDMDL
MODEL 5
REMARK VINA RESULT:    -4.794      2.524      7.226
REMARK INTER + INTRA:          -6.097
REMARK INTER:                  -6.134
REMARK INTRA:                   0.038
REMARK UNBOUND:                -0.322
REMARK SMILES O=c1c(O)c(-c2ccc(O)c(O)c2)oc2cc(O)cc(O)c12
REMARK SMILES IDX 5 1 3 2 2 3 1 4 22 5 20 6 19 7 17 8 16 9 15 10 14 11 6 12
REMARK SMILES IDX 7 13 8 14 9 15 13 16 11 17 10 18 12 20 4 22 21 24 18 26
REMARK H PARENT 10 19 12 21 4 23 21 25 18 27
REMARK Flexibility Score: inf
ROOT
ATOM      1  C   UNL     1      82.572  -9.263  26.052  1.00  0.00     0.180 A 
ATOM      2  C   UNL     1      83.804  -9.675  26.590  1.00  0.00     0.208 A 
ATOM      3  C   UNL     1      83.973  -9.667  27.984  1.00  0.00     0.238 A 
ATOM      4  O   UNL     1      85.059 -10.088  28.463  1.00  0.00    -0.285 OA
ATOM      5  C   UNL     1      82.917  -9.232  28.821  1.00  0.00     0.111 A 
ATOM      6  C   UNL     1      82.994  -9.144  30.243  1.00  0.00     0.134 A 
ATOM      7  C   UNL     1      81.846  -8.825  30.978  1.00  0.00     0.093 A 
ATOM      8  C   UNL     1      80.641  -8.527  30.338  1.00  0.00     0.123 A 
ATOM      9  C   UNL     1      80.572  -8.551  28.947  1.00  0.00     0.094 A 
ATOM     10  C   UNL     1      81.691  -8.901  28.188  1.00  0.00     0.146 A 
ATOM     11  O   UNL     1      81.579  -8.923  26.865  1.00  0.00    -0.452 OA
ENDROOT
BRANCH   1  12
ATOM     12  C   UNL     1      82.325  -9.221  24.592  1.00  0.00     0.025 A 
ATOM     13  C   UNL     1      83.267  -8.668  23.706  1.00  0.00     0.016 A 
ATOM     14  C   UNL     1      83.002  -8.617  22.336  1.00  0.00     0.051 A 
ATOM     15  C   UNL     1      81.789  -9.104  21.831  1.00  0.00     0.157 A 
ATOM     16  C   UNL     1      81.102  -9.687  24.084  1.00  0.00     0.062 A 
ATOM     17  C   UNL     1      80.834  -9.639  22.711  1.00  0.00     0.158 A 
BRANCH  15  18
ATOM     18  O   UNL     1      81.528  -9.053  20.462  1.00  0.00    -0.504 OA
ATOM     19  H   UNL     1      81.688  -9.853  19.862  1.00  0.00     0.293 HD
ENDBRANCH  15  18
BRANCH  17  20
ATOM     20  O   UNL     1      79.613 -10.125  22.242  1.00  0.00    -0.504 OA
ATOM     21  H   UNL     1      79.492 -10.444  21.289  1.00  0.00     0.293 HD
ENDBRANCH  17  20
ENDBRANCH   1  12
BRANCH   2  22
ATOM     22  O   UNL     1      84.825 -10.121  25.748  1.00  0.00    -0.502 OA
ATOM     23  H   UNL     1      84.639 -10.583  24.866  1.00  0.00     0.293 HD
ENDBRANCH   2  22
BRANCH   6  24
ATOM     24  O   UNL     1      84.171  -9.332  30.975  1.00  0.00    -0.507 OA
ATOM     25  H   UNL     1      84.251  -9.217  31.975  1.00  0.00     0.293 HD
ENDBRANCH   6  24
BRANCH   8  26
ATOM     26  O   UNL     1      79.506  -8.195  31.076  1.00  0.00    -0.508 OA
ATOM     27  H   UNL     1      79.576  -7.829  32.018  1.00  0.00     0.293 HD
ENDBRANCH   8  26
TORSDOF 6
ENDMDL
MODEL 6
REMARK VINA RESULT:    -4.739      2.925      7.299
REMARK INTER + INTRA:          -6.031
REMARK INTER:                  -6.484
REMARK INTRA:                   0.453
REMARK UNBOUND:                -0.322
REMARK SMILES O=c1c(O)c(-c2ccc(O)c(O)c2)oc2cc(O)cc(O)c12
REMARK SMILES IDX 5 1 3 2 2 3 1 4 22 5 20 6 19 7 17 8 16 9 15 10 14 11 6 12
REMARK SMILES IDX 7 13 8 14 9 15 13 16 11 17 10 18 12 20 4 22 21 24 18 26
REMARK H PARENT 10 19 12 21 4 23 21 25 18 27
REMARK Flexibility Score: inf
ROOT
ATOM      1  C   UNL     1      81.955  -8.905  25.294  1.00  0.00     0.180 A 
ATOM      2  C   UNL     1      83.009  -8.266  25.971  1.00  0.00     0.208 A 
ATOM      3  C   UNL     1      82.901  -8.062  27.357  1.00  0.00     0.238 A 
ATOM      4  O   UNL     1      83.869  -7.538  27.967  1.00  0.00    -0.285 OA
ATOM      5  C   UNL     1      81.737  -8.484  28.044  1.00  0.00     0.111 A 
ATOM      6  C   UNL     1      81.505  -8.292  29.438  1.00  0.00     0.134 A 
ATOM      7  C   UNL     1      80.376  -8.866  30.036  1.00  0.00     0.093 A 
ATOM      8  C   UNL     1      79.439  -9.569  29.277  1.00  0.00     0.123 A 
ATOM      9  C   UNL     1      79.627  -9.711  27.903  1.00  0.00     0.094 A 
ATOM     10  C   UNL     1      80.761  -9.180  27.285  1.00  0.00     0.146 A 
ATOM     11  O   UNL     1      80.906  -9.348  25.976  1.00  0.00    -0.452 OA
ENDROOT
BRANCH   1  12
ATOM     12  C   UNL     1      81.984  -9.134  23.830  1.00  0.00     0.025 A 
ATOM     13  C   UNL     1      83.154  -8.920  23.079  1.00  0.00     0.016 A 
ATOM     14  C   UNL     1      83.151  -9.119  21.696  1.00  0.00     0.051 A 
ATOM     15  C   UNL     1      81.980  -9.520  21.041  1.00  0.00     0.157 A 
ATOM     16  C   UNL     1      80.807  -9.515  23.167  1.00  0.00     0.062 A 
ATOM     17  C   UNL     1      80.801  -9.716  21.781  1.00  0.00     0.158 A 
BRANCH  15  18
ATOM     18  O   UNL     1      81.981  -9.719  19.662  1.00  0.00    -0.504 OA
ATOM     19  H   UNL     1      81.211 -10.182  19.193  1.00  0.00     0.293 HD
ENDBRANCH  15  18
BRANCH  17  20
ATOM     20  O   UNL     1      79.616 -10.108  21.160  1.00  0.00    -0.504 OA
ATOM     21  H   UNL     1      79.221  -9.592  20.383  1.00  0.00     0.293 HD
ENDBRANCH  17  20
ENDBRANCH   1  12
BRANCH   2  22
ATOM     22  O   UNL     1      84.157  -7.877  25.278  1.00  0.00    -0.502 OA
ATOM     23  H   UNL     1      84.304  -6.927  24.957  1.00  0.00     0.293 HD
ENDBRANCH   2  22
BRANCH   6  24
ATOM     24  O   UNL     1      82.330  -7.528  30.269  1.00  0.00    -0.507 OA
ATOM     25  H   UNL     1      82.206  -7.425  31.266  1.00  0.00     0.293 HD
ENDBRANCH   6  24
BRANCH   8  26
ATOM     26  O   UNL     1      78.310 -10.125  29.876  1.00  0.00    -0.508 OA
ATOM     27  H   UNL     1      78.116 -11.118  29.821  1.00  0.00     0.293 HD
ENDBRANCH   8  26
TORSDOF 6
ENDMDL
MODEL 7
REMARK VINA RESULT:    -4.466      1.608      6.646
REMARK INTER + INTRA:          -5.702
REMARK INTER:                  -6.032
REMARK INTRA:                   0.330
REMARK UNBOUND:                -0.322
REMARK SMILES O=c1c(O)c(-c2ccc(O)c(O)c2)oc2cc(O)cc(O)c12
REMARK SMILES IDX 5 1 3 2 2 3 1 4 22 5 20 6 19 7 17 8 16 9 15 10 14 11 6 12
REMARK SMILES IDX 7 13 8 14 9 15 13 16 11 17 10 18 12 20 4 22 21 24 18 26
REMARK H PARENT 10 19 12 21 4 23 21 25 18 27
REMARK Flexibility Score: inf
ROOT
ATOM      1  C   UNL     1      82.203  -8.440  26.781  1.00  0.00     0.180 A 
ATOM      2  C   UNL     1      81.237  -8.574  27.793  1.00  0.00     0.208 A 
ATOM      3  C   UNL     1      81.578  -8.221  29.109  1.00  0.00     0.238 A 
ATOM      4  O   UNL     1      80.693  -8.291  30.001  1.00  0.00    -0.285 OA
ATOM      5  C   UNL     1      82.883  -7.755  29.399  1.00  0.00     0.111 A 
ATOM      6  C   UNL     1      83.349  -7.408  30.702  1.00  0.00     0.134 A 
ATOM      7  C   UNL     1      84.618  -6.835  30.852  1.00  0.00     0.093 A 
ATOM      8  C   UNL     1      85.462  -6.658  29.754  1.00  0.00     0.123 A 
ATOM      9  C   UNL     1      85.039  -7.049  28.485  1.00  0.00     0.094 A 
ATOM     10  C   UNL     1      83.765  -7.590  28.300  1.00  0.00     0.146 A 
ATOM     11  O   UNL     1      83.397  -7.939  27.072  1.00  0.00    -0.452 OA
ENDROOT
BRANCH   1  12
ATOM     12  C   UNL     1      81.927  -8.815  25.374  1.00  0.00     0.025 A 
ATOM     13  C   UNL     1      80.903  -9.721  25.046  1.00  0.00     0.016 A 
ATOM     14  C   UNL     1      80.677 -10.079  23.714  1.00  0.00     0.051 A 
ATOM     15  C   UNL     1      81.476  -9.548  22.693  1.00  0.00     0.157 A 
ATOM     16  C   UNL     1      82.739  -8.302  24.350  1.00  0.00     0.062 A 
ATOM     17  C   UNL     1      82.514  -8.657  23.014  1.00  0.00     0.158 A 
BRANCH  15  18
ATOM     18  O   UNL     1      81.246  -9.904  21.366  1.00  0.00    -0.504 OA
ATOM     19  H   UNL     1      81.926 -10.435  20.834  1.00  0.00     0.293 HD
ENDBRANCH  15  18
BRANCH  17  20
ATOM     20  O   UNL     1      83.333  -8.116  22.024  1.00  0.00    -0.504 OA
ATOM     21  H   UNL     1      83.084  -8.152  21.042  1.00  0.00     0.293 HD
ENDBRANCH  17  20
ENDBRANCH   1  12
BRANCH   2  22
ATOM     22  O   UNL     1      79.949  -9.014  27.482  1.00  0.00    -0.502 OA
ATOM     23  H   UNL     1      79.124  -8.657  27.949  1.00  0.00     0.293 HD
ENDBRANCH   2  22
BRANCH   6  24
ATOM     24  O   UNL     1      82.622  -7.630  31.876  1.00  0.00    -0.507 OA
ATOM     25  H   UNL     1      81.782  -7.133  32.135  1.00  0.00     0.293 HD
ENDBRANCH   6  24
BRANCH   8  26
ATOM     26  O   UNL     1      86.729  -6.101  29.914  1.00  0.00    -0.508 OA
ATOM     27  H   UNL     1      86.883  -5.297  30.511  1.00  0.00     0.293 HD
ENDBRANCH   8  26
TORSDOF 6
ENDMDL
MODEL 8
REMARK VINA RESULT:    -4.316      2.918      7.210
REMARK INTER + INTRA:          -5.521
REMARK INTER:                  -6.064
REMARK INTRA:                   0.543
REMARK UNBOUND:                -0.322
REMARK SMILES O=c1c(O)c(-c2ccc(O)c(O)c2)oc2cc(O)cc(O)c12
REMARK SMILES IDX 5 1 3 2 2 3 1 4 22 5 20 6 19 7 17 8 16 9 15 10 14 11 6 12
REMARK SMILES IDX 7 13 8 14 9 15 13 16 11 17 10 18 12 20 4 22 21 24 18 26
REMARK H PARENT 10 19 12 21 4 23 21 25 18 27
REMARK Flexibility Score: inf
ROOT
ATOM      1  C   UNL     1      81.933  -9.076  25.133  1.00  0.00     0.180 A 
ATOM      2  C   UNL     1      83.037  -8.465  25.753  1.00  0.00     0.208 A 
ATOM      3  C   UNL     1      83.002  -8.244  27.139  1.00  0.00     0.238 A 
ATOM      4  O   UNL     1      84.015  -7.747  27.697  1.00  0.00    -0.285 OA
ATOM      5  C   UNL     1      81.859  -8.619  27.885  1.00  0.00     0.111 A 
ATOM      6  C   UNL     1      81.699  -8.405  29.286  1.00  0.00     0.134 A 
ATOM      7  C   UNL     1      80.582  -8.935  29.943  1.00  0.00     0.093 A 
ATOM      8  C   UNL     1      79.586  -9.614  29.237  1.00  0.00     0.123 A 
ATOM      9  C   UNL     1      79.704  -9.776  27.858  1.00  0.00     0.094 A 
ATOM     10  C   UNL     1      80.825  -9.290  27.181  1.00  0.00     0.146 A 
ATOM     11  O   UNL     1      80.903  -9.476  25.868  1.00  0.00    -0.452 OA
ENDROOT
BRANCH   1  12
ATOM     12  C   UNL     1      81.885  -9.321  23.672  1.00  0.00     0.025 A 
ATOM     13  C   UNL     1      80.749  -9.880  23.061  1.00  0.00     0.016 A 
ATOM     14  C   UNL     1      80.736 -10.124  21.685  1.00  0.00     0.051 A 
ATOM     15  C   UNL     1      81.860  -9.827  20.903  1.00  0.00     0.157 A 
ATOM     16  C   UNL     1      83.017  -9.045  22.888  1.00  0.00     0.062 A 
ATOM     17  C   UNL     1      83.007  -9.287  21.509  1.00  0.00     0.158 A 
BRANCH  15  18
ATOM     18  O   UNL     1      81.843 -10.070  19.531  1.00  0.00    -0.504 OA
ATOM     19  H   UNL     1      82.154  -9.373  18.865  1.00  0.00     0.293 HD
ENDBRANCH  15  18
BRANCH  17  20
ATOM     20  O   UNL     1      84.145  -8.988  20.761  1.00  0.00    -0.504 OA
ATOM     21  H   UNL     1      84.110  -8.858  19.757  1.00  0.00     0.293 HD
ENDBRANCH  17  20
ENDBRANCH   1  12
BRANCH   2  22
ATOM     22  O   UNL     1      84.164  -8.123  25.002  1.00  0.00    -0.502 OA
ATOM     23  H   UNL     1      84.223  -8.284  24.004  1.00  0.00     0.293 HD
ENDBRANCH   2  22
BRANCH   6  24
ATOM     24  O   UNL     1      82.588  -7.661  30.069  1.00  0.00    -0.507 OA
ATOM     25  H   UNL     1      82.339  -6.835  30.593  1.00  0.00     0.293 HD
ENDBRANCH   6  24
BRANCH   8  26
ATOM     26  O   UNL     1      78.470 -10.125  29.895  1.00  0.00    -0.508 OA
ATOM     27  H   UNL     1      77.912  -9.550  30.515  1.00  0.00     0.293 HD
ENDBRANCH   8  26
TORSDOF 6
ENDMDL
MODEL 9
REMARK VINA RESULT:    -4.027      6.808     12.186
REMARK INTER + INTRA:          -5.172
REMARK INTER:                  -4.872
REMARK INTRA:                  -0.301
REMARK UNBOUND:                -0.322
REMARK SMILES O=c1c(O)c(-c2ccc(O)c(O)c2)oc2cc(O)cc(O)c12
REMARK SMILES IDX 5 1 3 2 2 3 1 4 22 5 20 6 19 7 17 8 16 9 15 10 14 11 6 12
REMARK SMILES IDX 7 13 8 14 9 15 13 16 11 17 10 18 12 20 4 22 21 24 18 26
REMARK H PARENT 10 19 12 21 4 23 21 25 18 27
REMARK Flexibility Score: inf
ROOT
ATOM      1  C   UNL     1      79.707  -9.158  17.510  1.00  0.00     0.180 A 
ATOM      2  C   UNL     1      78.602  -9.426  18.338  1.00  0.00     0.208 A 
ATOM      3  C   UNL     1      78.808  -9.586  19.717  1.00  0.00     0.238 A 
ATOM      4  O   UNL     1      77.809  -9.772  20.460  1.00  0.00    -0.285 OA
ATOM      5  C   UNL     1      80.117  -9.493  20.250  1.00  0.00     0.111 A 
ATOM      6  C   UNL     1      80.447  -9.678  21.626  1.00  0.00     0.134 A 
ATOM      7  C   UNL     1      81.755  -9.434  22.062  1.00  0.00     0.093 A 
ATOM      8  C   UNL     1      82.759  -9.075  21.160  1.00  0.00     0.123 A 
ATOM      9  C   UNL     1      82.459  -8.950  19.805  1.00  0.00     0.094 A 
ATOM     10  C   UNL     1      81.156  -9.152  19.346  1.00  0.00     0.146 A 
ATOM     11  O   UNL     1      80.912  -9.012  18.048  1.00  0.00    -0.452 OA
ENDROOT
BRANCH   1  12
ATOM     12  C   UNL     1      79.573  -9.002  16.043  1.00  0.00     0.025 A 
ATOM     13  C   UNL     1      79.437 -10.116  15.198  1.00  0.00     0.016 A 
ATOM     14  C   UNL     1      79.336  -9.946  13.815  1.00  0.00     0.051 A 
ATOM     15  C   UNL     1      79.383  -8.662  13.255  1.00  0.00     0.157 A 
ATOM     16  C   UNL     1      79.641  -7.719  15.476  1.00  0.00     0.062 A 
ATOM     17  C   UNL     1      79.539  -7.544  14.091  1.00  0.00     0.158 A 
BRANCH  15  18
ATOM     18  O   UNL     1      79.281  -8.495  11.875  1.00  0.00    -0.504 OA
ATOM     19  H   UNL     1      79.426  -9.266  11.235  1.00  0.00     0.293 HD
ENDBRANCH  15  18
BRANCH  17  20
ATOM     20  O   UNL     1      79.597  -6.253  13.566  1.00  0.00    -0.504 OA
ATOM     21  H   UNL     1      80.379  -5.635  13.746  1.00  0.00     0.293 HD
ENDBRANCH  17  20
ENDBRANCH   1  12
BRANCH   2  22
ATOM     22  O   UNL     1      77.317  -9.493  17.795  1.00  0.00    -0.502 OA
ATOM     23  H   UNL     1      76.641 -10.191  18.080  1.00  0.00     0.293 HD
ENDBRANCH   2  22
BRANCH   6  24
ATOM     24  O   UNL     1      79.540 -10.125  22.593  1.00  0.00    -0.507 OA
ATOM     25  H   UNL     1      79.660 -10.013  23.589  1.00  0.00     0.293 HD
ENDBRANCH   6  24
BRANCH   8  26
ATOM     26  O   UNL     1      84.061  -8.848  21.599  1.00  0.00    -0.508 OA
ATOM     27  H   UNL     1      84.373  -7.925  21.878  1.00  0.00     0.293 HD
ENDBRANCH   8  26
TORSDOF 6
ENDMDL
