MODEL 1
REMARK VINA RESULT:    -4.058      0.000      0.000
REMARK INTER + INTRA:          -8.463
REMARK INTER:                  -6.311
REMARK INTRA:                  -2.151
REMARK UNBOUND:                -2.151
REMARK SMILES COc1cc(CNC(=O)CCCCC=CC(C)C)ccc1O
REMARK SMILES IDX 11 1 12 2 13 3 14 4 15 5 16 6 17 7 18 8 10 9 8 10 9 11 7 12
REMARK SMILES IDX 6 14 5 15 4 16 19 17 3 18 20 19 21 20 2 21 1 22 22 23
REMARK H PARENT 7 13 22 24
REMARK Flexibility Score: inf
ROOT
ATOM      1  C   UNL     1       6.314   7.023  34.002  1.00  0.00     0.010 C 
ENDROOT
BRANCH   1   2
ATOM      2  C   UNL     1       7.569   7.593  33.312  1.00  0.00     0.005 C 
BRANCH   2   3
ATOM      3  C   UNL     1       7.377   7.764  31.799  1.00  0.00     0.027 C 
BRANCH   3   4
ATOM      4  C   UNL     1       8.632   7.452  31.033  1.00  0.00    -0.031 C 
ATOM      5  C   UNL     1       9.407   6.401  31.341  1.00  0.00    -0.028 C 
BRANCH   5   6
ATOM      6  C   UNL     1      10.700   6.135  30.608  1.00  0.00     0.005 C 
ATOM      7  C   UNL     1      11.586   7.384  30.594  1.00  0.00     0.012 C 
ATOM      8  C   UNL     1      10.418   5.665  29.175  1.00  0.00     0.012 C 
ENDBRANCH   5   6
ENDBRANCH   3   4
ENDBRANCH   2   3
ENDBRANCH   1   2
BRANCH   1   9
ATOM      9  C   UNL     1       6.661   5.957  35.050  1.00  0.00     0.100 C 
BRANCH   9  10
ATOM     10  C   UNL     1       7.441   4.823  34.450  1.00  0.00     0.220 C 
ATOM     11  O   UNL     1       8.618   4.597  34.848  1.00  0.00    -0.275 OA
ATOM     12  N   UNL     1       6.879   4.047  33.386  1.00  0.00    -0.352 N 
ATOM     13  H   UNL     1       5.887   4.221  33.111  1.00  0.00     0.163 HD
BRANCH  12  14
ATOM     14  C   UNL     1       7.687   3.097  32.622  1.00  0.00     0.151 C 
BRANCH  14  15
ATOM     15  C   UNL     1       7.484   3.301  31.145  1.00  0.00    -0.025 A 
ATOM     16  C   UNL     1       8.292   2.618  30.223  1.00  0.00     0.056 A 
ATOM     17  C   UNL     1       6.541   4.227  30.682  1.00  0.00     0.009 A 
ATOM     18  C   UNL     1       8.136   2.832  28.839  1.00  0.00     0.160 A 
ATOM     19  C   UNL     1       6.382   4.445  29.315  1.00  0.00     0.050 A 
ATOM     20  C   UNL     1       7.169   3.751  28.392  1.00  0.00     0.157 A 
BRANCH  18  21
ATOM     21  O   UNL     1       8.918   2.157  27.889  1.00  0.00    -0.493 OA
ATOM     22  C   UNL     1      10.321   2.318  27.737  1.00  0.00     0.278 C 
ENDBRANCH  18  21
BRANCH  20  23
ATOM     23  O   UNL     1       6.979   3.994  27.032  1.00  0.00    -0.504 OA
ATOM     24  H   UNL     1       7.192   3.300  26.319  1.00  0.00     0.293 HD
ENDBRANCH  20  23
ENDBRANCH  14  15
ENDBRANCH  12  14
ENDBRANCH   9  10
ENDBRANCH   1   9
TORSDOF 10
ENDMDL
MODEL 2
REMARK VINA RESULT:    -4.019      2.244      5.564
REMARK INTER + INTRA:          -8.403
REMARK INTER:                  -6.170
REMARK INTRA:                  -2.233
REMARK UNBOUND:                -2.151
REMARK SMILES COc1cc(CNC(=O)CCCCC=CC(C)C)ccc1O
REMARK SMILES IDX 11 1 12 2 13 3 14 4 15 5 16 6 17 7 18 8 10 9 8 10 9 11 7 12
REMARK SMILES IDX 6 14 5 15 4 16 19 17 3 18 20 19 21 20 2 21 1 22 22 23
REMARK H PARENT 7 13 22 24
REMARK Flexibility Score: inf
ROOT
ATOM      1  C   UNL     1       9.246   5.113  27.004  1.00  0.00     0.010 C 
ENDROOT
BRANCH   1   2
ATOM      2  C   UNL     1      10.195   5.042  28.216  1.00  0.00     0.005 C 
BRANCH   2   3
ATOM      3  C   UNL     1      10.872   3.671  28.347  1.00  0.00     0.027 C 
BRANCH   3   4
ATOM      4  C   UNL     1      10.597   3.032  29.680  1.00  0.00    -0.031 C 
ATOM      5  C   UNL     1      10.252   3.758  30.756  1.00  0.00    -0.028 C 
BRANCH   5   6
ATOM      6  C   UNL     1      10.042   3.114  32.105  1.00  0.00     0.005 C 
ATOM      7  C   UNL     1       8.820   2.190  32.083  1.00  0.00     0.012 C 
ATOM      8  C   UNL     1       9.883   4.184  33.192  1.00  0.00     0.012 C 
ENDBRANCH   5   6
ENDBRANCH   3   4
ENDBRANCH   2   3
ENDBRANCH   1   2
BRANCH   1   9
ATOM      9  C   UNL     1       8.321   3.890  26.918  1.00  0.00     0.100 C 
BRANCH   9  10
ATOM     10  C   UNL     1       7.113   4.048  27.796  1.00  0.00     0.220 C 
ATOM     11  O   UNL     1       6.120   4.706  27.378  1.00  0.00    -0.275 OA
ATOM     12  N   UNL     1       7.113   3.512  29.124  1.00  0.00    -0.352 N 
ATOM     13  H   UNL     1       7.924   2.928  29.426  1.00  0.00     0.163 HD
BRANCH  12  14
ATOM     14  C   UNL     1       6.060   3.843  30.083  1.00  0.00     0.151 C 
BRANCH  14  15
ATOM     15  C   UNL     1       6.518   4.935  31.012  1.00  0.00    -0.025 A 
ATOM     16  C   UNL     1       7.437   5.898  30.568  1.00  0.00     0.056 A 
ATOM     17  C   UNL     1       6.088   4.955  32.345  1.00  0.00     0.009 A 
ATOM     18  C   UNL     1       7.901   6.900  31.442  1.00  0.00     0.160 A 
ATOM     19  C   UNL     1       6.543   5.943  33.215  1.00  0.00     0.050 A 
ATOM     20  C   UNL     1       7.442   6.917  32.772  1.00  0.00     0.157 A 
BRANCH  18  21
ATOM     21  O   UNL     1       8.811   7.886  31.028  1.00  0.00    -0.493 OA
ATOM     22  C   UNL     1      10.214   7.692  30.916  1.00  0.00     0.278 C 
ENDBRANCH  18  21
BRANCH  20  23
ATOM     23  O   UNL     1       7.873   7.891  33.672  1.00  0.00    -0.504 OA
ATOM     24  H   UNL     1       8.733   8.416  33.536  1.00  0.00     0.293 HD
ENDBRANCH  20  23
ENDBRANCH  14  15
ENDBRANCH  12  14
ENDBRANCH   9  10
ENDBRANCH   1   9
TORSDOF 10
ENDMDL
MODEL 3
REMARK VINA RESULT:    -3.965     11.059     13.166
REMARK INTER + INTRA:          -8.318
REMARK INTER:                  -6.496
REMARK INTRA:                  -1.822
REMARK UNBOUND:                -2.151
REMARK SMILES COc1cc(CNC(=O)CCCCC=CC(C)C)ccc1O
REMARK SMILES IDX 11 1 12 2 13 3 14 4 15 5 16 6 17 7 18 8 10 9 8 10 9 11 7 12
REMARK SMILES IDX 6 14 5 15 4 16 19 17 3 18 20 19 21 20 2 21 1 22 22 23
REMARK H PARENT 7 13 22 24
REMARK Flexibility Score: inf
ROOT
ATOM      1  C   UNL     1       3.027  18.049  30.454  1.00  0.00     0.010 C 
ENDROOT
BRANCH   1   2
ATOM      2  C   UNL     1       4.043  16.898  30.324  1.00  0.00     0.005 C 
BRANCH   2   3
ATOM      3  C   UNL     1       3.371  15.563  29.976  1.00  0.00     0.027 C 
BRANCH   3   4
ATOM      4  C   UNL     1       3.366  14.613  31.142  1.00  0.00    -0.031 C 
ATOM      5  C   UNL     1       2.922  14.982  32.354  1.00  0.00    -0.028 C 
BRANCH   5   6
ATOM      6  C   UNL     1       2.982  14.042  33.533  1.00  0.00     0.005 C 
ATOM      7  C   UNL     1       1.757  14.220  34.435  1.00  0.00     0.012 C 
ATOM      8  C   UNL     1       4.271  14.266  34.334  1.00  0.00     0.012 C 
ENDBRANCH   5   6
ENDBRANCH   3   4
ENDBRANCH   2   3
ENDBRANCH   1   2
BRANCH   1   9
ATOM      9  C   UNL     1       1.708  17.744  29.729  1.00  0.00     0.100 C 
BRANCH   9  10
ATOM     10  C   UNL     1       0.591  17.485  30.699  1.00  0.00     0.220 C 
ATOM     11  O   UNL     1       0.453  18.235  31.705  1.00  0.00    -0.275 OA
ATOM     12  N   UNL     1      -0.271  16.356  30.519  1.00  0.00    -0.352 N 
ATOM     13  H   UNL     1      -0.168  15.783  29.652  1.00  0.00     0.163 HD
BRANCH  12  14
ATOM     14  C   UNL     1      -1.212  15.938  31.557  1.00  0.00     0.151 C 
BRANCH  14  15
ATOM     15  C   UNL     1      -1.019  14.483  31.890  1.00  0.00    -0.025 A 
ATOM     16  C   UNL     1      -1.721  13.906  32.958  1.00  0.00     0.056 A 
ATOM     17  C   UNL     1      -0.084  13.715  31.184  1.00  0.00     0.009 A 
ATOM     18  C   UNL     1      -1.517  12.555  33.302  1.00  0.00     0.160 A 
ATOM     19  C   UNL     1       0.123  12.379  31.518  1.00  0.00     0.050 A 
ATOM     20  C   UNL     1      -0.589  11.793  32.568  1.00  0.00     0.157 A 
BRANCH  18  21
ATOM     21  O   UNL     1      -2.211  11.942  34.357  1.00  0.00    -0.493 OA
ATOM     22  C   UNL     1      -3.439  11.242  34.216  1.00  0.00     0.278 C 
ENDBRANCH  18  21
BRANCH  20  23
ATOM     23  O   UNL     1      -0.356  10.452  32.872  1.00  0.00    -0.504 OA
ATOM     24  H   UNL     1      -1.082   9.744  32.803  1.00  0.00     0.293 HD
ENDBRANCH  20  23
ENDBRANCH  14  15
ENDBRANCH  12  14
ENDBRANCH   9  10
ENDBRANCH   1   9
TORSDOF 10
ENDMDL
MODEL 4
REMARK VINA RESULT:    -3.923      1.675      5.635
REMARK INTER + INTRA:          -8.253
REMARK INTER:                  -6.013
REMARK INTRA:                  -2.240
REMARK UNBOUND:                -2.151
REMARK SMILES COc1cc(CNC(=O)CCCCC=CC(C)C)ccc1O
REMARK SMILES IDX 11 1 12 2 13 3 14 4 15 5 16 6 17 7 18 8 10 9 8 10 9 11 7 12
REMARK SMILES IDX 6 14 5 15 4 16 19 17 3 18 20 19 21 20 2 21 1 22 22 23
REMARK H PARENT 7 13 22 24
REMARK Flexibility Score: inf
ROOT
ATOM      1  C   UNL     1       9.611   3.388  27.633  1.00  0.00     0.010 C 
ENDROOT
BRANCH   1   2
ATOM      2  C   UNL     1       9.897   4.734  28.326  1.00  0.00     0.005 C 
BRANCH   2   3
ATOM      3  C   UNL     1      10.670   4.561  29.641  1.00  0.00     0.027 C 
BRANCH   3   4
ATOM      4  C   UNL     1      10.493   5.738  30.559  1.00  0.00    -0.031 C 
ATOM      5  C   UNL     1       9.454   6.579  30.439  1.00  0.00    -0.028 C 
BRANCH   5   6
ATOM      6  C   UNL     1       9.320   7.795  31.323  1.00  0.00     0.005 C 
ATOM      7  C   UNL     1       9.897   7.522  32.716  1.00  0.00     0.012 C 
ATOM      8  C   UNL     1       7.851   8.224  31.429  1.00  0.00     0.012 C 
ENDBRANCH   5   6
ENDBRANCH   3   4
ENDBRANCH   2   3
ENDBRANCH   1   2
BRANCH   1   9
ATOM      9  C   UNL     1       8.275   3.398  26.875  1.00  0.00     0.100 C 
BRANCH   9  10
ATOM     10  C   UNL     1       7.149   3.879  27.745  1.00  0.00     0.220 C 
ATOM     11  O   UNL     1       6.405   4.814  27.339  1.00  0.00    -0.275 OA
ATOM     12  N   UNL     1       6.963   3.327  29.052  1.00  0.00    -0.352 N 
ATOM     13  H   UNL     1       7.559   2.520  29.343  1.00  0.00     0.163 HD
BRANCH  12  14
ATOM     14  C   UNL     1       6.035   3.926  30.011  1.00  0.00     0.151 C 
BRANCH  14  15
ATOM     15  C   UNL     1       6.707   4.121  31.344  1.00  0.00    -0.025 A 
ATOM     16  C   UNL     1       6.259   5.123  32.217  1.00  0.00     0.056 A 
ATOM     17  C   UNL     1       7.828   3.356  31.689  1.00  0.00     0.009 A 
ATOM     18  C   UNL     1       6.907   5.340  33.449  1.00  0.00     0.160 A 
ATOM     19  C   UNL     1       8.474   3.565  32.905  1.00  0.00     0.050 A 
ATOM     20  C   UNL     1       8.019   4.548  33.788  1.00  0.00     0.157 A 
BRANCH  18  21
ATOM     21  O   UNL     1       6.478   6.325  34.353  1.00  0.00    -0.493 OA
ATOM     22  C   UNL     1       5.294   7.095  34.204  1.00  0.00     0.278 C 
ENDBRANCH  18  21
BRANCH  20  23
ATOM     23  O   UNL     1       8.690   4.726  34.998  1.00  0.00    -0.504 OA
ATOM     24  H   UNL     1       9.541   5.276  35.073  1.00  0.00     0.293 HD
ENDBRANCH  20  23
ENDBRANCH  14  15
ENDBRANCH  12  14
ENDBRANCH   9  10
ENDBRANCH   1   9
TORSDOF 10
ENDMDL
MODEL 5
REMARK VINA RESULT:    -3.902      1.959      5.887
REMARK INTER + INTRA:          -8.220
REMARK INTER:                  -6.181
REMARK INTRA:                  -2.039
REMARK UNBOUND:                -2.151
REMARK SMILES COc1cc(CNC(=O)CCCCC=CC(C)C)ccc1O
REMARK SMILES IDX 11 1 12 2 13 3 14 4 15 5 16 6 17 7 18 8 10 9 8 10 9 11 7 12
REMARK SMILES IDX 6 14 5 15 4 16 19 17 3 18 20 19 21 20 2 21 1 22 22 23
REMARK H PARENT 7 13 22 24
REMARK Flexibility Score: inf
ROOT
ATOM      1  C   UNL     1       8.113   4.494  26.946  1.00  0.00     0.010 C 
ENDROOT
BRANCH   1   2
ATOM      2  C   UNL     1       9.045   5.261  27.903  1.00  0.00     0.005 C 
BRANCH   2   3
ATOM      3  C   UNL     1      10.422   4.596  28.034  1.00  0.00     0.027 C 
BRANCH   3   4
ATOM      4  C   UNL     1      10.620   3.971  29.387  1.00  0.00    -0.031 C 
ATOM      5  C   UNL     1      10.220   4.581  30.514  1.00  0.00    -0.028 C 
BRANCH   5   6
ATOM      6  C   UNL     1      10.482   3.975  31.872  1.00  0.00     0.005 C 
ATOM      7  C   UNL     1       9.432   2.911  32.205  1.00  0.00     0.012 C 
ATOM      8  C   UNL     1      10.500   5.064  32.952  1.00  0.00     0.012 C 
ENDBRANCH   5   6
ENDBRANCH   3   4
ENDBRANCH   2   3
ENDBRANCH   1   2
BRANCH   1   9
ATOM      9  C   UNL     1       6.727   4.249  27.558  1.00  0.00     0.100 C 
BRANCH   9  10
ATOM     10  C   UNL     1       6.816   3.943  29.026  1.00  0.00     0.220 C 
ATOM     11  O   UNL     1       7.260   2.822  29.403  1.00  0.00    -0.275 OA
ATOM     12  N   UNL     1       6.340   4.889  29.988  1.00  0.00    -0.352 N 
ATOM     13  H   UNL     1       6.027   5.827  29.653  1.00  0.00     0.163 HD
BRANCH  12  14
ATOM     14  C   UNL     1       6.193   4.537  31.400  1.00  0.00     0.151 C 
BRANCH  14  15
ATOM     15  C   UNL     1       6.817   5.592  32.274  1.00  0.00    -0.025 A 
ATOM     16  C   UNL     1       6.832   5.433  33.668  1.00  0.00     0.056 A 
ATOM     17  C   UNL     1       7.319   6.771  31.708  1.00  0.00     0.009 A 
ATOM     18  C   UNL     1       7.378   6.433  34.496  1.00  0.00     0.160 A 
ATOM     19  C   UNL     1       7.861   7.765  32.521  1.00  0.00     0.050 A 
ATOM     20  C   UNL     1       7.897   7.602  33.909  1.00  0.00     0.157 A 
BRANCH  18  21
ATOM     21  O   UNL     1       7.421   6.302  35.893  1.00  0.00    -0.493 OA
ATOM     22  C   UNL     1       6.737   5.299  36.630  1.00  0.00     0.278 C 
ENDBRANCH  18  21
BRANCH  20  23
ATOM     23  O   UNL     1       8.449   8.618  34.689  1.00  0.00    -0.504 OA
ATOM     24  H   UNL     1       8.834   8.446  35.614  1.00  0.00     0.293 HD
ENDBRANCH  20  23
ENDBRANCH  14  15
ENDBRANCH  12  14
ENDBRANCH   9  10
ENDBRANCH   1   9
TORSDOF 10
ENDMDL
MODEL 6
REMARK VINA RESULT:    -3.878     10.293     12.240
REMARK INTER + INTRA:          -8.182
REMARK INTER:                  -6.333
REMARK INTRA:                  -1.849
REMARK UNBOUND:                -2.151
REMARK SMILES COc1cc(CNC(=O)CCCCC=CC(C)C)ccc1O
REMARK SMILES IDX 11 1 12 2 13 3 14 4 15 5 16 6 17 7 18 8 10 9 8 10 9 11 7 12
REMARK SMILES IDX 6 14 5 15 4 16 19 17 3 18 20 19 21 20 2 21 1 22 22 23
REMARK H PARENT 7 13 22 24
REMARK Flexibility Score: inf
ROOT
ATOM      1  C   UNL     1       0.940  11.209  35.191  1.00  0.00     0.010 C 
ENDROOT
BRANCH   1   2
ATOM      2  C   UNL     1       2.356  10.727  35.561  1.00  0.00     0.005 C 
BRANCH   2   3
ATOM      3  C   UNL     1       3.343  11.890  35.729  1.00  0.00     0.027 C 
BRANCH   3   4
ATOM      4  C   UNL     1       2.793  13.179  35.184  1.00  0.00    -0.031 C 
ATOM      5  C   UNL     1       3.495  13.944  34.333  1.00  0.00    -0.028 C 
BRANCH   5   6
ATOM      6  C   UNL     1       2.962  15.268  33.843  1.00  0.00     0.005 C 
ATOM      7  C   UNL     1       3.957  16.397  34.130  1.00  0.00     0.012 C 
ATOM      8  C   UNL     1       1.606  15.575  34.490  1.00  0.00     0.012 C 
ENDBRANCH   5   6
ENDBRANCH   3   4
ENDBRANCH   2   3
ENDBRANCH   1   2
BRANCH   1   9
ATOM      9  C   UNL     1       0.382  10.481  33.960  1.00  0.00     0.100 C 
BRANCH   9  10
ATOM     10  C   UNL     1      -0.193  11.444  32.961  1.00  0.00     0.220 C 
ATOM     11  O   UNL     1      -1.393  11.315  32.590  1.00  0.00    -0.275 OA
ATOM     12  N   UNL     1       0.634  12.460  32.382  1.00  0.00    -0.352 N 
ATOM     13  H   UNL     1       1.606  12.577  32.744  1.00  0.00     0.163 HD
BRANCH  12  14
ATOM     14  C   UNL     1       0.182  13.259  31.245  1.00  0.00     0.151 C 
BRANCH  14  15
ATOM     15  C   UNL     1       1.213  14.296  30.886  1.00  0.00    -0.025 A 
ATOM     16  C   UNL     1       0.840  15.642  30.752  1.00  0.00     0.056 A 
ATOM     17  C   UNL     1       2.532  13.914  30.611  1.00  0.00     0.009 A 
ATOM     18  C   UNL     1       1.790  16.613  30.378  1.00  0.00     0.160 A 
ATOM     19  C   UNL     1       3.476  14.869  30.240  1.00  0.00     0.050 A 
ATOM     20  C   UNL     1       3.115  16.214  30.126  1.00  0.00     0.157 A 
BRANCH  18  21
ATOM     21  O   UNL     1       1.455  17.969  30.246  1.00  0.00    -0.493 OA
ATOM     22  C   UNL     1       0.943  18.563  29.062  1.00  0.00     0.278 C 
ENDBRANCH  18  21
BRANCH  20  23
ATOM     23  O   UNL     1       4.089  17.141  29.754  1.00  0.00    -0.504 OA
ATOM     24  H   UNL     1       4.785  16.943  29.040  1.00  0.00     0.293 HD
ENDBRANCH  20  23
ENDBRANCH  14  15
ENDBRANCH  12  14
ENDBRANCH   9  10
ENDBRANCH   1   9
TORSDOF 10
ENDMDL
MODEL 7
REMARK VINA RESULT:    -3.853      2.125      6.102
REMARK INTER + INTRA:          -8.144
REMARK INTER:                  -6.006
REMARK INTRA:                  -2.138
REMARK UNBOUND:                -2.151
REMARK SMILES COc1cc(CNC(=O)CCCCC=CC(C)C)ccc1O
REMARK SMILES IDX 11 1 12 2 13 3 14 4 15 5 16 6 17 7 18 8 10 9 8 10 9 11 7 12
REMARK SMILES IDX 6 14 5 15 4 16 19 17 3 18 20 19 21 20 2 21 1 22 22 23
REMARK H PARENT 7 13 22 24
REMARK Flexibility Score: inf
ROOT
ATOM      1  C   UNL     1       9.140   2.239  27.695  1.00  0.00     0.010 C 
ENDROOT
BRANCH   1   2
ATOM      2  C   UNL     1      10.492   2.977  27.671  1.00  0.00     0.005 C 
BRANCH   2   3
ATOM      3  C   UNL     1      11.343   2.675  28.912  1.00  0.00     0.027 C 
BRANCH   3   4
ATOM      4  C   UNL     1      10.497   2.443  30.133  1.00  0.00    -0.031 C 
ATOM      5  C   UNL     1      10.729   3.086  31.289  1.00  0.00    -0.028 C 
BRANCH   5   6
ATOM      6  C   UNL     1       9.916   2.797  32.527  1.00  0.00     0.005 C 
ATOM      7  C   UNL     1       8.577   2.149  32.160  1.00  0.00     0.012 C 
ATOM      8  C   UNL     1       9.684   4.083  33.330  1.00  0.00     0.012 C 
ENDBRANCH   5   6
ENDBRANCH   3   4
ENDBRANCH   2   3
ENDBRANCH   1   2
BRANCH   1   9
ATOM      9  C   UNL     1       8.064   2.972  26.881  1.00  0.00     0.100 C 
BRANCH   9  10
ATOM     10  C   UNL     1       7.090   3.690  27.770  1.00  0.00     0.220 C 
ATOM     11  O   UNL     1       6.309   4.548  27.273  1.00  0.00    -0.275 OA
ATOM     12  N   UNL     1       7.094   3.452  29.182  1.00  0.00    -0.352 N 
ATOM     13  H   UNL     1       7.714   2.701  29.559  1.00  0.00     0.163 HD
BRANCH  12  14
ATOM     14  C   UNL     1       6.332   4.294  30.102  1.00  0.00     0.151 C 
BRANCH  14  15
ATOM     15  C   UNL     1       7.214   5.360  30.696  1.00  0.00    -0.025 A 
ATOM     16  C   UNL     1       6.810   6.045  31.851  1.00  0.00     0.056 A 
ATOM     17  C   UNL     1       8.407   5.725  30.059  1.00  0.00     0.009 A 
ATOM     18  C   UNL     1       7.610   7.071  32.391  1.00  0.00     0.160 A 
ATOM     19  C   UNL     1       9.204   6.738  30.587  1.00  0.00     0.050 A 
ATOM     20  C   UNL     1       8.815   7.410  31.750  1.00  0.00     0.157 A 
BRANCH  18  21
ATOM     21  O   UNL     1       7.242   7.770  33.552  1.00  0.00    -0.493 OA
ATOM     22  C   UNL     1       6.621   7.180  34.685  1.00  0.00     0.278 C 
ENDBRANCH  18  21
BRANCH  20  23
ATOM     23  O   UNL     1       9.640   8.418  32.250  1.00  0.00    -0.504 OA
ATOM     24  H   UNL     1      10.219   8.997  31.647  1.00  0.00     0.293 HD
ENDBRANCH  20  23
ENDBRANCH  14  15
ENDBRANCH  12  14
ENDBRANCH   9  10
ENDBRANCH   1   9
TORSDOF 10
ENDMDL
MODEL 8
REMARK VINA RESULT:    -3.842     10.482     11.131
REMARK INTER + INTRA:          -8.126
REMARK INTER:                  -7.411
REMARK INTRA:                  -0.716
REMARK UNBOUND:                -2.151
REMARK SMILES COc1cc(CNC(=O)CCCCC=CC(C)C)ccc1O
REMARK SMILES IDX 11 1 12 2 13 3 14 4 15 5 16 6 17 7 18 8 10 9 8 10 9 11 7 12
REMARK SMILES IDX 6 14 5 15 4 16 19 17 3 18 20 19 21 20 2 21 1 22 22 23
REMARK H PARENT 7 13 22 24
REMARK Flexibility Score: inf
ROOT
ATOM      1  C   UNL     1      -1.108  10.757  32.968  1.00  0.00     0.010 C 
ENDROOT
BRANCH   1   2
ATOM      2  C   UNL     1      -0.317  12.054  32.711  1.00  0.00     0.005 C 
BRANCH   2   3
ATOM      3  C   UNL     1      -0.041  12.283  31.219  1.00  0.00     0.027 C 
BRANCH   3   4
ATOM      4  C   UNL     1       1.142  13.184  30.996  1.00  0.00    -0.031 C 
ATOM      5  C   UNL     1       1.112  14.486  31.323  1.00  0.00    -0.028 C 
BRANCH   5   6
ATOM      6  C   UNL     1       2.281  15.396  31.035  1.00  0.00     0.005 C 
ATOM      7  C   UNL     1       1.832  16.625  30.238  1.00  0.00     0.012 C 
ATOM      8  C   UNL     1       3.378  14.639  30.274  1.00  0.00     0.012 C 
ENDBRANCH   5   6
ENDBRANCH   3   4
ENDBRANCH   2   3
ENDBRANCH   1   2
BRANCH   1   9
ATOM      9  C   UNL     1      -0.368   9.804  33.917  1.00  0.00     0.100 C 
BRANCH   9  10
ATOM     10  C   UNL     1      -1.243   8.662  34.348  1.00  0.00     0.220 C 
ATOM     11  O   UNL     1      -0.722   7.647  34.888  1.00  0.00    -0.275 OA
ATOM     12  N   UNL     1      -2.651   8.696  34.088  1.00  0.00    -0.352 N 
ATOM     13  H   UNL     1      -3.063   9.568  33.688  1.00  0.00     0.163 HD
BRANCH  12  14
ATOM     14  C   UNL     1      -3.493   7.516  34.277  1.00  0.00     0.151 C 
BRANCH  14  15
ATOM     15  C   UNL     1      -3.564   6.710  33.007  1.00  0.00    -0.025 A 
ATOM     16  C   UNL     1      -3.389   5.319  33.046  1.00  0.00     0.056 A 
ATOM     17  C   UNL     1      -3.732   7.350  31.773  1.00  0.00     0.009 A 
ATOM     18  C   UNL     1      -3.415   4.561  31.859  1.00  0.00     0.160 A 
ATOM     19  C   UNL     1      -3.758   6.608  30.595  1.00  0.00     0.050 A 
ATOM     20  C   UNL     1      -3.605   5.219  30.630  1.00  0.00     0.157 A 
BRANCH  18  21
ATOM     21  O   UNL     1      -3.255   3.167  31.862  1.00  0.00    -0.493 OA
ATOM     22  C   UNL     1      -3.839   2.290  32.815  1.00  0.00     0.278 C 
ENDBRANCH  18  21
BRANCH  20  23
ATOM     23  O   UNL     1      -3.639   4.509  29.429  1.00  0.00    -0.504 OA
ATOM     24  H   UNL     1      -3.690   4.971  28.525  1.00  0.00     0.293 HD
ENDBRANCH  20  23
ENDBRANCH  14  15
ENDBRANCH  12  14
ENDBRANCH   9  10
ENDBRANCH   1   9
TORSDOF 10
ENDMDL
MODEL 9
REMARK VINA RESULT:    -3.748     10.615     12.613
REMARK INTER + INTRA:          -7.980
REMARK INTER:                  -5.770
REMARK INTRA:                  -2.210
REMARK UNBOUND:                -2.151
REMARK SMILES COc1cc(CNC(=O)CCCCC=CC(C)C)ccc1O
REMARK SMILES IDX 11 1 12 2 13 3 14 4 15 5 16 6 17 7 18 8 10 9 8 10 9 11 7 12
REMARK SMILES IDX 6 14 5 15 4 16 19 17 3 18 20 19 21 20 2 21 1 22 22 23
REMARK H PARENT 7 13 22 24
REMARK Flexibility Score: inf
ROOT
ATOM      1  C   UNL     1      -0.962  13.061  35.484  1.00  0.00     0.010 C 
ENDROOT
BRANCH   1   2
ATOM      2  C   UNL     1      -1.313  14.515  35.114  1.00  0.00     0.005 C 
BRANCH   2   3
ATOM      3  C   UNL     1      -0.068  15.406  35.007  1.00  0.00     0.027 C 
BRANCH   3   4
ATOM      4  C   UNL     1       1.204  14.610  35.091  1.00  0.00    -0.031 C 
ATOM      5  C   UNL     1       2.144  14.672  34.134  1.00  0.00    -0.028 C 
BRANCH   5   6
ATOM      6  C   UNL     1       3.388  13.820  34.196  1.00  0.00     0.005 C 
ATOM      7  C   UNL     1       3.315  12.834  35.367  1.00  0.00     0.012 C 
ATOM      8  C   UNL     1       4.638  14.700  34.316  1.00  0.00     0.012 C 
ENDBRANCH   5   6
ENDBRANCH   3   4
ENDBRANCH   2   3
ENDBRANCH   1   2
BRANCH   1   9
ATOM      9  C   UNL     1      -1.469  12.057  34.439  1.00  0.00     0.100 C 
BRANCH   9  10
ATOM     10  C   UNL     1      -0.449  11.817  33.363  1.00  0.00     0.220 C 
ATOM     11  O   UNL     1       0.644  11.257  33.654  1.00  0.00    -0.275 OA
ATOM     12  N   UNL     1      -0.687  12.280  32.029  1.00  0.00    -0.352 N 
ATOM     13  H   UNL     1      -1.619  12.692  31.803  1.00  0.00     0.163 HD
BRANCH  12  14
ATOM     14  C   UNL     1       0.368  12.275  31.017  1.00  0.00     0.151 C 
BRANCH  14  15
ATOM     15  C   UNL     1       0.977  13.645  30.883  1.00  0.00    -0.025 A 
ATOM     16  C   UNL     1       0.163  14.786  30.948  1.00  0.00     0.056 A 
ATOM     17  C   UNL     1       2.345  13.788  30.621  1.00  0.00     0.009 A 
ATOM     18  C   UNL     1       0.717  16.071  30.784  1.00  0.00     0.160 A 
ATOM     19  C   UNL     1       2.901  15.055  30.458  1.00  0.00     0.050 A 
ATOM     20  C   UNL     1       2.097  16.196  30.542  1.00  0.00     0.157 A 
BRANCH  18  21
ATOM     21  O   UNL     1      -0.065  17.234  30.855  1.00  0.00    -0.493 OA
ATOM     22  C   UNL     1      -1.134  17.433  31.768  1.00  0.00     0.278 C 
ENDBRANCH  18  21
BRANCH  20  23
ATOM     23  O   UNL     1       2.690  17.447  30.375  1.00  0.00    -0.504 OA
ATOM     24  H   UNL     1       3.389  17.628  29.659  1.00  0.00     0.293 HD
ENDBRANCH  20  23
ENDBRANCH  14  15
ENDBRANCH  12  14
ENDBRANCH   9  10
ENDBRANCH   1   9
TORSDOF 10
ENDMDL
