MODEL 1
REMARK VINA RESULT:    -3.584      0.000      0.000
REMARK INTER + INTRA:          -5.782
REMARK INTER:                  -5.051
REMARK INTRA:                  -0.731
REMARK UNBOUND:                -0.731
REMARK SMILES CCCCCCCCC(=O)[O-]
REMARK SMILES IDX 6 1 7 2 8 3 9 4 10 5 11 6 5 7 4 8 3 9 2 10 1 11
REMARK H PARENT
REMARK Flexibility Score: inf
ROOT
ATOM      1  C   UNL     1      25.265  -2.295  18.024  1.00  0.00     0.000 C 
ENDROOT
BRANCH   1   2
ATOM      2  C   UNL     1      25.085  -3.569  17.191  1.00  0.00     0.006 C 
BRANCH   2   3
ATOM      3  C   UNL     1      25.895  -4.729  17.778  1.00  0.00     0.053 C 
BRANCH   3   4
ATOM      4  C   UNL     1      25.486  -6.024  17.150  1.00  0.00     0.041 C 
ATOM      5  O   UNL     1      25.008  -6.040  15.985  1.00  0.00    -0.550 OA
ATOM      6  O   UNL     1      25.679  -7.218  17.832  1.00  0.00    -0.550 OA
ENDBRANCH   3   4
ENDBRANCH   2   3
ENDBRANCH   1   2
BRANCH   1   7
ATOM      7  C   UNL     1      23.921  -1.812  18.590  1.00  0.00     0.000 C 
BRANCH   7   8
ATOM      8  C   UNL     1      22.733  -2.650  18.092  1.00  0.00    -0.000 C 
BRANCH   8   9
ATOM      9  C   UNL     1      21.949  -3.306  19.242  1.00  0.00    -0.000 C 
BRANCH   9  10
ATOM     10  C   UNL     1      22.381  -4.758  19.495  1.00  0.00    -0.003 C 
ATOM     11  C   UNL     1      22.059  -5.682  18.321  1.00  0.00     0.004 C 
ENDBRANCH   9  10
ENDBRANCH   8   9
ENDBRANCH   7   8
ENDBRANCH   1   7
TORSDOF 7
ENDMDL
MODEL 2
REMARK VINA RESULT:    -3.438      2.234      3.742
REMARK INTER + INTRA:          -5.576
REMARK INTER:                  -5.252
REMARK INTRA:                  -0.324
REMARK UNBOUND:                -0.731
REMARK SMILES CCCCCCCCC(=O)[O-]
REMARK SMILES IDX 6 1 7 2 8 3 9 4 10 5 11 6 5 7 4 8 3 9 2 10 1 11
REMARK H PARENT
REMARK Flexibility Score: inf
ROOT
ATOM      1  C   UNL     1      25.015  -2.195  17.829  1.00  0.00     0.000 C 
ENDROOT
BRANCH   1   2
ATOM      2  C   UNL     1      24.828  -3.525  17.088  1.00  0.00     0.006 C 
BRANCH   2   3
ATOM      3  C   UNL     1      25.886  -4.546  17.516  1.00  0.00     0.053 C 
BRANCH   3   4
ATOM      4  C   UNL     1      25.239  -5.733  18.158  1.00  0.00     0.041 C 
ATOM      5  O   UNL     1      25.706  -6.886  17.973  1.00  0.00    -0.550 OA
ATOM      6  O   UNL     1      24.149  -5.558  19.001  1.00  0.00    -0.550 OA
ENDBRANCH   3   4
ENDBRANCH   2   3
ENDBRANCH   1   2
BRANCH   1   7
ATOM      7  C   UNL     1      23.798  -1.882  18.712  1.00  0.00     0.000 C 
BRANCH   7   8
ATOM      8  C   UNL     1      23.068  -0.600  18.282  1.00  0.00    -0.000 C 
BRANCH   8   9
ATOM      9  C   UNL     1      23.597  -0.037  16.951  1.00  0.00    -0.000 C 
BRANCH   9  10
ATOM     10  C   UNL     1      23.421   1.485  16.845  1.00  0.00    -0.003 C 
ATOM     11  C   UNL     1      23.865   2.038  15.491  1.00  0.00     0.004 C 
ENDBRANCH   9  10
ENDBRANCH   8   9
ENDBRANCH   7   8
ENDBRANCH   1   7
TORSDOF 7
ENDMDL
MODEL 3
REMARK VINA RESULT:    -3.427      2.696      3.944
REMARK INTER + INTRA:          -5.560
REMARK INTER:                  -4.867
REMARK INTRA:                  -0.693
REMARK UNBOUND:                -0.731
REMARK SMILES CCCCCCCCC(=O)[O-]
REMARK SMILES IDX 6 1 7 2 8 3 9 4 10 5 11 6 5 7 4 8 3 9 2 10 1 11
REMARK H PARENT
REMARK Flexibility Score: inf
ROOT
ATOM      1  C   UNL     1      25.012  -3.386  17.050  1.00  0.00     0.000 C 
ENDROOT
BRANCH   1   2
ATOM      2  C   UNL     1      25.228  -2.191  17.985  1.00  0.00     0.006 C 
BRANCH   2   3
ATOM      3  C   UNL     1      23.894  -1.666  18.524  1.00  0.00     0.053 C 
BRANCH   3   4
ATOM      4  C   UNL     1      22.989  -1.280  17.397  1.00  0.00     0.041 C 
ATOM      5  O   UNL     1      21.864  -1.830  17.271  1.00  0.00    -0.550 OA
ATOM      6  O   UNL     1      23.367  -0.276  16.514  1.00  0.00    -0.550 OA
ENDBRANCH   3   4
ENDBRANCH   2   3
ENDBRANCH   1   2
BRANCH   1   7
ATOM      7  C   UNL     1      25.756  -4.628  17.563  1.00  0.00     0.000 C 
BRANCH   7   8
ATOM      8  C   UNL     1      24.803  -5.744  18.019  1.00  0.00    -0.000 C 
BRANCH   8   9
ATOM      9  C   UNL     1      23.931  -5.323  19.215  1.00  0.00    -0.000 C 
BRANCH   9  10
ATOM     10  C   UNL     1      22.450  -5.168  18.836  1.00  0.00    -0.003 C 
ATOM     11  C   UNL     1      21.655  -4.378  19.875  1.00  0.00     0.004 C 
ENDBRANCH   9  10
ENDBRANCH   8   9
ENDBRANCH   7   8
ENDBRANCH   1   7
TORSDOF 7
ENDMDL
MODEL 4
REMARK VINA RESULT:    -3.394      1.130      2.336
REMARK INTER + INTRA:          -5.514
REMARK INTER:                  -4.779
REMARK INTRA:                  -0.735
REMARK UNBOUND:                -0.731
REMARK SMILES CCCCCCCCC(=O)[O-]
REMARK SMILES IDX 6 1 7 2 8 3 9 4 10 5 11 6 5 7 4 8 3 9 2 10 1 11
REMARK H PARENT
REMARK Flexibility Score: inf
ROOT
ATOM      1  C   UNL     1      25.777  -4.698  17.773  1.00  0.00     0.000 C 
ENDROOT
BRANCH   1   2
ATOM      2  C   UNL     1      24.701  -5.623  18.355  1.00  0.00     0.006 C 
BRANCH   2   3
ATOM      3  C   UNL     1      23.783  -6.160  17.253  1.00  0.00     0.053 C 
BRANCH   3   4
ATOM      4  C   UNL     1      24.508  -7.158  16.407  1.00  0.00     0.041 C 
ATOM      5  O   UNL     1      24.896  -6.846  15.251  1.00  0.00    -0.550 OA
ATOM      6  O   UNL     1      24.799  -8.418  16.914  1.00  0.00    -0.550 OA
ENDBRANCH   3   4
ENDBRANCH   2   3
ENDBRANCH   1   2
BRANCH   1   7
ATOM      7  C   UNL     1      25.150  -3.422  17.192  1.00  0.00     0.000 C 
BRANCH   7   8
ATOM      8  C   UNL     1      25.168  -2.248  18.184  1.00  0.00    -0.000 C 
BRANCH   8   9
ATOM      9  C   UNL     1      23.799  -1.556  18.305  1.00  0.00    -0.000 C 
BRANCH   9  10
ATOM     10  C   UNL     1      22.635  -2.486  17.933  1.00  0.00    -0.003 C 
ATOM     11  C   UNL     1      21.987  -3.138  19.154  1.00  0.00     0.004 C 
ENDBRANCH   9  10
ENDBRANCH   8   9
ENDBRANCH   7   8
ENDBRANCH   1   7
TORSDOF 7
ENDMDL
MODEL 5
REMARK VINA RESULT:    -3.386      1.590      3.449
REMARK INTER + INTRA:          -5.503
REMARK INTER:                  -4.819
REMARK INTRA:                  -0.684
REMARK UNBOUND:                -0.731
REMARK SMILES CCCCCCCCC(=O)[O-]
REMARK SMILES IDX 6 1 7 2 8 3 9 4 10 5 11 6 5 7 4 8 3 9 2 10 1 11
REMARK H PARENT
REMARK Flexibility Score: inf
ROOT
ATOM      1  C   UNL     1      23.803  -5.248  18.953  1.00  0.00     0.000 C 
ENDROOT
BRANCH   1   2
ATOM      2  C   UNL     1      22.886  -5.349  17.728  1.00  0.00     0.006 C 
BRANCH   2   3
ATOM      3  C   UNL     1      22.293  -6.754  17.599  1.00  0.00     0.053 C 
BRANCH   3   4
ATOM      4  C   UNL     1      23.216  -7.644  16.829  1.00  0.00     0.041 C 
ATOM      5  O   UNL     1      23.133  -8.895  16.943  1.00  0.00    -0.550 OA
ATOM      6  O   UNL     1      24.137  -7.093  15.947  1.00  0.00    -0.550 OA
ENDBRANCH   3   4
ENDBRANCH   2   3
ENDBRANCH   1   2
BRANCH   1   7
ATOM      7  C   UNL     1      25.226  -4.841  18.543  1.00  0.00     0.000 C 
BRANCH   7   8
ATOM      8  C   UNL     1      25.242  -3.802  17.411  1.00  0.00    -0.000 C 
BRANCH   8   9
ATOM      9  C   UNL     1      25.294  -2.357  17.935  1.00  0.00    -0.000 C 
BRANCH   9  10
ATOM     10  C   UNL     1      23.997  -1.583  17.654  1.00  0.00    -0.003 C 
ATOM     11  C   UNL     1      23.063  -1.540  18.862  1.00  0.00     0.004 C 
ENDBRANCH   9  10
ENDBRANCH   8   9
ENDBRANCH   7   8
ENDBRANCH   1   7
TORSDOF 7
ENDMDL
MODEL 6
REMARK VINA RESULT:    -3.375     10.802     12.027
REMARK INTER + INTRA:          -5.488
REMARK INTER:                  -4.618
REMARK INTRA:                  -0.870
REMARK UNBOUND:                -0.731
REMARK SMILES CCCCCCCCC(=O)[O-]
REMARK SMILES IDX 6 1 7 2 8 3 9 4 10 5 11 6 5 7 4 8 3 9 2 10 1 11
REMARK H PARENT
REMARK Flexibility Score: inf
ROOT
ATOM      1  C   UNL     1      27.722   0.447   5.556  1.00  0.00     0.000 C 
ENDROOT
BRANCH   1   2
ATOM      2  C   UNL     1      27.689  -0.682   6.593  1.00  0.00     0.006 C 
BRANCH   2   3
ATOM      3  C   UNL     1      28.431  -0.278   7.869  1.00  0.00     0.053 C 
BRANCH   3   4
ATOM      4  C   UNL     1      27.654  -0.689   9.080  1.00  0.00     0.041 C 
ATOM      5  O   UNL     1      26.869  -1.671   9.026  1.00  0.00    -0.550 OA
ATOM      6  O   UNL     1      27.833  -0.015  10.282  1.00  0.00    -0.550 OA
ENDBRANCH   3   4
ENDBRANCH   2   3
ENDBRANCH   1   2
BRANCH   1   7
ATOM      7  C   UNL     1      27.977   1.804   6.228  1.00  0.00     0.000 C 
BRANCH   7   8
ATOM      8  C   UNL     1      26.681   2.582   6.503  1.00  0.00    -0.000 C 
BRANCH   8   9
ATOM      9  C   UNL     1      26.498   2.919   7.993  1.00  0.00    -0.000 C 
BRANCH   9  10
ATOM     10  C   UNL     1      25.371   2.104   8.645  1.00  0.00    -0.003 C 
ATOM     11  C   UNL     1      24.635   1.212   7.647  1.00  0.00     0.004 C 
ENDBRANCH   9  10
ENDBRANCH   8   9
ENDBRANCH   7   8
ENDBRANCH   1   7
TORSDOF 7
ENDMDL
MODEL 7
REMARK VINA RESULT:    -3.335      1.961      3.460
REMARK INTER + INTRA:          -5.430
REMARK INTER:                  -4.899
REMARK INTRA:                  -0.531
REMARK UNBOUND:                -0.731
REMARK SMILES CCCCCCCCC(=O)[O-]
REMARK SMILES IDX 6 1 7 2 8 3 9 4 10 5 11 6 5 7 4 8 3 9 2 10 1 11
REMARK H PARENT
REMARK Flexibility Score: inf
ROOT
ATOM      1  C   UNL     1      25.223  -4.758  18.644  1.00  0.00     0.000 C 
ENDROOT
BRANCH   1   2
ATOM      2  C   UNL     1      23.808  -5.251  18.967  1.00  0.00     0.006 C 
BRANCH   2   3
ATOM      3  C   UNL     1      22.960  -5.359  17.696  1.00  0.00     0.053 C 
BRANCH   3   4
ATOM      4  C   UNL     1      22.267  -6.684  17.639  1.00  0.00     0.041 C 
ATOM      5  O   UNL     1      21.084  -6.798  18.053  1.00  0.00    -0.550 OA
ATOM      6  O   UNL     1      22.912  -7.782  17.084  1.00  0.00    -0.550 OA
ENDBRANCH   3   4
ENDBRANCH   2   3
ENDBRANCH   1   2
BRANCH   1   7
ATOM      7  C   UNL     1      25.208  -3.772  17.466  1.00  0.00     0.000 C 
BRANCH   7   8
ATOM      8  C   UNL     1      25.251  -2.305  17.921  1.00  0.00    -0.000 C 
BRANCH   8   9
ATOM      9  C   UNL     1      23.937  -1.558  17.630  1.00  0.00    -0.000 C 
BRANCH   9  10
ATOM     10  C   UNL     1      23.039  -1.443  18.871  1.00  0.00    -0.003 C 
ATOM     11  C   UNL     1      22.970  -0.018  19.418  1.00  0.00     0.004 C 
ENDBRANCH   9  10
ENDBRANCH   8   9
ENDBRANCH   7   8
ENDBRANCH   1   7
TORSDOF 7
ENDMDL
MODEL 8
REMARK VINA RESULT:    -3.304     11.001     12.446
REMARK INTER + INTRA:          -5.387
REMARK INTER:                  -4.692
REMARK INTRA:                  -0.696
REMARK UNBOUND:                -0.731
REMARK SMILES CCCCCCCCC(=O)[O-]
REMARK SMILES IDX 6 1 7 2 8 3 9 4 10 5 11 6 5 7 4 8 3 9 2 10 1 11
REMARK H PARENT
REMARK Flexibility Score: inf
ROOT
ATOM      1  C   UNL     1      26.426   1.763   8.788  1.00  0.00     0.000 C 
ENDROOT
BRANCH   1   2
ATOM      2  C   UNL     1      26.414   2.593   7.500  1.00  0.00     0.006 C 
BRANCH   2   3
ATOM      3  C   UNL     1      27.648   2.298   6.643  1.00  0.00     0.053 C 
BRANCH   3   4
ATOM      4  C   UNL     1      27.273   1.478   5.449  1.00  0.00     0.041 C 
ATOM      5  O   UNL     1      27.963   0.476   5.126  1.00  0.00    -0.550 OA
ATOM      6  O   UNL     1      26.132   1.791   4.721  1.00  0.00    -0.550 OA
ENDBRANCH   3   4
ENDBRANCH   2   3
ENDBRANCH   1   2
BRANCH   1   7
ATOM      7  C   UNL     1      25.746   0.402   8.573  1.00  0.00     0.000 C 
BRANCH   7   8
ATOM      8  C   UNL     1      26.571  -0.767   9.132  1.00  0.00    -0.000 C 
BRANCH   8   9
ATOM      9  C   UNL     1      27.811  -1.077   8.275  1.00  0.00    -0.000 C 
BRANCH   9  10
ATOM     10  C   UNL     1      29.125  -0.831   9.033  1.00  0.00    -0.003 C 
ATOM     11  C   UNL     1      28.901  -0.484  10.504  1.00  0.00     0.004 C 
ENDBRANCH   9  10
ENDBRANCH   8   9
ENDBRANCH   7   8
ENDBRANCH   1   7
TORSDOF 7
ENDMDL
MODEL 9
REMARK VINA RESULT:    -3.293     11.810     13.301
REMARK INTER + INTRA:          -5.371
REMARK INTER:                  -4.677
REMARK INTRA:                  -0.694
REMARK UNBOUND:                -0.731
REMARK SMILES CCCCCCCCC(=O)[O-]
REMARK SMILES IDX 6 1 7 2 8 3 9 4 10 5 11 6 5 7 4 8 3 9 2 10 1 11
REMARK H PARENT
REMARK Flexibility Score: inf
ROOT
ATOM      1  C   UNL     1      28.526  -0.971   7.982  1.00  0.00     0.000 C 
ENDROOT
BRANCH   1   2
ATOM      2  C   UNL     1      27.292  -0.463   7.229  1.00  0.00     0.006 C 
BRANCH   2   3
ATOM      3  C   UNL     1      27.647  -0.069   5.792  1.00  0.00     0.053 C 
BRANCH   3   4
ATOM      4  C   UNL     1      27.493   1.406   5.599  1.00  0.00     0.041 C 
ATOM      5  O   UNL     1      28.272   2.206   6.179  1.00  0.00    -0.550 OA
ATOM      6  O   UNL     1      26.517   1.896   4.740  1.00  0.00    -0.550 OA
ENDBRANCH   3   4
ENDBRANCH   2   3
ENDBRANCH   1   2
BRANCH   1   7
ATOM      7  C   UNL     1      28.387  -2.462   8.325  1.00  0.00     0.000 C 
BRANCH   7   8
ATOM      8  C   UNL     1      28.831  -3.378   7.174  1.00  0.00    -0.000 C 
BRANCH   8   9
ATOM      9  C   UNL     1      27.717  -4.338   6.720  1.00  0.00    -0.000 C 
BRANCH   9  10
ATOM     10  C   UNL     1      26.980  -3.833   5.470  1.00  0.00    -0.003 C 
ATOM     11  C   UNL     1      27.927  -3.533   4.309  1.00  0.00     0.004 C 
ENDBRANCH   9  10
ENDBRANCH   8   9
ENDBRANCH   7   8
ENDBRANCH   1   7
TORSDOF 7
ENDMDL
