MODEL 1
REMARK VINA RESULT:     0.000      0.000      0.000
REMARK INTER + INTRA:          -0.394
REMARK INTER:                   0.000
REMARK INTRA:                  -0.394
REMARK UNBOUND:                -0.394
REMARK SMILES CC1=CCC[C@H](C)C(=O)C[C@@H](C(C)C)C(=O)C1
REMARK SMILES IDX 8 1 9 2 6 3 7 4 5 5 4 6 3 7 2 8 1 9 10 11 11 12 15 13 16 14
REMARK SMILES IDX 17 15 12 17 13 18 14 19
REMARK H PARENT
REMARK Flexibility Score: 70.00
ROOT
ATOM      1  C   UNL     1     136.106 131.368 129.083  1.00  0.00     0.136 C 
ATOM      2  O   UNL     1     136.933 130.859 128.343  1.00  0.00    -0.299 OA
ENDROOT
BRANCH   1   3
ATOM      3  C   UNL     1     136.608 132.305 130.171  1.00  0.00     0.053 C 
ATOM      4  C   UNL     1     136.908 133.676 129.554  1.00  0.00     0.016 C 
BRANCH   3   5
ATOM      5  C   UNL     1     135.674 132.464 131.394  1.00  0.00     0.015 C 
BRANCH   5   6
ATOM      6  C   UNL     1     134.813 133.747 131.366  1.00  0.00     0.028 C 
BRANCH   6   7
ATOM      7  C   UNL     1     133.397 133.448 131.803  1.00  0.00    -0.028 C 
ATOM      8  C   UNL     1     132.296 133.521 131.020  1.00  0.00    -0.070 CG0
ATOM      9  C   UNL     1     130.959 133.220 131.651  1.00  0.00     0.039 C 
ATOM     10  G   UNL     1     132.350 133.869 129.544  1.00  0.00     0.000 G0
ENDBRANCH   6   7
ENDBRANCH   5   6
ENDBRANCH   3   5
ENDBRANCH   1   3
BRANCH   1  11
ATOM     11  C   UNL     1     134.632 131.149 128.788  1.00  0.00     0.087 C 
BRANCH  11  12
ATOM     12  C   UNL     1     133.913 132.328 128.057  1.00  0.00     0.066 C 
BRANCH  12  13
ATOM     13  C   UNL     1     132.549 132.660 128.653  1.00  0.00     0.140 C 
ATOM     14  O   UNL     1     131.578 131.975 128.370  1.00  0.00    -0.299 OA
BRANCH  13  15
ATOM     15  C   UNL     1     132.337 133.862 129.540  1.00  0.00     0.106 CG0
ATOM     16  G   UNL     1     132.291 133.515 131.016  1.00  0.00     0.000 G0
ENDBRANCH  13  15
ENDBRANCH  12  13
BRANCH  12  17
ATOM     17  C   UNL     1     133.855 132.205 126.499  1.00  0.00    -0.006 C 
ATOM     18  C   UNL     1     134.899 133.109 125.822  1.00  0.00     0.008 C 
ATOM     19  C   UNL     1     133.990 130.768 125.967  1.00  0.00     0.008 C 
ENDBRANCH  12  17
ENDBRANCH  11  12
ENDBRANCH   1  11
TORSDOF 1
ENDMDL
MODEL 2
REMARK VINA RESULT:     0.001     11.593     12.866
REMARK INTER + INTRA:          -0.393
REMARK INTER:                   0.000
REMARK INTRA:                  -0.393
REMARK UNBOUND:                -0.394
REMARK SMILES CC1=CCC[C@H](C)C(=O)C[C@@H](C(C)C)C(=O)C1
REMARK SMILES IDX 8 1 9 2 6 3 7 4 5 5 4 6 3 7 2 8 1 9 10 11 11 12 15 13 16 14
REMARK SMILES IDX 17 15 12 17 13 18 14 19
REMARK H PARENT
REMARK Flexibility Score: 70.00
ROOT
ATOM      1  C   UNL     1     133.021 121.875 138.677  1.00  0.00     0.136 C 
ATOM      2  O   UNL     1     133.948 121.847 139.470  1.00  0.00    -0.299 OA
ENDROOT
BRANCH   1   3
ATOM      3  C   UNL     1     131.607 121.816 139.235  1.00  0.00     0.053 C 
ATOM      4  C   UNL     1     131.236 123.189 139.806  1.00  0.00     0.016 C 
BRANCH   3   5
ATOM      5  C   UNL     1     130.520 121.339 138.243  1.00  0.00     0.015 C 
BRANCH   5   6
ATOM      6  C   UNL     1     129.755 122.488 137.547  1.00  0.00     0.028 C 
BRANCH   6   7
ATOM      7  C   UNL     1     129.670 122.246 136.058  1.00  0.00    -0.028 C 
ATOM      8  C   UNL     1     130.258 123.000 135.100  1.00  0.00    -0.070 CG0
ATOM      9  C   UNL     1     130.025 122.619 133.659  1.00  0.00     0.039 C 
ATOM     10  G   UNL     1     131.149 124.187 135.410  1.00  0.00     0.000 G0
ENDBRANCH   6   7
ENDBRANCH   5   6
ENDBRANCH   3   5
ENDBRANCH   1   3
BRANCH   1  11
ATOM     11  C   UNL     1     133.327 122.103 137.206  1.00  0.00     0.087 C 
BRANCH  11  12
ATOM     12  C   UNL     1     133.369 123.599 136.757  1.00  0.00     0.066 C 
BRANCH  12  13
ATOM     13  C   UNL     1     132.627 123.852 135.449  1.00  0.00     0.140 C 
ATOM     14  O   UNL     1     133.238 123.841 134.390  1.00  0.00    -0.299 OA
BRANCH  13  15
ATOM     15  C   UNL     1     131.157 124.189 135.417  1.00  0.00     0.106 CG0
ATOM     16  G   UNL     1     130.276 122.992 135.112  1.00  0.00     0.000 G0
ENDBRANCH  13  15
ENDBRANCH  12  13
BRANCH  12  17
ATOM     17  C   UNL     1     134.790 124.251 136.758  1.00  0.00    -0.006 C 
ATOM     18  C   UNL     1     134.989 125.169 137.976  1.00  0.00     0.008 C 
ATOM     19  C   UNL     1     135.953 123.248 136.668  1.00  0.00     0.008 C 
ENDBRANCH  12  17
ENDBRANCH  11  12
ENDBRANCH   1  11
TORSDOF 1
ENDMDL
MODEL 3
REMARK VINA RESULT:     0.030      4.072      6.169
REMARK INTER + INTRA:          -0.348
REMARK INTER:                   0.000
REMARK INTRA:                  -0.348
REMARK UNBOUND:                -0.394
REMARK SMILES CC1=CCC[C@H](C)C(=O)C[C@@H](C(C)C)C(=O)C1
REMARK SMILES IDX 8 1 9 2 6 3 7 4 5 5 4 6 3 7 2 8 1 9 10 11 11 12 15 13 16 14
REMARK SMILES IDX 17 15 12 17 13 18 14 19
REMARK H PARENT
REMARK Flexibility Score: 70.00
ROOT
ATOM      1  C   UNL     1     132.109 137.852 128.377  1.00  0.00     0.136 C 
ATOM      2  O   UNL     1     133.209 138.330 128.148  1.00  0.00    -0.299 OA
ENDROOT
BRANCH   1   3
ATOM      3  C   UNL     1     131.410 137.109 127.250  1.00  0.00     0.053 C 
ATOM      4  C   UNL     1     131.141 138.083 126.097  1.00  0.00     0.016 C 
BRANCH   3   5
ATOM      5  C   UNL     1     132.146 135.852 126.725  1.00  0.00     0.015 C 
BRANCH   5   6
ATOM      6  C   UNL     1     132.119 134.653 127.699  1.00  0.00     0.028 C 
BRANCH   6   7
ATOM      7  C   UNL     1     130.708 134.381 128.170  1.00  0.00    -0.028 C 
ATOM      8  C   UNL     1     130.316 134.257 129.459  1.00  0.00    -0.070 CG0
ATOM      9  C   UNL     1     128.864 133.946 129.728  1.00  0.00     0.039 C 
ATOM     10  G   UNL     1     131.259 134.434 130.634  1.00  0.00     0.000 G0
ENDBRANCH   6   7
ENDBRANCH   5   6
ENDBRANCH   3   5
ENDBRANCH   1   3
BRANCH   1  11
ATOM     11  C   UNL     1     131.571 137.909 129.797  1.00  0.00     0.087 C 
BRANCH  11  12
ATOM     12  C   UNL     1     132.210 136.890 130.795  1.00  0.00     0.066 C 
BRANCH  12  13
ATOM     13  C   UNL     1     131.242 135.801 131.242  1.00  0.00     0.140 C 
ATOM     14  O   UNL     1     130.456 136.021 132.152  1.00  0.00    -0.299 OA
BRANCH  13  15
ATOM     15  C   UNL     1     131.263 134.418 130.641  1.00  0.00     0.106 CG0
ATOM     16  G   UNL     1     130.320 134.264 129.462  1.00  0.00     0.000 G0
ENDBRANCH  13  15
ENDBRANCH  12  13
BRANCH  12  17
ATOM     17  C   UNL     1     132.966 137.534 132.004  1.00  0.00    -0.006 C 
ATOM     18  C   UNL     1     134.131 136.649 132.477  1.00  0.00     0.008 C 
ATOM     19  C   UNL     1     133.469 138.966 131.754  1.00  0.00     0.008 C 
ENDBRANCH  12  17
ENDBRANCH  11  12
ENDBRANCH   1  11
TORSDOF 1
ENDMDL
MODEL 4
REMARK VINA RESULT:     0.038      9.250     11.322
REMARK INTER + INTRA:          -0.337
REMARK INTER:                   0.000
REMARK INTRA:                  -0.337
REMARK UNBOUND:                -0.394
REMARK SMILES CC1=CCC[C@H](C)C(=O)C[C@@H](C(C)C)C(=O)C1
REMARK SMILES IDX 8 1 9 2 6 3 7 4 5 5 4 6 3 7 2 8 1 9 10 11 11 12 15 13 16 14
REMARK SMILES IDX 17 15 12 17 13 18 14 19
REMARK H PARENT
REMARK Flexibility Score: 70.00
ROOT
ATOM      1  C   UNL     1     131.413 121.408 128.100  1.00  0.00     0.136 C 
ATOM      2  O   UNL     1     131.022 120.805 129.087  1.00  0.00    -0.299 OA
ENDROOT
BRANCH   1   3
ATOM      3  C   UNL     1     131.860 120.589 126.900  1.00  0.00     0.053 C 
ATOM      4  C   UNL     1     130.623 120.048 126.173  1.00  0.00     0.016 C 
BRANCH   3   5
ATOM      5  C   UNL     1     132.786 121.323 125.901  1.00  0.00     0.015 C 
BRANCH   5   6
ATOM      6  C   UNL     1     132.080 121.774 124.602  1.00  0.00     0.028 C 
BRANCH   6   7
ATOM      7  C   UNL     1     132.421 123.212 124.282  1.00  0.00    -0.028 C 
ATOM      8  C   UNL     1     131.595 124.272 124.433  1.00  0.00    -0.070 CG0
ATOM      9  C   UNL     1     132.107 125.630 124.021  1.00  0.00     0.039 C 
ATOM     10  G   UNL     1     130.197 124.159 125.012  1.00  0.00     0.000 G0
ENDBRANCH   6   7
ENDBRANCH   5   6
ENDBRANCH   3   5
ENDBRANCH   1   3
BRANCH   1  11
ATOM     11  C   UNL     1     131.299 122.923 128.080  1.00  0.00     0.087 C 
BRANCH  11  12
ATOM     12  C   UNL     1     129.939 123.485 127.555  1.00  0.00     0.066 C 
BRANCH  12  13
ATOM     13  C   UNL     1     130.106 124.535 126.463  1.00  0.00     0.140 C 
ATOM     14  O   UNL     1     130.119 125.721 126.756  1.00  0.00    -0.299 OA
BRANCH  13  15
ATOM     15  C   UNL     1     130.189 124.163 125.003  1.00  0.00     0.106 CG0
ATOM     16  G   UNL     1     131.592 124.272 124.437  1.00  0.00     0.000 G0
ENDBRANCH  13  15
ENDBRANCH  12  13
BRANCH  12  17
ATOM     17  C   UNL     1     128.943 123.951 128.667  1.00  0.00    -0.006 C 
ATOM     18  C   UNL     1     127.729 123.012 128.768  1.00  0.00     0.008 C 
ATOM     19  C   UNL     1     129.576 124.132 130.058  1.00  0.00     0.008 C 
ENDBRANCH  12  17
ENDBRANCH  11  12
ENDBRANCH   1  11
TORSDOF 1
ENDMDL
MODEL 5
REMARK VINA RESULT:     0.053      4.401      5.583
REMARK INTER + INTRA:          -0.314
REMARK INTER:                   0.000
REMARK INTRA:                  -0.314
REMARK UNBOUND:                -0.394
REMARK SMILES CC1=CCC[C@H](C)C(=O)C[C@@H](C(C)C)C(=O)C1
REMARK SMILES IDX 8 1 9 2 6 3 7 4 5 5 4 6 3 7 2 8 1 9 10 11 11 12 15 13 16 14
REMARK SMILES IDX 17 15 12 17 13 18 14 19
REMARK H PARENT
REMARK Flexibility Score: 70.00
ROOT
ATOM      1  C   UNL     1     131.084 131.762 127.784  1.00  0.00     0.136 C 
ATOM      2  O   UNL     1     130.768 132.863 127.364  1.00  0.00    -0.299 OA
ENDROOT
BRANCH   1   3
ATOM      3  C   UNL     1     131.850 131.696 129.096  1.00  0.00     0.053 C 
ATOM      4  C   UNL     1     133.182 132.438 128.937  1.00  0.00     0.016 C 
BRANCH   3   5
ATOM      5  C   UNL     1     131.091 132.223 130.337  1.00  0.00     0.015 C 
BRANCH   5   6
ATOM      6  C   UNL     1     129.733 131.530 130.586  1.00  0.00     0.028 C 
BRANCH   6   7
ATOM      7  C   UNL     1     129.932 130.064 130.897  1.00  0.00    -0.028 C 
ATOM      8  C   UNL     1     129.218 129.041 130.373  1.00  0.00    -0.070 CG0
ATOM      9  C   UNL     1     129.542 127.643 130.838  1.00  0.00     0.039 C 
ATOM     10  G   UNL     1     128.130 129.236 129.333  1.00  0.00     0.000 G0
ENDBRANCH   6   7
ENDBRANCH   5   6
ENDBRANCH   3   5
ENDBRANCH   1   3
BRANCH   1  11
ATOM     11  C   UNL     1     130.579 130.530 127.051  1.00  0.00     0.087 C 
BRANCH  11  12
ATOM     12  C   UNL     1     129.033 130.311 127.098  1.00  0.00     0.066 C 
BRANCH  12  13
ATOM     13  C   UNL     1     128.625 129.094 127.921  1.00  0.00     0.140 C 
ATOM     14  O   UNL     1     128.643 127.982 127.413  1.00  0.00    -0.299 OA
BRANCH  13  15
ATOM     15  C   UNL     1     128.125 129.219 129.339  1.00  0.00     0.106 CG0
ATOM     16  G   UNL     1     129.219 129.045 130.375  1.00  0.00     0.000 G0
ENDBRANCH  13  15
ENDBRANCH  12  13
BRANCH  12  17
ATOM     17  C   UNL     1     128.317 130.344 125.708  1.00  0.00    -0.006 C 
ATOM     18  C   UNL     1     126.896 130.922 125.818  1.00  0.00     0.008 C 
ATOM     19  C   UNL     1     129.096 131.085 124.606  1.00  0.00     0.008 C 
ENDBRANCH  12  17
ENDBRANCH  11  12
ENDBRANCH   1  11
TORSDOF 1
ENDMDL
MODEL 6
REMARK VINA RESULT:     0.059      6.304      7.087
REMARK INTER + INTRA:          -0.304
REMARK INTER:                   0.000
REMARK INTRA:                  -0.304
REMARK UNBOUND:                -0.394
REMARK SMILES CC1=CCC[C@H](C)C(=O)C[C@@H](C(C)C)C(=O)C1
REMARK SMILES IDX 8 1 9 2 6 3 7 4 5 5 4 6 3 7 2 8 1 9 10 11 11 12 15 13 16 14
REMARK SMILES IDX 17 15 12 17 13 18 14 19
REMARK H PARENT
REMARK Flexibility Score: 70.00
ROOT
ATOM      1  C   UNL     1     131.878 124.035 129.665  1.00  0.00     0.136 C 
ATOM      2  O   UNL     1     131.909 123.159 128.816  1.00  0.00    -0.299 OA
ENDROOT
BRANCH   1   3
ATOM      3  C   UNL     1     133.144 124.290 130.468  1.00  0.00     0.053 C 
ATOM      4  C   UNL     1     134.085 125.185 129.652  1.00  0.00     0.016 C 
BRANCH   3   5
ATOM      5  C   UNL     1     132.928 124.891 131.878  1.00  0.00     0.015 C 
BRANCH   5   6
ATOM      6  C   UNL     1     133.361 126.369 132.006  1.00  0.00     0.028 C 
BRANCH   6   7
ATOM      7  C   UNL     1     132.367 127.144 132.841  1.00  0.00    -0.028 C 
ATOM      8  C   UNL     1     131.467 128.037 132.370  1.00  0.00    -0.070 CG0
ATOM      9  C   UNL     1     130.582 128.741 133.369  1.00  0.00     0.039 C 
ATOM     10  G   UNL     1     131.295 128.343 130.894  1.00  0.00     0.000 G0
ENDBRANCH   6   7
ENDBRANCH   5   6
ENDBRANCH   3   5
ENDBRANCH   1   3
BRANCH   1  11
ATOM     11  C   UNL     1     130.635 124.903 129.771  1.00  0.00     0.087 C 
BRANCH  11  12
ATOM     12  C   UNL     1     130.784 126.356 129.217  1.00  0.00     0.066 C 
BRANCH  12  13
ATOM     13  C   UNL     1     130.321 127.423 130.203  1.00  0.00     0.140 C 
ATOM     14  O   UNL     1     129.128 127.581 130.413  1.00  0.00    -0.299 OA
BRANCH  13  15
ATOM     15  C   UNL     1     131.293 128.352 130.888  1.00  0.00     0.106 CG0
ATOM     16  G   UNL     1     131.474 128.044 132.363  1.00  0.00     0.000 G0
ENDBRANCH  13  15
ENDBRANCH  12  13
BRANCH  12  17
ATOM     17  C   UNL     1     130.191 126.583 127.788  1.00  0.00    -0.006 C 
ATOM     18  C   UNL     1     131.295 126.624 126.718  1.00  0.00     0.008 C 
ATOM     19  C   UNL     1     129.107 125.571 127.378  1.00  0.00     0.008 C 
ENDBRANCH  12  17
ENDBRANCH  11  12
ENDBRANCH   1  11
TORSDOF 1
ENDMDL
MODEL 7
REMARK VINA RESULT:     0.065      2.621      3.167
REMARK INTER + INTRA:          -0.295
REMARK INTER:                   0.000
REMARK INTRA:                  -0.295
REMARK UNBOUND:                -0.394
REMARK SMILES CC1=CCC[C@H](C)C(=O)C[C@@H](C(C)C)C(=O)C1
REMARK SMILES IDX 8 1 9 2 6 3 7 4 5 5 4 6 3 7 2 8 1 9 10 11 11 12 15 13 16 14
REMARK SMILES IDX 17 15 12 17 13 18 14 19
REMARK H PARENT
REMARK Flexibility Score: 70.00
ROOT
ATOM      1  C   UNL     1     137.464 133.855 128.943  1.00  0.00     0.136 C 
ATOM      2  O   UNL     1     138.226 134.714 128.530  1.00  0.00    -0.299 OA
ENDROOT
BRANCH   1   3
ATOM      3  C   UNL     1     137.980 132.902 130.010  1.00  0.00     0.053 C 
ATOM      4  C   UNL     1     139.203 132.154 129.466  1.00  0.00     0.016 C 
BRANCH   3   5
ATOM      5  C   UNL     1     138.316 133.550 131.374  1.00  0.00     0.015 C 
BRANCH   5   6
ATOM      6  C   UNL     1     137.155 134.364 131.988  1.00  0.00     0.028 C 
BRANCH   6   7
ATOM      7  C   UNL     1     135.953 133.479 132.229  1.00  0.00    -0.028 C 
ATOM      8  C   UNL     1     134.670 133.793 131.935  1.00  0.00    -0.070 CG0
ATOM      9  C   UNL     1     133.600 132.789 132.286  1.00  0.00     0.039 C 
ATOM     10  G   UNL     1     134.267 135.088 131.256  1.00  0.00     0.000 G0
ENDBRANCH   6   7
ENDBRANCH   5   6
ENDBRANCH   3   5
ENDBRANCH   1   3
BRANCH   1  11
ATOM     11  C   UNL     1     136.019 133.875 128.473  1.00  0.00     0.087 C 
BRANCH  11  12
ATOM     12  C   UNL     1     135.229 135.184 128.795  1.00  0.00     0.066 C 
BRANCH  12  13
ATOM     13  C   UNL     1     134.077 134.964 129.769  1.00  0.00     0.140 C 
ATOM     14  O   UNL     1     132.955 134.730 129.341  1.00  0.00    -0.299 OA
BRANCH  13  15
ATOM     15  C   UNL     1     134.255 135.093 131.261  1.00  0.00     0.106 CG0
ATOM     16  G   UNL     1     134.664 133.793 131.929  1.00  0.00     0.000 G0
ENDBRANCH  13  15
ENDBRANCH  12  13
BRANCH  12  17
ATOM     17  C   UNL     1     134.789 136.017 127.547  1.00  0.00    -0.006 C 
ATOM     18  C   UNL     1     135.543 137.355 127.466  1.00  0.00     0.008 C 
ATOM     19  C   UNL     1     134.910 135.270 126.207  1.00  0.00     0.008 C 
ENDBRANCH  12  17
ENDBRANCH  11  12
ENDBRANCH   1  11
TORSDOF 1
ENDMDL
MODEL 8
REMARK VINA RESULT:     0.081     10.554     13.277
REMARK INTER + INTRA:          -0.271
REMARK INTER:                   0.000
REMARK INTRA:                  -0.271
REMARK UNBOUND:                -0.394
REMARK SMILES CC1=CCC[C@H](C)C(=O)C[C@@H](C(C)C)C(=O)C1
REMARK SMILES IDX 8 1 9 2 6 3 7 4 5 5 4 6 3 7 2 8 1 9 10 11 11 12 15 13 16 14
REMARK SMILES IDX 17 15 12 17 13 18 14 19
REMARK H PARENT
REMARK Flexibility Score: 70.00
ROOT
ATOM      1  C   UNL     1     125.432 128.731 137.065  1.00  0.00     0.136 C 
ATOM      2  O   UNL     1     126.479 129.342 137.213  1.00  0.00    -0.299 OA
ENDROOT
BRANCH   1   3
ATOM      3  C   UNL     1     124.175 129.315 137.691  1.00  0.00     0.053 C 
ATOM      4  C   UNL     1     123.647 130.444 136.799  1.00  0.00     0.016 C 
BRANCH   3   5
ATOM      5  C   UNL     1     123.047 128.298 137.988  1.00  0.00     0.015 C 
BRANCH   5   6
ATOM      6  C   UNL     1     121.815 128.437 137.066  1.00  0.00     0.028 C 
BRANCH   6   7
ATOM      7  C   UNL     1     121.311 127.077 136.641  1.00  0.00    -0.028 C 
ATOM      8  C   UNL     1     121.496 126.510 135.426  1.00  0.00    -0.070 CG0
ATOM      9  C   UNL     1     120.882 125.154 135.179  1.00  0.00     0.039 C 
ATOM     10  G   UNL     1     122.303 127.163 134.320  1.00  0.00     0.000 G0
ENDBRANCH   6   7
ENDBRANCH   5   6
ENDBRANCH   3   5
ENDBRANCH   1   3
BRANCH   1  11
ATOM     11  C   UNL     1     125.422 127.514 136.156  1.00  0.00     0.087 C 
BRANCH  11  12
ATOM     12  C   UNL     1     124.857 127.756 134.720  1.00  0.00     0.066 C 
BRANCH  12  13
ATOM     13  C   UNL     1     123.764 126.767 134.331  1.00  0.00     0.140 C 
ATOM     14  O   UNL     1     124.063 125.640 133.967  1.00  0.00    -0.299 OA
BRANCH  13  15
ATOM     15  C   UNL     1     122.306 127.156 134.313  1.00  0.00     0.106 CG0
ATOM     16  G   UNL     1     121.501 126.509 135.424  1.00  0.00     0.000 G0
ENDBRANCH  13  15
ENDBRANCH  12  13
BRANCH  12  17
ATOM     17  C   UNL     1     125.939 127.901 133.599  1.00  0.00    -0.006 C 
ATOM     18  C   UNL     1     125.717 129.172 132.761  1.00  0.00     0.008 C 
ATOM     19  C   UNL     1     127.392 127.859 134.104  1.00  0.00     0.008 C 
ENDBRANCH  12  17
ENDBRANCH  11  12
ENDBRANCH   1  11
TORSDOF 1
ENDMDL
MODEL 9
REMARK VINA RESULT:     0.081      7.392      8.875
REMARK INTER + INTRA:          -0.270
REMARK INTER:                   0.000
REMARK INTRA:                  -0.270
REMARK UNBOUND:                -0.394
REMARK SMILES CC1=CCC[C@H](C)C(=O)C[C@@H](C(C)C)C(=O)C1
REMARK SMILES IDX 8 1 9 2 6 3 7 4 5 5 4 6 3 7 2 8 1 9 10 11 11 12 15 13 16 14
REMARK SMILES IDX 17 15 12 17 13 18 14 19
REMARK H PARENT
REMARK Flexibility Score: 70.00
ROOT
ATOM      1  C   UNL     1     128.112 136.090 129.677  1.00  0.00     0.136 C 
ATOM      2  O   UNL     1     128.081 135.639 128.543  1.00  0.00    -0.299 OA
ENDROOT
BRANCH   1   3
ATOM      3  C   UNL     1     128.754 137.453 129.881  1.00  0.00     0.053 C 
ATOM      4  C   UNL     1     127.696 138.542 129.671  1.00  0.00     0.016 C 
BRANCH   3   5
ATOM      5  C   UNL     1     129.466 137.656 131.240  1.00  0.00     0.015 C 
BRANCH   5   6
ATOM      6  C   UNL     1     128.732 138.622 132.197  1.00  0.00     0.028 C 
BRANCH   6   7
ATOM      7  C   UNL     1     128.748 138.087 133.611  1.00  0.00    -0.028 C 
ATOM      8  C   UNL     1     127.688 137.568 134.271  1.00  0.00    -0.070 CG0
ATOM      9  C   UNL     1     127.894 137.118 135.696  1.00  0.00     0.039 C 
ATOM     10  G   UNL     1     126.318 137.401 133.640  1.00  0.00     0.000 G0
ENDBRANCH   6   7
ENDBRANCH   5   6
ENDBRANCH   3   5
ENDBRANCH   1   3
BRANCH   1  11
ATOM     11  C   UNL     1     127.393 135.334 130.781  1.00  0.00     0.087 C 
BRANCH  11  12
ATOM     12  C   UNL     1     126.137 136.051 131.373  1.00  0.00     0.066 C 
BRANCH  12  13
ATOM     13  C   UNL     1     126.143 136.108 132.897  1.00  0.00     0.140 C 
ATOM     14  O   UNL     1     125.950 135.091 133.546  1.00  0.00    -0.299 OA
BRANCH  13  15
ATOM     15  C   UNL     1     126.313 137.407 133.646  1.00  0.00     0.106 CG0
ATOM     16  G   UNL     1     127.686 137.560 134.273  1.00  0.00     0.000 G0
ENDBRANCH  13  15
ENDBRANCH  12  13
BRANCH  12  17
ATOM     17  C   UNL     1     124.764 135.552 130.813  1.00  0.00    -0.006 C 
ATOM     18  C   UNL     1     124.066 136.640 129.980  1.00  0.00     0.008 C 
ATOM     19  C   UNL     1     124.841 134.246 130.003  1.00  0.00     0.008 C 
ENDBRANCH  12  17
ENDBRANCH  11  12
ENDBRANCH   1  11
TORSDOF 1
ENDMDL
