MODEL 1
REMARK VINA RESULT:    -6.214      0.000      0.000
REMARK INTER + INTRA:          -8.018
REMARK INTER:                  -7.667
REMARK INTRA:                  -0.351
REMARK UNBOUND:                -0.351
REMARK SMILES COc1cc(-c2oc3cc(O)cc(O)c3c(=O)c2O)ccc1O
REMARK SMILES IDX 6 1 18 2 16 3 17 4 15 5 13 6 12 7 10 8 9 9 8 10 7 11 5 12
REMARK SMILES IDX 3 13 22 14 4 15 21 16 20 17 2 18 1 19 23 20 19 22 14 24
REMARK SMILES IDX 11 26
REMARK H PARENT 23 21 19 23 14 25 11 27
REMARK Flexibility Score: inf
ROOT
ATOM      1  C   UNL     1      -1.701  50.764  25.577  1.00  0.00     0.180 A 
ATOM      2  C   UNL     1      -0.309  50.555  25.641  1.00  0.00     0.208 A 
ATOM      3  C   UNL     1       0.466  50.798  24.496  1.00  0.00     0.238 A 
ATOM      4  O   UNL     1       1.711  50.604  24.539  1.00  0.00    -0.285 OA
ATOM      5  C   UNL     1      -0.156  51.260  23.318  1.00  0.00     0.111 A 
ATOM      6  C   UNL     1       0.554  51.531  22.123  1.00  0.00     0.134 A 
ATOM      7  C   UNL     1      -0.137  51.997  20.995  1.00  0.00     0.093 A 
ATOM      8  C   UNL     1      -1.519  52.199  21.038  1.00  0.00     0.123 A 
ATOM      9  C   UNL     1      -2.225  51.933  22.215  1.00  0.00     0.094 A 
ATOM     10  C   UNL     1      -1.556  51.465  23.350  1.00  0.00     0.146 A 
ATOM     11  O   UNL     1      -2.251  51.215  24.453  1.00  0.00    -0.452 OA
ENDROOT
BRANCH   1  12
ATOM     12  C   UNL     1      -2.587  50.513  26.737  1.00  0.00     0.025 A 
ATOM     13  C   UNL     1      -4.254  49.152  27.902  1.00  0.00     0.161 A 
ATOM     14  C   UNL     1      -4.297  50.108  28.934  1.00  0.00     0.157 A 
ATOM     15  C   UNL     1      -3.401  49.367  26.801  1.00  0.00     0.062 A 
ATOM     16  C   UNL     1      -3.506  51.257  28.857  1.00  0.00     0.051 A 
ATOM     17  C   UNL     1      -2.662  51.463  27.765  1.00  0.00     0.016 A 
BRANCH  13  18
ATOM     18  O   UNL     1      -5.069  48.014  27.999  1.00  0.00    -0.493 OA
ATOM     19  C   UNL     1      -4.606  46.716  28.359  1.00  0.00     0.278 C 
ENDBRANCH  13  18
BRANCH  14  20
ATOM     20  O   UNL     1      -5.125  49.934  30.043  1.00  0.00    -0.504 OA
ATOM     21  H   UNL     1      -4.842  49.384  30.846  1.00  0.00     0.293 HD
ENDBRANCH  14  20
ENDBRANCH   1  12
BRANCH   2  22
ATOM     22  O   UNL     1       0.288  50.144  26.836  1.00  0.00    -0.502 OA
ATOM     23  H   UNL     1       0.384  50.761  27.633  1.00  0.00     0.293 HD
ENDBRANCH   2  22
BRANCH   6  24
ATOM     24  O   UNL     1       1.933  51.341  22.048  1.00  0.00    -0.507 OA
ATOM     25  H   UNL     1       2.344  50.415  22.028  1.00  0.00     0.293 HD
ENDBRANCH   6  24
BRANCH   8  26
ATOM     26  O   UNL     1      -2.180  52.664  19.904  1.00  0.00    -0.508 OA
ATOM     27  H   UNL     1      -2.952  52.152  19.493  1.00  0.00     0.293 HD
ENDBRANCH   8  26
TORSDOF 6
ENDMDL
MODEL 2
REMARK VINA RESULT:    -6.124      1.292      2.218
REMARK INTER + INTRA:          -7.907
REMARK INTER:                  -7.628
REMARK INTRA:                  -0.279
REMARK UNBOUND:                -0.351
REMARK SMILES COc1cc(-c2oc3cc(O)cc(O)c3c(=O)c2O)ccc1O
REMARK SMILES IDX 6 1 18 2 16 3 17 4 15 5 13 6 12 7 10 8 9 9 8 10 7 11 5 12
REMARK SMILES IDX 3 13 22 14 4 15 21 16 20 17 2 18 1 19 23 20 19 22 14 24
REMARK SMILES IDX 11 26
REMARK H PARENT 23 21 19 23 14 25 11 27
REMARK Flexibility Score: inf
ROOT
ATOM      1  C   UNL     1      -1.618  49.261  24.954  1.00  0.00     0.180 A 
ATOM      2  C   UNL     1      -0.261  49.564  25.174  1.00  0.00     0.208 A 
ATOM      3  C   UNL     1       0.410  50.379  24.249  1.00  0.00     0.238 A 
ATOM      4  O   UNL     1       1.629  50.648  24.430  1.00  0.00    -0.285 OA
ATOM      5  C   UNL     1      -0.288  50.891  23.136  1.00  0.00     0.111 A 
ATOM      6  C   UNL     1       0.314  51.722  22.160  1.00  0.00     0.134 A 
ATOM      7  C   UNL     1      -0.451  52.199  21.086  1.00  0.00     0.093 A 
ATOM      8  C   UNL     1      -1.803  51.864  20.969  1.00  0.00     0.123 A 
ATOM      9  C   UNL     1      -2.402  51.043  21.928  1.00  0.00     0.094 A 
ATOM     10  C   UNL     1      -1.656  50.555  23.006  1.00  0.00     0.146 A 
ATOM     11  O   UNL     1      -2.249  49.774  23.902  1.00  0.00    -0.452 OA
ENDROOT
BRANCH   1  12
ATOM     12  C   UNL     1      -2.389  48.393  25.875  1.00  0.00     0.025 A 
ATOM     13  C   UNL     1      -4.100  48.085  27.596  1.00  0.00     0.161 A 
ATOM     14  C   UNL     1      -3.788  46.713  27.646  1.00  0.00     0.157 A 
ATOM     15  C   UNL     1      -3.390  48.921  26.711  1.00  0.00     0.062 A 
ATOM     16  C   UNL     1      -2.778  46.196  26.831  1.00  0.00     0.051 A 
ATOM     17  C   UNL     1      -2.078  47.028  25.956  1.00  0.00     0.016 A 
BRANCH  13  18
ATOM     18  O   UNL     1      -5.111  48.580  28.435  1.00  0.00    -0.493 OA
ATOM     19  C   UNL     1      -4.881  49.242  29.674  1.00  0.00     0.278 C 
ENDBRANCH  13  18
BRANCH  14  20
ATOM     20  O   UNL     1      -4.469  45.850  28.504  1.00  0.00    -0.504 OA
ATOM     21  H   UNL     1      -4.649  44.882  28.264  1.00  0.00     0.293 HD
ENDBRANCH  14  20
ENDBRANCH   1  12
BRANCH   2  22
ATOM     22  O   UNL     1       0.394  49.084  26.312  1.00  0.00    -0.502 OA
ATOM     23  H   UNL     1       1.403  49.009  26.365  1.00  0.00     0.293 HD
ENDBRANCH   2  22
BRANCH   6  24
ATOM     24  O   UNL     1       1.660  52.076  22.249  1.00  0.00    -0.507 OA
ATOM     25  H   UNL     1       2.400  51.396  22.121  1.00  0.00     0.293 HD
ENDBRANCH   6  24
BRANCH   8  26
ATOM     26  O   UNL     1      -2.539  52.352  19.892  1.00  0.00    -0.508 OA
ATOM     27  H   UNL     1      -2.808  51.754  19.120  1.00  0.00     0.293 HD
ENDBRANCH   8  26
TORSDOF 6
ENDMDL
MODEL 3
REMARK VINA RESULT:    -6.114      1.351      2.966
REMARK INTER + INTRA:          -7.895
REMARK INTER:                  -7.580
REMARK INTRA:                  -0.315
REMARK UNBOUND:                -0.351
REMARK SMILES COc1cc(-c2oc3cc(O)cc(O)c3c(=O)c2O)ccc1O
REMARK SMILES IDX 6 1 18 2 16 3 17 4 15 5 13 6 12 7 10 8 9 9 8 10 7 11 5 12
REMARK SMILES IDX 3 13 22 14 4 15 21 16 20 17 2 18 1 19 23 20 19 22 14 24
REMARK SMILES IDX 11 26
REMARK H PARENT 23 21 19 23 14 25 11 27
REMARK Flexibility Score: inf
ROOT
ATOM      1  C   UNL     1      -1.580  51.233  24.569  1.00  0.00     0.180 A 
ATOM      2  C   UNL     1      -2.240  51.672  23.404  1.00  0.00     0.208 A 
ATOM      3  C   UNL     1      -1.493  51.856  22.230  1.00  0.00     0.238 A 
ATOM      4  O   UNL     1      -2.072  52.260  21.185  1.00  0.00    -0.285 OA
ATOM      5  C   UNL     1      -0.110  51.582  22.233  1.00  0.00     0.111 A 
ATOM      6  C   UNL     1       0.713  51.738  21.092  1.00  0.00     0.134 A 
ATOM      7  C   UNL     1       2.080  51.435  21.173  1.00  0.00     0.093 A 
ATOM      8  C   UNL     1       2.638  50.978  22.370  1.00  0.00     0.123 A 
ATOM      9  C   UNL     1       1.831  50.822  23.500  1.00  0.00     0.094 A 
ATOM     10  C   UNL     1       0.467  51.121  23.441  1.00  0.00     0.146 A 
ATOM     11  O   UNL     1      -0.277  50.969  24.530  1.00  0.00    -0.452 OA
ENDROOT
BRANCH   1  12
ATOM     12  C   UNL     1      -2.295  51.033  25.850  1.00  0.00     0.025 A 
ATOM     13  C   UNL     1      -3.862  49.784  27.255  1.00  0.00     0.161 A 
ATOM     14  C   UNL     1      -3.675  50.726  28.283  1.00  0.00     0.157 A 
ATOM     15  C   UNL     1      -3.173  49.949  26.036  1.00  0.00     0.062 A 
ATOM     16  C   UNL     1      -2.820  51.815  28.088  1.00  0.00     0.051 A 
ATOM     17  C   UNL     1      -2.140  51.973  26.879  1.00  0.00     0.016 A 
BRANCH  13  18
ATOM     18  O   UNL     1      -4.735  48.707  27.475  1.00  0.00    -0.493 OA
ATOM     19  C   UNL     1      -4.322  47.383  27.794  1.00  0.00     0.278 C 
ENDBRANCH  13  18
BRANCH  14  20
ATOM     20  O   UNL     1      -4.333  50.599  29.506  1.00  0.00    -0.504 OA
ATOM     21  H   UNL     1      -3.988  49.997  30.245  1.00  0.00     0.293 HD
ENDBRANCH  14  20
ENDBRANCH   1  12
BRANCH   2  22
ATOM     22  O   UNL     1      -3.621  51.889  23.416  1.00  0.00    -0.502 OA
ATOM     23  H   UNL     1      -4.031  52.777  23.152  1.00  0.00     0.293 HD
ENDBRANCH   2  22
BRANCH   6  24
ATOM     24  O   UNL     1       0.185  52.191  19.883  1.00  0.00    -0.507 OA
ATOM     25  H   UNL     1       0.717  52.785  19.258  1.00  0.00     0.293 HD
ENDBRANCH   6  24
BRANCH   8  26
ATOM     26  O   UNL     1       3.998  50.683  22.423  1.00  0.00    -0.508 OA
ATOM     27  H   UNL     1       4.543  50.540  21.580  1.00  0.00     0.293 HD
ENDBRANCH   8  26
TORSDOF 6
ENDMDL
MODEL 4
REMARK VINA RESULT:    -6.045      2.135      7.048
REMARK INTER + INTRA:          -7.810
REMARK INTER:                  -7.632
REMARK INTRA:                  -0.179
REMARK UNBOUND:                -0.351
REMARK SMILES COc1cc(-c2oc3cc(O)cc(O)c3c(=O)c2O)ccc1O
REMARK SMILES IDX 6 1 18 2 16 3 17 4 15 5 13 6 12 7 10 8 9 9 8 10 7 11 5 12
REMARK SMILES IDX 3 13 22 14 4 15 21 16 20 17 2 18 1 19 23 20 19 22 14 24
REMARK SMILES IDX 11 26
REMARK H PARENT 23 21 19 23 14 25 11 27
REMARK Flexibility Score: inf
ROOT
ATOM      1  C   UNL     1      -1.080  50.555  24.571  1.00  0.00     0.180 A 
ATOM      2  C   UNL     1      -1.426  51.819  25.088  1.00  0.00     0.208 A 
ATOM      3  C   UNL     1      -2.447  51.903  26.048  1.00  0.00     0.238 A 
ATOM      4  O   UNL     1      -2.772  53.031  26.509  1.00  0.00    -0.285 OA
ATOM      5  C   UNL     1      -3.089  50.727  26.487  1.00  0.00     0.111 A 
ATOM      6  C   UNL     1      -4.124  50.726  27.453  1.00  0.00     0.134 A 
ATOM      7  C   UNL     1      -4.708  49.512  27.844  1.00  0.00     0.093 A 
ATOM      8  C   UNL     1      -4.277  48.303  27.292  1.00  0.00     0.123 A 
ATOM      9  C   UNL     1      -3.256  48.298  26.338  1.00  0.00     0.094 A 
ATOM     10  C   UNL     1      -2.663  49.497  25.932  1.00  0.00     0.146 A 
ATOM     11  O   UNL     1      -1.698  49.466  25.021  1.00  0.00    -0.452 OA
ENDROOT
BRANCH   1  12
ATOM     12  C   UNL     1      -0.027  50.386  23.543  1.00  0.00     0.025 A 
ATOM     13  C   UNL     1       0.709  49.622  21.338  1.00  0.00     0.161 A 
ATOM     14  C   UNL     1       2.019  50.037  21.644  1.00  0.00     0.157 A 
ATOM     15  C   UNL     1      -0.309  49.794  22.298  1.00  0.00     0.062 A 
ATOM     16  C   UNL     1       2.300  50.604  22.890  1.00  0.00     0.051 A 
ATOM     17  C   UNL     1       1.289  50.772  23.836  1.00  0.00     0.016 A 
BRANCH  13  18
ATOM     18  O   UNL     1       0.457  49.045  20.084  1.00  0.00    -0.493 OA
ATOM     19  C   UNL     1       0.133  47.675  19.876  1.00  0.00     0.278 C 
ENDBRANCH  13  18
BRANCH  14  20
ATOM     20  O   UNL     1       3.055  49.889  20.722  1.00  0.00    -0.504 OA
ATOM     21  H   UNL     1       3.114  50.453  19.882  1.00  0.00     0.293 HD
ENDBRANCH  14  20
ENDBRANCH   1  12
BRANCH   2  22
ATOM     22  O   UNL     1      -0.739  52.962  24.672  1.00  0.00    -0.502 OA
ATOM     23  H   UNL     1      -1.158  53.654  24.062  1.00  0.00     0.293 HD
ENDBRANCH   2  22
BRANCH   6  24
ATOM     24  O   UNL     1      -4.576  51.916  28.024  1.00  0.00    -0.507 OA
ATOM     25  H   UNL     1      -3.987  52.738  28.078  1.00  0.00     0.293 HD
ENDBRANCH   6  24
BRANCH   8  26
ATOM     26  O   UNL     1      -4.873  47.112  27.700  1.00  0.00    -0.508 OA
ATOM     27  H   UNL     1      -5.852  47.071  27.960  1.00  0.00     0.293 HD
ENDBRANCH   8  26
TORSDOF 6
ENDMDL
MODEL 5
REMARK VINA RESULT:    -5.863      1.515      7.139
REMARK INTER + INTRA:          -7.585
REMARK INTER:                  -7.198
REMARK INTRA:                  -0.387
REMARK UNBOUND:                -0.351
REMARK SMILES COc1cc(-c2oc3cc(O)cc(O)c3c(=O)c2O)ccc1O
REMARK SMILES IDX 6 1 18 2 16 3 17 4 15 5 13 6 12 7 10 8 9 9 8 10 7 11 5 12
REMARK SMILES IDX 3 13 22 14 4 15 21 16 20 17 2 18 1 19 23 20 19 22 14 24
REMARK SMILES IDX 11 26
REMARK H PARENT 23 21 19 23 14 25 11 27
REMARK Flexibility Score: inf
ROOT
ATOM      1  C   UNL     1      -1.690  49.896  25.030  1.00  0.00     0.180 A 
ATOM      2  C   UNL     1      -2.129  48.559  24.968  1.00  0.00     0.208 A 
ATOM      3  C   UNL     1      -3.102  48.122  25.879  1.00  0.00     0.238 A 
ATOM      4  O   UNL     1      -3.494  46.924  25.840  1.00  0.00    -0.285 OA
ATOM      5  C   UNL     1      -3.633  49.028  26.820  1.00  0.00     0.111 A 
ATOM      6  C   UNL     1      -4.620  48.669  27.770  1.00  0.00     0.134 A 
ATOM      7  C   UNL     1      -5.104  49.631  28.667  1.00  0.00     0.093 A 
ATOM      8  C   UNL     1      -4.625  50.943  28.632  1.00  0.00     0.123 A 
ATOM      9  C   UNL     1      -3.651  51.305  27.697  1.00  0.00     0.094 A 
ATOM     10  C   UNL     1      -3.153  50.359  26.796  1.00  0.00     0.146 A 
ATOM     11  O   UNL     1      -2.225  50.727  25.920  1.00  0.00    -0.452 OA
ENDROOT
BRANCH   1  12
ATOM     12  C   UNL     1      -0.653  50.427  24.115  1.00  0.00     0.025 A 
ATOM     13  C   UNL     1       0.005  51.496  22.015  1.00  0.00     0.161 A 
ATOM     14  C   UNL     1       1.356  51.370  22.386  1.00  0.00     0.157 A 
ATOM     15  C   UNL     1      -0.995  51.014  22.883  1.00  0.00     0.062 A 
ATOM     16  C   UNL     1       1.695  50.765  23.599  1.00  0.00     0.051 A 
ATOM     17  C   UNL     1       0.701  50.290  24.455  1.00  0.00     0.016 A 
BRANCH  13  18
ATOM     18  O   UNL     1      -0.306  52.097  20.785  1.00  0.00    -0.493 OA
ATOM     19  C   UNL     1      -1.621  52.215  20.252  1.00  0.00     0.278 C 
ENDBRANCH  13  18
BRANCH  14  20
ATOM     20  O   UNL     1       2.378  51.837  21.558  1.00  0.00    -0.504 OA
ATOM     21  H   UNL     1       3.323  51.978  21.895  1.00  0.00     0.293 HD
ENDBRANCH  14  20
ENDBRANCH   1  12
BRANCH   2  22
ATOM     22  O   UNL     1      -1.621  47.695  23.993  1.00  0.00    -0.502 OA
ATOM     23  H   UNL     1      -0.782  47.147  24.139  1.00  0.00     0.293 HD
ENDBRANCH   2  22
BRANCH   6  24
ATOM     24  O   UNL     1      -5.119  47.368  27.829  1.00  0.00    -0.507 OA
ATOM     25  H   UNL     1      -5.123  46.760  27.019  1.00  0.00     0.293 HD
ENDBRANCH   6  24
BRANCH   8  26
ATOM     26  O   UNL     1      -5.125  51.880  29.534  1.00  0.00    -0.508 OA
ATOM     27  H   UNL     1      -4.814  51.905  30.499  1.00  0.00     0.293 HD
ENDBRANCH   8  26
TORSDOF 6
ENDMDL
MODEL 6
REMARK VINA RESULT:    -5.775      2.374      6.975
REMARK INTER + INTRA:          -7.477
REMARK INTER:                  -7.346
REMARK INTRA:                  -0.131
REMARK UNBOUND:                -0.351
REMARK SMILES COc1cc(-c2oc3cc(O)cc(O)c3c(=O)c2O)ccc1O
REMARK SMILES IDX 6 1 18 2 16 3 17 4 15 5 13 6 12 7 10 8 9 9 8 10 7 11 5 12
REMARK SMILES IDX 3 13 22 14 4 15 21 16 20 17 2 18 1 19 23 20 19 22 14 24
REMARK SMILES IDX 11 26
REMARK H PARENT 23 21 19 23 14 25 11 27
REMARK Flexibility Score: inf
ROOT
ATOM      1  C   UNL     1      -0.663  49.839  24.436  1.00  0.00     0.180 A 
ATOM      2  C   UNL     1      -1.009  48.591  24.988  1.00  0.00     0.208 A 
ATOM      3  C   UNL     1      -1.996  48.540  25.985  1.00  0.00     0.238 A 
ATOM      4  O   UNL     1      -2.305  47.428  26.494  1.00  0.00    -0.285 OA
ATOM      5  C   UNL     1      -2.631  49.729  26.398  1.00  0.00     0.111 A 
ATOM      6  C   UNL     1      -3.637  49.763  27.394  1.00  0.00     0.134 A 
ATOM      7  C   UNL     1      -4.227  50.986  27.744  1.00  0.00     0.093 A 
ATOM      8  C   UNL     1      -3.835  52.172  27.118  1.00  0.00     0.123 A 
ATOM      9  C   UNL     1      -2.842  52.145  26.135  1.00  0.00     0.094 A 
ATOM     10  C   UNL     1      -2.238  50.936  25.773  1.00  0.00     0.146 A 
ATOM     11  O   UNL     1      -1.295  50.938  24.839  1.00  0.00    -0.452 OA
ENDROOT
BRANCH   1  12
ATOM     12  C   UNL     1       0.380  49.977  23.394  1.00  0.00     0.025 A 
ATOM     13  C   UNL     1       1.320  49.384  21.214  1.00  0.00     0.161 A 
ATOM     14  C   UNL     1       2.416  50.228  21.468  1.00  0.00     0.157 A 
ATOM     15  C   UNL     1       0.308  49.257  22.187  1.00  0.00     0.062 A 
ATOM     16  C   UNL     1       2.498  50.924  22.677  1.00  0.00     0.051 A 
ATOM     17  C   UNL     1       1.493  50.795  23.637  1.00  0.00     0.016 A 
BRANCH  13  18
ATOM     18  O   UNL     1       1.270  48.688  19.995  1.00  0.00    -0.493 OA
ATOM     19  C   UNL     1       1.260  47.269  19.875  1.00  0.00     0.278 C 
ENDBRANCH  13  18
BRANCH  14  20
ATOM     20  O   UNL     1       3.437  50.386  20.531  1.00  0.00    -0.504 OA
ATOM     21  H   UNL     1       4.219  49.743  20.472  1.00  0.00     0.293 HD
ENDBRANCH  14  20
ENDBRANCH   1  12
BRANCH   2  22
ATOM     22  O   UNL     1      -0.399  47.421  24.525  1.00  0.00    -0.502 OA
ATOM     23  H   UNL     1      -0.115  47.305  23.560  1.00  0.00     0.293 HD
ENDBRANCH   2  22
BRANCH   6  24
ATOM     24  O   UNL     1      -4.052  48.597  28.036  1.00  0.00    -0.507 OA
ATOM     25  H   UNL     1      -3.560  47.719  27.918  1.00  0.00     0.293 HD
ENDBRANCH   6  24
BRANCH   8  26
ATOM     26  O   UNL     1      -4.438  53.373  27.484  1.00  0.00    -0.508 OA
ATOM     27  H   UNL     1      -4.171  54.252  27.057  1.00  0.00     0.293 HD
ENDBRANCH   8  26
TORSDOF 6
ENDMDL
MODEL 7
REMARK VINA RESULT:    -5.622      1.531      7.312
REMARK INTER + INTRA:          -7.288
REMARK INTER:                  -6.991
REMARK INTRA:                  -0.297
REMARK UNBOUND:                -0.351
REMARK SMILES COc1cc(-c2oc3cc(O)cc(O)c3c(=O)c2O)ccc1O
REMARK SMILES IDX 6 1 18 2 16 3 17 4 15 5 13 6 12 7 10 8 9 9 8 10 7 11 5 12
REMARK SMILES IDX 3 13 22 14 4 15 21 16 20 17 2 18 1 19 23 20 19 22 14 24
REMARK SMILES IDX 11 26
REMARK H PARENT 23 21 19 23 14 25 11 27
REMARK Flexibility Score: inf
ROOT
ATOM      1  C   UNL     1      -2.632  50.356  25.886  1.00  0.00     0.180 A 
ATOM      2  C   UNL     1      -2.997  51.240  26.920  1.00  0.00     0.208 A 
ATOM      3  C   UNL     1      -3.692  50.735  28.030  1.00  0.00     0.238 A 
ATOM      4  O   UNL     1      -4.034  51.520  28.956  1.00  0.00    -0.285 OA
ATOM      5  C   UNL     1      -3.992  49.359  28.097  1.00  0.00     0.111 A 
ATOM      6  C   UNL     1      -4.685  48.770  29.183  1.00  0.00     0.134 A 
ATOM      7  C   UNL     1      -4.937  47.391  29.180  1.00  0.00     0.093 A 
ATOM      8  C   UNL     1      -4.509  46.590  28.118  1.00  0.00     0.123 A 
ATOM      9  C   UNL     1      -3.825  47.165  27.044  1.00  0.00     0.094 A 
ATOM     10  C   UNL     1      -3.566  48.539  27.026  1.00  0.00     0.146 A 
ATOM     11  O   UNL     1      -2.917  49.061  25.992  1.00  0.00    -0.452 OA
ENDROOT
BRANCH   1  12
ATOM     12  C   UNL     1      -1.914  50.816  24.675  1.00  0.00     0.025 A 
ATOM     13  C   UNL     1       0.157  51.190  23.427  1.00  0.00     0.161 A 
ATOM     14  C   UNL     1      -0.590  51.755  22.376  1.00  0.00     0.157 A 
ATOM     15  C   UNL     1      -0.513  50.729  24.578  1.00  0.00     0.062 A 
ATOM     16  C   UNL     1      -1.979  51.862  22.485  1.00  0.00     0.051 A 
ATOM     17  C   UNL     1      -2.637  51.403  23.627  1.00  0.00     0.016 A 
BRANCH  13  18
ATOM     18  O   UNL     1       1.553  51.107  23.296  1.00  0.00    -0.493 OA
ATOM     19  C   UNL     1       2.235  50.124  22.524  1.00  0.00     0.278 C 
ENDBRANCH  13  18
BRANCH  14  20
ATOM     20  O   UNL     1       0.032  52.220  21.218  1.00  0.00    -0.504 OA
ATOM     21  H   UNL     1       1.033  52.148  21.077  1.00  0.00     0.293 HD
ENDBRANCH  14  20
ENDBRANCH   1  12
BRANCH   2  22
ATOM     22  O   UNL     1      -2.644  52.591  26.851  1.00  0.00    -0.502 OA
ATOM     23  H   UNL     1      -2.842  53.241  27.601  1.00  0.00     0.293 HD
ENDBRANCH   2  22
BRANCH   6  24
ATOM     24  O   UNL     1      -5.124  49.542  30.258  1.00  0.00    -0.507 OA
ATOM     25  H   UNL     1      -5.803  50.285  30.140  1.00  0.00     0.293 HD
ENDBRANCH   6  24
BRANCH   8  26
ATOM     26  O   UNL     1      -4.772  45.222  28.142  1.00  0.00    -0.508 OA
ATOM     27  H   UNL     1      -4.800  44.703  29.011  1.00  0.00     0.293 HD
ENDBRANCH   8  26
TORSDOF 6
ENDMDL
MODEL 8
REMARK VINA RESULT:    -5.460      2.910      3.851
REMARK INTER + INTRA:          -7.088
REMARK INTER:                  -6.982
REMARK INTRA:                  -0.106
REMARK UNBOUND:                -0.351
REMARK SMILES COc1cc(-c2oc3cc(O)cc(O)c3c(=O)c2O)ccc1O
REMARK SMILES IDX 6 1 18 2 16 3 17 4 15 5 13 6 12 7 10 8 9 9 8 10 7 11 5 12
REMARK SMILES IDX 3 13 22 14 4 15 21 16 20 17 2 18 1 19 23 20 19 22 14 24
REMARK SMILES IDX 11 26
REMARK H PARENT 23 21 19 23 14 25 11 27
REMARK Flexibility Score: inf
ROOT
ATOM      1  C   UNL     1      -0.982  50.766  23.235  1.00  0.00     0.180 A 
ATOM      2  C   UNL     1       0.187  51.424  22.807  1.00  0.00     0.208 A 
ATOM      3  C   UNL     1       1.008  50.799  21.856  1.00  0.00     0.238 A 
ATOM      4  O   UNL     1       2.063  51.374  21.474  1.00  0.00    -0.285 OA
ATOM      5  C   UNL     1       0.640  49.541  21.337  1.00  0.00     0.111 A 
ATOM      6  C   UNL     1       1.410  48.846  20.373  1.00  0.00     0.134 A 
ATOM      7  C   UNL     1       0.971  47.601  19.899  1.00  0.00     0.093 A 
ATOM      8  C   UNL     1      -0.221  47.040  20.366  1.00  0.00     0.123 A 
ATOM      9  C   UNL     1      -0.985  47.721  21.317  1.00  0.00     0.094 A 
ATOM     10  C   UNL     1      -0.564  48.962  21.805  1.00  0.00     0.146 A 
ATOM     11  O   UNL     1      -1.306  49.587  22.712  1.00  0.00    -0.452 OA
ENDROOT
BRANCH   1  12
ATOM     12  C   UNL     1      -1.889  51.352  24.249  1.00  0.00     0.025 A 
ATOM     13  C   UNL     1      -2.656  51.576  26.562  1.00  0.00     0.161 A 
ATOM     14  C   UNL     1      -3.672  52.449  26.130  1.00  0.00     0.157 A 
ATOM     15  C   UNL     1      -1.772  51.025  25.612  1.00  0.00     0.062 A 
ATOM     16  C   UNL     1      -3.801  52.754  24.772  1.00  0.00     0.051 A 
ATOM     17  C   UNL     1      -2.923  52.206  23.836  1.00  0.00     0.016 A 
BRANCH  13  18
ATOM     18  O   UNL     1      -2.557  51.278  27.930  1.00  0.00    -0.493 OA
ATOM     19  C   UNL     1      -3.589  50.673  28.702  1.00  0.00     0.278 C 
ENDBRANCH  13  18
BRANCH  14  20
ATOM     20  O   UNL     1      -4.566  53.019  27.036  1.00  0.00    -0.504 OA
ATOM     21  H   UNL     1      -5.172  52.458  27.622  1.00  0.00     0.293 HD
ENDBRANCH  14  20
ENDBRANCH   1  12
BRANCH   2  22
ATOM     22  O   UNL     1       0.503  52.693  23.302  1.00  0.00    -0.502 OA
ATOM     23  H   UNL     1      -0.201  53.321  23.670  1.00  0.00     0.293 HD
ENDBRANCH   2  22
BRANCH   6  24
ATOM     24  O   UNL     1       2.603  49.379  19.886  1.00  0.00    -0.507 OA
ATOM     25  H   UNL     1       3.370  48.788  19.589  1.00  0.00     0.293 HD
ENDBRANCH   6  24
BRANCH   8  26
ATOM     26  O   UNL     1      -0.634  45.803  19.877  1.00  0.00    -0.508 OA
ATOM     27  H   UNL     1       0.033  45.082  19.627  1.00  0.00     0.293 HD
ENDBRANCH   8  26
TORSDOF 6
ENDMDL
MODEL 9
REMARK VINA RESULT:    -5.134      2.006      3.187
REMARK INTER + INTRA:          -6.686
REMARK INTER:                  -7.022
REMARK INTRA:                   0.336
REMARK UNBOUND:                -0.351
REMARK SMILES COc1cc(-c2oc3cc(O)cc(O)c3c(=O)c2O)ccc1O
REMARK SMILES IDX 6 1 18 2 16 3 17 4 15 5 13 6 12 7 10 8 9 9 8 10 7 11 5 12
REMARK SMILES IDX 3 13 22 14 4 15 21 16 20 17 2 18 1 19 23 20 19 22 14 24
REMARK SMILES IDX 11 26
REMARK H PARENT 23 21 19 23 14 25 11 27
REMARK Flexibility Score: inf
ROOT
ATOM      1  C   UNL     1      -1.289  49.541  24.490  1.00  0.00     0.180 A 
ATOM      2  C   UNL     1      -1.315  50.948  24.545  1.00  0.00     0.208 A 
ATOM      3  C   UNL     1      -0.483  51.675  23.680  1.00  0.00     0.238 A 
ATOM      4  O   UNL     1      -0.490  52.935  23.728  1.00  0.00    -0.285 OA
ATOM      5  C   UNL     1       0.342  50.989  22.765  1.00  0.00     0.111 A 
ATOM      6  C   UNL     1       1.205  51.648  21.856  1.00  0.00     0.134 A 
ATOM      7  C   UNL     1       1.989  50.894  20.971  1.00  0.00     0.093 A 
ATOM      8  C   UNL     1       1.924  49.498  20.973  1.00  0.00     0.123 A 
ATOM      9  C   UNL     1       1.074  48.842  21.868  1.00  0.00     0.094 A 
ATOM     10  C   UNL     1       0.286  49.575  22.761  1.00  0.00     0.146 A 
ATOM     11  O   UNL     1      -0.510  48.928  23.604  1.00  0.00    -0.452 OA
ENDROOT
BRANCH   1  12
ATOM     12  C   UNL     1      -2.123  48.703  25.383  1.00  0.00     0.025 A 
ATOM     13  C   UNL     1      -4.004  48.434  26.924  1.00  0.00     0.161 A 
ATOM     14  C   UNL     1      -3.644  47.087  27.113  1.00  0.00     0.157 A 
ATOM     15  C   UNL     1      -3.233  49.239  26.062  1.00  0.00     0.062 A 
ATOM     16  C   UNL     1      -2.527  46.563  26.455  1.00  0.00     0.051 A 
ATOM     17  C   UNL     1      -1.767  47.365  25.603  1.00  0.00     0.016 A 
BRANCH  13  18
ATOM     18  O   UNL     1      -5.124  48.936  27.607  1.00  0.00    -0.493 OA
ATOM     19  C   UNL     1      -5.071  49.609  28.860  1.00  0.00     0.278 C 
ENDBRANCH  13  18
BRANCH  14  20
ATOM     20  O   UNL     1      -4.381  46.254  27.954  1.00  0.00    -0.504 OA
ATOM     21  H   UNL     1      -5.316  45.940  27.719  1.00  0.00     0.293 HD
ENDBRANCH  14  20
ENDBRANCH   1  12
BRANCH   2  22
ATOM     22  O   UNL     1      -2.178  51.604  25.427  1.00  0.00    -0.502 OA
ATOM     23  H   UNL     1      -3.154  51.348  25.520  1.00  0.00     0.293 HD
ENDBRANCH   2  22
BRANCH   6  24
ATOM     24  O   UNL     1       1.292  53.040  21.828  1.00  0.00    -0.507 OA
ATOM     25  H   UNL     1       2.110  53.530  22.167  1.00  0.00     0.293 HD
ENDBRANCH   6  24
BRANCH   8  26
ATOM     26  O   UNL     1       2.712  48.773  20.082  1.00  0.00    -0.508 OA
ATOM     27  H   UNL     1       2.991  49.159  19.188  1.00  0.00     0.293 HD
ENDBRANCH   8  26
TORSDOF 6
ENDMDL
