MODEL 1
REMARK VINA RESULT:    77.002      0.000      0.000
REMARK INTER + INTRA:         101.740
REMARK INTER:                 101.761
REMARK INTRA:                  -0.021
REMARK UNBOUND:                -0.021
REMARK SMILES CC(C)=CCC[C@H](C(=O)[O-])[C@H]1CC[C@@]2(C)C3=C(CC[C@@]12C)[C@]1(C)CC[C@@H](O)C(C)(C)[C@H]1CC3
REMARK SMILES IDX 6 1 7 2 8 3 9 4 10 5 11 6 12 7 20 8 13 9 14 10 19 11 21 12
REMARK SMILES IDX 15 13 16 14 18 15 17 16 33 17 22 18 32 19 31 20 24 21 23 22
REMARK SMILES IDX 28 23 25 24 26 25 29 26 30 27 27 28 5 30 4 31 2 32 1 33 3 34
REMARK H PARENT 27 29
REMARK Flexibility Score: inf
ROOT
ATOM      1  C   UNL     1      90.055   8.268 108.675  1.00  0.00     0.014 C 
ENDROOT
BRANCH   1   2
ATOM      2  C   UNL     1      90.623   8.328 107.236  1.00  0.00     0.039 C 
BRANCH   2   3
ATOM      3  C   UNL     1      92.068   7.864 107.252  1.00  0.00     0.045 C 
ATOM      4  O   UNL     1      92.932   8.394 106.500  1.00  0.00    -0.550 OA
ATOM      5  O   UNL     1      92.462   6.875 108.149  1.00  0.00    -0.550 OA
ENDBRANCH   2   3
BRANCH   2   6
ATOM      6  C   UNL     1      90.343   9.727 106.563  1.00  0.00     0.004 C 
ATOM      7  C   UNL     1      90.004   9.757 105.058  1.00  0.00     0.006 C 
ATOM      8  C   UNL     1      89.303  10.689 107.219  1.00  0.00    -0.020 C 
ATOM      9  C   UNL     1      89.155  11.032 104.821  1.00  0.00     0.012 C 
ATOM     10  C   UNL     1      89.176  11.830 106.147  1.00  0.00    -0.006 C 
ATOM     11  C   UNL     1      87.944   9.926 107.432  1.00  0.00     0.012 C 
ATOM     12  C   UNL     1      89.806  11.219 108.585  1.00  0.00     0.012 C 
ATOM     13  C   UNL     1      90.442  12.758 106.111  1.00  0.00     0.017 C 
ATOM     14  C   UNL     1      87.895  12.686 106.390  1.00  0.00    -0.064 C 
ATOM     15  C   UNL     1      86.679  10.620 106.944  1.00  0.00     0.032 C 
ATOM     16  C   UNL     1      86.768  12.123 106.918  1.00  0.00    -0.064 C 
ATOM     17  C   UNL     1      87.876  14.175 106.042  1.00  0.00     0.032 C 
ATOM     18  C   UNL     1      85.706  12.959 107.691  1.00  0.00    -0.008 C 
ATOM     19  C   UNL     1      87.118  15.003 107.068  1.00  0.00     0.009 C 
ATOM     20  C   UNL     1      85.691  14.447 107.171  1.00  0.00     0.007 C 
ATOM     21  C   UNL     1      84.264  12.405 107.467  1.00  0.00     0.014 C 
ATOM     22  C   UNL     1      86.101  12.826 109.194  1.00  0.00     0.016 C 
ATOM     23  C   UNL     1      84.617  15.400 107.825  1.00  0.00    -0.006 C 
ATOM     24  C   UNL     1      83.156  13.280 108.088  1.00  0.00     0.033 C 
ATOM     25  C   UNL     1      83.213  14.743 107.626  1.00  0.00     0.120 C 
ATOM     26  C   UNL     1      84.593  16.759 107.068  1.00  0.00     0.014 C 
ATOM     27  C   UNL     1      84.882  15.713 109.324  1.00  0.00     0.014 C 
BRANCH  25  28
ATOM     28  O   UNL     1      82.219  15.487 108.300  1.00  0.00    -0.393 OA
ATOM     29  H   UNL     1      81.817  14.880 108.975  1.00  0.00     0.210 HD
ENDBRANCH  25  28
ENDBRANCH   2   6
ENDBRANCH   1   2
BRANCH   1  30
ATOM     30  C   UNL     1      89.250   6.984 108.951  1.00  0.00     0.028 C 
BRANCH  30  31
ATOM     31  C   UNL     1      88.905   6.875 110.425  1.00  0.00    -0.028 C 
ATOM     32  C   UNL     1      87.744   7.315 110.971  1.00  0.00    -0.080 C 
ATOM     33  C   UNL     1      87.444   7.017 112.420  1.00  0.00     0.039 C 
ATOM     34  C   UNL     1      86.658   7.979 110.148  1.00  0.00     0.039 C 
ENDBRANCH  30  31
ENDBRANCH   1  30
TORSDOF 6
ENDMDL
