MODEL 1
REMARK VINA RESULT:    -5.567      0.000      0.000
REMARK INTER + INTRA:          -5.893
REMARK INTER:                  -5.893
REMARK INTRA:                   0.000
REMARK UNBOUND:                 0.000
REMARK SMILES O=c1ccc2cc(O)c(O)cc2o1
REMARK SMILES IDX 4 1 3 2 2 3 1 4 13 5 12 6 11 7 9 8 7 9 6 10 5 11 8 12 10 14
REMARK H PARENT 8 13 10 15
REMARK Flexibility Score: inf
ROOT
ATOM      1  C   UNL     1      10.287  -7.505  -9.575  1.00  0.00     0.019 A 
ATOM      2  C   UNL     1       9.515  -8.223 -10.488  1.00  0.00     0.094 A 
ATOM      3  C   UNL     1       8.134  -8.311 -10.284  1.00  0.00     0.336 A 
ATOM      4  O   UNL     1       7.419  -8.955 -11.096  1.00  0.00    -0.246 OA
ATOM      5  O   UNL     1       7.568  -7.719  -9.236  1.00  0.00    -0.423 OA
ATOM      6  C   UNL     1       8.268  -7.024  -8.342  1.00  0.00     0.142 A 
ATOM      7  C   UNL     1       7.618  -6.423  -7.259  1.00  0.00     0.098 A 
ATOM      8  C   UNL     1       8.351  -5.690  -6.314  1.00  0.00     0.161 A 
ATOM      9  C   UNL     1       9.741  -5.558  -6.454  1.00  0.00     0.158 A 
ATOM     10  C   UNL     1      10.397  -6.160  -7.538  1.00  0.00     0.062 A 
ATOM     11  C   UNL     1       9.666  -6.892  -8.482  1.00  0.00     0.022 A 
ENDROOT
BRANCH   9  12
ATOM     12  O   UNL     1      10.462  -4.828  -5.510  1.00  0.00    -0.504 OA
ATOM     13  H   UNL     1      11.336  -4.374  -5.746  1.00  0.00     0.293 HD
ENDBRANCH   9  12
BRANCH   8  14
ATOM     14  O   UNL     1       7.706  -5.090  -5.234  1.00  0.00    -0.504 OA
ATOM     15  H   UNL     1       8.207  -4.503  -4.578  1.00  0.00     0.293 HD
ENDBRANCH   8  14
TORSDOF 2
ENDMDL
MODEL 2
REMARK VINA RESULT:    -5.471      1.205      2.277
REMARK INTER + INTRA:          -5.791
REMARK INTER:                  -5.791
REMARK INTRA:                   0.000
REMARK UNBOUND:                 0.000
REMARK SMILES O=c1ccc2cc(O)c(O)cc2o1
REMARK SMILES IDX 4 1 3 2 2 3 1 4 13 5 12 6 11 7 9 8 7 9 6 10 5 11 8 12 10 14
REMARK H PARENT 8 13 10 15
REMARK Flexibility Score: inf
ROOT
ATOM      1  C   UNL     1       7.644  -7.878  -9.348  1.00  0.00     0.019 A 
ATOM      2  C   UNL     1       8.364  -8.425 -10.410  1.00  0.00     0.094 A 
ATOM      3  C   UNL     1       9.740  -8.190 -10.488  1.00  0.00     0.336 A 
ATOM      4  O   UNL     1      10.408  -8.675 -11.438  1.00  0.00    -0.246 OA
ATOM      5  O   UNL     1      10.352  -7.456  -9.562  1.00  0.00    -0.423 OA
ATOM      6  C   UNL     1       9.703  -6.915  -8.532  1.00  0.00     0.142 A 
ATOM      7  C   UNL     1      10.399  -6.152  -7.590  1.00  0.00     0.098 A 
ATOM      8  C   UNL     1       9.720  -5.580  -6.504  1.00  0.00     0.161 A 
ATOM      9  C   UNL     1       8.338  -5.774  -6.361  1.00  0.00     0.158 A 
ATOM     10  C   UNL     1       7.635  -6.539  -7.303  1.00  0.00     0.062 A 
ATOM     11  C   UNL     1       8.313  -7.110  -8.389  1.00  0.00     0.022 A 
ENDROOT
BRANCH   9  12
ATOM     12  O   UNL     1       7.671  -5.203  -5.279  1.00  0.00    -0.504 OA
ATOM     13  H   UNL     1       8.133  -5.055  -4.389  1.00  0.00     0.293 HD
ENDBRANCH   9  12
BRANCH   8  14
ATOM     14  O   UNL     1      10.411  -4.819  -5.563  1.00  0.00    -0.504 OA
ATOM     15  H   UNL     1       9.967  -4.499  -4.710  1.00  0.00     0.293 HD
ENDBRANCH   8  14
TORSDOF 2
ENDMDL
MODEL 3
REMARK VINA RESULT:    -5.130      2.036      2.547
REMARK INTER + INTRA:          -5.430
REMARK INTER:                  -5.430
REMARK INTRA:                   0.000
REMARK UNBOUND:                 0.000
REMARK SMILES O=c1ccc2cc(O)c(O)cc2o1
REMARK SMILES IDX 4 1 3 2 2 3 1 4 13 5 12 6 11 7 9 8 7 9 6 10 5 11 8 12 10 14
REMARK H PARENT 8 13 10 15
REMARK Flexibility Score: inf
ROOT
ATOM      1  C   UNL     1      11.270  -6.885  -8.341  1.00  0.00     0.019 A 
ATOM      2  C   UNL     1      11.782  -7.149  -9.612  1.00  0.00     0.094 A 
ATOM      3  C   UNL     1      10.994  -6.865 -10.732  1.00  0.00     0.336 A 
ATOM      4  O   UNL     1      11.437  -7.096 -11.887  1.00  0.00    -0.246 OA
ATOM      5  O   UNL     1       9.775  -6.352 -10.586  1.00  0.00    -0.423 OA
ATOM      6  C   UNL     1       9.248  -6.085  -9.392  1.00  0.00     0.142 A 
ATOM      7  C   UNL     1       7.961  -5.546  -9.300  1.00  0.00     0.098 A 
ATOM      8  C   UNL     1       7.402  -5.264  -8.045  1.00  0.00     0.161 A 
ATOM      9  C   UNL     1       8.135  -5.522  -6.877  1.00  0.00     0.158 A 
ATOM     10  C   UNL     1       9.426  -6.063  -6.964  1.00  0.00     0.062 A 
ATOM     11  C   UNL     1       9.985  -6.346  -8.217  1.00  0.00     0.022 A 
ENDROOT
BRANCH   9  12
ATOM     12  O   UNL     1       7.572  -5.238  -5.634  1.00  0.00    -0.504 OA
ATOM     13  H   UNL     1       7.312  -4.295  -5.372  1.00  0.00     0.293 HD
ENDBRANCH   9  12
BRANCH   8  14
ATOM     14  O   UNL     1       6.120  -4.727  -7.950  1.00  0.00    -0.504 OA
ATOM     15  H   UNL     1       5.946  -3.853  -7.467  1.00  0.00     0.293 HD
ENDBRANCH   8  14
TORSDOF 2
ENDMDL
MODEL 4
REMARK VINA RESULT:    -5.090      1.595      2.284
REMARK INTER + INTRA:          -5.388
REMARK INTER:                  -5.388
REMARK INTRA:                   0.000
REMARK UNBOUND:                 0.000
REMARK SMILES O=c1ccc2cc(O)c(O)cc2o1
REMARK SMILES IDX 4 1 3 2 2 3 1 4 13 5 12 6 11 7 9 8 7 9 6 10 5 11 8 12 10 14
REMARK H PARENT 8 13 10 15
REMARK Flexibility Score: inf
ROOT
ATOM      1  C   UNL     1       7.939  -9.048  -8.130  1.00  0.00     0.019 A 
ATOM      2  C   UNL     1       8.093  -8.801  -9.494  1.00  0.00     0.094 A 
ATOM      3  C   UNL     1       8.269  -7.483  -9.927  1.00  0.00     0.336 A 
ATOM      4  O   UNL     1       8.409  -7.238 -11.154  1.00  0.00    -0.246 OA
ATOM      5  O   UNL     1       8.289  -6.482  -9.051  1.00  0.00    -0.423 OA
ATOM      6  C   UNL     1       8.146  -6.674  -7.741  1.00  0.00     0.142 A 
ATOM      7  C   UNL     1       8.175  -5.583  -6.867  1.00  0.00     0.098 A 
ATOM      8  C   UNL     1       8.024  -5.780  -5.486  1.00  0.00     0.161 A 
ATOM      9  C   UNL     1       7.844  -7.076  -4.979  1.00  0.00     0.158 A 
ATOM     10  C   UNL     1       7.814  -8.173  -5.852  1.00  0.00     0.062 A 
ATOM     11  C   UNL     1       7.964  -7.977  -7.231  1.00  0.00     0.022 A 
ENDROOT
BRANCH   9  12
ATOM     12  O   UNL     1       7.696  -7.263  -3.606  1.00  0.00    -0.504 OA
ATOM     13  H   UNL     1       7.384  -8.147  -3.222  1.00  0.00     0.293 HD
ENDBRANCH   9  12
BRANCH   8  14
ATOM     14  O   UNL     1       8.053  -4.695  -4.613  1.00  0.00    -0.504 OA
ATOM     15  H   UNL     1       7.246  -4.443  -4.054  1.00  0.00     0.293 HD
ENDBRANCH   8  14
TORSDOF 2
ENDMDL
MODEL 5
REMARK VINA RESULT:    -4.994     17.547     18.709
REMARK INTER + INTRA:          -5.286
REMARK INTER:                  -5.286
REMARK INTRA:                   0.000
REMARK UNBOUND:                 0.000
REMARK SMILES O=c1ccc2cc(O)c(O)cc2o1
REMARK SMILES IDX 4 1 3 2 2 3 1 4 13 5 12 6 11 7 9 8 7 9 6 10 5 11 8 12 10 14
REMARK H PARENT 8 13 10 15
REMARK Flexibility Score: inf
ROOT
ATOM      1  C   UNL     1      21.382  -0.749 -22.636  1.00  0.00     0.019 A 
ATOM      2  C   UNL     1      21.877   0.460 -23.125  1.00  0.00     0.094 A 
ATOM      3  C   UNL     1      21.812   1.596 -22.312  1.00  0.00     0.336 A 
ATOM      4  O   UNL     1      22.253   2.697 -22.735  1.00  0.00    -0.246 OA
ATOM      5  O   UNL     1      21.287   1.524 -21.092  1.00  0.00    -0.423 OA
ATOM      6  C   UNL     1      20.803   0.390 -20.587  1.00  0.00     0.142 A 
ATOM      7  C   UNL     1      20.262   0.375 -19.298  1.00  0.00     0.098 A 
ATOM      8  C   UNL     1      19.751  -0.817 -18.761  1.00  0.00     0.161 A 
ATOM      9  C   UNL     1      19.783  -1.997 -19.519  1.00  0.00     0.158 A 
ATOM     10  C   UNL     1      20.325  -1.986 -20.812  1.00  0.00     0.062 A 
ATOM     11  C   UNL     1      20.835  -0.797 -21.349  1.00  0.00     0.022 A 
ENDROOT
BRANCH   9  12
ATOM     12  O   UNL     1      19.274  -3.176 -18.978  1.00  0.00    -0.504 OA
ATOM     13  H   UNL     1      19.880  -3.943 -18.713  1.00  0.00     0.293 HD
ENDBRANCH   9  12
BRANCH   8  14
ATOM     14  O   UNL     1      19.211  -0.835 -17.477  1.00  0.00    -0.504 OA
ATOM     15  H   UNL     1      18.281  -1.196 -17.298  1.00  0.00     0.293 HD
ENDBRANCH   8  14
TORSDOF 2
ENDMDL
MODEL 6
REMARK VINA RESULT:    -4.925     11.089     12.513
REMARK INTER + INTRA:          -5.213
REMARK INTER:                  -5.213
REMARK INTRA:                   0.000
REMARK UNBOUND:                 0.000
REMARK SMILES O=c1ccc2cc(O)c(O)cc2o1
REMARK SMILES IDX 4 1 3 2 2 3 1 4 13 5 12 6 11 7 9 8 7 9 6 10 5 11 8 12 10 14
REMARK H PARENT 8 13 10 15
REMARK Flexibility Score: inf
ROOT
ATOM      1  C   UNL     1       4.494   4.881  -7.736  1.00  0.00     0.019 A 
ATOM      2  C   UNL     1       3.875   6.014  -8.265  1.00  0.00     0.094 A 
ATOM      3  C   UNL     1       4.525   6.732  -9.273  1.00  0.00     0.336 A 
ATOM      4  O   UNL     1       3.984   7.758  -9.763  1.00  0.00    -0.246 OA
ATOM      5  O   UNL     1       5.716   6.341  -9.720  1.00  0.00    -0.423 OA
ATOM      6  C   UNL     1       6.342   5.266  -9.243  1.00  0.00     0.142 A 
ATOM      7  C   UNL     1       7.593   4.904  -9.751  1.00  0.00     0.098 A 
ATOM      8  C   UNL     1       8.256   3.773  -9.251  1.00  0.00     0.161 A 
ATOM      9  C   UNL     1       7.664   3.002  -8.239  1.00  0.00     0.158 A 
ATOM     10  C   UNL     1       6.409   3.363  -7.727  1.00  0.00     0.062 A 
ATOM     11  C   UNL     1       5.746   4.492  -8.224  1.00  0.00     0.022 A 
ENDROOT
BRANCH   9  12
ATOM     12  O   UNL     1       8.330   1.880  -7.749  1.00  0.00    -0.504 OA
ATOM     13  H   UNL     1       8.752   1.874  -6.828  1.00  0.00     0.293 HD
ENDBRANCH   9  12
BRANCH   8  14
ATOM     14  O   UNL     1       9.503   3.408  -9.756  1.00  0.00    -0.504 OA
ATOM     15  H   UNL     1       9.653   3.267 -10.748  1.00  0.00     0.293 HD
ENDBRANCH   8  14
TORSDOF 2
ENDMDL
MODEL 7
REMARK VINA RESULT:    -4.908      1.662      2.161
REMARK INTER + INTRA:          -5.194
REMARK INTER:                  -5.194
REMARK INTRA:                   0.000
REMARK UNBOUND:                 0.000
REMARK SMILES O=c1ccc2cc(O)c(O)cc2o1
REMARK SMILES IDX 4 1 3 2 2 3 1 4 13 5 12 6 11 7 9 8 7 9 6 10 5 11 8 12 10 14
REMARK H PARENT 8 13 10 15
REMARK Flexibility Score: inf
ROOT
ATOM      1  C   UNL     1       8.609  -5.602  -8.766  1.00  0.00     0.019 A 
ATOM      2  C   UNL     1       8.567  -6.292  -9.978  1.00  0.00     0.094 A 
ATOM      3  C   UNL     1       8.231  -7.649  -9.974  1.00  0.00     0.336 A 
ATOM      4  O   UNL     1       8.188  -8.290 -11.057  1.00  0.00    -0.246 OA
ATOM      5  O   UNL     1       7.956  -8.272  -8.830  1.00  0.00    -0.423 OA
ATOM      6  C   UNL     1       7.985  -7.652  -7.652  1.00  0.00     0.142 A 
ATOM      7  C   UNL     1       7.687  -8.359  -6.483  1.00  0.00     0.098 A 
ATOM      8  C   UNL     1       7.717  -7.710  -5.239  1.00  0.00     0.161 A 
ATOM      9  C   UNL     1       8.045  -6.348  -5.167  1.00  0.00     0.158 A 
ATOM     10  C   UNL     1       8.344  -5.635  -6.337  1.00  0.00     0.062 A 
ATOM     11  C   UNL     1       8.316  -6.282  -7.579  1.00  0.00     0.022 A 
ENDROOT
BRANCH   9  12
ATOM     12  O   UNL     1       8.071  -5.711  -3.927  1.00  0.00    -0.504 OA
ATOM     13  H   UNL     1       8.655  -4.900  -3.760  1.00  0.00     0.293 HD
ENDBRANCH   9  12
BRANCH   8  14
ATOM     14  O   UNL     1       7.420  -8.411  -4.072  1.00  0.00    -0.504 OA
ATOM     15  H   UNL     1       8.035  -8.385  -3.268  1.00  0.00     0.293 HD
ENDBRANCH   8  14
TORSDOF 2
ENDMDL
MODEL 8
REMARK VINA RESULT:    -4.794      2.360      3.039
REMARK INTER + INTRA:          -5.075
REMARK INTER:                  -5.075
REMARK INTRA:                   0.000
REMARK UNBOUND:                 0.000
REMARK SMILES O=c1ccc2cc(O)c(O)cc2o1
REMARK SMILES IDX 4 1 3 2 2 3 1 4 13 5 12 6 11 7 9 8 7 9 6 10 5 11 8 12 10 14
REMARK H PARENT 8 13 10 15
REMARK Flexibility Score: inf
ROOT
ATOM      1  C   UNL     1      10.407  -8.674  -8.726  1.00  0.00     0.019 A 
ATOM      2  C   UNL     1      11.400  -8.104  -9.524  1.00  0.00     0.094 A 
ATOM      3  C   UNL     1      11.681  -6.741  -9.384  1.00  0.00     0.336 A 
ATOM      4  O   UNL     1      12.573  -6.208 -10.094  1.00  0.00    -0.246 OA
ATOM      5  O   UNL     1      11.011  -6.001  -8.505  1.00  0.00    -0.423 OA
ATOM      6  C   UNL     1      10.056  -6.505  -7.725  1.00  0.00     0.142 A 
ATOM      7  C   UNL     1       9.385  -5.678  -6.819  1.00  0.00     0.098 A 
ATOM      8  C   UNL     1       8.378  -6.204  -5.995  1.00  0.00     0.161 A 
ATOM      9  C   UNL     1       8.043  -7.563  -6.079  1.00  0.00     0.158 A 
ATOM     10  C   UNL     1       8.713  -8.397  -6.987  1.00  0.00     0.062 A 
ATOM     11  C   UNL     1       9.718  -7.872  -7.810  1.00  0.00     0.022 A 
ENDROOT
BRANCH   9  12
ATOM     12  O   UNL     1       7.042  -8.077  -5.257  1.00  0.00    -0.504 OA
ATOM     13  H   UNL     1       6.458  -8.851  -5.552  1.00  0.00     0.293 HD
ENDBRANCH   9  12
BRANCH   8  14
ATOM     14  O   UNL     1       7.708  -5.382  -5.091  1.00  0.00    -0.504 OA
ATOM     15  H   UNL     1       7.298  -5.752  -4.242  1.00  0.00     0.293 HD
ENDBRANCH   8  14
TORSDOF 2
ENDMDL
MODEL 9
REMARK VINA RESULT:    -4.711      2.346      4.558
REMARK INTER + INTRA:          -4.987
REMARK INTER:                  -4.987
REMARK INTRA:                   0.000
REMARK UNBOUND:                 0.000
REMARK SMILES O=c1ccc2cc(O)c(O)cc2o1
REMARK SMILES IDX 4 1 3 2 2 3 1 4 13 5 12 6 11 7 9 8 7 9 6 10 5 11 8 12 10 14
REMARK H PARENT 8 13 10 15
REMARK Flexibility Score: inf
ROOT
ATOM      1  C   UNL     1       8.086  -5.638  -7.593  1.00  0.00     0.019 A 
ATOM      2  C   UNL     1       8.162  -6.680  -6.669  1.00  0.00     0.094 A 
ATOM      3  C   UNL     1       8.250  -7.995  -7.136  1.00  0.00     0.336 A 
ATOM      4  O   UNL     1       8.319  -8.950  -6.318  1.00  0.00    -0.246 OA
ATOM      5  O   UNL     1       8.262  -8.247  -8.443  1.00  0.00    -0.423 OA
ATOM      6  C   UNL     1       8.192  -7.283  -9.358  1.00  0.00     0.142 A 
ATOM      7  C   UNL     1       8.208  -7.608 -10.718  1.00  0.00     0.098 A 
ATOM      8  C   UNL     1       8.133  -6.595 -11.687  1.00  0.00     0.161 A 
ATOM      9  C   UNL     1       8.044  -5.252 -11.292  1.00  0.00     0.158 A 
ATOM     10  C   UNL     1       8.027  -4.921  -9.929  1.00  0.00     0.062 A 
ATOM     11  C   UNL     1       8.100  -5.932  -8.961  1.00  0.00     0.022 A 
ENDROOT
BRANCH   9  12
ATOM     12  O   UNL     1       7.971  -4.253 -12.260  1.00  0.00    -0.504 OA
ATOM     13  H   UNL     1       8.799  -3.909 -12.731  1.00  0.00     0.293 HD
ENDBRANCH   9  12
BRANCH   8  14
ATOM     14  O   UNL     1       8.149  -6.916 -13.043  1.00  0.00    -0.504 OA
ATOM     15  H   UNL     1       8.943  -7.381 -13.468  1.00  0.00     0.293 HD
ENDBRANCH   8  14
TORSDOF 2
ENDMDL
