MODEL 1
REMARK VINA RESULT:    -0.099      0.000      0.000
REMARK INTER + INTRA:          -0.216
REMARK INTER:                  -0.114
REMARK INTRA:                  -0.103
REMARK UNBOUND:                -0.103
REMARK SMILES COc1cc(C(=O)[O-])ccc1O
REMARK SMILES IDX 5 1 9 2 4 3 10 4 3 5 11 6 6 7 7 8 8 9 2 10 1 11 12 12
REMARK H PARENT 12 13
REMARK Flexibility Score: inf
ROOT
ATOM      1  C   UNL     1     -99.760   9.055  -9.153  1.00  0.00     0.001 A 
ATOM      2  C   UNL     1     -99.874   9.475  -7.819  1.00  0.00     0.014 A 
ATOM      3  C   UNL     1    -100.924   8.929  -9.932  1.00  0.00     0.060 A 
ATOM      4  C   UNL     1    -101.126   9.763  -7.273  1.00  0.00     0.051 A 
ATOM      5  C   UNL     1    -102.192   9.218  -9.387  1.00  0.00     0.161 A 
ATOM      6  C   UNL     1    -102.283   9.636  -8.047  1.00  0.00     0.157 A 
ENDROOT
BRANCH   1   7
ATOM      7  C   UNL     1     -98.430   8.752  -9.728  1.00  0.00     0.072 C 
ATOM      8  O   UNL     1     -98.264   8.709 -10.976  1.00  0.00    -0.545 OA
ATOM      9  O   UNL     1     -97.342   8.509  -8.896  1.00  0.00    -0.545 OA
ENDBRANCH   1   7
BRANCH   5  10
ATOM     10  O   UNL     1    -103.371   9.101 -10.140  1.00  0.00    -0.493 OA
ATOM     11  C   UNL     1    -103.845  10.080 -11.058  1.00  0.00     0.278 C 
ENDBRANCH   5  10
BRANCH   6  12
ATOM     12  O   UNL     1    -103.516   9.933  -7.465  1.00  0.00    -0.504 OA
ATOM     13  H   UNL     1    -103.753   9.641  -6.524  1.00  0.00     0.293 HD
ENDBRANCH   6  12
TORSDOF 3
ENDMDL
MODEL 2
REMARK VINA RESULT:    -0.097      1.332      4.918
REMARK INTER + INTRA:          -0.214
REMARK INTER:                  -0.111
REMARK INTRA:                  -0.104
REMARK UNBOUND:                -0.103
REMARK SMILES COc1cc(C(=O)[O-])ccc1O
REMARK SMILES IDX 5 1 9 2 4 3 10 4 3 5 11 6 6 7 7 8 8 9 2 10 1 11 12 12
REMARK H PARENT 12 13
REMARK Flexibility Score: inf
ROOT
ATOM      1  C   UNL     1    -101.793   9.867  -8.641  1.00  0.00     0.001 A 
ATOM      2  C   UNL     1    -101.636  10.116 -10.014  1.00  0.00     0.014 A 
ATOM      3  C   UNL     1    -100.664   9.525  -7.875  1.00  0.00     0.060 A 
ATOM      4  C   UNL     1    -100.377  10.026 -10.609  1.00  0.00     0.051 A 
ATOM      5  C   UNL     1     -99.390   9.432  -8.471  1.00  0.00     0.161 A 
ATOM      6  C   UNL     1     -99.256   9.685  -9.848  1.00  0.00     0.157 A 
ENDROOT
BRANCH   1   7
ATOM      7  C   UNL     1    -103.130   9.965  -8.015  1.00  0.00     0.072 C 
ATOM      8  O   UNL     1    -104.162  10.115  -8.722  1.00  0.00    -0.545 OA
ATOM      9  O   UNL     1    -103.267   9.891  -6.633  1.00  0.00    -0.545 OA
ENDBRANCH   1   7
BRANCH   5  10
ATOM     10  O   UNL     1     -98.245   9.092  -7.731  1.00  0.00    -0.493 OA
ATOM     11  C   UNL     1     -97.490  10.006  -6.944  1.00  0.00     0.278 C 
ENDBRANCH   5  10
BRANCH   6  12
ATOM     12  O   UNL     1     -98.014   9.604 -10.479  1.00  0.00    -0.504 OA
ATOM     13  H   UNL     1     -97.492  10.430 -10.750  1.00  0.00     0.293 HD
ENDBRANCH   6  12
TORSDOF 3
ENDMDL
MODEL 3
REMARK VINA RESULT:    -0.091      1.927      3.118
REMARK INTER + INTRA:          -0.207
REMARK INTER:                  -0.105
REMARK INTRA:                  -0.102
REMARK UNBOUND:                -0.103
REMARK SMILES COc1cc(C(=O)[O-])ccc1O
REMARK SMILES IDX 5 1 9 2 4 3 10 4 3 5 11 6 6 7 7 8 8 9 2 10 1 11 12 12
REMARK H PARENT 12 13
REMARK Flexibility Score: inf
ROOT
ATOM      1  C   UNL     1    -101.258   9.034  -9.968  1.00  0.00     0.001 A 
ATOM      2  C   UNL     1    -101.683   8.289 -11.079  1.00  0.00     0.014 A 
ATOM      3  C   UNL     1    -102.094   9.114  -8.839  1.00  0.00     0.060 A 
ATOM      4  C   UNL     1    -102.917   7.637 -11.063  1.00  0.00     0.051 A 
ATOM      5  C   UNL     1    -103.342   8.457  -8.817  1.00  0.00     0.161 A 
ATOM      6  C   UNL     1    -103.748   7.717  -9.943  1.00  0.00     0.157 A 
ENDROOT
BRANCH   1   7
ATOM      7  C   UNL     1     -99.949   9.723  -9.989  1.00  0.00     0.072 C 
ATOM      8  O   UNL     1     -99.443  10.107 -11.076  1.00  0.00    -0.545 OA
ATOM      9  O   UNL     1     -99.257   9.957  -8.805  1.00  0.00    -0.545 OA
ENDBRANCH   1   7
BRANCH   5  10
ATOM     10  O   UNL     1    -104.197   8.520  -7.705  1.00  0.00    -0.493 OA
ATOM     11  C   UNL     1    -104.069   7.712  -6.540  1.00  0.00     0.278 C 
ENDBRANCH   5  10
BRANCH   6  12
ATOM     12  O   UNL     1    -104.974   7.053  -9.966  1.00  0.00    -0.504 OA
ATOM     13  H   UNL     1    -105.465   6.856 -10.830  1.00  0.00     0.293 HD
ENDBRANCH   6  12
TORSDOF 3
ENDMDL
MODEL 4
REMARK VINA RESULT:    -0.086      1.515      2.681
REMARK INTER + INTRA:          -0.201
REMARK INTER:                  -0.101
REMARK INTRA:                  -0.100
REMARK UNBOUND:                -0.103
REMARK SMILES COc1cc(C(=O)[O-])ccc1O
REMARK SMILES IDX 5 1 9 2 4 3 10 4 3 5 11 6 6 7 7 8 8 9 2 10 1 11 12 12
REMARK H PARENT 12 13
REMARK Flexibility Score: inf
ROOT
ATOM      1  C   UNL     1     -99.339   8.564  -9.277  1.00  0.00     0.001 A 
ATOM      2  C   UNL     1     -99.249   7.628 -10.318  1.00  0.00     0.014 A 
ATOM      3  C   UNL     1    -100.610   8.981  -8.841  1.00  0.00     0.060 A 
ATOM      4  C   UNL     1    -100.404   7.116 -10.912  1.00  0.00     0.051 A 
ATOM      5  C   UNL     1    -101.781   8.468  -9.437  1.00  0.00     0.161 A 
ATOM      6  C   UNL     1    -101.666   7.530 -10.479  1.00  0.00     0.157 A 
ENDROOT
BRANCH   1   7
ATOM      7  C   UNL     1     -98.112   9.104  -8.651  1.00  0.00     0.072 C 
ATOM      8  O   UNL     1     -98.097   9.417  -7.430  1.00  0.00    -0.545 OA
ATOM      9  O   UNL     1     -96.953   9.272  -9.402  1.00  0.00    -0.545 OA
ENDBRANCH   1   7
BRANCH   5  10
ATOM     10  O   UNL     1    -103.062   8.865  -9.023  1.00  0.00    -0.493 OA
ATOM     11  C   UNL     1    -103.657  10.122  -9.327  1.00  0.00     0.278 C 
ENDBRANCH   5  10
BRANCH   6  12
ATOM     12  O   UNL     1    -102.797   6.997 -11.097  1.00  0.00    -0.504 OA
ATOM     13  H   UNL     1    -102.880   6.930 -12.106  1.00  0.00     0.293 HD
ENDBRANCH   6  12
TORSDOF 3
ENDMDL
MODEL 5
REMARK VINA RESULT:    -0.083      2.730      4.304
REMARK INTER + INTRA:          -0.198
REMARK INTER:                  -0.094
REMARK INTRA:                  -0.104
REMARK UNBOUND:                -0.103
REMARK SMILES COc1cc(C(=O)[O-])ccc1O
REMARK SMILES IDX 5 1 9 2 4 3 10 4 3 5 11 6 6 7 7 8 8 9 2 10 1 11 12 12
REMARK H PARENT 12 13
REMARK Flexibility Score: inf
ROOT
ATOM      1  C   UNL     1     -99.520   6.972  -7.867  1.00  0.00     0.001 A 
ATOM      2  C   UNL     1     -98.246   7.335  -7.404  1.00  0.00     0.014 A 
ATOM      3  C   UNL     1     -99.990   7.520  -9.075  1.00  0.00     0.060 A 
ATOM      4  C   UNL     1     -97.456   8.227  -8.132  1.00  0.00     0.051 A 
ATOM      5  C   UNL     1     -99.197   8.422  -9.814  1.00  0.00     0.161 A 
ATOM      6  C   UNL     1     -97.923   8.771  -9.331  1.00  0.00     0.157 A 
ENDROOT
BRANCH   1   7
ATOM      7  C   UNL     1    -100.353   6.025  -7.093  1.00  0.00     0.072 C 
ATOM      8  O   UNL     1     -99.927   5.526  -6.017  1.00  0.00    -0.545 OA
ATOM      9  O   UNL     1    -101.621   5.673  -7.542  1.00  0.00    -0.545 OA
ENDBRANCH   1   7
BRANCH   5  10
ATOM     10  O   UNL     1     -99.640   8.984 -11.022  1.00  0.00    -0.493 OA
ATOM     11  C   UNL     1    -100.492  10.120 -11.120  1.00  0.00     0.278 C 
ENDBRANCH   5  10
BRANCH   6  12
ATOM     12  O   UNL     1     -97.105   9.660 -10.029  1.00  0.00    -0.504 OA
ATOM     13  H   UNL     1     -96.115   9.489 -10.165  1.00  0.00     0.293 HD
ENDBRANCH   6  12
TORSDOF 3
ENDMDL
MODEL 6
REMARK VINA RESULT:    -0.083      2.259      3.468
REMARK INTER + INTRA:          -0.197
REMARK INTER:                  -0.095
REMARK INTRA:                  -0.102
REMARK UNBOUND:                -0.103
REMARK SMILES COc1cc(C(=O)[O-])ccc1O
REMARK SMILES IDX 5 1 9 2 4 3 10 4 3 5 11 6 6 7 7 8 8 9 2 10 1 11 12 12
REMARK H PARENT 12 13
REMARK Flexibility Score: inf
ROOT
ATOM      1  C   UNL     1    -100.010   8.027  -7.213  1.00  0.00     0.001 A 
ATOM      2  C   UNL     1     -98.760   8.162  -7.837  1.00  0.00     0.014 A 
ATOM      3  C   UNL     1    -101.141   8.604  -7.817  1.00  0.00     0.060 A 
ATOM      4  C   UNL     1     -98.642   8.859  -9.040  1.00  0.00     0.051 A 
ATOM      5  C   UNL     1    -101.028   9.309  -9.033  1.00  0.00     0.161 A 
ATOM      6  C   UNL     1     -99.765   9.432  -9.641  1.00  0.00     0.157 A 
ENDROOT
BRANCH   1   7
ATOM      7  C   UNL     1    -100.130   7.287  -5.937  1.00  0.00     0.072 C 
ATOM      8  O   UNL     1    -101.258   7.095  -5.410  1.00  0.00    -0.545 OA
ATOM      9  O   UNL     1     -98.997   6.792  -5.300  1.00  0.00    -0.545 OA
ENDBRANCH   1   7
BRANCH   5  10
ATOM     10  O   UNL     1    -102.140   9.896  -9.660  1.00  0.00    -0.493 OA
ATOM     11  C   UNL     1    -103.039   9.207 -10.522  1.00  0.00     0.278 C 
ENDBRANCH   5  10
BRANCH   6  12
ATOM     12  O   UNL     1     -99.607  10.122 -10.843  1.00  0.00    -0.504 OA
ATOM     13  H   UNL     1     -98.754  10.068 -11.388  1.00  0.00     0.293 HD
ENDBRANCH   6  12
TORSDOF 3
ENDMDL
MODEL 7
REMARK VINA RESULT:    -0.083      1.778      4.715
REMARK INTER + INTRA:          -0.197
REMARK INTER:                  -0.094
REMARK INTRA:                  -0.104
REMARK UNBOUND:                -0.103
REMARK SMILES COc1cc(C(=O)[O-])ccc1O
REMARK SMILES IDX 5 1 9 2 4 3 10 4 3 5 11 6 6 7 7 8 8 9 2 10 1 11 12 12
REMARK H PARENT 12 13
REMARK Flexibility Score: inf
ROOT
ATOM      1  C   UNL     1    -102.071   7.960  -9.745  1.00  0.00     0.001 A 
ATOM      2  C   UNL     1    -101.274   7.652 -10.859  1.00  0.00     0.014 A 
ATOM      3  C   UNL     1    -101.542   8.781  -8.733  1.00  0.00     0.060 A 
ATOM      4  C   UNL     1     -99.976   8.155 -10.961  1.00  0.00     0.051 A 
ATOM      5  C   UNL     1    -100.231   9.291  -8.830  1.00  0.00     0.161 A 
ATOM      6  C   UNL     1     -99.451   8.970  -9.955  1.00  0.00     0.157 A 
ENDROOT
BRANCH   1   7
ATOM      7  C   UNL     1    -103.447   7.425  -9.642  1.00  0.00     0.072 C 
ATOM      8  O   UNL     1    -103.908   6.664 -10.534  1.00  0.00    -0.545 OA
ATOM      9  O   UNL     1    -104.251   7.755  -8.557  1.00  0.00    -0.545 OA
ENDBRANCH   1   7
BRANCH   5  10
ATOM     10  O   UNL     1     -99.676  10.113  -7.835  1.00  0.00    -0.493 OA
ATOM     11  C   UNL     1     -99.128   9.641  -6.609  1.00  0.00     0.278 C 
ENDBRANCH   5  10
BRANCH   6  12
ATOM     12  O   UNL     1     -98.149   9.452 -10.092  1.00  0.00    -0.504 OA
ATOM     13  H   UNL     1     -97.493   9.054 -10.755  1.00  0.00     0.293 HD
ENDBRANCH   6  12
TORSDOF 3
ENDMDL
MODEL 8
REMARK VINA RESULT:    -0.081      2.670      3.725
REMARK INTER + INTRA:          -0.195
REMARK INTER:                  -0.092
REMARK INTRA:                  -0.103
REMARK UNBOUND:                -0.103
REMARK SMILES COc1cc(C(=O)[O-])ccc1O
REMARK SMILES IDX 5 1 9 2 4 3 10 4 3 5 11 6 6 7 7 8 8 9 2 10 1 11 12 12
REMARK H PARENT 12 13
REMARK Flexibility Score: inf
ROOT
ATOM      1  C   UNL     1    -101.310   6.803  -8.670  1.00  0.00     0.001 A 
ATOM      2  C   UNL     1    -100.000   6.846  -9.173  1.00  0.00     0.014 A 
ATOM      3  C   UNL     1    -102.196   7.851  -8.981  1.00  0.00     0.060 A 
ATOM      4  C   UNL     1     -99.584   7.912  -9.972  1.00  0.00     0.051 A 
ATOM      5  C   UNL     1    -101.781   8.931  -9.788  1.00  0.00     0.161 A 
ATOM      6  C   UNL     1    -100.464   8.953 -10.281  1.00  0.00     0.157 A 
ENDROOT
BRANCH   1   7
ATOM      7  C   UNL     1    -101.747   5.671  -7.824  1.00  0.00     0.072 C 
ATOM      8  O   UNL     1    -102.940   5.588  -7.428  1.00  0.00    -0.545 OA
ATOM      9  O   UNL     1    -100.845   4.679  -7.454  1.00  0.00    -0.545 OA
ENDBRANCH   1   7
BRANCH   5  10
ATOM     10  O   UNL     1    -102.643   9.990 -10.115  1.00  0.00    -0.493 OA
ATOM     11  C   UNL     1    -103.670   9.923 -11.098  1.00  0.00     0.278 C 
ENDBRANCH   5  10
BRANCH   6  12
ATOM     12  O   UNL     1    -100.010  10.001 -11.081  1.00  0.00    -0.504 OA
ATOM     13  H   UNL     1     -99.033  10.109 -11.327  1.00  0.00     0.293 HD
ENDBRANCH   6  12
TORSDOF 3
ENDMDL
MODEL 9
REMARK VINA RESULT:    -0.080      1.802      3.645
REMARK INTER + INTRA:          -0.195
REMARK INTER:                  -0.091
REMARK INTRA:                  -0.104
REMARK UNBOUND:                -0.103
REMARK SMILES COc1cc(C(=O)[O-])ccc1O
REMARK SMILES IDX 5 1 9 2 4 3 10 4 3 5 11 6 6 7 7 8 8 9 2 10 1 11 12 12
REMARK H PARENT 12 13
REMARK Flexibility Score: inf
ROOT
ATOM      1  C   UNL     1    -100.885   9.523  -7.349  1.00  0.00     0.001 A 
ATOM      2  C   UNL     1    -102.280   9.507  -7.509  1.00  0.00     0.014 A 
ATOM      3  C   UNL     1    -100.066   9.225  -8.453  1.00  0.00     0.060 A 
ATOM      4  C   UNL     1    -102.845   9.199  -8.748  1.00  0.00     0.051 A 
ATOM      5  C   UNL     1    -100.632   8.913  -9.706  1.00  0.00     0.161 A 
ATOM      6  C   UNL     1    -102.031   8.902  -9.844  1.00  0.00     0.157 A 
ENDROOT
BRANCH   1   7
ATOM      7  C   UNL     1    -100.291   9.851  -6.034  1.00  0.00     0.072 C 
ATOM      8  O   UNL     1    -101.024  10.049  -5.028  1.00  0.00    -0.545 OA
ATOM      9  O   UNL     1     -98.911   9.944  -5.888  1.00  0.00    -0.545 OA
ENDBRANCH   1   7
BRANCH   5  10
ATOM     10  O   UNL     1     -99.839   8.611 -10.826  1.00  0.00    -0.493 OA
ATOM     11  C   UNL     1     -99.265   7.335 -11.089  1.00  0.00     0.278 C 
ENDBRANCH   5  10
BRANCH   6  12
ATOM     12  O   UNL     1    -102.634   8.599 -11.065  1.00  0.00    -0.504 OA
ATOM     13  H   UNL     1    -102.913   7.655 -11.310  1.00  0.00     0.293 HD
ENDBRANCH   6  12
TORSDOF 3
ENDMDL
