MODEL 1
REMARK VINA RESULT:    -4.880      0.000      0.000
REMARK INTER + INTRA:          -8.919
REMARK INTER:                  -7.447
REMARK INTRA:                  -1.472
REMARK UNBOUND:                -1.472
REMARK SMILES CCCCCCCCCC=CC(=O)[O-]
REMARK SMILES IDX 7 1 8 2 9 3 10 4 11 5 12 6 13 7 14 8 6 9 5 10 4 11 3 12 2 13
REMARK SMILES IDX 1 14
REMARK H PARENT
REMARK Flexibility Score: inf
ROOT
ATOM      1  C   UNL     1     -44.618  13.254  -0.077  1.00  0.00     0.000 C 
ENDROOT
BRANCH   1   2
ATOM      2  C   UNL     1     -44.199  11.783   0.112  1.00  0.00     0.004 C 
BRANCH   2   3
ATOM      3  C   UNL     1     -43.303  11.535   1.335  1.00  0.00     0.027 C 
BRANCH   3   4
ATOM      4  C   UNL     1     -42.298  12.638   1.518  1.00  0.00    -0.025 C 
ATOM      5  C   UNL     1     -41.038  12.387   1.883  1.00  0.00     0.020 C 
BRANCH   5   6
ATOM      6  C   UNL     1     -40.056  13.463   2.088  1.00  0.00     0.064 C 
ATOM      7  O   UNL     1     -40.223  14.287   3.024  1.00  0.00    -0.545 OA
ATOM      8  O   UNL     1     -38.945  13.585   1.261  1.00  0.00    -0.545 OA
ENDBRANCH   5   6
ENDBRANCH   3   4
ENDBRANCH   2   3
ENDBRANCH   1   2
BRANCH   1   9
ATOM      9  C   UNL     1     -44.624  13.753  -1.536  1.00  0.00     0.000 C 
BRANCH   9  10
ATOM     10  C   UNL     1     -43.684  14.936  -1.832  1.00  0.00     0.000 C 
BRANCH  10  11
ATOM     11  C   UNL     1     -42.401  14.511  -2.568  1.00  0.00    -0.000 C 
BRANCH  11  12
ATOM     12  C   UNL     1     -41.271  14.096  -1.610  1.00  0.00    -0.000 C 
BRANCH  12  13
ATOM     13  C   UNL     1     -40.411  12.912  -2.089  1.00  0.00    -0.003 C 
ATOM     14  C   UNL     1     -41.034  11.552  -1.774  1.00  0.00     0.004 C 
ENDBRANCH  12  13
ENDBRANCH  11  12
ENDBRANCH  10  11
ENDBRANCH   9  10
ENDBRANCH   1   9
TORSDOF 9
ENDMDL
MODEL 2
REMARK VINA RESULT:    -4.781      1.923      3.720
REMARK INTER + INTRA:          -8.769
REMARK INTER:                  -7.740
REMARK INTRA:                  -1.028
REMARK UNBOUND:                -1.472
REMARK SMILES CCCCCCCCCC=CC(=O)[O-]
REMARK SMILES IDX 7 1 8 2 9 3 10 4 11 5 12 6 13 7 14 8 6 9 5 10 4 11 3 12 2 13
REMARK SMILES IDX 1 14
REMARK H PARENT
REMARK Flexibility Score: inf
ROOT
ATOM      1  C   UNL     1     -42.185  12.707   1.730  1.00  0.00     0.000 C 
ENDROOT
BRANCH   1   2
ATOM      2  C   UNL     1     -40.657  12.609   1.550  1.00  0.00     0.004 C 
BRANCH   2   3
ATOM      3  C   UNL     1     -39.873  13.773   2.174  1.00  0.00     0.027 C 
BRANCH   3   4
ATOM      4  C   UNL     1     -39.280  14.668   1.123  1.00  0.00    -0.025 C 
ATOM      5  C   UNL     1     -38.450  14.200   0.187  1.00  0.00     0.020 C 
BRANCH   5   6
ATOM      6  C   UNL     1     -37.847  15.074  -0.830  1.00  0.00     0.064 C 
ATOM      7  O   UNL     1     -36.615  15.326  -0.780  1.00  0.00    -0.545 OA
ATOM      8  O   UNL     1     -38.617  15.629  -1.846  1.00  0.00    -0.545 OA
ENDBRANCH   5   6
ENDBRANCH   3   4
ENDBRANCH   2   3
ENDBRANCH   1   2
BRANCH   1   9
ATOM      9  C   UNL     1     -42.987  11.502   1.198  1.00  0.00     0.000 C 
BRANCH   9  10
ATOM     10  C   UNL     1     -44.369  11.837   0.609  1.00  0.00     0.000 C 
BRANCH  10  11
ATOM     11  C   UNL     1     -44.429  13.244  -0.012  1.00  0.00    -0.000 C 
BRANCH  11  12
ATOM     12  C   UNL     1     -44.162  13.241  -1.528  1.00  0.00    -0.000 C 
BRANCH  12  13
ATOM     13  C   UNL     1     -43.097  14.246  -2.004  1.00  0.00    -0.003 C 
ATOM     14  C   UNL     1     -41.669  13.722  -1.860  1.00  0.00     0.004 C 
ENDBRANCH  12  13
ENDBRANCH  11  12
ENDBRANCH  10  11
ENDBRANCH   9  10
ENDBRANCH   1   9
TORSDOF 9
ENDMDL
MODEL 3
REMARK VINA RESULT:    -4.770      2.734      5.213
REMARK INTER + INTRA:          -8.752
REMARK INTER:                  -7.334
REMARK INTRA:                  -1.419
REMARK UNBOUND:                -1.472
REMARK SMILES CCCCCCCCCC=CC(=O)[O-]
REMARK SMILES IDX 7 1 8 2 9 3 10 4 11 5 12 6 13 7 14 8 6 9 5 10 4 11 3 12 2 13
REMARK SMILES IDX 1 14
REMARK H PARENT
REMARK Flexibility Score: inf
ROOT
ATOM      1  C   UNL     1     -39.856  14.850  -0.149  1.00  0.00     0.000 C 
ENDROOT
BRANCH   1   2
ATOM      2  C   UNL     1     -39.685  13.727  -1.191  1.00  0.00     0.004 C 
BRANCH   2   3
ATOM      3  C   UNL     1     -40.972  13.370  -1.949  1.00  0.00     0.027 C 
BRANCH   3   4
ATOM      4  C   UNL     1     -42.128  14.224  -1.510  1.00  0.00    -0.025 C 
ATOM      5  C   UNL     1     -43.368  14.018  -1.964  1.00  0.00     0.020 C 
BRANCH   5   6
ATOM      6  C   UNL     1     -44.499  14.865  -1.557  1.00  0.00     0.064 C 
ATOM      7  O   UNL     1     -45.225  14.511  -0.593  1.00  0.00    -0.545 OA
ATOM      8  O   UNL     1     -44.779  16.053  -2.223  1.00  0.00    -0.545 OA
ENDBRANCH   5   6
ENDBRANCH   3   4
ENDBRANCH   2   3
ENDBRANCH   1   2
BRANCH   1   9
ATOM      9  C   UNL     1     -39.219  14.570   1.228  1.00  0.00     0.000 C 
BRANCH   9  10
ATOM     10  C   UNL     1     -39.538  13.191   1.834  1.00  0.00     0.000 C 
BRANCH  10  11
ATOM     11  C   UNL     1     -40.989  13.078   2.333  1.00  0.00    -0.000 C 
BRANCH  11  12
ATOM     12  C   UNL     1     -41.815  12.047   1.544  1.00  0.00    -0.000 C 
BRANCH  12  13
ATOM     13  C   UNL     1     -43.322  12.352   1.451  1.00  0.00    -0.003 C 
ATOM     14  C   UNL     1     -44.078  11.374   0.552  1.00  0.00     0.004 C 
ENDBRANCH  12  13
ENDBRANCH  11  12
ENDBRANCH  10  11
ENDBRANCH   9  10
ENDBRANCH   1   9
TORSDOF 9
ENDMDL
MODEL 4
REMARK VINA RESULT:    -4.708      1.371      3.834
REMARK INTER + INTRA:          -8.657
REMARK INTER:                  -7.533
REMARK INTRA:                  -1.124
REMARK UNBOUND:                -1.472
REMARK SMILES CCCCCCCCCC=CC(=O)[O-]
REMARK SMILES IDX 7 1 8 2 9 3 10 4 11 5 12 6 13 7 14 8 6 9 5 10 4 11 3 12 2 13
REMARK SMILES IDX 1 14
REMARK H PARENT
REMARK Flexibility Score: inf
ROOT
ATOM      1  C   UNL     1     -44.898  13.729  -0.420  1.00  0.00     0.000 C 
ENDROOT
BRANCH   1   2
ATOM      2  C   UNL     1     -43.955  13.458  -1.609  1.00  0.00     0.004 C 
BRANCH   2   3
ATOM      3  C   UNL     1     -42.895  14.547  -1.833  1.00  0.00     0.027 C 
BRANCH   3   4
ATOM      4  C   UNL     1     -41.527  14.082  -1.420  1.00  0.00    -0.025 C 
ATOM      5  C   UNL     1     -40.524  14.940  -1.213  1.00  0.00     0.020 C 
BRANCH   5   6
ATOM      6  C   UNL     1     -39.177  14.490  -0.833  1.00  0.00     0.064 C 
ATOM      7  O   UNL     1     -38.444  13.931  -1.690  1.00  0.00    -0.545 OA
ATOM      8  O   UNL     1     -38.700  14.673   0.460  1.00  0.00    -0.545 OA
ENDBRANCH   5   6
ENDBRANCH   3   4
ENDBRANCH   2   3
ENDBRANCH   1   2
BRANCH   1   9
ATOM      9  C   UNL     1     -44.797  12.720   0.741  1.00  0.00     0.000 C 
BRANCH   9  10
ATOM     10  C   UNL     1     -43.989  11.445   0.439  1.00  0.00     0.000 C 
BRANCH  10  11
ATOM     11  C   UNL     1     -42.565  11.487   1.019  1.00  0.00    -0.000 C 
BRANCH  11  12
ATOM     12  C   UNL     1     -42.326  12.704   1.930  1.00  0.00    -0.000 C 
BRANCH  12  13
ATOM     13  C   UNL     1     -40.895  12.833   2.483  1.00  0.00    -0.003 C 
ATOM     14  C   UNL     1     -40.677  14.110   3.294  1.00  0.00     0.004 C 
ENDBRANCH  12  13
ENDBRANCH  11  12
ENDBRANCH  10  11
ENDBRANCH   9  10
ENDBRANCH   1   9
TORSDOF 9
ENDMDL
MODEL 5
REMARK VINA RESULT:    -4.693     11.088     12.372
REMARK INTER + INTRA:          -8.634
REMARK INTER:                  -7.488
REMARK INTRA:                  -1.146
REMARK UNBOUND:                -1.472
REMARK SMILES CCCCCCCCCC=CC(=O)[O-]
REMARK SMILES IDX 7 1 8 2 9 3 10 4 11 5 12 6 13 7 14 8 6 9 5 10 4 11 3 12 2 13
REMARK SMILES IDX 1 14
REMARK H PARENT
REMARK Flexibility Score: inf
ROOT
ATOM      1  C   UNL     1     -43.463  25.000   1.162  1.00  0.00     0.000 C 
ENDROOT
BRANCH   1   2
ATOM      2  C   UNL     1     -42.354  25.954   1.648  1.00  0.00     0.004 C 
BRANCH   2   3
ATOM      3  C   UNL     1     -41.303  25.288   2.550  1.00  0.00     0.027 C 
BRANCH   3   4
ATOM      4  C   UNL     1     -39.928  25.364   1.948  1.00  0.00    -0.025 C 
ATOM      5  C   UNL     1     -39.556  26.386   1.172  1.00  0.00     0.020 C 
BRANCH   5   6
ATOM      6  C   UNL     1     -38.221  26.454   0.560  1.00  0.00     0.064 C 
ATOM      7  O   UNL     1     -37.271  25.802   1.066  1.00  0.00    -0.545 OA
ATOM      8  O   UNL     1     -37.991  27.230  -0.571  1.00  0.00    -0.545 OA
ENDBRANCH   5   6
ENDBRANCH   3   4
ENDBRANCH   2   3
ENDBRANCH   1   2
BRANCH   1   9
ATOM      9  C   UNL     1     -43.023  23.539   0.942  1.00  0.00     0.000 C 
BRANCH   9  10
ATOM     10  C   UNL     1     -42.693  23.161  -0.513  1.00  0.00     0.000 C 
BRANCH  10  11
ATOM     11  C   UNL     1     -41.307  23.658  -0.961  1.00  0.00    -0.000 C 
BRANCH  11  12
ATOM     12  C   UNL     1     -41.315  24.258  -2.378  1.00  0.00    -0.000 C 
BRANCH  12  13
ATOM     13  C   UNL     1     -42.246  25.469  -2.567  1.00  0.00    -0.003 C 
ATOM     14  C   UNL     1     -43.263  25.275  -3.692  1.00  0.00     0.004 C 
ENDBRANCH  12  13
ENDBRANCH  11  12
ENDBRANCH  10  11
ENDBRANCH   9  10
ENDBRANCH   1   9
TORSDOF 9
ENDMDL
MODEL 6
REMARK VINA RESULT:    -4.691      1.240      3.372
REMARK INTER + INTRA:          -8.632
REMARK INTER:                  -7.333
REMARK INTRA:                  -1.299
REMARK UNBOUND:                -1.472
REMARK SMILES CCCCCCCCCC=CC(=O)[O-]
REMARK SMILES IDX 7 1 8 2 9 3 10 4 11 5 12 6 13 7 14 8 6 9 5 10 4 11 3 12 2 13
REMARK SMILES IDX 1 14
REMARK H PARENT
REMARK Flexibility Score: inf
ROOT
ATOM      1  C   UNL     1     -43.528  14.851  -1.661  1.00  0.00     0.000 C 
ENDROOT
BRANCH   1   2
ATOM      2  C   UNL     1     -42.459  14.783  -2.769  1.00  0.00     0.004 C 
BRANCH   2   3
ATOM      3  C   UNL     1     -41.266  13.874  -2.439  1.00  0.00     0.027 C 
BRANCH   3   4
ATOM      4  C   UNL     1     -40.664  14.213  -1.105  1.00  0.00    -0.025 C 
ATOM      5  C   UNL     1     -39.630  13.530  -0.605  1.00  0.00     0.020 C 
BRANCH   5   6
ATOM      6  C   UNL     1     -39.052  13.840   0.711  1.00  0.00     0.064 C 
ATOM      7  O   UNL     1     -39.184  14.996   1.190  1.00  0.00    -0.545 OA
ATOM      8  O   UNL     1     -38.361  12.876   1.435  1.00  0.00    -0.545 OA
ENDBRANCH   5   6
ENDBRANCH   3   4
ENDBRANCH   2   3
ENDBRANCH   1   2
BRANCH   1   9
ATOM      9  C   UNL     1     -44.311  13.543  -1.424  1.00  0.00     0.000 C 
BRANCH   9  10
ATOM     10  C   UNL     1     -45.218  13.534  -0.180  1.00  0.00     0.000 C 
BRANCH  10  11
ATOM     11  C   UNL     1     -44.758  12.526   0.888  1.00  0.00    -0.000 C 
BRANCH  11  12
ATOM     12  C   UNL     1     -43.653  11.581   0.382  1.00  0.00    -0.000 C 
BRANCH  12  13
ATOM     13  C   UNL     1     -42.316  11.678   1.139  1.00  0.00    -0.003 C 
ATOM     14  C   UNL     1     -42.250  12.872   2.090  1.00  0.00     0.004 C 
ENDBRANCH  12  13
ENDBRANCH  11  12
ENDBRANCH  10  11
ENDBRANCH   9  10
ENDBRANCH   1   9
TORSDOF 9
ENDMDL
MODEL 7
REMARK VINA RESULT:    -4.661      2.624      4.585
REMARK INTER + INTRA:          -8.586
REMARK INTER:                  -7.564
REMARK INTRA:                  -1.022
REMARK UNBOUND:                -1.472
REMARK SMILES CCCCCCCCCC=CC(=O)[O-]
REMARK SMILES IDX 7 1 8 2 9 3 10 4 11 5 12 6 13 7 14 8 6 9 5 10 4 11 3 12 2 13
REMARK SMILES IDX 1 14
REMARK H PARENT
REMARK Flexibility Score: inf
ROOT
ATOM      1  C   UNL     1     -43.965  13.018  -1.491  1.00  0.00     0.000 C 
ENDROOT
BRANCH   1   2
ATOM      2  C   UNL     1     -43.131  14.176  -2.073  1.00  0.00     0.004 C 
BRANCH   2   3
ATOM      3  C   UNL     1     -41.800  14.421  -1.348  1.00  0.00     0.027 C 
BRANCH   3   4
ATOM      4  C   UNL     1     -40.639  13.847  -2.112  1.00  0.00    -0.025 C 
ATOM      5  C   UNL     1     -40.109  14.478  -3.164  1.00  0.00     0.020 C 
BRANCH   5   6
ATOM      6  C   UNL     1     -38.991  13.911  -3.931  1.00  0.00     0.064 C 
ATOM      7  O   UNL     1     -38.155  14.680  -4.473  1.00  0.00    -0.545 OA
ATOM      8  O   UNL     1     -38.841  12.535  -4.068  1.00  0.00    -0.545 OA
ENDBRANCH   5   6
ENDBRANCH   3   4
ENDBRANCH   2   3
ENDBRANCH   1   2
BRANCH   1   9
ATOM      9  C   UNL     1     -44.818  13.379  -0.258  1.00  0.00     0.000 C 
BRANCH   9  10
ATOM     10  C   UNL     1     -44.679  12.426   0.943  1.00  0.00     0.000 C 
BRANCH  10  11
ATOM     11  C   UNL     1     -43.287  11.776   1.032  1.00  0.00    -0.000 C 
BRANCH  11  12
ATOM     12  C   UNL     1     -42.297  12.595   1.880  1.00  0.00    -0.000 C 
BRANCH  12  13
ATOM     13  C   UNL     1     -40.810  12.342   1.570  1.00  0.00    -0.003 C 
ATOM     14  C   UNL     1     -39.906  13.505   1.979  1.00  0.00     0.004 C 
ENDBRANCH  12  13
ENDBRANCH  11  12
ENDBRANCH  10  11
ENDBRANCH   9  10
ENDBRANCH   1   9
TORSDOF 9
ENDMDL
MODEL 8
REMARK VINA RESULT:    -4.641      2.813      4.847
REMARK INTER + INTRA:          -8.555
REMARK INTER:                  -7.493
REMARK INTRA:                  -1.061
REMARK UNBOUND:                -1.472
REMARK SMILES CCCCCCCCCC=CC(=O)[O-]
REMARK SMILES IDX 7 1 8 2 9 3 10 4 11 5 12 6 13 7 14 8 6 9 5 10 4 11 3 12 2 13
REMARK SMILES IDX 1 14
REMARK H PARENT
REMARK Flexibility Score: inf
ROOT
ATOM      1  C   UNL     1     -42.728  14.482  -1.754  1.00  0.00     0.000 C 
ENDROOT
BRANCH   1   2
ATOM      2  C   UNL     1     -41.244  14.231  -1.419  1.00  0.00     0.004 C 
BRANCH   2   3
ATOM      3  C   UNL     1     -40.788  12.780  -1.633  1.00  0.00     0.027 C 
BRANCH   3   4
ATOM      4  C   UNL     1     -39.895  12.652  -2.835  1.00  0.00    -0.025 C 
ATOM      5  C   UNL     1     -38.970  13.572  -3.125  1.00  0.00     0.020 C 
BRANCH   5   6
ATOM      6  C   UNL     1     -38.110  13.466  -4.313  1.00  0.00     0.064 C 
ATOM      7  O   UNL     1     -38.443  14.052  -5.376  1.00  0.00    -0.545 OA
ATOM      8  O   UNL     1     -36.933  12.726  -4.281  1.00  0.00    -0.545 OA
ENDBRANCH   5   6
ENDBRANCH   3   4
ENDBRANCH   2   3
ENDBRANCH   1   2
BRANCH   1   9
ATOM      9  C   UNL     1     -43.674  13.298  -1.472  1.00  0.00     0.000 C 
BRANCH   9  10
ATOM     10  C   UNL     1     -44.713  13.534  -0.360  1.00  0.00     0.000 C 
BRANCH  10  11
ATOM     11  C   UNL     1     -44.710  12.425   0.707  1.00  0.00    -0.000 C 
BRANCH  11  12
ATOM     12  C   UNL     1     -43.297  11.898   1.018  1.00  0.00    -0.000 C 
BRANCH  12  13
ATOM     13  C   UNL     1     -42.453  12.800   1.938  1.00  0.00    -0.003 C 
ATOM     14  C   UNL     1     -40.977  12.407   1.974  1.00  0.00     0.004 C 
ENDBRANCH  12  13
ENDBRANCH  11  12
ENDBRANCH  10  11
ENDBRANCH   9  10
ENDBRANCH   1   9
TORSDOF 9
ENDMDL
MODEL 9
REMARK VINA RESULT:    -4.546      2.753      4.265
REMARK INTER + INTRA:          -8.410
REMARK INTER:                  -6.902
REMARK INTRA:                  -1.508
REMARK UNBOUND:                -1.472
REMARK SMILES CCCCCCCCCC=CC(=O)[O-]
REMARK SMILES IDX 7 1 8 2 9 3 10 4 11 5 12 6 13 7 14 8 6 9 5 10 4 11 3 12 2 13
REMARK SMILES IDX 1 14
REMARK H PARENT
REMARK Flexibility Score: inf
ROOT
ATOM      1  C   UNL     1     -44.000  11.533  -0.246  1.00  0.00     0.000 C 
ENDROOT
BRANCH   1   2
ATOM      2  C   UNL     1     -44.328  12.413  -1.469  1.00  0.00     0.004 C 
BRANCH   2   3
ATOM      3  C   UNL     1     -44.761  13.844  -1.117  1.00  0.00     0.027 C 
BRANCH   3   4
ATOM      4  C   UNL     1     -44.029  14.863  -1.944  1.00  0.00    -0.025 C 
ATOM      5  C   UNL     1     -43.013  14.523  -2.741  1.00  0.00     0.020 C 
BRANCH   5   6
ATOM      6  C   UNL     1     -42.277  15.519  -3.534  1.00  0.00     0.064 C 
ATOM      7  O   UNL     1     -42.620  16.729  -3.486  1.00  0.00    -0.545 OA
ATOM      8  O   UNL     1     -41.206  15.144  -4.338  1.00  0.00    -0.545 OA
ENDBRANCH   5   6
ENDBRANCH   3   4
ENDBRANCH   2   3
ENDBRANCH   1   2
BRANCH   1   9
ATOM      9  C   UNL     1     -44.060  12.254   1.116  1.00  0.00     0.000 C 
BRANCH   9  10
ATOM     10  C   UNL     1     -42.697  12.633   1.722  1.00  0.00     0.000 C 
BRANCH  10  11
ATOM     11  C   UNL     1     -41.510  12.207   0.840  1.00  0.00    -0.000 C 
BRANCH  11  12
ATOM     12  C   UNL     1     -40.796  13.400   0.180  1.00  0.00    -0.000 C 
BRANCH  12  13
ATOM     13  C   UNL     1     -40.095  13.084  -1.153  1.00  0.00    -0.003 C 
ATOM     14  C   UNL     1     -40.651  11.839  -1.843  1.00  0.00     0.004 C 
ENDBRANCH  12  13
ENDBRANCH  11  12
ENDBRANCH  10  11
ENDBRANCH   9  10
ENDBRANCH   1   9
TORSDOF 9
ENDMDL
