MODEL 1
REMARK VINA RESULT:    -3.700      0.000      0.000
REMARK INTER + INTRA:          -5.229
REMARK INTER:                  -4.889
REMARK INTRA:                  -0.339
REMARK UNBOUND:                -0.339
REMARK SMILES C=C[C@H](O)CCCCC
REMARK SMILES IDX 6 1 7 2 8 3 9 4 5 5 3 6 2 7 1 8 4 9
REMARK H PARENT 4 10
REMARK Flexibility Score: inf
ROOT
ATOM      1  C   UNL     1     -41.783  22.572   7.050  1.00  0.00     0.003 C 
ENDROOT
BRANCH   1   2
ATOM      2  C   UNL     1     -41.897  23.122   5.619  1.00  0.00    -0.000 C 
BRANCH   2   3
ATOM      3  C   UNL     1     -41.165  24.463   5.444  1.00  0.00    -0.003 C 
ATOM      4  C   UNL     1     -42.123  25.646   5.301  1.00  0.00     0.004 C 
ENDBRANCH   2   3
ENDBRANCH   1   2
BRANCH   1   5
ATOM      5  C   UNL     1     -41.031  23.517   8.009  1.00  0.00     0.036 C 
BRANCH   5   6
ATOM      6  C   UNL     1     -39.959  22.854   8.902  1.00  0.00     0.136 C 
BRANCH   6   7
ATOM      7  C   UNL     1     -38.560  23.308   8.555  1.00  0.00    -0.004 C 
ATOM      8  C   UNL     1     -38.291  23.942   7.410  1.00  0.00     0.007 C 
ENDBRANCH   6   7
BRANCH   6   9
ATOM      9  O   UNL     1     -40.055  21.457   8.804  1.00  0.00    -0.389 OA
ATOM     10  H   UNL     1     -39.309  21.158   8.221  1.00  0.00     0.211 HD
ENDBRANCH   6   9
ENDBRANCH   5   6
ENDBRANCH   1   5
TORSDOF 6
ENDMDL
MODEL 2
REMARK VINA RESULT:    -3.493      1.731      3.668
REMARK INTER + INTRA:          -4.956
REMARK INTER:                  -4.393
REMARK INTRA:                  -0.563
REMARK UNBOUND:                -0.339
REMARK SMILES C=C[C@H](O)CCCCC
REMARK SMILES IDX 6 1 7 2 8 3 9 4 5 5 3 6 2 7 1 8 4 9
REMARK H PARENT 4 10
REMARK Flexibility Score: inf
ROOT
ATOM      1  C   UNL     1     -41.438  23.047   8.676  1.00  0.00     0.003 C 
ENDROOT
BRANCH   1   2
ATOM      2  C   UNL     1     -40.104  22.288   8.594  1.00  0.00    -0.000 C 
BRANCH   2   3
ATOM      3  C   UNL     1     -38.904  23.163   8.992  1.00  0.00    -0.003 C 
ATOM      4  C   UNL     1     -38.279  23.890   7.802  1.00  0.00     0.004 C 
ENDBRANCH   2   3
ENDBRANCH   1   2
BRANCH   1   5
ATOM      5  C   UNL     1     -42.093  23.279   7.299  1.00  0.00     0.036 C 
BRANCH   5   6
ATOM      6  C   UNL     1     -41.938  24.701   6.714  1.00  0.00     0.136 C 
BRANCH   6   7
ATOM      7  C   UNL     1     -41.115  24.716   5.446  1.00  0.00    -0.004 C 
ATOM      8  C   UNL     1     -40.403  23.654   5.059  1.00  0.00     0.007 C 
ENDBRANCH   6   7
BRANCH   6   9
ATOM      9  O   UNL     1     -41.367  25.552   7.673  1.00  0.00    -0.389 OA
ATOM     10  H   UNL     1     -41.573  26.481   7.393  1.00  0.00     0.211 HD
ENDBRANCH   6   9
ENDBRANCH   5   6
ENDBRANCH   1   5
TORSDOF 6
ENDMDL
MODEL 3
REMARK VINA RESULT:    -2.980      1.408      2.124
REMARK INTER + INTRA:          -4.278
REMARK INTER:                  -3.897
REMARK INTRA:                  -0.381
REMARK UNBOUND:                -0.339
REMARK SMILES C=C[C@H](O)CCCCC
REMARK SMILES IDX 6 1 7 2 8 3 9 4 5 5 3 6 2 7 1 8 4 9
REMARK H PARENT 4 10
REMARK Flexibility Score: inf
ROOT
ATOM      1  C   UNL     1     -39.815  23.947   5.919  1.00  0.00     0.003 C 
ENDROOT
BRANCH   1   2
ATOM      2  C   UNL     1     -41.247  23.903   5.365  1.00  0.00    -0.000 C 
BRANCH   2   3
ATOM      3  C   UNL     1     -42.125  25.041   5.908  1.00  0.00    -0.003 C 
ATOM      4  C   UNL     1     -42.120  26.276   5.007  1.00  0.00     0.004 C 
ENDBRANCH   2   3
ENDBRANCH   1   2
BRANCH   1   5
ATOM      5  C   UNL     1     -39.758  24.129   7.450  1.00  0.00     0.036 C 
BRANCH   5   6
ATOM      6  C   UNL     1     -39.216  22.924   8.251  1.00  0.00     0.136 C 
BRANCH   6   7
ATOM      7  C   UNL     1     -40.274  22.289   9.124  1.00  0.00    -0.004 C 
ATOM      8  C   UNL     1     -41.462  21.923   8.633  1.00  0.00     0.007 C 
ENDBRANCH   6   7
BRANCH   6   9
ATOM      9  O   UNL     1     -38.120  23.325   9.031  1.00  0.00    -0.389 OA
ATOM     10  H   UNL     1     -37.559  22.519   9.174  1.00  0.00     0.211 HD
ENDBRANCH   6   9
ENDBRANCH   5   6
ENDBRANCH   1   5
TORSDOF 6
ENDMDL
MODEL 4
REMARK VINA RESULT:    -2.095      1.775      2.262
REMARK INTER + INTRA:          -3.108
REMARK INTER:                  -3.164
REMARK INTRA:                   0.055
REMARK UNBOUND:                -0.339
REMARK SMILES C=C[C@H](O)CCCCC
REMARK SMILES IDX 6 1 7 2 8 3 9 4 5 5 3 6 2 7 1 8 4 9
REMARK H PARENT 4 10
REMARK Flexibility Score: inf
ROOT
ATOM      1  C   UNL     1     -40.998  21.777   8.797  1.00  0.00     0.003 C 
ENDROOT
BRANCH   1   2
ATOM      2  C   UNL     1     -42.125  22.145   7.819  1.00  0.00    -0.000 C 
BRANCH   2   3
ATOM      3  C   UNL     1     -41.749  21.863   6.355  1.00  0.00    -0.003 C 
ATOM      4  C   UNL     1     -42.125  23.008   5.416  1.00  0.00     0.004 C 
ENDBRANCH   2   3
ENDBRANCH   1   2
BRANCH   1   5
ATOM      5  C   UNL     1     -40.021  22.939   9.069  1.00  0.00     0.036 C 
BRANCH   5   6
ATOM      6  C   UNL     1     -39.741  23.875   7.871  1.00  0.00     0.136 C 
BRANCH   6   7
ATOM      7  C   UNL     1     -38.284  24.264   7.772  1.00  0.00    -0.004 C 
ATOM      8  C   UNL     1     -37.583  24.080   6.649  1.00  0.00     0.007 C 
ENDBRANCH   6   7
BRANCH   6   9
ATOM      9  O   UNL     1     -40.545  25.022   7.965  1.00  0.00    -0.389 OA
ATOM     10  H   UNL     1     -41.458  24.757   7.681  1.00  0.00     0.211 HD
ENDBRANCH   6   9
ENDBRANCH   5   6
ENDBRANCH   1   5
TORSDOF 6
ENDMDL
MODEL 5
REMARK VINA RESULT:    -1.809      1.488      2.518
REMARK INTER + INTRA:          -2.731
REMARK INTER:                  -2.517
REMARK INTRA:                  -0.214
REMARK UNBOUND:                -0.339
REMARK SMILES C=C[C@H](O)CCCCC
REMARK SMILES IDX 6 1 7 2 8 3 9 4 5 5 3 6 2 7 1 8 4 9
REMARK H PARENT 4 10
REMARK Flexibility Score: inf
ROOT
ATOM      1  C   UNL     1     -40.328  23.922   5.992  1.00  0.00     0.003 C 
ENDROOT
BRANCH   1   2
ATOM      2  C   UNL     1     -41.566  23.012   5.987  1.00  0.00    -0.000 C 
BRANCH   2   3
ATOM      3  C   UNL     1     -42.125  22.771   7.399  1.00  0.00    -0.003 C 
ATOM      4  C   UNL     1     -41.653  21.450   8.006  1.00  0.00     0.004 C 
ENDBRANCH   2   3
ENDBRANCH   1   2
BRANCH   1   5
ATOM      5  C   UNL     1     -40.017  24.523   7.378  1.00  0.00     0.036 C 
BRANCH   5   6
ATOM      6  C   UNL     1     -38.658  24.122   7.995  1.00  0.00     0.136 C 
BRANCH   6   7
ATOM      7  C   UNL     1     -37.526  24.202   6.997  1.00  0.00    -0.004 C 
ATOM      8  C   UNL     1     -36.591  25.154   7.071  1.00  0.00     0.007 C 
ENDBRANCH   6   7
BRANCH   6   9
ATOM      9  O   UNL     1     -38.742  22.827   8.530  1.00  0.00    -0.389 OA
ATOM     10  H   UNL     1     -37.952  22.707   9.119  1.00  0.00     0.211 HD
ENDBRANCH   6   9
ENDBRANCH   5   6
ENDBRANCH   1   5
TORSDOF 6
ENDMDL
MODEL 6
REMARK VINA RESULT:    -1.629     19.771     20.868
REMARK INTER + INTRA:          -2.493
REMARK INTER:                  -2.135
REMARK INTRA:                  -0.357
REMARK UNBOUND:                -0.339
REMARK SMILES C=C[C@H](O)CCCCC
REMARK SMILES IDX 6 1 7 2 8 3 9 4 5 5 3 6 2 7 1 8 4 9
REMARK H PARENT 4 10
REMARK Flexibility Score: inf
ROOT
ATOM      1  C   UNL     1     -38.409  33.176  -9.763  1.00  0.00     0.003 C 
ENDROOT
BRANCH   1   2
ATOM      2  C   UNL     1     -37.800  33.548 -11.125  1.00  0.00    -0.000 C 
BRANCH   2   3
ATOM      3  C   UNL     1     -37.169  34.949 -11.125  1.00  0.00    -0.003 C 
ATOM      4  C   UNL     1     -38.142  36.038 -10.675  1.00  0.00     0.004 C 
ENDBRANCH   2   3
ENDBRANCH   1   2
BRANCH   1   5
ATOM      5  C   UNL     1     -39.889  32.752  -9.852  1.00  0.00     0.036 C 
BRANCH   5   6
ATOM      6  C   UNL     1     -40.868  33.832 -10.364  1.00  0.00     0.136 C 
BRANCH   6   7
ATOM      7  C   UNL     1     -41.400  34.703  -9.250  1.00  0.00    -0.004 C 
ATOM      8  C   UNL     1     -41.482  36.032  -9.375  1.00  0.00     0.007 C 
ENDBRANCH   6   7
BRANCH   6   9
ATOM      9  O   UNL     1     -41.929  33.225 -11.054  1.00  0.00    -0.389 OA
ATOM     10  H   UNL     1     -42.615  32.989 -10.376  1.00  0.00     0.211 HD
ENDBRANCH   6   9
ENDBRANCH   5   6
ENDBRANCH   1   5
TORSDOF 6
ENDMDL
MODEL 7
REMARK VINA RESULT:    -1.252      1.807      3.881
REMARK INTER + INTRA:          -1.994
REMARK INTER:                  -2.290
REMARK INTRA:                   0.296
REMARK UNBOUND:                -0.339
REMARK SMILES C=C[C@H](O)CCCCC
REMARK SMILES IDX 6 1 7 2 8 3 9 4 5 5 3 6 2 7 1 8 4 9
REMARK H PARENT 4 10
REMARK Flexibility Score: inf
ROOT
ATOM      1  C   UNL     1     -41.914  22.132   6.338  1.00  0.00     0.003 C 
ENDROOT
BRANCH   1   2
ATOM      2  C   UNL     1     -42.125  21.794   7.823  1.00  0.00    -0.000 C 
BRANCH   2   3
ATOM      3  C   UNL     1     -41.195  22.596   8.747  1.00  0.00    -0.003 C 
ATOM      4  C   UNL     1     -39.781  22.741   8.186  1.00  0.00     0.004 C 
ENDBRANCH   2   3
ENDBRANCH   1   2
BRANCH   1   5
ATOM      5  C   UNL     1     -42.119  23.627   6.018  1.00  0.00     0.036 C 
BRANCH   5   6
ATOM      6  C   UNL     1     -40.849  24.407   5.614  1.00  0.00     0.136 C 
BRANCH   6   7
ATOM      7  C   UNL     1     -41.159  25.599   4.737  1.00  0.00    -0.004 C 
ATOM      8  C   UNL     1     -42.120  26.472   5.054  1.00  0.00     0.007 C 
ENDBRANCH   6   7
BRANCH   6   9
ATOM      9  O   UNL     1     -39.949  23.548   4.963  1.00  0.00    -0.389 OA
ATOM     10  H   UNL     1     -40.453  23.102   4.234  1.00  0.00     0.211 HD
ENDBRANCH   6   9
ENDBRANCH   5   6
ENDBRANCH   1   5
TORSDOF 6
ENDMDL
MODEL 8
REMARK VINA RESULT:    -1.235      1.957      4.214
REMARK INTER + INTRA:          -1.971
REMARK INTER:                  -2.085
REMARK INTRA:                   0.114
REMARK UNBOUND:                -0.339
REMARK SMILES C=C[C@H](O)CCCCC
REMARK SMILES IDX 6 1 7 2 8 3 9 4 5 5 3 6 2 7 1 8 4 9
REMARK H PARENT 4 10
REMARK Flexibility Score: inf
ROOT
ATOM      1  C   UNL     1     -39.421  23.563   7.653  1.00  0.00     0.003 C 
ENDROOT
BRANCH   1   2
ATOM      2  C   UNL     1     -38.073  24.209   8.011  1.00  0.00    -0.000 C 
BRANCH   2   3
ATOM      3  C   UNL     1     -37.203  24.480   6.773  1.00  0.00    -0.003 C 
ATOM      4  C   UNL     1     -36.106  25.511   7.034  1.00  0.00     0.004 C 
ENDBRANCH   2   3
ENDBRANCH   1   2
BRANCH   1   5
ATOM      5  C   UNL     1     -40.373  24.515   6.900  1.00  0.00     0.036 C 
BRANCH   5   6
ATOM      6  C   UNL     1     -40.881  24.011   5.531  1.00  0.00     0.136 C 
BRANCH   6   7
ATOM      7  C   UNL     1     -42.015  23.021   5.666  1.00  0.00    -0.004 C 
ATOM      8  C   UNL     1     -42.125  22.220   6.730  1.00  0.00     0.007 C 
ENDBRANCH   6   7
BRANCH   6   9
ATOM      9  O   UNL     1     -39.821  23.438   4.810  1.00  0.00    -0.389 OA
ATOM     10  H   UNL     1     -39.888  22.455   4.933  1.00  0.00     0.211 HD
ENDBRANCH   6   9
ENDBRANCH   5   6
ENDBRANCH   1   5
TORSDOF 6
ENDMDL
