MODEL 1
REMARK VINA RESULT:    -2.242      0.000      0.000
REMARK INTER + INTRA:          -4.191
REMARK INTER:                  -3.356
REMARK INTRA:                  -0.835
REMARK UNBOUND:                -0.835
REMARK SMILES C=C(CC[C@@H](C(=O)[O-])[C@@H]1[C@H](O)C[C@@]2(C)C3=C(CC[C@@]12C)[C@]1(C)CC[C@@H](OC(C)=O)C(C)(C)[C@@H]1CC3)C(C)C
REMARK SMILES IDX 4 1 5 2 6 3 7 4 8 5 9 6 10 7 19 8 12 9 13 10 18 11 20 12
REMARK SMILES IDX 14 13 15 14 17 15 16 16 35 17 21 18 34 19 33 20 23 21 22 22
REMARK SMILES IDX 30 23 24 24 25 25 31 26 32 27 11 28 26 30 27 31 29 32 28 33
REMARK SMILES IDX 3 34 2 35 1 36 36 37 37 38 38 39
REMARK H PARENT 11 29
REMARK Flexibility Score: inf
ROOT
ATOM      1  C   UNL     1      16.261  27.578  24.506  1.00  0.00     0.014 C 
ENDROOT
BRANCH   1   2
ATOM      2  C   UNL     1      15.711  28.500  25.633  1.00  0.00     0.042 C 
BRANCH   2   3
ATOM      3  C   UNL     1      16.331  28.054  26.940  1.00  0.00     0.045 C 
ATOM      4  O   UNL     1      16.189  26.871  27.343  1.00  0.00    -0.550 OA
ATOM      5  O   UNL     1      17.033  28.961  27.724  1.00  0.00    -0.550 OA
ENDBRANCH   2   3
BRANCH   2   6
ATOM      6  C   UNL     1      15.964  30.037  25.380  1.00  0.00     0.033 C 
ATOM      7  C   UNL     1      15.162  30.958  26.335  1.00  0.00     0.119 C 
ATOM      8  C   UNL     1      15.671  30.632  23.951  1.00  0.00    -0.017 C 
ATOM      9  C   UNL     1      14.924  32.279  25.592  1.00  0.00     0.043 C 
ATOM     10  C   UNL     1      15.640  32.179  24.223  1.00  0.00    -0.003 C 
ATOM     11  C   UNL     1      16.736  30.330  22.875  1.00  0.00     0.012 C 
ATOM     12  C   UNL     1      14.311  30.104  23.404  1.00  0.00     0.013 C 
ATOM     13  C   UNL     1      14.862  32.981  23.140  1.00  0.00     0.017 C 
ATOM     14  C   UNL     1      17.062  32.792  24.342  1.00  0.00    -0.064 C 
ATOM     15  C   UNL     1      18.136  30.788  23.263  1.00  0.00     0.032 C 
ATOM     16  C   UNL     1      18.196  32.183  23.873  1.00  0.00    -0.064 C 
ATOM     17  C   UNL     1      17.203  34.216  24.855  1.00  0.00     0.032 C 
ATOM     18  C   UNL     1      19.588  32.828  24.178  1.00  0.00    -0.008 C 
ATOM     19  C   UNL     1      18.114  34.981  23.910  1.00  0.00     0.009 C 
ATOM     20  C   UNL     1      19.574  34.412  23.912  1.00  0.00     0.009 C 
ATOM     21  C   UNL     1      19.900  32.461  25.664  1.00  0.00     0.015 C 
ATOM     22  C   UNL     1      20.679  32.175  23.277  1.00  0.00     0.016 C 
ATOM     23  C   UNL     1      20.646  35.272  24.743  1.00  0.00     0.005 C 
ATOM     24  C   UNL     1      21.040  33.256  26.284  1.00  0.00     0.047 C 
ATOM     25  C   UNL     1      20.759  34.761  26.207  1.00  0.00     0.182 C 
ATOM     26  C   UNL     1      20.270  36.783  24.804  1.00  0.00     0.015 C 
ATOM     27  C   UNL     1      22.043  35.244  24.046  1.00  0.00     0.015 C 
BRANCH   7  28
ATOM     28  O   UNL     1      13.922  30.385  26.680  1.00  0.00    -0.393 OA
ATOM     29  H   UNL     1      14.020  29.402  26.564  1.00  0.00     0.210 HD
ENDBRANCH   7  28
BRANCH  25  30
ATOM     30  O   UNL     1      21.791  35.476  26.895  1.00  0.00    -0.462 OA
BRANCH  30  31
ATOM     31  C   UNL     1      22.140  35.240  28.231  1.00  0.00     0.302 C 
ATOM     32  O   UNL     1      21.708  35.983  29.155  1.00  0.00    -0.253 OA
ATOM     33  C   UNL     1      23.086  34.136  28.552  1.00  0.00     0.139 C 
ENDBRANCH  30  31
ENDBRANCH  25  30
ENDBRANCH   2   6
ENDBRANCH   1   2
BRANCH   1  34
ATOM     34  C   UNL     1      17.499  26.756  24.917  1.00  0.00     0.031 C 
BRANCH  34  35
ATOM     35  C   UNL     1      18.824  27.409  24.555  1.00  0.00    -0.075 C 
ATOM     36  C   UNL     1      19.187  27.496  23.262  1.00  0.00     0.008 C 
BRANCH  35  37
ATOM     37  C   UNL     1      19.835  27.792  25.633  1.00  0.00     0.008 C 
ATOM     38  C   UNL     1      19.766  29.279  25.993  1.00  0.00     0.012 C 
ATOM     39  C   UNL     1      19.656  26.917  26.881  1.00  0.00     0.012 C 
ENDBRANCH  35  37
ENDBRANCH  34  35
ENDBRANCH   1  34
TORSDOF 9
ENDMDL
MODEL 2
REMARK VINA RESULT:    -1.022      1.790      7.520
REMARK INTER + INTRA:          -2.365
REMARK INTER:                  -2.083
REMARK INTRA:                  -0.282
REMARK UNBOUND:                -0.835
REMARK SMILES C=C(CC[C@@H](C(=O)[O-])[C@@H]1[C@H](O)C[C@@]2(C)C3=C(CC[C@@]12C)[C@]1(C)CC[C@@H](OC(C)=O)C(C)(C)[C@@H]1CC3)C(C)C
REMARK SMILES IDX 4 1 5 2 6 3 7 4 8 5 9 6 10 7 19 8 12 9 13 10 18 11 20 12
REMARK SMILES IDX 14 13 15 14 17 15 16 16 35 17 21 18 34 19 33 20 23 21 22 22
REMARK SMILES IDX 30 23 24 24 25 25 31 26 32 27 11 28 26 30 27 31 29 32 28 33
REMARK SMILES IDX 3 34 2 35 1 36 36 37 37 38 38 39
REMARK H PARENT 11 29
REMARK Flexibility Score: inf
ROOT
ATOM      1  C   UNL     1      18.640  34.773  23.029  1.00  0.00     0.014 C 
ENDROOT
BRANCH   1   2
ATOM      2  C   UNL     1      20.102  34.869  23.555  1.00  0.00     0.042 C 
BRANCH   2   3
ATOM      3  C   UNL     1      20.241  36.179  24.298  1.00  0.00     0.045 C 
ATOM      4  O   UNL     1      19.319  36.589  25.049  1.00  0.00    -0.550 OA
ATOM      5  O   UNL     1      21.378  36.959  24.129  1.00  0.00    -0.550 OA
ENDBRANCH   2   3
BRANCH   2   6
ATOM      6  C   UNL     1      20.536  33.651  24.460  1.00  0.00     0.033 C 
ATOM      7  C   UNL     1      20.915  34.064  25.905  1.00  0.00     0.119 C 
ATOM      8  C   UNL     1      21.742  32.750  23.999  1.00  0.00    -0.017 C 
ATOM      9  C   UNL     1      21.928  33.033  26.417  1.00  0.00     0.043 C 
ATOM     10  C   UNL     1      22.105  31.965  25.310  1.00  0.00    -0.003 C 
ATOM     11  C   UNL     1      21.423  31.738  22.877  1.00  0.00     0.012 C 
ATOM     12  C   UNL     1      22.924  33.631  23.493  1.00  0.00     0.013 C 
ATOM     13  C   UNL     1      23.559  31.410  25.314  1.00  0.00     0.017 C 
ATOM     14  C   UNL     1      21.140  30.780  25.582  1.00  0.00    -0.064 C 
ATOM     15  C   UNL     1      20.276  30.796  23.218  1.00  0.00     0.032 C 
ATOM     16  C   UNL     1      20.334  30.217  24.627  1.00  0.00    -0.064 C 
ATOM     17  C   UNL     1      21.198  30.085  26.933  1.00  0.00     0.032 C 
ATOM     18  C   UNL     1      19.298  29.125  25.050  1.00  0.00    -0.008 C 
ATOM     19  C   UNL     1      21.264  28.585  26.701  1.00  0.00     0.009 C 
ATOM     20  C   UNL     1      19.960  28.036  26.029  1.00  0.00     0.009 C 
ATOM     21  C   UNL     1      18.118  29.905  25.712  1.00  0.00     0.015 C 
ATOM     22  C   UNL     1      18.752  28.399  23.785  1.00  0.00     0.016 C 
ATOM     23  C   UNL     1      18.946  27.274  27.015  1.00  0.00     0.005 C 
ATOM     24  C   UNL     1      17.149  29.034  26.499  1.00  0.00     0.047 C 
ATOM     25  C   UNL     1      17.885  28.252  27.593  1.00  0.00     0.182 C 
ATOM     26  C   UNL     1      19.681  26.616  28.222  1.00  0.00     0.015 C 
ATOM     27  C   UNL     1      18.249  26.083  26.285  1.00  0.00     0.015 C 
BRANCH   7  28
ATOM     28  O   UNL     1      21.495  35.348  25.938  1.00  0.00    -0.393 OA
ATOM     29  H   UNL     1      20.951  35.921  25.335  1.00  0.00     0.210 HD
ENDBRANCH   7  28
BRANCH  25  30
ATOM     30  O   UNL     1      16.937  27.530  28.386  1.00  0.00    -0.462 OA
BRANCH  30  31
ATOM     31  C   UNL     1      16.863  27.621  29.782  1.00  0.00     0.302 C 
ATOM     32  O   UNL     1      17.497  26.815  30.518  1.00  0.00    -0.253 OA
ATOM     33  C   UNL     1      15.974  28.643  30.399  1.00  0.00     0.139 C 
ENDBRANCH  30  31
ENDBRANCH  25  30
ENDBRANCH   2   6
ENDBRANCH   1   2
BRANCH   1  34
ATOM     34  C   UNL     1      17.934  33.446  23.378  1.00  0.00     0.031 C 
BRANCH  34  35
ATOM     35  C   UNL     1      16.622  33.620  24.128  1.00  0.00    -0.075 C 
ATOM     36  C   UNL     1      16.166  34.860  24.382  1.00  0.00     0.008 C 
BRANCH  35  37
ATOM     37  C   UNL     1      15.913  32.427  24.763  1.00  0.00     0.008 C 
ATOM     38  C   UNL     1      15.244  32.788  26.093  1.00  0.00     0.012 C 
ATOM     39  C   UNL     1      14.899  31.816  23.788  1.00  0.00     0.012 C 
ENDBRANCH  35  37
ENDBRANCH  34  35
ENDBRANCH   1  34
TORSDOF 9
ENDMDL
MODEL 3
REMARK VINA RESULT:    -0.844      2.248      7.977
REMARK INTER + INTRA:          -2.098
REMARK INTER:                  -0.646
REMARK INTRA:                  -1.452
REMARK UNBOUND:                -0.835
REMARK SMILES C=C(CC[C@@H](C(=O)[O-])[C@@H]1[C@H](O)C[C@@]2(C)C3=C(CC[C@@]12C)[C@]1(C)CC[C@@H](OC(C)=O)C(C)(C)[C@@H]1CC3)C(C)C
REMARK SMILES IDX 4 1 5 2 6 3 7 4 8 5 9 6 10 7 19 8 12 9 13 10 18 11 20 12
REMARK SMILES IDX 14 13 15 14 17 15 16 16 35 17 21 18 34 19 33 20 23 21 22 22
REMARK SMILES IDX 30 23 24 24 25 25 31 26 32 27 11 28 26 30 27 31 29 32 28 33
REMARK SMILES IDX 3 34 2 35 1 36 36 37 37 38 38 39
REMARK H PARENT 11 29
REMARK Flexibility Score: inf
ROOT
ATOM      1  C   UNL     1      22.273  33.276  27.939  1.00  0.00     0.014 C 
ENDROOT
BRANCH   1   2
ATOM      2  C   UNL     1      22.705  32.883  26.496  1.00  0.00     0.042 C 
BRANCH   2   3
ATOM      3  C   UNL     1      23.489  31.592  26.583  1.00  0.00     0.045 C 
ATOM      4  O   UNL     1      24.733  31.586  26.397  1.00  0.00    -0.550 OA
ATOM      5  O   UNL     1      22.832  30.394  26.835  1.00  0.00    -0.550 OA
ENDBRANCH   2   3
BRANCH   2   6
ATOM      6  C   UNL     1      21.501  32.752  25.484  1.00  0.00     0.033 C 
ATOM      7  C   UNL     1      21.905  32.118  24.128  1.00  0.00     0.119 C 
ATOM      8  C   UNL     1      20.707  34.047  25.071  1.00  0.00    -0.017 C 
ATOM      9  C   UNL     1      20.941  32.668  23.070  1.00  0.00     0.043 C 
ATOM     10  C   UNL     1      19.918  33.575  23.797  1.00  0.00    -0.003 C 
ATOM     11  C   UNL     1      19.703  34.573  26.120  1.00  0.00     0.012 C 
ATOM     12  C   UNL     1      21.688  35.216  24.756  1.00  0.00     0.013 C 
ATOM     13  C   UNL     1      19.476  34.748  22.875  1.00  0.00     0.017 C 
ATOM     14  C   UNL     1      18.656  32.744  24.151  1.00  0.00    -0.064 C 
ATOM     15  C   UNL     1      18.667  33.537  26.539  1.00  0.00     0.032 C 
ATOM     16  C   UNL     1      18.058  32.751  25.384  1.00  0.00    -0.064 C 
ATOM     17  C   UNL     1      17.933  32.002  23.038  1.00  0.00     0.032 C 
ATOM     18  C   UNL     1      16.879  31.763  25.666  1.00  0.00    -0.008 C 
ATOM     19  C   UNL     1      16.450  32.311  23.137  1.00  0.00     0.009 C 
ATOM     20  C   UNL     1      15.820  31.753  24.459  1.00  0.00     0.009 C 
ATOM     21  C   UNL     1      17.550  30.372  25.902  1.00  0.00     0.015 C 
ATOM     22  C   UNL     1      16.147  32.179  26.977  1.00  0.00     0.016 C 
ATOM     23  C   UNL     1      14.957  30.408  24.296  1.00  0.00     0.005 C 
ATOM     24  C   UNL     1      16.587  29.194  25.865  1.00  0.00     0.047 C 
ATOM     25  C   UNL     1      15.836  29.147  24.529  1.00  0.00     0.182 C 
ATOM     26  C   UNL     1      14.326  30.281  22.876  1.00  0.00     0.015 C 
ATOM     27  C   UNL     1      13.735  30.409  25.268  1.00  0.00     0.015 C 
BRANCH   7  28
ATOM     28  O   UNL     1      23.227  32.453  23.777  1.00  0.00    -0.393 OA
ATOM     29  H   UNL     1      23.751  32.466  24.623  1.00  0.00     0.210 HD
ENDBRANCH   7  28
BRANCH  25  30
ATOM     30  O   UNL     1      15.024  27.970  24.478  1.00  0.00    -0.462 OA
BRANCH  30  31
ATOM     31  C   UNL     1      15.502  26.714  24.083  1.00  0.00     0.302 C 
ATOM     32  O   UNL     1      15.017  25.654  24.566  1.00  0.00    -0.253 OA
ATOM     33  C   UNL     1      16.641  26.636  23.127  1.00  0.00     0.139 C 
ENDBRANCH  30  31
ENDBRANCH  25  30
ENDBRANCH   2   6
ENDBRANCH   1   2
BRANCH   1  34
ATOM     34  C   UNL     1      23.288  34.177  28.673  1.00  0.00     0.031 C 
BRANCH  34  35
ATOM     35  C   UNL     1      22.748  35.554  29.030  1.00  0.00    -0.075 C 
ATOM     36  C   UNL     1      21.508  35.900  28.639  1.00  0.00     0.008 C 
BRANCH  35  37
ATOM     37  C   UNL     1      23.650  36.617  29.652  1.00  0.00     0.008 C 
ATOM     38  C   UNL     1      24.611  37.236  28.632  1.00  0.00     0.012 C 
ATOM     39  C   UNL     1      22.815  37.701  30.346  1.00  0.00     0.012 C 
ENDBRANCH  35  37
ENDBRANCH  34  35
ENDBRANCH   1  34
TORSDOF 9
ENDMDL
MODEL 4
REMARK VINA RESULT:     0.156      2.075      8.019
REMARK INTER + INTRA:          -0.601
REMARK INTER:                  -0.882
REMARK INTRA:                   0.281
REMARK UNBOUND:                -0.835
REMARK SMILES C=C(CC[C@@H](C(=O)[O-])[C@@H]1[C@H](O)C[C@@]2(C)C3=C(CC[C@@]12C)[C@]1(C)CC[C@@H](OC(C)=O)C(C)(C)[C@@H]1CC3)C(C)C
REMARK SMILES IDX 4 1 5 2 6 3 7 4 8 5 9 6 10 7 19 8 12 9 13 10 18 11 20 12
REMARK SMILES IDX 14 13 15 14 17 15 16 16 35 17 21 18 34 19 33 20 23 21 22 22
REMARK SMILES IDX 30 23 24 24 25 25 31 26 32 27 11 28 26 30 27 31 29 32 28 33
REMARK SMILES IDX 3 34 2 35 1 36 36 37 37 38 38 39
REMARK H PARENT 11 29
REMARK Flexibility Score: inf
ROOT
ATOM      1  C   UNL     1      22.684  33.531  25.419  1.00  0.00     0.014 C 
ENDROOT
BRANCH   1   2
ATOM      2  C   UNL     1      22.701  32.955  26.865  1.00  0.00     0.042 C 
BRANCH   2   3
ATOM      3  C   UNL     1      22.208  34.038  27.800  1.00  0.00     0.045 C 
ATOM      4  O   UNL     1      22.984  34.553  28.647  1.00  0.00    -0.550 OA
ATOM      5  O   UNL     1      20.882  34.448  27.755  1.00  0.00    -0.550 OA
ENDBRANCH   2   3
BRANCH   2   6
ATOM      6  C   UNL     1      21.859  31.631  27.034  1.00  0.00     0.033 C 
ATOM      7  C   UNL     1      21.243  31.471  28.447  1.00  0.00     0.119 C 
ATOM      8  C   UNL     1      22.556  30.245  26.769  1.00  0.00    -0.017 C 
ATOM      9  C   UNL     1      21.097  29.966  28.706  1.00  0.00     0.043 C 
ATOM     10  C   UNL     1      21.557  29.226  27.427  1.00  0.00    -0.003 C 
ATOM     11  C   UNL     1      22.751  29.873  25.283  1.00  0.00     0.012 C 
ATOM     12  C   UNL     1      23.964  30.202  27.436  1.00  0.00     0.013 C 
ATOM     13  C   UNL     1      22.215  27.864  27.791  1.00  0.00     0.017 C 
ATOM     14  C   UNL     1      20.324  28.936  26.530  1.00  0.00    -0.064 C 
ATOM     15  C   UNL     1      21.454  29.871  24.484  1.00  0.00     0.032 C 
ATOM     16  C   UNL     1      20.284  29.191  25.184  1.00  0.00    -0.064 C 
ATOM     17  C   UNL     1      19.149  28.178  27.125  1.00  0.00     0.032 C 
ATOM     18  C   UNL     1      18.938  28.993  24.411  1.00  0.00    -0.008 C 
ATOM     19  C   UNL     1      18.766  27.058  26.174  1.00  0.00     0.009 C 
ATOM     20  C   UNL     1      18.232  27.605  24.806  1.00  0.00     0.009 C 
ATOM     21  C   UNL     1      18.069  30.242  24.763  1.00  0.00     0.015 C 
ATOM     22  C   UNL     1      19.207  29.003  22.877  1.00  0.00     0.016 C 
ATOM     23  C   UNL     1      16.638  27.552  24.618  1.00  0.00     0.005 C 
ATOM     24  C   UNL     1      16.597  30.110  24.396  1.00  0.00     0.047 C 
ATOM     25  C   UNL     1      15.976  28.883  25.074  1.00  0.00     0.182 C 
ATOM     26  C   UNL     1      15.986  26.401  25.442  1.00  0.00     0.015 C 
ATOM     27  C   UNL     1      16.261  27.235  23.137  1.00  0.00     0.015 C 
BRANCH   7  28
ATOM     28  O   UNL     1      22.070  32.038  29.436  1.00  0.00    -0.393 OA
ATOM     29  H   UNL     1      22.295  32.956  29.126  1.00  0.00     0.210 HD
ENDBRANCH   7  28
BRANCH  25  30
ATOM     30  O   UNL     1      14.571  28.847  24.803  1.00  0.00    -0.462 OA
BRANCH  30  31
ATOM     31  C   UNL     1      14.000  29.294  23.604  1.00  0.00     0.302 C 
ATOM     32  O   UNL     1      13.144  28.597  22.994  1.00  0.00    -0.253 OA
ATOM     33  C   UNL     1      14.462  30.582  23.014  1.00  0.00     0.139 C 
ENDBRANCH  30  31
ENDBRANCH  25  30
ENDBRANCH   2   6
ENDBRANCH   1   2
BRANCH   1  34
ATOM     34  C   UNL     1      21.422  33.164  24.612  1.00  0.00     0.031 C 
BRANCH  34  35
ATOM     35  C   UNL     1      21.130  34.107  23.455  1.00  0.00    -0.075 C 
ATOM     36  C   UNL     1      22.114  34.890  22.976  1.00  0.00     0.008 C 
BRANCH  35  37
ATOM     37  C   UNL     1      19.704  34.323  22.955  1.00  0.00     0.008 C 
ATOM     38  C   UNL     1      18.669  33.582  23.807  1.00  0.00     0.012 C 
ATOM     39  C   UNL     1      19.377  35.821  22.875  1.00  0.00     0.012 C 
ENDBRANCH  35  37
ENDBRANCH  34  35
ENDBRANCH   1  34
TORSDOF 9
ENDMDL
MODEL 5
REMARK VINA RESULT:     0.363      2.374      5.092
REMARK INTER + INTRA:          -0.292
REMARK INTER:                  -2.030
REMARK INTRA:                   1.738
REMARK UNBOUND:                -0.835
REMARK SMILES C=C(CC[C@@H](C(=O)[O-])[C@@H]1[C@H](O)C[C@@]2(C)C3=C(CC[C@@]12C)[C@]1(C)CC[C@@H](OC(C)=O)C(C)(C)[C@@H]1CC3)C(C)C
REMARK SMILES IDX 4 1 5 2 6 3 7 4 8 5 9 6 10 7 19 8 12 9 13 10 18 11 20 12
REMARK SMILES IDX 14 13 15 14 17 15 16 16 35 17 21 18 34 19 33 20 23 21 22 22
REMARK SMILES IDX 30 23 24 24 25 25 31 26 32 27 11 28 26 30 27 31 29 32 28 33
REMARK SMILES IDX 3 34 2 35 1 36 36 37 37 38 38 39
REMARK H PARENT 11 29
REMARK Flexibility Score: inf
ROOT
ATOM      1  C   UNL     1      14.665  30.484  26.190  1.00  0.00     0.014 C 
ENDROOT
BRANCH   1   2
ATOM      2  C   UNL     1      14.896  29.181  25.370  1.00  0.00     0.042 C 
BRANCH   2   3
ATOM      3  C   UNL     1      13.876  29.151  24.253  1.00  0.00     0.045 C 
ATOM      4  O   UNL     1      12.999  28.249  24.212  1.00  0.00    -0.550 OA
ATOM      5  O   UNL     1      13.921  30.102  23.242  1.00  0.00    -0.550 OA
ENDBRANCH   2   3
BRANCH   2   6
ATOM      6  C   UNL     1      16.362  29.035  24.805  1.00  0.00     0.033 C 
ATOM      7  C   UNL     1      16.409  28.739  23.284  1.00  0.00     0.119 C 
ATOM      8  C   UNL     1      17.313  27.945  25.428  1.00  0.00    -0.017 C 
ATOM      9  C   UNL     1      17.700  27.955  23.017  1.00  0.00     0.043 C 
ATOM     10  C   UNL     1      18.461  27.840  24.360  1.00  0.00    -0.003 C 
ATOM     11  C   UNL     1      17.930  28.306  26.797  1.00  0.00     0.012 C 
ATOM     12  C   UNL     1      16.556  26.595  25.613  1.00  0.00     0.013 C 
ATOM     13  C   UNL     1      19.247  26.499  24.428  1.00  0.00     0.017 C 
ATOM     14  C   UNL     1      19.486  29.000  24.470  1.00  0.00    -0.064 C 
ATOM     15  C   UNL     1      18.710  29.614  26.784  1.00  0.00     0.032 C 
ATOM     16  C   UNL     1      19.632  29.786  25.583  1.00  0.00    -0.064 C 
ATOM     17  C   UNL     1      20.504  29.185  23.356  1.00  0.00     0.032 C 
ATOM     18  C   UNL     1      20.596  31.017  25.526  1.00  0.00    -0.008 C 
ATOM     19  C   UNL     1      21.881  29.332  23.980  1.00  0.00     0.009 C 
ATOM     20  C   UNL     1      21.999  30.634  24.843  1.00  0.00     0.009 C 
ATOM     21  C   UNL     1      19.816  32.120  24.741  1.00  0.00     0.015 C 
ATOM     22  C   UNL     1      20.863  31.543  26.968  1.00  0.00     0.016 C 
ATOM     23  C   UNL     1      22.797  31.846  24.156  1.00  0.00     0.005 C 
ATOM     24  C   UNL     1      20.674  33.286  24.272  1.00  0.00     0.047 C 
ATOM     25  C   UNL     1      21.829  32.793  23.392  1.00  0.00     0.182 C 
ATOM     26  C   UNL     1      23.862  31.346  23.134  1.00  0.00     0.015 C 
ATOM     27  C   UNL     1      23.618  32.646  25.216  1.00  0.00     0.015 C 
BRANCH   7  28
ATOM     28  O   UNL     1      15.300  27.972  22.875  1.00  0.00    -0.393 OA
ATOM     29  H   UNL     1      15.269  27.177  23.472  1.00  0.00     0.210 HD
ENDBRANCH   7  28
BRANCH  25  30
ATOM     30  O   UNL     1      22.550  33.915  22.875  1.00  0.00    -0.462 OA
BRANCH  30  31
ATOM     31  C   UNL     1      22.134  35.244  23.031  1.00  0.00     0.302 C 
ATOM     32  O   UNL     1      22.971  36.188  23.050  1.00  0.00    -0.253 OA
ATOM     33  C   UNL     1      20.689  35.534  23.242  1.00  0.00     0.139 C 
ENDBRANCH  30  31
ENDBRANCH  25  30
ENDBRANCH   2   6
ENDBRANCH   1   2
BRANCH   1  34
ATOM     34  C   UNL     1      13.998  31.620  25.388  1.00  0.00     0.031 C 
BRANCH  34  35
ATOM     35  C   UNL     1      14.832  32.889  25.299  1.00  0.00    -0.075 C 
ATOM     36  C   UNL     1      14.411  34.002  25.926  1.00  0.00     0.008 C 
BRANCH  35  37
ATOM     37  C   UNL     1      16.031  32.979  24.359  1.00  0.00     0.008 C 
ATOM     38  C   UNL     1      15.613  33.167  22.897  1.00  0.00     0.012 C 
ATOM     39  C   UNL     1      16.988  34.094  24.803  1.00  0.00     0.012 C 
ENDBRANCH  35  37
ENDBRANCH  34  35
ENDBRANCH   1  34
TORSDOF 9
ENDMDL
