MODEL 1
REMARK VINA RESULT:    -2.846      0.000      0.000
REMARK INTER + INTRA:          -3.830
REMARK INTER:                  -4.011
REMARK INTRA:                   0.181
REMARK UNBOUND:                 0.181
REMARK SMILES CC1=CCC(=C(C)C)C(=O)CC(C)=CCC1
REMARK SMILES IDX 12 1 14 2 13 3 15 4 16 5 2 6 1 7 3 8 11 10 9 11 10 12 5 13
REMARK SMILES IDX 6 14 7 15 8 16 4 17
REMARK H PARENT
REMARK Flexibility Score: 60.00
ROOT
ATOM      1  C   UNL     1      -9.485 -11.321  -4.840  1.00  0.00    -0.070 C 
ATOM      2  C   UNL     1      -8.530 -10.480  -5.295  1.00  0.00    -0.027 C 
ATOM      3  C   UNL     1      -9.595 -11.522  -3.349  1.00  0.00     0.039 C 
ENDROOT
BRANCH   2   4
ATOM      4  C   UNL     1      -8.200 -10.222  -6.749  1.00  0.00     0.032 C 
BRANCH   4   5
ATOM      5  C   UNL     1      -7.322 -11.300  -7.416  1.00  0.00     0.034 C 
BRANCH   5   6
ATOM      6  C   UNL     1      -7.792 -11.674  -8.810  1.00  0.00    -0.077 C 
ATOM      7  C   UNL     1      -7.705 -10.620  -9.885  1.00  0.00     0.039 C 
ATOM      8  C   UNL     1      -8.347 -12.868  -9.134  1.00  0.00    -0.023 CG0
ATOM      9  G   UNL     1      -8.518 -14.073  -8.231  1.00  0.00     0.000 G0
ENDBRANCH   5   6
ENDBRANCH   4   5
ENDBRANCH   2   4
BRANCH   1  10
ATOM     10  C   UNL     1     -10.379 -12.135  -5.752  1.00  0.00     0.111 C 
BRANCH  10  11
ATOM     11  C   UNL     1      -9.775 -13.479  -6.068  1.00  0.00     0.163 C 
ATOM     12  O   UNL     1      -9.171 -14.091  -5.145  1.00  0.00    -0.294 OA
BRANCH  11  13
ATOM     13  C   UNL     1      -9.814 -14.073  -7.437  1.00  0.00    -0.002 C 
ATOM     14  C   UNL     1     -10.957 -14.650  -7.916  1.00  0.00    -0.069 C 
ATOM     15  C   UNL     1     -12.258 -14.569  -7.148  1.00  0.00     0.039 C 
ATOM     16  C   UNL     1     -10.985 -15.399  -9.230  1.00  0.00     0.039 C 
BRANCH  13  17
ATOM     17  C   UNL     1      -8.514 -14.092  -8.224  1.00  0.00     0.066 CG0
ATOM     18  G   UNL     1      -8.363 -12.877  -9.116  1.00  0.00     0.000 G0
ENDBRANCH  13  17
ENDBRANCH  11  13
ENDBRANCH  10  11
ENDBRANCH   1  10
TORSDOF 0
ENDMDL
MODEL 2
REMARK VINA RESULT:    -2.773     12.452     14.397
REMARK INTER + INTRA:          -3.727
REMARK INTER:                  -4.295
REMARK INTRA:                   0.568
REMARK UNBOUND:                 0.181
REMARK SMILES CC1=CCC(=C(C)C)C(=O)CC(C)=CCC1
REMARK SMILES IDX 12 1 14 2 13 3 15 4 16 5 2 6 1 7 3 8 11 10 9 11 10 12 5 13
REMARK SMILES IDX 6 14 7 15 8 16 4 17
REMARK H PARENT
REMARK Flexibility Score: 60.00
ROOT
ATOM      1  C   UNL     1     -23.819  -9.477  -8.347  1.00  0.00    -0.070 C 
ATOM      2  C   UNL     1     -22.562  -9.521  -8.839  1.00  0.00    -0.027 C 
ATOM      3  C   UNL     1     -24.156  -8.375  -7.372  1.00  0.00     0.039 C 
ENDROOT
BRANCH   2   4
ATOM      4  C   UNL     1     -22.007 -10.597  -9.747  1.00  0.00     0.032 C 
BRANCH   4   5
ATOM      5  C   UNL     1     -20.851 -11.422  -9.144  1.00  0.00     0.034 C 
BRANCH   5   6
ATOM      6  C   UNL     1     -21.259 -12.835  -8.768  1.00  0.00    -0.077 C 
ATOM      7  C   UNL     1     -20.892 -13.947  -9.718  1.00  0.00     0.039 C 
ATOM      8  C   UNL     1     -21.991 -13.153  -7.671  1.00  0.00    -0.023 CG0
ATOM      9  G   UNL     1     -22.453 -12.212  -6.577  1.00  0.00     0.000 G0
ENDBRANCH   5   6
ENDBRANCH   4   5
ENDBRANCH   2   4
BRANCH   1  10
ATOM     10  C   UNL     1     -24.869 -10.525  -8.651  1.00  0.00     0.111 C 
BRANCH  10  11
ATOM     11  C   UNL     1     -24.573 -11.828  -7.954  1.00  0.00     0.163 C 
ATOM     12  O   UNL     1     -24.935 -12.897  -8.514  1.00  0.00    -0.294 OA
BRANCH  11  13
ATOM     13  C   UNL     1     -23.927 -11.887  -6.609  1.00  0.00    -0.002 C 
ATOM     14  C   UNL     1     -24.635 -11.579  -5.480  1.00  0.00    -0.069 C 
ATOM     15  C   UNL     1     -26.125 -11.323  -5.534  1.00  0.00     0.039 C 
ATOM     16  C   UNL     1     -23.972 -11.475  -4.124  1.00  0.00     0.039 C 
BRANCH  13  17
ATOM     17  C   UNL     1     -22.442 -12.207  -6.563  1.00  0.00     0.066 CG0
ATOM     18  G   UNL     1     -22.019 -13.137  -7.683  1.00  0.00     0.000 G0
ENDBRANCH  13  17
ENDBRANCH  11  13
ENDBRANCH  10  11
ENDBRANCH   1  10
TORSDOF 0
ENDMDL
MODEL 3
REMARK VINA RESULT:    -2.666      1.860      3.743
REMARK INTER + INTRA:          -3.575
REMARK INTER:                  -3.682
REMARK INTRA:                   0.107
REMARK UNBOUND:                 0.181
REMARK SMILES CC1=CCC(=C(C)C)C(=O)CC(C)=CCC1
REMARK SMILES IDX 12 1 14 2 13 3 15 4 16 5 2 6 1 7 3 8 11 10 9 11 10 12 5 13
REMARK SMILES IDX 6 14 7 15 8 16 4 17
REMARK H PARENT
REMARK Flexibility Score: 60.00
ROOT
ATOM      1  C   UNL     1      -8.661 -12.283  -4.023  1.00  0.00    -0.070 C 
ATOM      2  C   UNL     1      -8.518 -13.592  -3.723  1.00  0.00    -0.027 C 
ATOM      3  C   UNL     1      -9.608 -11.465  -3.180  1.00  0.00     0.039 C 
ENDROOT
BRANCH   2   4
ATOM      4  C   UNL     1      -7.696 -14.593  -4.505  1.00  0.00     0.032 C 
BRANCH   4   5
ATOM      5  C   UNL     1      -8.422 -15.229  -5.709  1.00  0.00     0.034 C 
BRANCH   5   6
ATOM      6  C   UNL     1      -7.569 -15.274  -6.963  1.00  0.00    -0.077 C 
ATOM      7  C   UNL     1      -6.416 -16.245  -6.993  1.00  0.00     0.039 C 
ATOM      8  C   UNL     1      -7.734 -14.452  -8.029  1.00  0.00    -0.023 CG0
ATOM      9  G   UNL     1      -8.825 -13.420  -8.228  1.00  0.00     0.000 G0
ENDBRANCH   5   6
ENDBRANCH   4   5
ENDBRANCH   2   4
BRANCH   1  10
ATOM     10  C   UNL     1      -7.994 -11.625  -5.214  1.00  0.00     0.111 C 
BRANCH  10  11
ATOM     11  C   UNL     1      -8.899 -11.607  -6.418  1.00  0.00     0.163 C 
ATOM     12  O   UNL     1     -10.104 -11.276  -6.252  1.00  0.00    -0.294 OA
BRANCH  11  13
ATOM     13  C   UNL     1      -8.434 -12.024  -7.775  1.00  0.00    -0.002 C 
ATOM     14  C   UNL     1      -7.757 -11.151  -8.580  1.00  0.00    -0.069 C 
ATOM     15  C   UNL     1      -7.317  -9.795  -8.073  1.00  0.00     0.039 C 
ATOM     16  C   UNL     1      -7.413 -11.488 -10.014  1.00  0.00     0.039 C 
BRANCH  13  17
ATOM     17  C   UNL     1      -8.829 -13.413  -8.249  1.00  0.00     0.066 CG0
ATOM     18  G   UNL     1      -7.730 -14.432  -8.028  1.00  0.00     0.000 G0
ENDBRANCH  13  17
ENDBRANCH  11  13
ENDBRANCH  10  11
ENDBRANCH   1  10
TORSDOF 0
ENDMDL
MODEL 4
REMARK VINA RESULT:    -2.550      2.361      3.817
REMARK INTER + INTRA:          -3.412
REMARK INTER:                  -3.532
REMARK INTRA:                   0.120
REMARK UNBOUND:                 0.181
REMARK SMILES CC1=CCC(=C(C)C)C(=O)CC(C)=CCC1
REMARK SMILES IDX 12 1 14 2 13 3 15 4 16 5 2 6 1 7 3 8 11 10 9 11 10 12 5 13
REMARK SMILES IDX 6 14 7 15 8 16 4 17
REMARK H PARENT
REMARK Flexibility Score: 60.00
ROOT
ATOM      1  C   UNL     1      -8.693 -12.234  -3.628  1.00  0.00    -0.070 C 
ATOM      2  C   UNL     1      -8.230 -13.216  -2.824  1.00  0.00    -0.027 C 
ATOM      3  C   UNL     1      -9.648 -11.228  -3.034  1.00  0.00     0.039 C 
ENDROOT
BRANCH   2   4
ATOM      4  C   UNL     1      -7.347 -14.367  -3.255  1.00  0.00     0.032 C 
BRANCH   4   5
ATOM      5  C   UNL     1      -8.102 -15.589  -3.818  1.00  0.00     0.034 C 
BRANCH   5   6
ATOM      6  C   UNL     1      -7.528 -16.092  -5.130  1.00  0.00    -0.077 C 
ATOM      7  C   UNL     1      -6.210 -16.824  -5.084  1.00  0.00     0.039 C 
ATOM      8  C   UNL     1      -8.086 -15.866  -6.345  1.00  0.00    -0.023 CG0
ATOM      9  G   UNL     1      -9.404 -15.176  -6.632  1.00  0.00     0.000 G0
ENDBRANCH   5   6
ENDBRANCH   4   5
ENDBRANCH   2   4
BRANCH   1  10
ATOM     10  C   UNL     1      -8.376 -12.151  -5.106  1.00  0.00     0.111 C 
BRANCH  10  11
ATOM     11  C   UNL     1      -9.496 -12.706  -5.947  1.00  0.00     0.163 C 
ATOM     12  O   UNL     1     -10.673 -12.332  -5.692  1.00  0.00    -0.294 OA
BRANCH  11  13
ATOM     13  C   UNL     1      -9.266 -13.720  -7.019  1.00  0.00    -0.002 C 
ATOM     14  C   UNL     1      -9.009 -13.332  -8.304  1.00  0.00    -0.069 C 
ATOM     15  C   UNL     1      -8.792 -11.877  -8.656  1.00  0.00     0.039 C 
ATOM     16  C   UNL     1      -8.930 -14.329  -9.440  1.00  0.00     0.039 C 
BRANCH  13  17
ATOM     17  C   UNL     1      -9.426 -15.183  -6.638  1.00  0.00     0.066 CG0
ATOM     18  G   UNL     1      -8.097 -15.851  -6.348  1.00  0.00     0.000 G0
ENDBRANCH  13  17
ENDBRANCH  11  13
ENDBRANCH  10  11
ENDBRANCH   1  10
TORSDOF 0
ENDMDL
MODEL 5
REMARK VINA RESULT:    -2.541      3.201      4.775
REMARK INTER + INTRA:          -3.400
REMARK INTER:                  -3.648
REMARK INTRA:                   0.248
REMARK UNBOUND:                 0.181
REMARK SMILES CC1=CCC(=C(C)C)C(=O)CC(C)=CCC1
REMARK SMILES IDX 12 1 14 2 13 3 15 4 16 5 2 6 1 7 3 8 11 10 9 11 10 12 5 13
REMARK SMILES IDX 6 14 7 15 8 16 4 17
REMARK H PARENT
REMARK Flexibility Score: 60.00
ROOT
ATOM      1  C   UNL     1      -9.231 -12.198  -5.179  1.00  0.00    -0.070 C 
ATOM      2  C   UNL     1      -8.871 -11.801  -3.939  1.00  0.00    -0.027 C 
ATOM      3  C   UNL     1      -9.267 -11.158  -6.271  1.00  0.00     0.039 C 
ENDROOT
BRANCH   2   4
ATOM      4  C   UNL     1      -8.867 -12.669  -2.700  1.00  0.00     0.032 C 
BRANCH   4   5
ATOM      5  C   UNL     1      -7.660 -13.622  -2.578  1.00  0.00     0.034 C 
BRANCH   5   6
ATOM      6  C   UNL     1      -8.063 -15.074  -2.395  1.00  0.00    -0.077 C 
ATOM      7  C   UNL     1      -8.709 -15.463  -1.090  1.00  0.00     0.039 C 
ATOM      8  C   UNL     1      -7.818 -16.054  -3.300  1.00  0.00    -0.023 CG0
ATOM      9  G   UNL     1      -7.202 -15.897  -4.675  1.00  0.00     0.000 G0
ENDBRANCH   5   6
ENDBRANCH   4   5
ENDBRANCH   2   4
BRANCH   1  10
ATOM     10  C   UNL     1      -9.688 -13.606  -5.501  1.00  0.00     0.111 C 
BRANCH  10  11
ATOM     11  C   UNL     1      -8.612 -14.392  -6.205  1.00  0.00     0.163 C 
ATOM     12  O   UNL     1      -8.064 -13.875  -7.216  1.00  0.00    -0.294 OA
BRANCH  11  13
ATOM     13  C   UNL     1      -8.224 -15.772  -5.787  1.00  0.00    -0.002 C 
ATOM     14  C   UNL     1      -8.850 -16.865  -6.318  1.00  0.00    -0.069 C 
ATOM     15  C   UNL     1      -9.838 -16.728  -7.456  1.00  0.00     0.039 C 
ATOM     16  C   UNL     1      -8.593 -18.264  -5.802  1.00  0.00     0.039 C 
BRANCH  13  17
ATOM     17  C   UNL     1      -7.184 -15.898  -4.686  1.00  0.00     0.066 CG0
ATOM     18  G   UNL     1      -7.811 -16.066  -3.317  1.00  0.00     0.000 G0
ENDBRANCH  13  17
ENDBRANCH  11  13
ENDBRANCH  10  11
ENDBRANCH   1  10
TORSDOF 0
ENDMDL
MODEL 6
REMARK VINA RESULT:    -2.533      2.560      4.087
REMARK INTER + INTRA:          -3.388
REMARK INTER:                  -3.727
REMARK INTRA:                   0.339
REMARK UNBOUND:                 0.181
REMARK SMILES CC1=CCC(=C(C)C)C(=O)CC(C)=CCC1
REMARK SMILES IDX 12 1 14 2 13 3 15 4 16 5 2 6 1 7 3 8 11 10 9 11 10 12 5 13
REMARK SMILES IDX 6 14 7 15 8 16 4 17
REMARK H PARENT
REMARK Flexibility Score: 60.00
ROOT
ATOM      1  C   UNL     1      -9.249 -11.798  -4.789  1.00  0.00    -0.070 C 
ATOM      2  C   UNL     1     -10.118 -11.902  -5.819  1.00  0.00    -0.027 C 
ATOM      3  C   UNL     1      -8.499 -10.499  -4.628  1.00  0.00     0.039 C 
ENDROOT
BRANCH   2   4
ATOM      4  C   UNL     1     -10.888 -13.147  -6.202  1.00  0.00     0.032 C 
BRANCH   4   5
ATOM      5  C   UNL     1     -10.382 -13.858  -7.475  1.00  0.00     0.034 C 
BRANCH   5   6
ATOM      6  C   UNL     1     -10.250 -15.360  -7.306  1.00  0.00    -0.077 C 
ATOM      7  C   UNL     1     -11.430 -16.216  -7.693  1.00  0.00     0.039 C 
ATOM      8  C   UNL     1      -9.168 -15.977  -6.768  1.00  0.00    -0.023 CG0
ATOM      9  G   UNL     1      -7.871 -15.329  -6.328  1.00  0.00     0.000 G0
ENDBRANCH   5   6
ENDBRANCH   4   5
ENDBRANCH   2   4
BRANCH   1  10
ATOM     10  C   UNL     1      -8.927 -12.945  -3.854  1.00  0.00     0.111 C 
BRANCH  10  11
ATOM     11  C   UNL     1      -7.723 -13.721  -4.320  1.00  0.00     0.163 C 
ATOM     12  O   UNL     1      -6.607 -13.134  -4.336  1.00  0.00    -0.294 OA
BRANCH  11  13
ATOM     13  C   UNL     1      -7.819 -15.126  -4.817  1.00  0.00    -0.002 C 
ATOM     14  C   UNL     1      -7.772 -16.179  -3.947  1.00  0.00    -0.069 C 
ATOM     15  C   UNL     1      -7.781 -15.962  -2.450  1.00  0.00     0.039 C 
ATOM     16  C   UNL     1      -7.706 -17.612  -4.428  1.00  0.00     0.039 C 
BRANCH  13  17
ATOM     17  C   UNL     1      -7.872 -15.329  -6.322  1.00  0.00     0.066 CG0
ATOM     18  G   UNL     1      -9.158 -15.994  -6.769  1.00  0.00     0.000 G0
ENDBRANCH  13  17
ENDBRANCH  11  13
ENDBRANCH  10  11
ENDBRANCH   1  10
TORSDOF 0
ENDMDL
MODEL 7
REMARK VINA RESULT:    -2.481      2.585      4.865
REMARK INTER + INTRA:          -3.315
REMARK INTER:                  -3.549
REMARK INTRA:                   0.234
REMARK UNBOUND:                 0.181
REMARK SMILES CC1=CCC(=C(C)C)C(=O)CC(C)=CCC1
REMARK SMILES IDX 12 1 14 2 13 3 15 4 16 5 2 6 1 7 3 8 11 10 9 11 10 12 5 13
REMARK SMILES IDX 6 14 7 15 8 16 4 17
REMARK H PARENT
REMARK Flexibility Score: 60.00
ROOT
ATOM      1  C   UNL     1      -9.742 -13.450  -6.943  1.00  0.00    -0.070 C 
ATOM      2  C   UNL     1      -9.752 -14.716  -7.413  1.00  0.00    -0.027 C 
ATOM      3  C   UNL     1     -11.002 -12.925  -6.301  1.00  0.00     0.039 C 
ENDROOT
BRANCH   2   4
ATOM      4  C   UNL     1      -8.626 -15.386  -8.170  1.00  0.00     0.032 C 
BRANCH   4   5
ATOM      5  C   UNL     1      -7.365 -15.680  -7.331  1.00  0.00     0.034 C 
BRANCH   5   6
ATOM      6  C   UNL     1      -7.682 -16.151  -5.924  1.00  0.00    -0.077 C 
ATOM      7  C   UNL     1      -8.332 -17.503  -5.766  1.00  0.00     0.039 C 
ATOM      8  C   UNL     1      -7.481 -15.409  -4.806  1.00  0.00    -0.023 CG0
ATOM      9  G   UNL     1      -6.831 -14.043  -4.720  1.00  0.00     0.000 G0
ENDBRANCH   5   6
ENDBRANCH   4   5
ENDBRANCH   2   4
BRANCH   1  10
ATOM     10  C   UNL     1      -8.566 -12.509  -7.112  1.00  0.00     0.111 C 
BRANCH  10  11
ATOM     11  C   UNL     1      -8.057 -12.012  -5.785  1.00  0.00     0.163 C 
ATOM     12  O   UNL     1      -7.722 -10.799  -5.693  1.00  0.00    -0.294 OA
BRANCH  11  13
ATOM     13  C   UNL     1      -7.878 -12.912  -4.607  1.00  0.00    -0.002 C 
ATOM     14  C   UNL     1      -8.553 -12.679  -3.441  1.00  0.00    -0.069 C 
ATOM     15  C   UNL     1      -9.616 -11.606  -3.350  1.00  0.00     0.039 C 
ATOM     16  C   UNL     1      -8.277 -13.474  -2.184  1.00  0.00     0.039 C 
BRANCH  13  17
ATOM     17  C   UNL     1      -6.852 -14.026  -4.732  1.00  0.00     0.066 CG0
ATOM     18  G   UNL     1      -7.495 -15.396  -4.803  1.00  0.00     0.000 G0
ENDBRANCH  13  17
ENDBRANCH  11  13
ENDBRANCH  10  11
ENDBRANCH   1  10
TORSDOF 0
ENDMDL
MODEL 8
REMARK VINA RESULT:    -2.333     14.233     15.646
REMARK INTER + INTRA:          -3.107
REMARK INTER:                  -3.597
REMARK INTRA:                   0.491
REMARK UNBOUND:                 0.181
REMARK SMILES CC1=CCC(=C(C)C)C(=O)CC(C)=CCC1
REMARK SMILES IDX 12 1 14 2 13 3 15 4 16 5 2 6 1 7 3 8 11 10 9 11 10 12 5 13
REMARK SMILES IDX 6 14 7 15 8 16 4 17
REMARK H PARENT
REMARK Flexibility Score: 60.00
ROOT
ATOM      1  C   UNL     1     -23.690  -9.826  -6.722  1.00  0.00    -0.070 C 
ATOM      2  C   UNL     1     -24.374  -8.728  -6.333  1.00  0.00    -0.027 C 
ATOM      3  C   UNL     1     -24.053 -11.145  -6.086  1.00  0.00     0.039 C 
ENDROOT
BRANCH   2   4
ATOM      4  C   UNL     1     -24.094  -7.310  -6.781  1.00  0.00     0.032 C 
BRANCH   4   5
ATOM      5  C   UNL     1     -25.023  -6.786  -7.896  1.00  0.00     0.034 C 
BRANCH   5   6
ATOM      6  C   UNL     1     -24.441  -6.958  -9.287  1.00  0.00    -0.077 C 
ATOM      7  C   UNL     1     -23.692  -5.793  -9.883  1.00  0.00     0.039 C 
ATOM      8  C   UNL     1     -24.610  -8.064 -10.054  1.00  0.00    -0.023 CG0
ATOM      9  G   UNL     1     -25.305  -9.352  -9.661  1.00  0.00     0.000 G0
ENDBRANCH   5   6
ENDBRANCH   4   5
ENDBRANCH   2   4
BRANCH   1  10
ATOM     10  C   UNL     1     -22.525  -9.782  -7.689  1.00  0.00     0.111 C 
BRANCH  10  11
ATOM     11  C   UNL     1     -22.944 -10.166  -9.084  1.00  0.00     0.163 C 
ATOM     12  O   UNL     1     -22.072 -10.142  -9.995  1.00  0.00    -0.294 OA
BRANCH  11  13
ATOM     13  C   UNL     1     -24.355 -10.511  -9.429  1.00  0.00    -0.002 C 
ATOM     14  C   UNL     1     -24.730 -11.812  -9.619  1.00  0.00    -0.069 C 
ATOM     15  C   UNL     1     -23.779 -12.953  -9.333  1.00  0.00     0.039 C 
ATOM     16  C   UNL     1     -26.108 -12.182 -10.124  1.00  0.00     0.039 C 
BRANCH  13  17
ATOM     17  C   UNL     1     -25.318  -9.356  -9.653  1.00  0.00     0.066 CG0
ATOM     18  G   UNL     1     -24.604  -8.078 -10.043  1.00  0.00     0.000 G0
ENDBRANCH  13  17
ENDBRANCH  11  13
ENDBRANCH  10  11
ENDBRANCH   1  10
TORSDOF 0
ENDMDL
MODEL 9
REMARK VINA RESULT:    -2.230      2.514      4.479
REMARK INTER + INTRA:          -2.961
REMARK INTER:                  -3.208
REMARK INTRA:                   0.247
REMARK UNBOUND:                 0.181
REMARK SMILES CC1=CCC(=C(C)C)C(=O)CC(C)=CCC1
REMARK SMILES IDX 12 1 14 2 13 3 15 4 16 5 2 6 1 7 3 8 11 10 9 11 10 12 5 13
REMARK SMILES IDX 6 14 7 15 8 16 4 17
REMARK H PARENT
REMARK Flexibility Score: 60.00
ROOT
ATOM      1  C   UNL     1      -9.641 -12.763  -6.525  1.00  0.00    -0.070 C 
ATOM      2  C   UNL     1     -10.377 -13.540  -7.350  1.00  0.00    -0.027 C 
ATOM      3  C   UNL     1     -10.348 -12.085  -5.377  1.00  0.00     0.039 C 
ENDROOT
BRANCH   2   4
ATOM      4  C   UNL     1      -9.874 -14.221  -8.604  1.00  0.00     0.032 C 
BRANCH   4   5
ATOM      5  C   UNL     1      -8.795 -15.298  -8.368  1.00  0.00     0.034 C 
BRANCH   5   6
ATOM      6  C   UNL     1      -9.134 -16.245  -7.231  1.00  0.00    -0.077 C 
ATOM      7  C   UNL     1     -10.333 -17.144  -7.401  1.00  0.00     0.039 C 
ATOM      8  C   UNL     1      -8.473 -16.285  -6.048  1.00  0.00    -0.023 CG0
ATOM      9  G   UNL     1      -7.240 -15.495  -5.661  1.00  0.00     0.000 G0
ENDBRANCH   5   6
ENDBRANCH   4   5
ENDBRANCH   2   4
BRANCH   1  10
ATOM     10  C   UNL     1      -8.173 -12.468  -6.751  1.00  0.00     0.111 C 
BRANCH  10  11
ATOM     11  C   UNL     1      -7.329 -12.924  -5.590  1.00  0.00     0.163 C 
ATOM     12  O   UNL     1      -6.361 -12.197  -5.237  1.00  0.00    -0.294 OA
BRANCH  11  13
ATOM     13  C   UNL     1      -7.562 -14.223  -4.892  1.00  0.00    -0.002 C 
ATOM     14  C   UNL     1      -7.971 -14.252  -3.588  1.00  0.00    -0.069 C 
ATOM     15  C   UNL     1      -8.354 -12.984  -2.857  1.00  0.00     0.039 C 
ATOM     16  C   UNL     1      -8.062 -15.544  -2.806  1.00  0.00     0.039 C 
BRANCH  13  17
ATOM     17  C   UNL     1      -7.233 -15.493  -5.659  1.00  0.00     0.066 CG0
ATOM     18  G   UNL     1      -8.474 -16.276  -6.037  1.00  0.00     0.000 G0
ENDBRANCH  13  17
ENDBRANCH  11  13
ENDBRANCH  10  11
ENDBRANCH   1  10
TORSDOF 0
ENDMDL
