MODEL 1
REMARK VINA RESULT:    -5.681      0.000      0.000
REMARK INTER + INTRA:          -8.785
REMARK INTER:                  -7.673
REMARK INTRA:                  -1.112
REMARK UNBOUND:                -1.112
REMARK SMILES CC(=O)CCC=C(C)CCC=C(C)C
REMARK SMILES IDX 7 1 6 2 8 3 9 4 10 5 11 6 13 7 12 8 14 9 5 10 4 11 2 12 3 13
REMARK SMILES IDX 1 14
REMARK H PARENT
REMARK Flexibility Score: inf
ROOT
ATOM      1  C   UNL     1     -12.816 -19.395  29.545  1.00  0.00    -0.077 C 
ATOM      2  C   UNL     1     -11.731 -18.629  29.285  1.00  0.00    -0.028 C 
ATOM      3  C   UNL     1     -13.974 -19.494  28.579  1.00  0.00     0.039 C 
ENDROOT
BRANCH   1   4
ATOM      4  C   UNL     1     -12.861 -20.191  30.830  1.00  0.00     0.034 C 
BRANCH   4   5
ATOM      5  C   UNL     1     -12.570 -19.294  32.037  1.00  0.00     0.032 C 
BRANCH   5   6
ATOM      6  C   UNL     1     -13.466 -18.081  32.032  1.00  0.00    -0.028 C 
ATOM      7  C   UNL     1     -11.569 -16.481  32.380  1.00  0.00     0.039 C 
ATOM      8  C   UNL     1     -13.034 -16.812  32.211  1.00  0.00    -0.080 C 
ATOM      9  C   UNL     1     -14.053 -15.702  32.222  1.00  0.00     0.039 C 
ENDBRANCH   5   6
ENDBRANCH   4   5
ENDBRANCH   1   4
BRANCH   2  10
ATOM     10  C   UNL     1     -11.573 -17.750  28.067  1.00  0.00     0.035 C 
BRANCH  10  11
ATOM     11  C   UNL     1     -11.757 -16.266  28.410  1.00  0.00     0.079 C 
BRANCH  11  12
ATOM     12  C   UNL     1     -13.033 -15.715  27.826  1.00  0.00     0.130 C 
ATOM     13  O   UNL     1     -13.562 -14.743  28.343  1.00  0.00    -0.300 OA
ATOM     14  C   UNL     1     -13.668 -16.336  26.617  1.00  0.00     0.087 C 
ENDBRANCH  11  12
ENDBRANCH  10  11
ENDBRANCH   2  10
TORSDOF 6
ENDMDL
MODEL 2
REMARK VINA RESULT:    -5.454      1.584      3.454
REMARK INTER + INTRA:          -8.480
REMARK INTER:                  -7.345
REMARK INTRA:                  -1.134
REMARK UNBOUND:                -1.112
REMARK SMILES CC(=O)CCC=C(C)CCC=C(C)C
REMARK SMILES IDX 7 1 6 2 8 3 9 4 10 5 11 6 13 7 12 8 14 9 5 10 4 11 2 12 3 13
REMARK SMILES IDX 1 14
REMARK H PARENT
REMARK Flexibility Score: inf
ROOT
ATOM      1  C   UNL     1     -11.480 -16.259  31.193  1.00  0.00    -0.077 C 
ATOM      2  C   UNL     1     -11.855 -15.925  29.937  1.00  0.00    -0.028 C 
ATOM      3  C   UNL     1     -10.045 -16.584  31.538  1.00  0.00     0.039 C 
ENDROOT
BRANCH   1   4
ATOM      4  C   UNL     1     -12.523 -16.287  32.287  1.00  0.00     0.034 C 
BRANCH   4   5
ATOM      5  C   UNL     1     -13.608 -17.325  31.981  1.00  0.00     0.032 C 
BRANCH   5   6
ATOM      6  C   UNL     1     -13.084 -18.724  32.187  1.00  0.00    -0.028 C 
ATOM      7  C   UNL     1     -13.257 -19.320  29.760  1.00  0.00     0.039 C 
ATOM      8  C   UNL     1     -12.945 -19.641  31.203  1.00  0.00    -0.080 C 
ATOM      9  C   UNL     1     -12.446 -21.015  31.568  1.00  0.00     0.039 C 
ENDBRANCH   5   6
ENDBRANCH   4   5
ENDBRANCH   1   4
BRANCH   2  10
ATOM     10  C   UNL     1     -10.930 -15.902  28.743  1.00  0.00     0.035 C 
BRANCH  10  11
ATOM     11  C   UNL     1     -10.981 -17.220  27.959  1.00  0.00     0.079 C 
BRANCH  11  12
ATOM     12  C   UNL     1     -11.722 -17.061  26.655  1.00  0.00     0.130 C 
ATOM     13  O   UNL     1     -11.154 -17.322  25.605  1.00  0.00    -0.300 OA
ATOM     14  C   UNL     1     -13.145 -16.591  26.619  1.00  0.00     0.087 C 
ENDBRANCH  11  12
ENDBRANCH  10  11
ENDBRANCH   2  10
TORSDOF 6
ENDMDL
MODEL 3
REMARK VINA RESULT:    -5.289      1.816      4.066
REMARK INTER + INTRA:          -8.256
REMARK INTER:                  -7.525
REMARK INTRA:                  -0.731
REMARK UNBOUND:                -1.112
REMARK SMILES CC(=O)CCC=C(C)CCC=C(C)C
REMARK SMILES IDX 7 1 6 2 8 3 9 4 10 5 11 6 13 7 12 8 14 9 5 10 4 11 2 12 3 13
REMARK SMILES IDX 1 14
REMARK H PARENT
REMARK Flexibility Score: inf
ROOT
ATOM      1  C   UNL     1     -12.913 -19.348  30.596  1.00  0.00    -0.077 C 
ATOM      2  C   UNL     1     -13.554 -18.215  30.964  1.00  0.00    -0.028 C 
ATOM      3  C   UNL     1     -12.246 -20.253  31.605  1.00  0.00     0.039 C 
ENDROOT
BRANCH   1   4
ATOM      4  C   UNL     1     -12.883 -19.731  29.133  1.00  0.00     0.034 C 
BRANCH   4   5
ATOM      5  C   UNL     1     -12.725 -18.490  28.248  1.00  0.00     0.032 C 
BRANCH   5   6
ATOM      6  C   UNL     1     -11.535 -17.671  28.681  1.00  0.00    -0.028 C 
ATOM      7  C   UNL     1     -12.799 -15.509  28.621  1.00  0.00     0.039 C 
ATOM      8  C   UNL     1     -11.546 -16.327  28.828  1.00  0.00    -0.080 C 
ATOM      9  C   UNL     1     -10.267 -15.638  29.228  1.00  0.00     0.039 C 
ENDBRANCH   5   6
ENDBRANCH   4   5
ENDBRANCH   1   4
BRANCH   2  10
ATOM     10  C   UNL     1     -13.624 -17.690  32.379  1.00  0.00     0.035 C 
BRANCH  10  11
ATOM     11  C   UNL     1     -13.496 -16.162  32.425  1.00  0.00     0.079 C 
BRANCH  11  12
ATOM     12  C   UNL     1     -14.845 -15.491  32.382  1.00  0.00     0.130 C 
ATOM     13  O   UNL     1     -15.734 -15.877  33.126  1.00  0.00    -0.300 OA
ATOM     14  C   UNL     1     -15.120 -14.354  31.444  1.00  0.00     0.087 C 
ENDBRANCH  11  12
ENDBRANCH  10  11
ENDBRANCH   2  10
TORSDOF 6
ENDMDL
MODEL 4
REMARK VINA RESULT:    -5.284      1.793      4.314
REMARK INTER + INTRA:          -8.249
REMARK INTER:                  -7.241
REMARK INTRA:                  -1.007
REMARK UNBOUND:                -1.112
REMARK SMILES CC(=O)CCC=C(C)CCC=C(C)C
REMARK SMILES IDX 7 1 6 2 8 3 9 4 10 5 11 6 13 7 12 8 14 9 5 10 4 11 2 12 3 13
REMARK SMILES IDX 1 14
REMARK H PARENT
REMARK Flexibility Score: inf
ROOT
ATOM      1  C   UNL     1     -12.199 -18.577  30.395  1.00  0.00    -0.077 C 
ATOM      2  C   UNL     1     -12.298 -17.519  31.234  1.00  0.00    -0.028 C 
ATOM      3  C   UNL     1     -13.242 -19.670  30.360  1.00  0.00     0.039 C 
ENDROOT
BRANCH   1   4
ATOM      4  C   UNL     1     -11.019 -18.656  29.452  1.00  0.00     0.034 C 
BRANCH   4   5
ATOM      5  C   UNL     1     -10.836 -17.337  28.696  1.00  0.00     0.032 C 
BRANCH   5   6
ATOM      6  C   UNL     1     -11.831 -17.222  27.568  1.00  0.00    -0.028 C 
ATOM      7  C   UNL     1     -12.984 -15.238  28.572  1.00  0.00     0.039 C 
ATOM      8  C   UNL     1     -12.818 -16.300  27.511  1.00  0.00    -0.080 C 
ATOM      9  C   UNL     1     -13.764 -16.334  26.339  1.00  0.00     0.039 C 
ENDBRANCH   5   6
ENDBRANCH   4   5
ENDBRANCH   1   4
BRANCH   2  10
ATOM     10  C   UNL     1     -13.395 -17.336  32.257  1.00  0.00     0.035 C 
BRANCH  10  11
ATOM     11  C   UNL     1     -13.518 -15.873  32.701  1.00  0.00     0.079 C 
BRANCH  11  12
ATOM     12  C   UNL     1     -14.896 -15.324  32.426  1.00  0.00     0.130 C 
ATOM     13  O   UNL     1     -15.849 -15.744  33.065  1.00  0.00    -0.300 OA
ATOM     14  C   UNL     1     -15.121 -14.269  31.385  1.00  0.00     0.087 C 
ENDBRANCH  11  12
ENDBRANCH  10  11
ENDBRANCH   2  10
TORSDOF 6
ENDMDL
MODEL 5
REMARK VINA RESULT:    -5.209      1.866      3.193
REMARK INTER + INTRA:          -8.148
REMARK INTER:                  -7.336
REMARK INTRA:                  -0.812
REMARK UNBOUND:                -1.112
REMARK SMILES CC(=O)CCC=C(C)CCC=C(C)C
REMARK SMILES IDX 7 1 6 2 8 3 9 4 10 5 11 6 13 7 12 8 14 9 5 10 4 11 2 12 3 13
REMARK SMILES IDX 1 14
REMARK H PARENT
REMARK Flexibility Score: inf
ROOT
ATOM      1  C   UNL     1     -12.886 -15.615  30.045  1.00  0.00    -0.077 C 
ATOM      2  C   UNL     1     -11.579 -15.948  30.162  1.00  0.00    -0.028 C 
ATOM      3  C   UNL     1     -13.474 -15.132  28.740  1.00  0.00     0.039 C 
ENDROOT
BRANCH   1   4
ATOM      4  C   UNL     1     -13.787 -15.749  31.252  1.00  0.00     0.034 C 
BRANCH   4   5
ATOM      5  C   UNL     1     -13.163 -16.680  32.298  1.00  0.00     0.032 C 
BRANCH   5   6
ATOM      6  C   UNL     1     -13.353 -18.125  31.910  1.00  0.00    -0.028 C 
ATOM      7  C   UNL     1     -10.935 -18.696  32.235  1.00  0.00     0.039 C 
ATOM      8  C   UNL     1     -12.356 -19.037  31.852  1.00  0.00    -0.080 C 
ATOM      9  C   UNL     1     -12.690 -20.438  31.408  1.00  0.00     0.039 C 
ENDBRANCH   5   6
ENDBRANCH   4   5
ENDBRANCH   1   4
BRANCH   2  10
ATOM     10  C   UNL     1     -10.559 -15.819  29.055  1.00  0.00     0.035 C 
BRANCH  10  11
ATOM     11  C   UNL     1     -10.236 -17.178  28.420  1.00  0.00     0.079 C 
BRANCH  11  12
ATOM     12  C   UNL     1     -11.330 -17.629  27.487  1.00  0.00     0.130 C 
ATOM     13  O   UNL     1     -12.210 -18.369  27.903  1.00  0.00    -0.300 OA
ATOM     14  C   UNL     1     -11.365 -17.187  26.055  1.00  0.00     0.087 C 
ENDBRANCH  11  12
ENDBRANCH  10  11
ENDBRANCH   2  10
TORSDOF 6
ENDMDL
MODEL 6
REMARK VINA RESULT:    -5.163      2.279      3.654
REMARK INTER + INTRA:          -8.085
REMARK INTER:                  -6.887
REMARK INTRA:                  -1.198
REMARK UNBOUND:                -1.112
REMARK SMILES CC(=O)CCC=C(C)CCC=C(C)C
REMARK SMILES IDX 7 1 6 2 8 3 9 4 10 5 11 6 13 7 12 8 14 9 5 10 4 11 2 12 3 13
REMARK SMILES IDX 1 14
REMARK H PARENT
REMARK Flexibility Score: inf
ROOT
ATOM      1  C   UNL     1     -10.736 -18.384  31.836  1.00  0.00    -0.077 C 
ATOM      2  C   UNL     1     -11.779 -19.220  32.049  1.00  0.00    -0.028 C 
ATOM      3  C   UNL     1      -9.951 -18.399  30.545  1.00  0.00     0.039 C 
ENDROOT
BRANCH   1   4
ATOM      4  C   UNL     1     -10.360 -17.392  32.914  1.00  0.00     0.034 C 
BRANCH   4   5
ATOM      5  C   UNL     1     -10.900 -15.997  32.585  1.00  0.00     0.032 C 
BRANCH   5   6
ATOM      6  C   UNL     1     -12.337 -15.862  33.023  1.00  0.00    -0.028 C 
ATOM      7  C   UNL     1     -13.230 -15.983  30.686  1.00  0.00     0.039 C 
ATOM      8  C   UNL     1     -13.393 -15.828  32.180  1.00  0.00    -0.080 C 
ATOM      9  C   UNL     1     -14.771 -15.647  32.763  1.00  0.00     0.039 C 
ENDBRANCH   5   6
ENDBRANCH   4   5
ENDBRANCH   1   4
BRANCH   2  10
ATOM     10  C   UNL     1     -12.234 -20.287  31.082  1.00  0.00     0.035 C 
BRANCH  10  11
ATOM     11  C   UNL     1     -13.606 -19.960  30.480  1.00  0.00     0.079 C 
BRANCH  11  12
ATOM     12  C   UNL     1     -13.533 -19.806  28.982  1.00  0.00     0.130 C 
ATOM     13  O   UNL     1     -14.048 -20.649  28.264  1.00  0.00    -0.300 OA
ATOM     14  C   UNL     1     -12.840 -18.635  28.352  1.00  0.00     0.087 C 
ENDBRANCH  11  12
ENDBRANCH  10  11
ENDBRANCH   2  10
TORSDOF 6
ENDMDL
MODEL 7
REMARK VINA RESULT:    -5.134      1.239      2.366
REMARK INTER + INTRA:          -8.046
REMARK INTER:                  -6.887
REMARK INTRA:                  -1.159
REMARK UNBOUND:                -1.112
REMARK SMILES CC(=O)CCC=C(C)CCC=C(C)C
REMARK SMILES IDX 7 1 6 2 8 3 9 4 10 5 11 6 13 7 12 8 14 9 5 10 4 11 2 12 3 13
REMARK SMILES IDX 1 14
REMARK H PARENT
REMARK Flexibility Score: inf
ROOT
ATOM      1  C   UNL     1     -11.916 -18.499  31.387  1.00  0.00    -0.077 C 
ATOM      2  C   UNL     1     -11.564 -18.250  30.104  1.00  0.00    -0.028 C 
ATOM      3  C   UNL     1     -12.931 -19.560  31.745  1.00  0.00     0.039 C 
ENDROOT
BRANCH   1   4
ATOM      4  C   UNL     1     -11.261 -17.705  32.495  1.00  0.00     0.034 C 
BRANCH   4   5
ATOM      5  C   UNL     1     -11.566 -16.211  32.350  1.00  0.00     0.032 C 
BRANCH   5   6
ATOM      6  C   UNL     1     -12.948 -15.894  32.865  1.00  0.00    -0.028 C 
ATOM      7  C   UNL     1     -13.847 -15.357  30.589  1.00  0.00     0.039 C 
ATOM      8  C   UNL     1     -13.977 -15.485  32.089  1.00  0.00    -0.080 C 
ATOM      9  C   UNL     1     -15.293 -15.165  32.752  1.00  0.00     0.039 C 
ENDBRANCH   5   6
ENDBRANCH   4   5
ENDBRANCH   1   4
BRANCH   2  10
ATOM     10  C   UNL     1     -12.169 -18.932  28.901  1.00  0.00     0.035 C 
BRANCH  10  11
ATOM     11  C   UNL     1     -13.247 -18.064  28.238  1.00  0.00     0.079 C 
BRANCH  11  12
ATOM     12  C   UNL     1     -12.641 -17.034  27.319  1.00  0.00     0.130 C 
ATOM     13  O   UNL     1     -13.172 -15.939  27.208  1.00  0.00    -0.300 OA
ATOM     14  C   UNL     1     -11.395 -17.324  26.537  1.00  0.00     0.087 C 
ENDBRANCH  11  12
ENDBRANCH  10  11
ENDBRANCH   2  10
TORSDOF 6
ENDMDL
MODEL 8
REMARK VINA RESULT:    -5.095      1.583      4.482
REMARK INTER + INTRA:          -7.994
REMARK INTER:                  -7.118
REMARK INTRA:                  -0.876
REMARK UNBOUND:                -1.112
REMARK SMILES CC(=O)CCC=C(C)CCC=C(C)C
REMARK SMILES IDX 7 1 6 2 8 3 9 4 10 5 11 6 13 7 12 8 14 9 5 10 4 11 2 12 3 13
REMARK SMILES IDX 1 14
REMARK H PARENT
REMARK Flexibility Score: inf
ROOT
ATOM      1  C   UNL     1     -11.466 -17.087  31.790  1.00  0.00    -0.077 C 
ATOM      2  C   UNL     1     -11.511 -18.440  31.768  1.00  0.00    -0.028 C 
ATOM      3  C   UNL     1     -12.700 -16.251  32.042  1.00  0.00     0.039 C 
ENDROOT
BRANCH   1   4
ATOM      4  C   UNL     1     -10.140 -16.393  31.576  1.00  0.00     0.034 C 
BRANCH   4   5
ATOM      5  C   UNL     1     -10.181 -15.510  30.325  1.00  0.00     0.032 C 
BRANCH   5   6
ATOM      6  C   UNL     1     -10.301 -16.352  29.079  1.00  0.00    -0.028 C 
ATOM      7  C   UNL     1     -12.544 -15.416  28.470  1.00  0.00     0.039 C 
ATOM      8  C   UNL     1     -11.368 -16.340  28.249  1.00  0.00    -0.080 C 
ATOM      9  C   UNL     1     -11.365 -17.267  27.061  1.00  0.00     0.039 C 
ENDBRANCH   5   6
ENDBRANCH   4   5
ENDBRANCH   1   4
BRANCH   2  10
ATOM     10  C   UNL     1     -12.771 -19.259  31.920  1.00  0.00     0.035 C 
BRANCH  10  11
ATOM     11  C   UNL     1     -12.896 -20.317  30.816  1.00  0.00     0.079 C 
BRANCH  11  12
ATOM     12  C   UNL     1     -13.523 -19.746  29.569  1.00  0.00     0.130 C 
ATOM     13  O   UNL     1     -13.622 -18.535  29.445  1.00  0.00    -0.300 OA
ATOM     14  C   UNL     1     -14.028 -20.636  28.473  1.00  0.00     0.087 C 
ENDBRANCH  11  12
ENDBRANCH  10  11
ENDBRANCH   2  10
TORSDOF 6
ENDMDL
