MODEL 1
REMARK VINA RESULT:    -6.012      0.000      0.000
REMARK INTER + INTRA:          -7.643
REMARK INTER:                  -7.067
REMARK INTRA:                  -0.576
REMARK UNBOUND:                -0.576
REMARK SMILES C=C(C)[C@H]1CC[C@@]2(CO)CC[C@@]3(C)[C@H](CC[C@H]4[C@@]5(C)CC[C@@H](O)C(C)(C)[C@H]5CC[C@]43C)[C@@H]12
REMARK SMILES IDX 4 1 5 2 6 3 7 4 32 5 14 6 15 7 16 8 17 9 18 10 20 11 21 12
REMARK SMILES IDX 22 13 24 14 27 15 28 16 29 17 30 18 12 19 11 20 10 21 13 22
REMARK SMILES IDX 31 23 25 24 26 25 19 26 2 27 3 28 1 29 8 30 9 31 23 33
REMARK H PARENT 9 32 23 34
REMARK Flexibility Score: inf
ROOT
ATOM      1  C   UNL     1     134.683   4.237  79.680  1.00  0.00     0.018 C 
ATOM      2  C   UNL     1     134.280   5.581  79.072  1.00  0.00     0.009 C 
ATOM      3  C   UNL     1     133.986   5.308  77.611  1.00  0.00     0.010 C 
ATOM      4  C   UNL     1     133.437   3.864  77.537  1.00  0.00    -0.003 C 
ATOM      5  C   UNL     1     133.977   3.128  78.815  1.00  0.00     0.008 C 
ATOM      6  C   UNL     1     134.836   1.842  78.512  1.00  0.00    -0.000 C 
ATOM      7  C   UNL     1     135.272   1.081  79.775  1.00  0.00     0.005 C 
ATOM      8  C   UNL     1     134.237   0.097  80.281  1.00  0.00     0.005 C 
ATOM      9  C   UNL     1     133.859  -1.001  79.242  1.00  0.00     0.002 C 
ATOM     10  C   UNL     1     132.923  -2.192  79.840  1.00  0.00    -0.026 C 
ATOM     11  C   UNL     1     133.105  -2.303  81.396  1.00  0.00     0.010 C 
ATOM     12  C   UNL     1     132.144  -3.254  82.110  1.00  0.00     0.033 C 
ATOM     13  C   UNL     1     130.693  -2.816  81.889  1.00  0.00     0.120 C 
ATOM     14  C   UNL     1     130.318  -2.801  80.381  1.00  0.00    -0.006 C 
ATOM     15  C   UNL     1     131.376  -1.985  79.496  1.00  0.00     0.003 C 
ATOM     16  C   UNL     1     131.076  -0.474  79.377  1.00  0.00     0.005 C 
ATOM     17  C   UNL     1     131.871   0.225  78.248  1.00  0.00     0.008 C 
ATOM     18  C   UNL     1     133.308  -0.315  77.929  1.00  0.00    -0.024 C 
ATOM     19  C   UNL     1     134.308   0.858  77.384  1.00  0.00    -0.024 C 
ATOM     20  C   UNL     1     133.644   1.680  76.209  1.00  0.00     0.008 C 
ATOM     21  C   UNL     1     133.941   3.186  76.235  1.00  0.00     0.010 C 
ATOM     22  C   UNL     1     135.603   0.210  76.765  1.00  0.00     0.012 C 
ATOM     23  C   UNL     1     133.179  -1.374  76.779  1.00  0.00     0.012 C 
ATOM     24  C   UNL     1     128.875  -2.232  80.250  1.00  0.00     0.014 C 
ATOM     25  C   UNL     1     130.198  -4.266  79.864  1.00  0.00     0.014 C 
ATOM     26  C   UNL     1     133.434  -3.532  79.218  1.00  0.00     0.012 C 
ENDROOT
BRANCH   1  27
ATOM     27  C   UNL     1     136.209   4.174  79.864  1.00  0.00    -0.077 C 
ATOM     28  C   UNL     1     136.790   3.990  81.244  1.00  0.00     0.039 C 
ATOM     29  C   UNL     1     137.067   4.379  78.848  1.00  0.00     0.008 C 
ENDBRANCH   1  27
BRANCH   4  30
ATOM     30  C   UNL     1     131.877   3.957  77.514  1.00  0.00     0.163 C 
BRANCH  30  31
ATOM     31  O   UNL     1     131.330   3.611  78.759  1.00  0.00    -0.396 OA
ATOM     32  H   UNL     1     131.420   4.414  79.336  1.00  0.00     0.210 HD
ENDBRANCH  30  31
ENDBRANCH   4  30
BRANCH  13  33
ATOM     33  O   UNL     1     130.491  -1.545  82.458  1.00  0.00    -0.393 OA
ATOM     34  H   UNL     1     130.424  -1.673  83.441  1.00  0.00     0.210 HD
ENDBRANCH  13  33
TORSDOF 4
ENDMDL
MODEL 2
REMARK VINA RESULT:    -5.699      1.418      1.941
REMARK INTER + INTRA:          -7.275
REMARK INTER:                  -6.733
REMARK INTRA:                  -0.542
REMARK UNBOUND:                -0.576
REMARK SMILES C=C(C)[C@H]1CC[C@@]2(CO)CC[C@@]3(C)[C@H](CC[C@H]4[C@@]5(C)CC[C@@H](O)C(C)(C)[C@H]5CC[C@]43C)[C@@H]12
REMARK SMILES IDX 4 1 5 2 6 3 7 4 32 5 14 6 15 7 16 8 17 9 18 10 20 11 21 12
REMARK SMILES IDX 22 13 24 14 27 15 28 16 29 17 30 18 12 19 11 20 10 21 13 22
REMARK SMILES IDX 31 23 25 24 26 25 19 26 2 27 3 28 1 29 8 30 9 31 23 33
REMARK H PARENT 9 32 23 34
REMARK Flexibility Score: inf
ROOT
ATOM      1  C   UNL     1     135.416   3.438  81.339  1.00  0.00     0.018 C 
ATOM      2  C   UNL     1     135.155   4.869  81.811  1.00  0.00     0.009 C 
ATOM      3  C   UNL     1     134.253   5.497  80.769  1.00  0.00     0.010 C 
ATOM      4  C   UNL     1     133.377   4.355  80.202  1.00  0.00    -0.003 C 
ATOM      5  C   UNL     1     134.173   3.027  80.463  1.00  0.00     0.008 C 
ATOM      6  C   UNL     1     134.493   2.193  79.166  1.00  0.00    -0.000 C 
ATOM      7  C   UNL     1     135.185   0.850  79.450  1.00  0.00     0.005 C 
ATOM      8  C   UNL     1     134.222  -0.277  79.765  1.00  0.00     0.005 C 
ATOM      9  C   UNL     1     133.205  -0.566  78.621  1.00  0.00     0.002 C 
ATOM     10  C   UNL     1     132.314  -1.911  78.844  1.00  0.00    -0.026 C 
ATOM     11  C   UNL     1     133.059  -2.909  79.801  1.00  0.00     0.010 C 
ATOM     12  C   UNL     1     132.251  -4.129  80.245  1.00  0.00     0.033 C 
ATOM     13  C   UNL     1     130.990  -3.692  80.997  1.00  0.00     0.120 C 
ATOM     14  C   UNL     1     130.069  -2.806  80.112  1.00  0.00    -0.006 C 
ATOM     15  C   UNL     1     130.861  -1.592  79.429  1.00  0.00     0.003 C 
ATOM     16  C   UNL     1     130.927  -0.311  80.289  1.00  0.00     0.005 C 
ATOM     17  C   UNL     1     131.361   0.944  79.494  1.00  0.00     0.008 C 
ATOM     18  C   UNL     1     132.373   0.742  78.313  1.00  0.00    -0.024 C 
ATOM     19  C   UNL     1     133.337   2.043  78.088  1.00  0.00    -0.024 C 
ATOM     20  C   UNL     1     132.492   3.377  78.003  1.00  0.00     0.008 C 
ATOM     21  C   UNL     1     133.142   4.588  78.687  1.00  0.00     0.010 C 
ATOM     22  C   UNL     1     134.077   1.925  76.703  1.00  0.00     0.012 C 
ATOM     23  C   UNL     1     131.542   0.557  76.996  1.00  0.00     0.012 C 
ATOM     24  C   UNL     1     128.883  -2.316  80.993  1.00  0.00     0.014 C 
ATOM     25  C   UNL     1     129.394  -3.691  79.022  1.00  0.00     0.014 C 
ATOM     26  C   UNL     1     132.187  -2.613  77.452  1.00  0.00     0.012 C 
ENDROOT
BRANCH   1  27
ATOM     27  C   UNL     1     136.822   3.329  80.726  1.00  0.00    -0.077 C 
ATOM     28  C   UNL     1     137.872   2.486  81.407  1.00  0.00     0.039 C 
ATOM     29  C   UNL     1     137.197   4.042  79.648  1.00  0.00     0.008 C 
ENDBRANCH   1  27
BRANCH   4  30
ATOM     30  C   UNL     1     132.010   4.393  80.960  1.00  0.00     0.163 C 
BRANCH  30  31
ATOM     31  O   UNL     1     131.876   3.291  81.819  1.00  0.00    -0.396 OA
ATOM     32  H   UNL     1     131.223   2.679  81.387  1.00  0.00     0.210 HD
ENDBRANCH  30  31
ENDBRANCH   4  30
BRANCH  13  33
ATOM     33  O   UNL     1     131.353  -3.005  82.170  1.00  0.00    -0.393 OA
ATOM     34  H   UNL     1     130.541  -2.955  82.741  1.00  0.00     0.210 HD
ENDBRANCH  13  33
TORSDOF 4
ENDMDL
MODEL 3
REMARK VINA RESULT:    -5.452      1.712      2.801
REMARK INTER + INTRA:          -6.985
REMARK INTER:                  -6.407
REMARK INTRA:                  -0.578
REMARK UNBOUND:                -0.576
REMARK SMILES C=C(C)[C@H]1CC[C@@]2(CO)CC[C@@]3(C)[C@H](CC[C@H]4[C@@]5(C)CC[C@@H](O)C(C)(C)[C@H]5CC[C@]43C)[C@@H]12
REMARK SMILES IDX 4 1 5 2 6 3 7 4 32 5 14 6 15 7 16 8 17 9 18 10 20 11 21 12
REMARK SMILES IDX 22 13 24 14 27 15 28 16 29 17 30 18 12 19 11 20 10 21 13 22
REMARK SMILES IDX 31 23 25 24 26 25 19 26 2 27 3 28 1 29 8 30 9 31 23 33
REMARK H PARENT 9 32 23 34
REMARK Flexibility Score: inf
ROOT
ATOM      1  C   UNL     1     132.054   3.988  78.097  1.00  0.00     0.018 C 
ATOM      2  C   UNL     1     132.246   4.484  76.662  1.00  0.00     0.009 C 
ATOM      3  C   UNL     1     133.515   3.828  76.159  1.00  0.00     0.010 C 
ATOM      4  C   UNL     1     133.609   2.454  76.864  1.00  0.00    -0.003 C 
ATOM      5  C   UNL     1     132.760   2.583  78.179  1.00  0.00     0.008 C 
ATOM      6  C   UNL     1     133.561   2.293  79.504  1.00  0.00    -0.000 C 
ATOM      7  C   UNL     1     132.691   2.327  80.771  1.00  0.00     0.005 C 
ATOM      8  C   UNL     1     132.000   1.011  81.070  1.00  0.00     0.005 C 
ATOM      9  C   UNL     1     132.984  -0.180  81.271  1.00  0.00     0.002 C 
ATOM     10  C   UNL     1     132.278  -1.544  81.812  1.00  0.00    -0.026 C 
ATOM     11  C   UNL     1     130.942  -1.209  82.565  1.00  0.00     0.010 C 
ATOM     12  C   UNL     1     130.083  -2.411  82.958  1.00  0.00     0.033 C 
ATOM     13  C   UNL     1     129.673  -3.208  81.716  1.00  0.00     0.120 C 
ATOM     14  C   UNL     1     130.910  -3.738  80.939  1.00  0.00    -0.006 C 
ATOM     15  C   UNL     1     131.983  -2.587  80.637  1.00  0.00     0.003 C 
ATOM     16  C   UNL     1     131.739  -1.818  79.320  1.00  0.00     0.005 C 
ATOM     17  C   UNL     1     132.955  -0.978  78.862  1.00  0.00     0.008 C 
ATOM     18  C   UNL     1     133.869  -0.355  79.973  1.00  0.00    -0.024 C 
ATOM     19  C   UNL     1     134.553   1.053  79.503  1.00  0.00    -0.024 C 
ATOM     20  C   UNL     1     135.249   0.911  78.090  1.00  0.00     0.008 C 
ATOM     21  C   UNL     1     135.094   2.135  77.176  1.00  0.00     0.010 C 
ATOM     22  C   UNL     1     135.705   1.447  80.501  1.00  0.00     0.012 C 
ATOM     23  C   UNL     1     135.041  -1.360  80.251  1.00  0.00     0.012 C 
ATOM     24  C   UNL     1     130.401  -4.426  79.638  1.00  0.00     0.014 C 
ATOM     25  C   UNL     1     131.571  -4.895  81.747  1.00  0.00     0.014 C 
ATOM     26  C   UNL     1     133.251  -2.179  82.858  1.00  0.00     0.012 C 
ENDROOT
BRANCH   1  27
ATOM     27  C   UNL     1     132.466   5.082  79.096  1.00  0.00    -0.077 C 
ATOM     28  C   UNL     1     131.451   5.624  80.073  1.00  0.00     0.039 C 
ATOM     29  C   UNL     1     133.680   5.661  79.073  1.00  0.00     0.008 C 
ENDBRANCH   1  27
BRANCH   4  30
ATOM     30  C   UNL     1     133.034   1.383  75.881  1.00  0.00     0.163 C 
BRANCH  30  31
ATOM     31  O   UNL     1     131.734   1.004  76.250  1.00  0.00    -0.396 OA
ATOM     32  H   UNL     1     131.541   1.465  77.108  1.00  0.00     0.210 HD
ENDBRANCH  30  31
ENDBRANCH   4  30
BRANCH  13  33
ATOM     33  O   UNL     1     128.875  -2.404  80.881  1.00  0.00    -0.393 OA
ATOM     34  H   UNL     1     127.951  -2.766  80.925  1.00  0.00     0.210 HD
ENDBRANCH  13  33
TORSDOF 4
ENDMDL
MODEL 4
REMARK VINA RESULT:    -5.394      1.671      7.293
REMARK INTER + INTRA:          -6.917
REMARK INTER:                  -6.471
REMARK INTRA:                  -0.446
REMARK UNBOUND:                -0.576
REMARK SMILES C=C(C)[C@H]1CC[C@@]2(CO)CC[C@@]3(C)[C@H](CC[C@H]4[C@@]5(C)CC[C@@H](O)C(C)(C)[C@H]5CC[C@]43C)[C@@H]12
REMARK SMILES IDX 4 1 5 2 6 3 7 4 32 5 14 6 15 7 16 8 17 9 18 10 20 11 21 12
REMARK SMILES IDX 22 13 24 14 27 15 28 16 29 17 30 18 12 19 11 20 10 21 13 22
REMARK SMILES IDX 31 23 25 24 26 25 19 26 2 27 3 28 1 29 8 30 9 31 23 33
REMARK H PARENT 9 32 23 34
REMARK Flexibility Score: inf
ROOT
ATOM      1  C   UNL     1     129.896  -2.444  80.568  1.00  0.00     0.018 C 
ATOM      2  C   UNL     1     129.209  -2.829  81.879  1.00  0.00     0.009 C 
ATOM      3  C   UNL     1     130.235  -2.604  82.971  1.00  0.00     0.010 C 
ATOM      4  C   UNL     1     131.121  -1.425  82.504  1.00  0.00    -0.003 C 
ATOM      5  C   UNL     1     130.999  -1.384  80.939  1.00  0.00     0.008 C 
ATOM      6  C   UNL     1     132.370  -1.523  80.175  1.00  0.00    -0.000 C 
ATOM      7  C   UNL     1     132.243  -1.382  78.649  1.00  0.00     0.005 C 
ATOM      8  C   UNL     1     132.282   0.054  78.165  1.00  0.00     0.005 C 
ATOM      9  C   UNL     1     133.592   0.806  78.546  1.00  0.00     0.002 C 
ATOM     10  C   UNL     1     133.749   2.269  77.847  1.00  0.00    -0.026 C 
ATOM     11  C   UNL     1     132.898   2.341  76.529  1.00  0.00     0.010 C 
ATOM     12  C   UNL     1     132.805   3.719  75.875  1.00  0.00     0.033 C 
ATOM     13  C   UNL     1     132.172   4.729  76.837  1.00  0.00     0.120 C 
ATOM     14  C   UNL     1     133.000   4.876  78.144  1.00  0.00    -0.006 C 
ATOM     15  C   UNL     1     133.327   3.461  78.823  1.00  0.00     0.003 C 
ATOM     16  C   UNL     1     132.245   2.960  79.805  1.00  0.00     0.005 C 
ATOM     17  C   UNL     1     132.725   1.803  80.713  1.00  0.00     0.008 C 
ATOM     18  C   UNL     1     133.767   0.795  80.117  1.00  0.00    -0.024 C 
ATOM     19  C   UNL     1     133.610  -0.708  80.741  1.00  0.00    -0.024 C 
ATOM     20  C   UNL     1     133.565  -0.673  82.321  1.00  0.00     0.008 C 
ATOM     21  C   UNL     1     132.585  -1.670  82.954  1.00  0.00     0.010 C 
ATOM     22  C   UNL     1     134.873  -1.573  80.375  1.00  0.00     0.012 C 
ATOM     23  C   UNL     1     135.200   1.301  80.504  1.00  0.00     0.012 C 
ATOM     24  C   UNL     1     132.220   5.824  79.102  1.00  0.00     0.014 C 
ATOM     25  C   UNL     1     134.319   5.646  77.837  1.00  0.00     0.014 C 
ATOM     26  C   UNL     1     135.250   2.421  77.436  1.00  0.00     0.012 C 
ENDROOT
BRANCH   1  27
ATOM     27  C   UNL     1     130.313  -3.708  79.797  1.00  0.00    -0.077 C 
ATOM     28  C   UNL     1     129.854  -3.901  78.372  1.00  0.00     0.039 C 
ATOM     29  C   UNL     1     130.995  -4.714  80.374  1.00  0.00     0.008 C 
ENDBRANCH   1  27
BRANCH   4  30
ATOM     30  C   UNL     1     130.570  -0.128  83.182  1.00  0.00     0.163 C 
BRANCH  30  31
ATOM     31  O   UNL     1     130.853  -0.115  84.556  1.00  0.00    -0.396 OA
ATOM     32  H   UNL     1     130.283  -0.818  84.966  1.00  0.00     0.210 HD
ENDBRANCH  30  31
ENDBRANCH   4  30
BRANCH  13  33
ATOM     33  O   UNL     1     130.853   4.338  77.132  1.00  0.00    -0.393 OA
ATOM     34  H   UNL     1     130.677   4.594  78.075  1.00  0.00     0.210 HD
ENDBRANCH  13  33
TORSDOF 4
ENDMDL
MODEL 5
REMARK VINA RESULT:    -5.209      2.192      7.151
REMARK INTER + INTRA:          -6.699
REMARK INTER:                  -6.273
REMARK INTRA:                  -0.427
REMARK UNBOUND:                -0.576
REMARK SMILES C=C(C)[C@H]1CC[C@@]2(CO)CC[C@@]3(C)[C@H](CC[C@H]4[C@@]5(C)CC[C@@H](O)C(C)(C)[C@H]5CC[C@]43C)[C@@H]12
REMARK SMILES IDX 4 1 5 2 6 3 7 4 32 5 14 6 15 7 16 8 17 9 18 10 20 11 21 12
REMARK SMILES IDX 22 13 24 14 27 15 28 16 29 17 30 18 12 19 11 20 10 21 13 22
REMARK SMILES IDX 31 23 25 24 26 25 19 26 2 27 3 28 1 29 8 30 9 31 23 33
REMARK H PARENT 9 32 23 34
REMARK Flexibility Score: inf
ROOT
ATOM      1  C   UNL     1     131.597  -1.717  80.119  1.00  0.00     0.018 C 
ATOM      2  C   UNL     1     132.491  -2.908  80.464  1.00  0.00     0.009 C 
ATOM      3  C   UNL     1     133.730  -2.764  79.604  1.00  0.00     0.010 C 
ATOM      4  C   UNL     1     133.956  -1.245  79.411  1.00  0.00    -0.003 C 
ATOM      5  C   UNL     1     132.556  -0.568  79.630  1.00  0.00     0.008 C 
ATOM      6  C   UNL     1     132.043   0.279  78.404  1.00  0.00    -0.000 C 
ATOM      7  C   UNL     1     130.720   1.014  78.673  1.00  0.00     0.005 C 
ATOM      8  C   UNL     1     130.896   2.360  79.347  1.00  0.00     0.005 C 
ATOM      9  C   UNL     1     131.769   3.358  78.529  1.00  0.00     0.002 C 
ATOM     10  C   UNL     1     131.785   4.874  79.125  1.00  0.00    -0.026 C 
ATOM     11  C   UNL     1     130.498   5.138  79.985  1.00  0.00     0.010 C 
ATOM     12  C   UNL     1     130.476   6.457  80.758  1.00  0.00     0.033 C 
ATOM     13  C   UNL     1     131.653   6.526  81.735  1.00  0.00     0.120 C 
ATOM     14  C   UNL     1     133.019   6.425  81.000  1.00  0.00    -0.006 C 
ATOM     15  C   UNL     1     133.086   5.173  80.003  1.00  0.00     0.003 C 
ATOM     16  C   UNL     1     133.572   3.861  80.659  1.00  0.00     0.005 C 
ATOM     17  C   UNL     1     133.978   2.774  79.636  1.00  0.00     0.008 C 
ATOM     18  C   UNL     1     133.196   2.725  78.277  1.00  0.00    -0.024 C 
ATOM     19  C   UNL     1     133.096   1.212  77.667  1.00  0.00    -0.024 C 
ATOM     20  C   UNL     1     134.513   0.513  77.630  1.00  0.00     0.008 C 
ATOM     21  C   UNL     1     134.498  -0.982  77.982  1.00  0.00     0.010 C 
ATOM     22  C   UNL     1     132.616   1.271  76.169  1.00  0.00     0.012 C 
ATOM     23  C   UNL     1     133.991   3.585  77.234  1.00  0.00     0.012 C 
ATOM     24  C   UNL     1     134.143   6.382  82.078  1.00  0.00     0.014 C 
ATOM     25  C   UNL     1     133.287   7.749  80.224  1.00  0.00     0.014 C 
ATOM     26  C   UNL     1     131.731   5.847  77.902  1.00  0.00     0.012 C 
ENDROOT
BRANCH   1  27
ATOM     27  C   UNL     1     130.448  -2.164  79.200  1.00  0.00    -0.077 C 
ATOM     28  C   UNL     1     129.018  -1.990  79.651  1.00  0.00     0.039 C 
ATOM     29  C   UNL     1     130.661  -2.805  78.037  1.00  0.00     0.008 C 
ENDBRANCH   1  27
BRANCH   4  30
ATOM     30  C   UNL     1     135.013  -0.790  80.469  1.00  0.00     0.163 C 
BRANCH  30  31
ATOM     31  O   UNL     1     135.687  -1.892  81.018  1.00  0.00    -0.396 OA
ATOM     32  H   UNL     1     136.250  -1.535  81.755  1.00  0.00     0.210 HD
ENDBRANCH  30  31
ENDBRANCH   4  30
BRANCH  13  33
ATOM     33  O   UNL     1     131.534   5.501  82.693  1.00  0.00    -0.393 OA
ATOM     34  H   UNL     1     130.632   5.101  82.580  1.00  0.00     0.210 HD
ENDBRANCH  13  33
TORSDOF 4
ENDMDL
MODEL 6
REMARK VINA RESULT:    -5.200      1.894      7.272
REMARK INTER + INTRA:          -6.689
REMARK INTER:                  -6.116
REMARK INTRA:                  -0.572
REMARK UNBOUND:                -0.576
REMARK SMILES C=C(C)[C@H]1CC[C@@]2(CO)CC[C@@]3(C)[C@H](CC[C@H]4[C@@]5(C)CC[C@@H](O)C(C)(C)[C@H]5CC[C@]43C)[C@@H]12
REMARK SMILES IDX 4 1 5 2 6 3 7 4 32 5 14 6 15 7 16 8 17 9 18 10 20 11 21 12
REMARK SMILES IDX 22 13 24 14 27 15 28 16 29 17 30 18 12 19 11 20 10 21 13 22
REMARK SMILES IDX 31 23 25 24 26 25 19 26 2 27 3 28 1 29 8 30 9 31 23 33
REMARK H PARENT 9 32 23 34
REMARK Flexibility Score: inf
ROOT
ATOM      1  C   UNL     1     131.343  -2.714  82.024  1.00  0.00     0.018 C 
ATOM      2  C   UNL     1     131.785  -4.169  81.868  1.00  0.00     0.009 C 
ATOM      3  C   UNL     1     131.701  -4.476  80.387  1.00  0.00     0.010 C 
ATOM      4  C   UNL     1     132.010  -3.153  79.647  1.00  0.00    -0.003 C 
ATOM      5  C   UNL     1     131.672  -2.001  80.659  1.00  0.00     0.008 C 
ATOM      6  C   UNL     1     130.594  -0.975  80.143  1.00  0.00    -0.000 C 
ATOM      7  C   UNL     1     130.349   0.199  81.105  1.00  0.00     0.005 C 
ATOM      8  C   UNL     1     131.321   1.348  80.924  1.00  0.00     0.005 C 
ATOM      9  C   UNL     1     131.297   1.967  79.495  1.00  0.00     0.002 C 
ATOM     10  C   UNL     1     132.165   3.338  79.347  1.00  0.00    -0.026 C 
ATOM     11  C   UNL     1     132.323   4.040  80.742  1.00  0.00     0.010 C 
ATOM     12  C   UNL     1     133.275   5.235  80.778  1.00  0.00     0.033 C 
ATOM     13  C   UNL     1     134.687   4.810  80.362  1.00  0.00     0.120 C 
ATOM     14  C   UNL     1     134.711   4.224  78.923  1.00  0.00    -0.006 C 
ATOM     15  C   UNL     1     133.608   3.081  78.710  1.00  0.00     0.003 C 
ATOM     16  C   UNL     1     134.085   1.659  79.079  1.00  0.00     0.005 C 
ATOM     17  C   UNL     1     133.164   0.540  78.536  1.00  0.00     0.008 C 
ATOM     18  C   UNL     1     131.630   0.848  78.430  1.00  0.00    -0.024 C 
ATOM     19  C   UNL     1     130.709  -0.487  78.636  1.00  0.00    -0.024 C 
ATOM     20  C   UNL     1     131.202  -1.673  77.714  1.00  0.00     0.008 C 
ATOM     21  C   UNL     1     131.136  -3.061  78.369  1.00  0.00     0.010 C 
ATOM     22  C   UNL     1     129.231  -0.191  78.185  1.00  0.00     0.012 C 
ATOM     23  C   UNL     1     131.346   1.378  76.982  1.00  0.00     0.012 C 
ATOM     24  C   UNL     1     136.154   3.713  78.637  1.00  0.00     0.014 C 
ATOM     25  C   UNL     1     134.503   5.374  77.893  1.00  0.00     0.014 C 
ATOM     26  C   UNL     1     131.342   4.304  78.434  1.00  0.00     0.012 C 
ENDROOT
BRANCH   1  27
ATOM     27  C   UNL     1     129.905  -2.651  82.564  1.00  0.00    -0.077 C 
ATOM     28  C   UNL     1     129.630  -1.981  83.888  1.00  0.00     0.039 C 
ATOM     29  C   UNL     1     128.875  -3.264  81.951  1.00  0.00     0.008 C 
ENDBRANCH   1  27
BRANCH   4  30
ATOM     30  C   UNL     1     133.522  -3.179  79.252  1.00  0.00     0.163 C 
BRANCH  30  31
ATOM     31  O   UNL     1     134.275  -2.323  80.070  1.00  0.00    -0.396 OA
ATOM     32  H   UNL     1     135.229  -2.530  79.888  1.00  0.00     0.210 HD
ENDBRANCH  30  31
ENDBRANCH   4  30
BRANCH  13  33
ATOM     33  O   UNL     1     135.189   3.873  81.284  1.00  0.00    -0.393 OA
ATOM     34  H   UNL     1     135.016   4.235  82.192  1.00  0.00     0.210 HD
ENDBRANCH  13  33
TORSDOF 4
ENDMDL
MODEL 7
REMARK VINA RESULT:    -5.198     14.150     18.376
REMARK INTER + INTRA:          -6.686
REMARK INTER:                  -6.218
REMARK INTRA:                  -0.468
REMARK UNBOUND:                -0.576
REMARK SMILES C=C(C)[C@H]1CC[C@@]2(CO)CC[C@@]3(C)[C@H](CC[C@H]4[C@@]5(C)CC[C@@H](O)C(C)(C)[C@H]5CC[C@]43C)[C@@H]12
REMARK SMILES IDX 4 1 5 2 6 3 7 4 32 5 14 6 15 7 16 8 17 9 18 10 20 11 21 12
REMARK SMILES IDX 22 13 24 14 27 15 28 16 29 17 30 18 12 19 11 20 10 21 13 22
REMARK SMILES IDX 31 23 25 24 26 25 19 26 2 27 3 28 1 29 8 30 9 31 23 33
REMARK H PARENT 9 32 23 34
REMARK Flexibility Score: inf
ROOT
ATOM      1  C   UNL     1     145.810   9.166  92.804  1.00  0.00     0.018 C 
ATOM      2  C   UNL     1     146.810   9.115  93.959  1.00  0.00     0.009 C 
ATOM      3  C   UNL     1     147.015   7.647  94.270  1.00  0.00     0.010 C 
ATOM      4  C   UNL     1     146.847   6.887  92.934  1.00  0.00    -0.003 C 
ATOM      5  C   UNL     1     145.971   7.813  92.016  1.00  0.00     0.008 C 
ATOM      6  C   UNL     1     144.635   7.150  91.508  1.00  0.00    -0.000 C 
ATOM      7  C   UNL     1     143.840   8.034  90.533  1.00  0.00     0.005 C 
ATOM      8  C   UNL     1     144.286   7.904  89.090  1.00  0.00     0.005 C 
ATOM      9  C   UNL     1     144.170   6.455  88.530  1.00  0.00     0.002 C 
ATOM     10  C   UNL     1     144.429   6.337  86.926  1.00  0.00    -0.026 C 
ATOM     11  C   UNL     1     144.143   7.711  86.222  1.00  0.00     0.010 C 
ATOM     12  C   UNL     1     144.529   7.792  84.745  1.00  0.00     0.033 C 
ATOM     13  C   UNL     1     146.028   7.536  84.567  1.00  0.00     0.120 C 
ATOM     14  C   UNL     1     146.439   6.132  85.091  1.00  0.00    -0.006 C 
ATOM     15  C   UNL     1     145.914   5.857  86.580  1.00  0.00     0.003 C 
ATOM     16  C   UNL     1     146.876   6.330  87.692  1.00  0.00     0.005 C 
ATOM     17  C   UNL     1     146.543   5.745  89.085  1.00  0.00     0.008 C 
ATOM     18  C   UNL     1     145.035   5.475  89.419  1.00  0.00    -0.024 C 
ATOM     19  C   UNL     1     144.707   5.643  91.012  1.00  0.00    -0.024 C 
ATOM     20  C   UNL     1     145.728   4.825  91.898  1.00  0.00     0.008 C 
ATOM     21  C   UNL     1     146.152   5.526  93.197  1.00  0.00     0.010 C 
ATOM     22  C   UNL     1     143.291   5.036  91.333  1.00  0.00     0.012 C 
ATOM     23  C   UNL     1     144.720   3.985  89.045  1.00  0.00     0.012 C 
ATOM     24  C   UNL     1     147.987   6.011  84.980  1.00  0.00     0.014 C 
ATOM     25  C   UNL     1     145.901   5.040  84.119  1.00  0.00     0.014 C 
ATOM     26  C   UNL     1     143.392   5.308  86.369  1.00  0.00     0.012 C 
ENDROOT
BRANCH   1  27
ATOM     27  C   UNL     1     144.417   9.558  93.325  1.00  0.00    -0.077 C 
ATOM     28  C   UNL     1     143.756  10.817  92.821  1.00  0.00     0.039 C 
ATOM     29  C   UNL     1     143.792   8.873  94.300  1.00  0.00     0.008 C 
ENDBRANCH   1  27
BRANCH   4  30
ATOM     30  C   UNL     1     148.277   6.645  92.349  1.00  0.00     0.163 C 
BRANCH  30  31
ATOM     31  O   UNL     1     149.008   5.753  93.150  1.00  0.00    -0.396 OA
ATOM     32  H   UNL     1     148.621   4.853  92.989  1.00  0.00     0.210 HD
ENDBRANCH  30  31
ENDBRANCH   4  30
BRANCH  13  33
ATOM     33  O   UNL     1     146.761   8.540  85.226  1.00  0.00    -0.393 OA
ATOM     34  H   UNL     1     146.165   8.929  85.919  1.00  0.00     0.210 HD
ENDBRANCH  13  33
TORSDOF 4
ENDMDL
MODEL 8
REMARK VINA RESULT:    -5.171     13.541     18.203
REMARK INTER + INTRA:          -6.654
REMARK INTER:                  -6.146
REMARK INTRA:                  -0.508
REMARK UNBOUND:                -0.576
REMARK SMILES C=C(C)[C@H]1CC[C@@]2(CO)CC[C@@]3(C)[C@H](CC[C@H]4[C@@]5(C)CC[C@@H](O)C(C)(C)[C@H]5CC[C@]43C)[C@@H]12
REMARK SMILES IDX 4 1 5 2 6 3 7 4 32 5 14 6 15 7 16 8 17 9 18 10 20 11 21 12
REMARK SMILES IDX 22 13 24 14 27 15 28 16 29 17 30 18 12 19 11 20 10 21 13 22
REMARK SMILES IDX 31 23 25 24 26 25 19 26 2 27 3 28 1 29 8 30 9 31 23 33
REMARK H PARENT 9 32 23 34
REMARK Flexibility Score: inf
ROOT
ATOM      1  C   UNL     1     145.632   5.558  92.838  1.00  0.00     0.018 C 
ATOM      2  C   UNL     1     144.744   5.912  94.032  1.00  0.00     0.009 C 
ATOM      3  C   UNL     1     144.640   7.423  94.042  1.00  0.00     0.010 C 
ATOM      4  C   UNL     1     144.723   7.879  92.566  1.00  0.00    -0.003 C 
ATOM      5  C   UNL     1     145.466   6.728  91.798  1.00  0.00     0.008 C 
ATOM      6  C   UNL     1     146.782   7.182  91.059  1.00  0.00    -0.000 C 
ATOM      7  C   UNL     1     147.441   6.066  90.232  1.00  0.00     0.005 C 
ATOM      8  C   UNL     1     146.872   5.926  88.834  1.00  0.00     0.005 C 
ATOM      9  C   UNL     1     147.008   7.218  87.974  1.00  0.00     0.002 C 
ATOM     10  C   UNL     1     146.610   7.021  86.406  1.00  0.00    -0.026 C 
ATOM     11  C   UNL     1     146.764   5.515  85.987  1.00  0.00     0.010 C 
ATOM     12  C   UNL     1     146.242   5.158  84.595  1.00  0.00     0.033 C 
ATOM     13  C   UNL     1     144.747   5.471  84.486  1.00  0.00     0.120 C 
ATOM     14  C   UNL     1     144.455   6.978  84.734  1.00  0.00    -0.006 C 
ATOM     15  C   UNL     1     145.126   7.517  86.085  1.00  0.00     0.003 C 
ATOM     16  C   UNL     1     144.246   7.347  87.344  1.00  0.00     0.005 C 
ATOM     17  C   UNL     1     144.732   8.183  88.552  1.00  0.00     0.008 C 
ATOM     18  C   UNL     1     146.276   8.415  88.702  1.00  0.00    -0.024 C 
ATOM     19  C   UNL     1     146.738   8.556  90.264  1.00  0.00    -0.024 C 
ATOM     20  C   UNL     1     145.842   9.605  91.036  1.00  0.00     0.008 C 
ATOM     21  C   UNL     1     145.505   9.216  92.482  1.00  0.00     0.010 C 
ATOM     22  C   UNL     1     148.206   9.121  90.337  1.00  0.00     0.012 C 
ATOM     23  C   UNL     1     146.628   9.772  87.999  1.00  0.00     0.012 C 
ATOM     24  C   UNL     1     142.910   7.176  84.721  1.00  0.00     0.014 C 
ATOM     25  C   UNL     1     144.955   7.808  83.514  1.00  0.00     0.014 C 
ATOM     26  C   UNL     1     147.642   7.842  85.565  1.00  0.00     0.012 C 
ENDROOT
BRANCH   1  27
ATOM     27  C   UNL     1     147.046   5.190  93.319  1.00  0.00    -0.077 C 
ATOM     28  C   UNL     1     147.923   6.247  93.944  1.00  0.00     0.039 C 
ATOM     29  C   UNL     1     147.584   3.974  93.116  1.00  0.00     0.008 C 
ENDBRANCH   1  27
BRANCH   4  30
ATOM     30  C   UNL     1     143.260   8.090  92.058  1.00  0.00     0.163 C 
BRANCH  30  31
ATOM     31  O   UNL     1     142.837   7.011  91.268  1.00  0.00    -0.396 OA
ATOM     32  H   UNL     1     142.325   7.402  90.512  1.00  0.00     0.210 HD
ENDBRANCH  30  31
ENDBRANCH   4  30
BRANCH  13  33
ATOM     33  O   UNL     1     144.029   4.675  85.397  1.00  0.00    -0.393 OA
ATOM     34  H   UNL     1     143.349   4.175  84.873  1.00  0.00     0.210 HD
ENDBRANCH  13  33
TORSDOF 4
ENDMDL
