MODEL 1
REMARK VINA RESULT:    -3.978      0.000      0.000
REMARK INTER + INTRA:          -4.095
REMARK INTER:                  -4.095
REMARK INTRA:                   0.000
REMARK UNBOUND:                 0.000
REMARK SMILES Cc1ccccc1O
REMARK SMILES IDX 1 1 2 2 3 3 4 4 5 5 6 6 7 7 8 8
REMARK H PARENT 8 9
REMARK Flexibility Score: inf
ROOT
ATOM      1  C   UNL     1      29.091  -3.121  36.028  1.00  0.00     0.048 C 
ATOM      2  C   UNL     1      29.943  -3.787  34.985  1.00  0.00    -0.009 A 
ATOM      3  C   UNL     1      29.733  -5.137  34.654  1.00  0.00     0.007 A 
ATOM      4  C   UNL     1      30.525  -5.757  33.684  1.00  0.00     0.001 A 
ATOM      5  C   UNL     1      31.532  -5.038  33.038  1.00  0.00     0.004 A 
ATOM      6  C   UNL     1      31.751  -3.696  33.360  1.00  0.00     0.046 A 
ATOM      7  C   UNL     1      30.960  -3.065  34.333  1.00  0.00     0.118 A 
ENDROOT
BRANCH   7   8
ATOM      8  O   UNL     1      31.181  -1.724  34.651  1.00  0.00    -0.508 OA
ATOM      9  H   UNL     1      31.010  -0.984  33.981  1.00  0.00     0.293 HD
ENDBRANCH   7   8
TORSDOF 1
ENDMDL
MODEL 2
REMARK VINA RESULT:    -3.947      1.917      2.362
REMARK INTER + INTRA:          -4.063
REMARK INTER:                  -4.063
REMARK INTRA:                   0.000
REMARK UNBOUND:                 0.000
REMARK SMILES Cc1ccccc1O
REMARK SMILES IDX 1 1 2 2 3 3 4 4 5 5 6 6 7 7 8 8
REMARK H PARENT 8 9
REMARK Flexibility Score: inf
ROOT
ATOM      1  C   UNL     1      28.552  -2.660  36.238  1.00  0.00     0.048 C 
ATOM      2  C   UNL     1      29.343  -3.562  35.332  1.00  0.00    -0.009 A 
ATOM      3  C   UNL     1      30.735  -3.676  35.483  1.00  0.00     0.007 A 
ATOM      4  C   UNL     1      31.470  -4.515  34.640  1.00  0.00     0.001 A 
ATOM      5  C   UNL     1      30.823  -5.246  33.643  1.00  0.00     0.004 A 
ATOM      6  C   UNL     1      29.439  -5.141  33.484  1.00  0.00     0.046 A 
ATOM      7  C   UNL     1      28.693  -4.301  34.325  1.00  0.00     0.118 A 
ENDROOT
BRANCH   7   8
ATOM      8  O   UNL     1      27.311  -4.199  34.162  1.00  0.00    -0.508 OA
ATOM      9  H   UNL     1      26.668  -4.721  34.745  1.00  0.00     0.293 HD
ENDBRANCH   7   8
TORSDOF 1
ENDMDL
MODEL 3
REMARK VINA RESULT:    -3.910      1.489      2.266
REMARK INTER + INTRA:          -4.025
REMARK INTER:                  -4.025
REMARK INTRA:                   0.000
REMARK UNBOUND:                 0.000
REMARK SMILES Cc1ccccc1O
REMARK SMILES IDX 1 1 2 2 3 3 4 4 5 5 6 6 7 7 8 8
REMARK H PARENT 8 9
REMARK Flexibility Score: inf
ROOT
ATOM      1  C   UNL     1      32.366  -2.175  34.622  1.00  0.00     0.048 C 
ATOM      2  C   UNL     1      31.486  -3.324  34.219  1.00  0.00    -0.009 A 
ATOM      3  C   UNL     1      30.719  -4.002  35.181  1.00  0.00     0.007 A 
ATOM      4  C   UNL     1      29.900  -5.071  34.806  1.00  0.00     0.001 A 
ATOM      5  C   UNL     1      29.839  -5.471  33.470  1.00  0.00     0.004 A 
ATOM      6  C   UNL     1      30.598  -4.804  32.504  1.00  0.00     0.046 A 
ATOM      7  C   UNL     1      31.423  -3.730  32.872  1.00  0.00     0.118 A 
ENDROOT
BRANCH   7   8
ATOM      8  O   UNL     1      32.178  -3.067  31.904  1.00  0.00    -0.508 OA
ATOM      9  H   UNL     1      32.974  -3.507  31.458  1.00  0.00     0.293 HD
ENDBRANCH   7   8
TORSDOF 1
ENDMDL
MODEL 4
REMARK VINA RESULT:    -3.894      1.971      2.494
REMARK INTER + INTRA:          -4.008
REMARK INTER:                  -4.008
REMARK INTRA:                   0.000
REMARK UNBOUND:                 0.000
REMARK SMILES Cc1ccccc1O
REMARK SMILES IDX 1 1 2 2 3 3 4 4 5 5 6 6 7 7 8 8
REMARK H PARENT 8 9
REMARK Flexibility Score: inf
ROOT
ATOM      1  C   UNL     1      28.316  -4.341  34.233  1.00  0.00     0.048 C 
ATOM      2  C   UNL     1      29.816  -4.269  34.284  1.00  0.00    -0.009 A 
ATOM      3  C   UNL     1      30.461  -3.646  35.366  1.00  0.00     0.007 A 
ATOM      4  C   UNL     1      31.856  -3.578  35.412  1.00  0.00     0.001 A 
ATOM      5  C   UNL     1      32.619  -4.131  34.382  1.00  0.00     0.004 A 
ATOM      6  C   UNL     1      31.988  -4.753  33.301  1.00  0.00     0.046 A 
ATOM      7  C   UNL     1      30.588  -4.825  33.245  1.00  0.00     0.118 A 
ENDROOT
BRANCH   7   8
ATOM      8  O   UNL     1      29.963  -5.447  32.164  1.00  0.00    -0.508 OA
ATOM      9  H   UNL     1      30.178  -5.192  31.208  1.00  0.00     0.293 HD
ENDBRANCH   7   8
TORSDOF 1
ENDMDL
MODEL 5
REMARK VINA RESULT:    -3.796      1.184      1.555
REMARK INTER + INTRA:          -3.907
REMARK INTER:                  -3.907
REMARK INTRA:                   0.000
REMARK UNBOUND:                 0.000
REMARK SMILES Cc1ccccc1O
REMARK SMILES IDX 1 1 2 2 3 3 4 4 5 5 6 6 7 7 8 8
REMARK H PARENT 8 9
REMARK Flexibility Score: inf
ROOT
ATOM      1  C   UNL     1      28.122  -4.341  34.202  1.00  0.00     0.048 C 
ATOM      2  C   UNL     1      29.624  -4.311  34.215  1.00  0.00    -0.009 A 
ATOM      3  C   UNL     1      30.360  -5.345  33.612  1.00  0.00     0.007 A 
ATOM      4  C   UNL     1      31.757  -5.316  33.624  1.00  0.00     0.001 A 
ATOM      5  C   UNL     1      32.431  -4.258  34.237  1.00  0.00     0.004 A 
ATOM      6  C   UNL     1      31.709  -3.225  34.840  1.00  0.00     0.046 A 
ATOM      7  C   UNL     1      30.306  -3.245  34.833  1.00  0.00     0.118 A 
ENDROOT
BRANCH   7   8
ATOM      8  O   UNL     1      29.589  -2.211  35.437  1.00  0.00    -0.508 OA
ATOM      9  H   UNL     1      29.491  -1.305  34.996  1.00  0.00     0.293 HD
ENDBRANCH   7   8
TORSDOF 1
ENDMDL
MODEL 6
REMARK VINA RESULT:    -3.754      0.525      2.471
REMARK INTER + INTRA:          -3.864
REMARK INTER:                  -3.864
REMARK INTRA:                   0.000
REMARK UNBOUND:                 0.000
REMARK SMILES Cc1ccccc1O
REMARK SMILES IDX 1 1 2 2 3 3 4 4 5 5 6 6 7 7 8 8
REMARK H PARENT 8 9
REMARK Flexibility Score: inf
ROOT
ATOM      1  C   UNL     1      32.880  -3.115  32.731  1.00  0.00     0.048 C 
ATOM      2  C   UNL     1      31.741  -3.805  33.427  1.00  0.00    -0.009 A 
ATOM      3  C   UNL     1      31.455  -5.153  33.156  1.00  0.00     0.007 A 
ATOM      4  C   UNL     1      30.395  -5.795  33.804  1.00  0.00     0.001 A 
ATOM      5  C   UNL     1      29.614  -5.097  34.727  1.00  0.00     0.004 A 
ATOM      6  C   UNL     1      29.890  -3.755  35.005  1.00  0.00     0.046 A 
ATOM      7  C   UNL     1      30.951  -3.103  34.359  1.00  0.00     0.118 A 
ENDROOT
BRANCH   7   8
ATOM      8  O   UNL     1      31.222  -1.764  34.639  1.00  0.00    -0.508 OA
ATOM      9  H   UNL     1      31.169  -1.050  33.922  1.00  0.00     0.293 HD
ENDBRANCH   7   8
TORSDOF 1
ENDMDL
MODEL 7
REMARK VINA RESULT:    -3.720      6.659      7.902
REMARK INTER + INTRA:          -3.828
REMARK INTER:                  -3.828
REMARK INTRA:                   0.000
REMARK UNBOUND:                 0.000
REMARK SMILES Cc1ccccc1O
REMARK SMILES IDX 1 1 2 2 3 3 4 4 5 5 6 6 7 7 8 8
REMARK H PARENT 8 9
REMARK Flexibility Score: inf
ROOT
ATOM      1  C   UNL     1      22.086   0.821  34.607  1.00  0.00     0.048 C 
ATOM      2  C   UNL     1      23.216  -0.131  34.332  1.00  0.00    -0.009 A 
ATOM      3  C   UNL     1      24.453   0.351  33.870  1.00  0.00     0.007 A 
ATOM      4  C   UNL     1      25.504  -0.534  33.614  1.00  0.00     0.001 A 
ATOM      5  C   UNL     1      25.330  -1.904  33.817  1.00  0.00     0.004 A 
ATOM      6  C   UNL     1      24.105  -2.394  34.276  1.00  0.00     0.046 A 
ATOM      7  C   UNL     1      23.044  -1.513  34.536  1.00  0.00     0.118 A 
ENDROOT
BRANCH   7   8
ATOM      8  O   UNL     1      21.822  -2.007  34.994  1.00  0.00    -0.508 OA
ATOM      9  H   UNL     1      21.568  -1.969  35.974  1.00  0.00     0.293 HD
ENDBRANCH   7   8
TORSDOF 1
ENDMDL
MODEL 8
REMARK VINA RESULT:    -3.680      6.390      7.632
REMARK INTER + INTRA:          -3.788
REMARK INTER:                  -3.788
REMARK INTRA:                   0.000
REMARK UNBOUND:                 0.000
REMARK SMILES Cc1ccccc1O
REMARK SMILES IDX 1 1 2 2 3 3 4 4 5 5 6 6 7 7 8 8
REMARK H PARENT 8 9
REMARK Flexibility Score: inf
ROOT
ATOM      1  C   UNL     1      22.187  -0.908  35.364  1.00  0.00     0.048 C 
ATOM      2  C   UNL     1      23.351  -0.582  34.472  1.00  0.00    -0.009 A 
ATOM      3  C   UNL     1      23.461   0.690  33.885  1.00  0.00     0.007 A 
ATOM      4  C   UNL     1      24.544   0.993  33.054  1.00  0.00     0.001 A 
ATOM      5  C   UNL     1      25.524   0.032  32.804  1.00  0.00     0.004 A 
ATOM      6  C   UNL     1      25.425  -1.236  33.382  1.00  0.00     0.046 A 
ATOM      7  C   UNL     1      24.341  -1.549  34.217  1.00  0.00     0.118 A 
ENDROOT
BRANCH   7   8
ATOM      8  O   UNL     1      24.247  -2.817  34.792  1.00  0.00    -0.508 OA
ATOM      9  H   UNL     1      25.001  -3.489  34.723  1.00  0.00     0.293 HD
ENDBRANCH   7   8
TORSDOF 1
ENDMDL
MODEL 9
REMARK VINA RESULT:    -3.657      1.928      3.398
REMARK INTER + INTRA:          -3.764
REMARK INTER:                  -3.764
REMARK INTRA:                   0.000
REMARK UNBOUND:                 0.000
REMARK SMILES Cc1ccccc1O
REMARK SMILES IDX 1 1 2 2 3 3 4 4 5 5 6 6 7 7 8 8
REMARK H PARENT 8 9
REMARK Flexibility Score: inf
ROOT
ATOM      1  C   UNL     1      32.346  -3.905  32.736  1.00  0.00     0.048 C 
ATOM      2  C   UNL     1      31.081  -3.878  33.546  1.00  0.00    -0.009 A 
ATOM      3  C   UNL     1      31.002  -3.097  34.712  1.00  0.00     0.007 A 
ATOM      4  C   UNL     1      29.825  -3.073  35.466  1.00  0.00     0.001 A 
ATOM      5  C   UNL     1      28.720  -3.824  35.064  1.00  0.00     0.004 A 
ATOM      6  C   UNL     1      28.788  -4.604  33.907  1.00  0.00     0.046 A 
ATOM      7  C   UNL     1      29.965  -4.635  33.143  1.00  0.00     0.118 A 
ENDROOT
BRANCH   7   8
ATOM      8  O   UNL     1      30.028  -5.415  31.988  1.00  0.00    -0.508 OA
ATOM      9  H   UNL     1      29.530  -5.157  31.145  1.00  0.00     0.293 HD
ENDBRANCH   7   8
TORSDOF 1
ENDMDL
