MODEL 1
REMARK VINA RESULT:    14.421      0.000      0.000
REMARK INTER + INTRA:          17.096
REMARK INTER:                  17.371
REMARK INTRA:                  -0.275
REMARK UNBOUND:                -0.275
REMARK SMILES O=c1c(O)c(-c2ccc(O)c(O)c2)oc2cc(O)cc(O)c12
REMARK SMILES IDX 5 1 3 2 2 3 1 4 22 5 20 6 19 7 17 8 16 9 15 10 14 11 6 12
REMARK SMILES IDX 7 13 8 14 9 15 13 16 11 17 10 18 12 20 4 22 21 24 18 26
REMARK H PARENT 10 19 12 21 4 23 21 25 18 27
REMARK Flexibility Score: inf
ROOT
ATOM      1  C   UNL     1     -19.155 -11.488 -13.118  1.00  0.00     0.180 A 
ATOM      2  C   UNL     1     -19.256 -10.091 -13.004  1.00  0.00     0.208 A 
ATOM      3  C   UNL     1     -20.494  -9.522 -12.661  1.00  0.00     0.238 A 
ATOM      4  O   UNL     1     -20.591  -8.268 -12.615  1.00  0.00    -0.285 OA
ATOM      5  C   UNL     1     -21.610 -10.359 -12.420  1.00  0.00     0.111 A 
ATOM      6  C   UNL     1     -22.901  -9.894 -12.027  1.00  0.00     0.134 A 
ATOM      7  C   UNL     1     -23.965 -10.801 -11.944  1.00  0.00     0.093 A 
ATOM      8  C   UNL     1     -23.770 -12.165 -12.174  1.00  0.00     0.123 A 
ATOM      9  C   UNL     1     -22.501 -12.636 -12.500  1.00  0.00     0.094 A 
ATOM     10  C   UNL     1     -21.427 -11.752 -12.626  1.00  0.00     0.146 A 
ATOM     11  O   UNL     1     -20.236 -12.241 -12.949  1.00  0.00    -0.452 OA
ENDROOT
BRANCH   1  12
ATOM     12  C   UNL     1     -17.879 -12.161 -13.450  1.00  0.00     0.025 A 
ATOM     13  C   UNL     1     -17.440 -12.191 -14.784  1.00  0.00     0.016 A 
ATOM     14  C   UNL     1     -16.250 -12.838 -15.123  1.00  0.00     0.051 A 
ATOM     15  C   UNL     1     -15.489 -13.479 -14.136  1.00  0.00     0.157 A 
ATOM     16  C   UNL     1     -17.122 -12.823 -12.466  1.00  0.00     0.062 A 
ATOM     17  C   UNL     1     -15.928 -13.475 -12.807  1.00  0.00     0.158 A 
BRANCH  15  18
ATOM     18  O   UNL     1     -14.300 -14.124 -14.470  1.00  0.00    -0.504 OA
ATOM     19  H   UNL     1     -13.995 -14.210 -15.433  1.00  0.00     0.293 HD
ENDBRANCH  15  18
BRANCH  17  20
ATOM     20  O   UNL     1     -15.176 -14.124 -11.829  1.00  0.00    -0.504 OA
ATOM     21  H   UNL     1     -14.171 -14.010 -11.769  1.00  0.00     0.293 HD
ENDBRANCH  17  20
ENDBRANCH   1  12
BRANCH   2  22
ATOM     22  O   UNL     1     -18.148  -9.282 -13.268  1.00  0.00    -0.502 OA
ATOM     23  H   UNL     1     -17.216  -9.659 -13.390  1.00  0.00     0.293 HD
ENDBRANCH   2  22
BRANCH   6  24
ATOM     24  O   UNL     1     -23.182  -8.568 -11.684  1.00  0.00    -0.507 OA
ATOM     25  H   UNL     1     -22.650  -8.020 -11.026  1.00  0.00     0.293 HD
ENDBRANCH   6  24
BRANCH   8  26
ATOM     26  O   UNL     1     -24.831 -13.062 -12.073  1.00  0.00    -0.508 OA
ATOM     27  H   UNL     1     -25.771 -12.750 -11.857  1.00  0.00     0.293 HD
ENDBRANCH   8  26
TORSDOF 6
ENDMDL
