MODEL 1
REMARK VINA RESULT:    -5.006      0.000      0.000
REMARK INTER + INTRA:          -6.104
REMARK INTER:                  -6.031
REMARK INTRA:                  -0.073
REMARK UNBOUND:                -0.073
REMARK SMILES NC(=O)C[C@@H]([NH3+])C(=O)[O-]
REMARK SMILES IDX 4 1 5 2 6 3 7 7 8 8 9 9 2 10 3 11 1 12
REMARK H PARENT 6 4 6 5 6 6 1 13 1 14
REMARK Flexibility Score: inf
ROOT
ATOM      1  C   UNL     1     -21.276  -6.101   0.233  1.00  0.00     0.171 C 
ENDROOT
BRANCH   1   2
ATOM      2  C   UNL     1     -20.136  -5.132  -0.143  1.00  0.00     0.237 C 
BRANCH   2   3
ATOM      3  N   UNL     1     -20.582  -4.135  -1.125  1.00  0.00    -0.350 N 
ATOM      4  H   UNL     1     -20.021  -3.255  -1.043  1.00  0.00     0.345 HD
ATOM      5  H   UNL     1     -20.477  -4.518  -2.092  1.00  0.00     0.345 HD
ATOM      6  H   UNL     1     -21.593  -3.912  -0.976  1.00  0.00     0.345 HD
ENDBRANCH   2   3
BRANCH   2   7
ATOM      7  C   UNL     1     -19.627  -4.445   1.096  1.00  0.00     0.100 C 
ATOM      8  O   UNL     1     -20.362  -3.632   1.716  1.00  0.00    -0.544 OA
ATOM      9  O   UNL     1     -18.339  -4.690   1.554  1.00  0.00    -0.544 OA
ENDBRANCH   2   7
ENDBRANCH   1   2
BRANCH   1  10
ATOM     10  C   UNL     1     -20.752  -7.462   0.591  1.00  0.00     0.223 C 
ATOM     11  O   UNL     1     -21.213  -8.483   0.014  1.00  0.00    -0.275 OA
ATOM     12  N   UNL     1     -19.713  -7.603   1.559  1.00  0.00    -0.369 N 
ATOM     13  H   UNL     1     -19.340  -8.549   1.798  1.00  0.00     0.159 HD
ATOM     14  H   UNL     1     -19.313  -6.765   2.036  1.00  0.00     0.159 HD
ENDBRANCH   1  10
TORSDOF 4
ENDMDL
MODEL 2
REMARK VINA RESULT:    -4.959      2.047      3.800
REMARK INTER + INTRA:          -6.046
REMARK INTER:                  -5.718
REMARK INTRA:                  -0.328
REMARK UNBOUND:                -0.073
REMARK SMILES NC(=O)C[C@@H]([NH3+])C(=O)[O-]
REMARK SMILES IDX 4 1 5 2 6 3 7 7 8 8 9 9 2 10 3 11 1 12
REMARK H PARENT 6 4 6 5 6 6 1 13 1 14
REMARK Flexibility Score: inf
ROOT
ATOM      1  C   UNL     1     -19.940  -6.172   1.095  1.00  0.00     0.171 C 
ENDROOT
BRANCH   1   2
ATOM      2  C   UNL     1     -21.149  -7.120   0.957  1.00  0.00     0.237 C 
BRANCH   2   3
ATOM      3  N   UNL     1     -22.325  -6.416   0.428  1.00  0.00    -0.350 N 
ATOM      4  H   UNL     1     -23.170  -6.613   1.014  1.00  0.00     0.345 HD
ATOM      5  H   UNL     1     -22.148  -5.385   0.421  1.00  0.00     0.345 HD
ATOM      6  H   UNL     1     -22.511  -6.717  -0.555  1.00  0.00     0.345 HD
ENDBRANCH   2   3
BRANCH   2   7
ATOM      7  C   UNL     1     -20.788  -8.271   0.056  1.00  0.00     0.100 C 
ATOM      8  O   UNL     1     -21.223  -8.310  -1.125  1.00  0.00    -0.544 OA
ATOM      9  O   UNL     1     -19.987  -9.304   0.526  1.00  0.00    -0.544 OA
ENDBRANCH   2   7
ENDBRANCH   1   2
BRANCH   1  10
ATOM     10  C   UNL     1     -20.171  -4.870   0.384  1.00  0.00     0.223 C 
ATOM     11  O   UNL     1     -20.374  -4.862  -0.860  1.00  0.00    -0.275 OA
ATOM     12  N   UNL     1     -20.194  -3.644   1.113  1.00  0.00    -0.369 N 
ATOM     13  H   UNL     1     -20.368  -2.740   0.620  1.00  0.00     0.159 HD
ATOM     14  H   UNL     1     -20.041  -3.636   2.146  1.00  0.00     0.159 HD
ENDBRANCH   1  10
TORSDOF 4
ENDMDL
MODEL 3
REMARK VINA RESULT:    -4.913      1.453      3.977
REMARK INTER + INTRA:          -5.992
REMARK INTER:                  -5.773
REMARK INTRA:                  -0.219
REMARK UNBOUND:                -0.073
REMARK SMILES NC(=O)C[C@@H]([NH3+])C(=O)[O-]
REMARK SMILES IDX 4 1 5 2 6 3 7 7 8 8 9 9 2 10 3 11 1 12
REMARK H PARENT 6 4 6 5 6 6 1 13 1 14
REMARK Flexibility Score: inf
ROOT
ATOM      1  C   UNL     1     -20.839  -5.318   0.702  1.00  0.00     0.171 C 
ENDROOT
BRANCH   1   2
ATOM      2  C   UNL     1     -20.180  -6.695   0.476  1.00  0.00     0.237 C 
BRANCH   2   3
ATOM      3  N   UNL     1     -19.524  -7.182   1.696  1.00  0.00    -0.350 N 
ATOM      4  H   UNL     1     -19.389  -8.220   1.656  1.00  0.00     0.345 HD
ATOM      5  H   UNL     1     -18.592  -6.721   1.806  1.00  0.00     0.345 HD
ATOM      6  H   UNL     1     -20.101  -6.943   2.534  1.00  0.00     0.345 HD
ENDBRANCH   2   3
BRANCH   2   7
ATOM      7  C   UNL     1     -21.220  -7.683   0.018  1.00  0.00     0.100 C 
ATOM      8  O   UNL     1     -22.281  -7.836   0.678  1.00  0.00    -0.544 OA
ATOM      9  O   UNL     1     -21.008  -8.444  -1.125  1.00  0.00    -0.544 OA
ENDBRANCH   2   7
ENDBRANCH   1   2
BRANCH   1  10
ATOM     10  C   UNL     1     -19.880  -4.338   1.313  1.00  0.00     0.223 C 
ATOM     11  O   UNL     1     -18.641  -4.569   1.281  1.00  0.00    -0.275 OA
ATOM     12  N   UNL     1     -20.361  -3.132   1.904  1.00  0.00    -0.369 N 
ATOM     13  H   UNL     1     -19.693  -2.444   2.318  1.00  0.00     0.159 HD
ATOM     14  H   UNL     1     -21.383  -2.921   1.927  1.00  0.00     0.159 HD
ENDBRANCH   1  10
TORSDOF 4
ENDMDL
MODEL 4
REMARK VINA RESULT:    -4.610      1.750      2.019
REMARK INTER + INTRA:          -5.627
REMARK INTER:                  -5.536
REMARK INTRA:                  -0.091
REMARK UNBOUND:                -0.073
REMARK SMILES NC(=O)C[C@@H]([NH3+])C(=O)[O-]
REMARK SMILES IDX 4 1 5 2 6 3 7 7 8 8 9 9 2 10 3 11 1 12
REMARK H PARENT 6 4 6 5 6 6 1 13 1 14
REMARK Flexibility Score: inf
ROOT
ATOM      1  C   UNL     1     -20.429  -6.469  -0.347  1.00  0.00     0.171 C 
ENDROOT
BRANCH   1   2
ATOM      2  C   UNL     1     -20.204  -5.840   1.043  1.00  0.00     0.237 C 
BRANCH   2   3
ATOM      3  N   UNL     1     -18.964  -6.330   1.660  1.00  0.00    -0.350 N 
ATOM      4  H   UNL     1     -18.692  -7.258   1.260  1.00  0.00     0.345 HD
ATOM      5  H   UNL     1     -18.191  -5.646   1.492  1.00  0.00     0.345 HD
ATOM      6  H   UNL     1     -19.091  -6.424   2.693  1.00  0.00     0.345 HD
ENDBRANCH   2   3
BRANCH   2   7
ATOM      7  C   UNL     1     -20.161  -4.340   0.918  1.00  0.00     0.100 C 
ATOM      8  O   UNL     1     -20.154  -3.619   1.950  1.00  0.00    -0.544 OA
ATOM      9  O   UNL     1     -20.147  -3.742  -0.336  1.00  0.00    -0.544 OA
ENDBRANCH   2   7
ENDBRANCH   1   2
BRANCH   1  10
ATOM     10  C   UNL     1     -21.316  -7.678  -0.272  1.00  0.00     0.223 C 
ATOM     11  O   UNL     1     -21.092  -8.668  -1.019  1.00  0.00    -0.275 OA
ATOM     12  N   UNL     1     -22.393  -7.725   0.662  1.00  0.00    -0.369 N 
ATOM     13  H   UNL     1     -23.002  -8.571   0.723  1.00  0.00     0.159 HD
ATOM     14  H   UNL     1     -22.583  -6.918   1.297  1.00  0.00     0.159 HD
ENDBRANCH   1  10
TORSDOF 4
ENDMDL
MODEL 5
REMARK VINA RESULT:    -4.115     17.014     18.451
REMARK INTER + INTRA:          -5.030
REMARK INTER:                  -4.623
REMARK INTRA:                  -0.407
REMARK UNBOUND:                -0.073
REMARK SMILES NC(=O)C[C@@H]([NH3+])C(=O)[O-]
REMARK SMILES IDX 4 1 5 2 6 3 7 7 8 8 9 9 2 10 3 11 1 12
REMARK H PARENT 6 4 6 5 6 6 1 13 1 14
REMARK Flexibility Score: inf
ROOT
ATOM      1  C   UNL     1     -18.043  10.036   9.709  1.00  0.00     0.171 C 
ENDROOT
BRANCH   1   2
ATOM      2  C   UNL     1     -18.253  10.118  11.235  1.00  0.00     0.237 C 
BRANCH   2   3
ATOM      3  N   UNL     1     -19.076   9.004  11.724  1.00  0.00    -0.350 N 
ATOM      4  H   UNL     1     -19.660   8.606  10.952  1.00  0.00     0.345 HD
ATOM      5  H   UNL     1     -18.461   8.252  12.110  1.00  0.00     0.345 HD
ATOM      6  H   UNL     1     -19.703   9.333  12.494  1.00  0.00     0.345 HD
ENDBRANCH   2   3
BRANCH   2   7
ATOM      7  C   UNL     1     -16.917  10.117  11.930  1.00  0.00     0.100 C 
ATOM      8  O   UNL     1     -15.854  10.093  11.255  1.00  0.00    -0.544 OA
ATOM      9  O   UNL     1     -16.849  10.125  13.317  1.00  0.00    -0.544 OA
ENDBRANCH   2   7
ENDBRANCH   1   2
BRANCH   1  10
ATOM     10  C   UNL     1     -18.136   8.623   9.212  1.00  0.00     0.223 C 
ATOM     11  O   UNL     1     -19.266   8.101   9.009  1.00  0.00    -0.275 OA
ATOM     12  N   UNL     1     -16.952   7.875   8.938  1.00  0.00    -0.369 N 
ATOM     13  H   UNL     1     -17.017   6.896   8.580  1.00  0.00     0.159 HD
ATOM     14  H   UNL     1     -16.009   8.297   9.089  1.00  0.00     0.159 HD
ENDBRANCH   1  10
TORSDOF 4
ENDMDL
MODEL 6
REMARK VINA RESULT:    -3.949     17.138     18.679
REMARK INTER + INTRA:          -4.830
REMARK INTER:                  -4.570
REMARK INTRA:                  -0.260
REMARK UNBOUND:                -0.073
REMARK SMILES NC(=O)C[C@@H]([NH3+])C(=O)[O-]
REMARK SMILES IDX 4 1 5 2 6 3 7 7 8 8 9 9 2 10 3 11 1 12
REMARK H PARENT 6 4 6 5 6 6 1 13 1 14
REMARK Flexibility Score: inf
ROOT
ATOM      1  C   UNL     1     -17.557  10.088  10.851  1.00  0.00     0.171 C 
ENDROOT
BRANCH   1   2
ATOM      2  C   UNL     1     -18.488   8.860  10.799  1.00  0.00     0.237 C 
BRANCH   2   3
ATOM      3  N   UNL     1     -19.706   9.076  11.592  1.00  0.00    -0.350 N 
ATOM      4  H   UNL     1     -19.477   9.160  12.610  1.00  0.00     0.345 HD
ATOM      5  H   UNL     1     -20.183   9.952  11.277  1.00  0.00     0.345 HD
ATOM      6  H   UNL     1     -20.370   8.281  11.454  1.00  0.00     0.345 HD
ENDBRANCH   2   3
BRANCH   2   7
ATOM      7  C   UNL     1     -18.850   8.560   9.369  1.00  0.00     0.100 C 
ATOM      8  O   UNL     1     -19.956   8.024   9.095  1.00  0.00    -0.544 OA
ATOM      9  O   UNL     1     -17.960   8.855   8.344  1.00  0.00    -0.544 OA
ENDBRANCH   2   7
ENDBRANCH   1   2
BRANCH   1  10
ATOM     10  C   UNL     1     -16.755  10.123  12.119  1.00  0.00     0.223 C 
ATOM     11  O   UNL     1     -17.342  10.125  13.234  1.00  0.00    -0.275 OA
ATOM     12  N   UNL     1     -15.328  10.123  12.071  1.00  0.00    -0.369 N 
ATOM     13  H   UNL     1     -14.770  10.135  12.953  1.00  0.00     0.159 HD
ATOM     14  H   UNL     1     -14.827  10.110  11.155  1.00  0.00     0.159 HD
ENDBRANCH   1  10
TORSDOF 4
ENDMDL
MODEL 7
REMARK VINA RESULT:    -3.899     16.879     18.410
REMARK INTER + INTRA:          -4.770
REMARK INTER:                  -4.860
REMARK INTRA:                   0.090
REMARK UNBOUND:                -0.073
REMARK SMILES NC(=O)C[C@@H]([NH3+])C(=O)[O-]
REMARK SMILES IDX 4 1 5 2 6 3 7 7 8 8 9 9 2 10 3 11 1 12
REMARK H PARENT 6 4 6 5 6 6 1 13 1 14
REMARK Flexibility Score: inf
ROOT
ATOM      1  C   UNL     1     -16.701   9.711  10.632  1.00  0.00     0.171 C 
ENDROOT
BRANCH   1   2
ATOM      2  C   UNL     1     -17.873   9.721   9.630  1.00  0.00     0.237 C 
BRANCH   2   3
ATOM      3  N   UNL     1     -17.426  10.107   8.285  1.00  0.00    -0.350 N 
ATOM      4  H   UNL     1     -17.073   9.275   7.757  1.00  0.00     0.345 HD
ATOM      5  H   UNL     1     -18.221  10.535   7.757  1.00  0.00     0.345 HD
ATOM      6  H   UNL     1     -16.664  10.820   8.352  1.00  0.00     0.345 HD
ENDBRANCH   2   3
BRANCH   2   7
ATOM      7  C   UNL     1     -18.515   8.359   9.589  1.00  0.00     0.100 C 
ATOM      8  O   UNL     1     -17.811   7.335   9.388  1.00  0.00    -0.544 OA
ATOM      9  O   UNL     1     -19.887   8.226   9.756  1.00  0.00    -0.544 OA
ENDBRANCH   2   7
ENDBRANCH   1   2
BRANCH   1  10
ATOM     10  C   UNL     1     -17.183   9.783  12.052  1.00  0.00     0.223 C 
ATOM     11  O   UNL     1     -16.386  10.114  12.970  1.00  0.00    -0.275 OA
ATOM     12  N   UNL     1     -18.548   9.508  12.364  1.00  0.00    -0.369 N 
ATOM     13  H   UNL     1     -18.887   9.570  13.350  1.00  0.00     0.159 HD
ATOM     14  H   UNL     1     -19.224   9.244  11.613  1.00  0.00     0.159 HD
ENDBRANCH   1  10
TORSDOF 4
ENDMDL
MODEL 8
REMARK VINA RESULT:    -3.518     15.925     16.886
REMARK INTER + INTRA:          -4.311
REMARK INTER:                  -4.039
REMARK INTRA:                  -0.272
REMARK UNBOUND:                -0.073
REMARK SMILES NC(=O)C[C@@H]([NH3+])C(=O)[O-]
REMARK SMILES IDX 4 1 5 2 6 3 7 7 8 8 9 9 2 10 3 11 1 12
REMARK H PARENT 6 4 6 5 6 6 1 13 1 14
REMARK Flexibility Score: inf
ROOT
ATOM      1  C   UNL     1     -17.850  -4.913  17.245  1.00  0.00     0.171 C 
ENDROOT
BRANCH   1   2
ATOM      2  C   UNL     1     -17.014  -6.123  17.710  1.00  0.00     0.237 C 
BRANCH   2   3
ATOM      3  N   UNL     1     -17.247  -7.296  16.858  1.00  0.00    -0.350 N 
ATOM      4  H   UNL     1     -17.248  -7.026  15.847  1.00  0.00     0.345 HD
ATOM      5  H   UNL     1     -16.498  -8.007  17.021  1.00  0.00     0.345 HD
ATOM      6  H   UNL     1     -18.165  -7.736  17.097  1.00  0.00     0.345 HD
ENDBRANCH   2   3
BRANCH   2   7
ATOM      7  C   UNL     1     -15.552  -5.760  17.701  1.00  0.00     0.100 C 
ATOM      8  O   UNL     1     -14.689  -6.622  17.390  1.00  0.00    -0.544 OA
ATOM      9  O   UNL     1     -15.146  -4.479  18.052  1.00  0.00    -0.544 OA
ENDBRANCH   2   7
ENDBRANCH   1   2
BRANCH   1  10
ATOM     10  C   UNL     1     -18.926  -5.320  16.282  1.00  0.00     0.223 C 
ATOM     11  O   UNL     1     -19.910  -5.995  16.688  1.00  0.00    -0.275 OA
ATOM     12  N   UNL     1     -18.858  -4.921  14.914  1.00  0.00    -0.369 N 
ATOM     13  H   UNL     1     -19.614  -5.193  14.246  1.00  0.00     0.159 HD
ATOM     14  H   UNL     1     -18.056  -4.351  14.564  1.00  0.00     0.159 HD
ENDBRANCH   1  10
TORSDOF 4
ENDMDL
MODEL 9
REMARK VINA RESULT:    -3.474     16.169     16.926
REMARK INTER + INTRA:          -4.258
REMARK INTER:                  -3.989
REMARK INTRA:                  -0.269
REMARK UNBOUND:                -0.073
REMARK SMILES NC(=O)C[C@@H]([NH3+])C(=O)[O-]
REMARK SMILES IDX 4 1 5 2 6 3 7 7 8 8 9 9 2 10 3 11 1 12
REMARK H PARENT 6 4 6 5 6 6 1 13 1 14
REMARK Flexibility Score: inf
ROOT
ATOM      1  C   UNL     1     -19.394  -6.019  16.638  1.00  0.00     0.171 C 
ENDROOT
BRANCH   1   2
ATOM      2  C   UNL     1     -20.519  -6.198  17.678  1.00  0.00     0.237 C 
BRANCH   2   3
ATOM      3  N   UNL     1     -21.150  -4.915  18.012  1.00  0.00    -0.350 N 
ATOM      4  H   UNL     1     -20.433  -4.156  18.085  1.00  0.00     0.345 HD
ATOM      5  H   UNL     1     -21.844  -4.658  17.273  1.00  0.00     0.345 HD
ATOM      6  H   UNL     1     -21.662  -4.992  18.920  1.00  0.00     0.345 HD
ENDBRANCH   2   3
BRANCH   2   7
ATOM      7  C   UNL     1     -21.551  -7.158  17.145  1.00  0.00     0.100 C 
ATOM      8  O   UNL     1     -22.659  -6.728  16.731  1.00  0.00    -0.544 OA
ATOM      9  O   UNL     1     -21.293  -8.523  17.124  1.00  0.00    -0.544 OA
ENDBRANCH   2   7
ENDBRANCH   1   2
BRANCH   1  10
ATOM     10  C   UNL     1     -18.620  -4.754  16.870  1.00  0.00     0.223 C 
ATOM     11  O   UNL     1     -17.991  -4.592  17.950  1.00  0.00    -0.275 OA
ATOM     12  N   UNL     1     -18.567  -3.746  15.862  1.00  0.00    -0.369 N 
ATOM     13  H   UNL     1     -18.018  -2.871  16.019  1.00  0.00     0.159 HD
ATOM     14  H   UNL     1     -19.073  -3.871  14.957  1.00  0.00     0.159 HD
ENDBRANCH   1  10
TORSDOF 4
ENDMDL
