MODEL 1
REMARK VINA RESULT:    -3.300      0.000      0.000
REMARK INTER + INTRA:          -5.575
REMARK INTER:                  -5.036
REMARK INTRA:                  -0.539
REMARK UNBOUND:                -0.539
REMARK SMILES O=C([O-])CCCCCCCCC(=O)[O-]
REMARK SMILES IDX 7 1 6 2 5 3 4 4 2 5 1 6 3 7 8 8 9 9 10 10 11 11 12 12 13 13
REMARK SMILES IDX 14 14
REMARK H PARENT
REMARK Flexibility Score: inf
ROOT
ATOM      1  C   UNL     1       5.386  10.518 -13.534  1.00  0.00     0.000 C 
ENDROOT
BRANCH   1   2
ATOM      2  C   UNL     1       5.317  10.591 -15.069  1.00  0.00     0.000 C 
BRANCH   2   3
ATOM      3  C   UNL     1       4.026  11.252 -15.574  1.00  0.00     0.006 C 
BRANCH   3   4
ATOM      4  C   UNL     1       3.311  11.993 -14.440  1.00  0.00     0.053 C 
BRANCH   4   5
ATOM      5  C   UNL     1       3.101  13.429 -14.804  1.00  0.00     0.041 C 
ATOM      6  O   UNL     1       3.758  13.947 -15.745  1.00  0.00    -0.550 OA
ATOM      7  O   UNL     1       2.212  14.209 -14.073  1.00  0.00    -0.550 OA
ENDBRANCH   4   5
ENDBRANCH   3   4
ENDBRANCH   2   3
ENDBRANCH   1   2
BRANCH   1   8
ATOM      8  C   UNL     1       6.779  10.111 -13.024  1.00  0.00     0.000 C 
BRANCH   8   9
ATOM      9  C   UNL     1       6.832   8.647 -12.557  1.00  0.00     0.000 C 
BRANCH   9  10
ATOM     10  C   UNL     1       5.488   8.155 -11.990  1.00  0.00     0.006 C 
BRANCH  10  11
ATOM     11  C   UNL     1       5.304   8.548 -10.517  1.00  0.00     0.053 C 
BRANCH  11  12
ATOM     12  C   UNL     1       3.865   8.790 -10.179  1.00  0.00     0.041 C 
ATOM     13  O   UNL     1       3.428   8.508  -9.032  1.00  0.00    -0.550 OA
ATOM     14  O   UNL     1       3.015   9.357 -11.120  1.00  0.00    -0.550 OA
ENDBRANCH  11  12
ENDBRANCH  10  11
ENDBRANCH   9  10
ENDBRANCH   8   9
ENDBRANCH   1   8
TORSDOF 9
ENDMDL
MODEL 2
REMARK VINA RESULT:    -3.230      0.642      5.663
REMARK INTER + INTRA:          -5.468
REMARK INTER:                  -4.916
REMARK INTRA:                  -0.553
REMARK UNBOUND:                -0.539
REMARK SMILES O=C([O-])CCCCCCCCC(=O)[O-]
REMARK SMILES IDX 7 1 6 2 5 3 4 4 2 5 1 6 3 7 8 8 9 9 10 10 11 11 12 12 13 13
REMARK SMILES IDX 14 14
REMARK H PARENT
REMARK Flexibility Score: inf
ROOT
ATOM      1  C   UNL     1       6.750  10.147 -13.124  1.00  0.00     0.000 C 
ENDROOT
BRANCH   1   2
ATOM      2  C   UNL     1       6.752   8.803 -12.377  1.00  0.00     0.000 C 
BRANCH   2   3
ATOM      3  C   UNL     1       5.337   8.312 -12.034  1.00  0.00     0.006 C 
BRANCH   3   4
ATOM      4  C   UNL     1       5.064   8.438 -10.532  1.00  0.00     0.053 C 
BRANCH   4   5
ATOM      5  C   UNL     1       3.642   8.834 -10.290  1.00  0.00     0.041 C 
ATOM      6  O   UNL     1       2.966   9.363 -11.212  1.00  0.00    -0.550 OA
ATOM      7  O   UNL     1       3.076   8.661  -9.033  1.00  0.00    -0.550 OA
ENDBRANCH   4   5
ENDBRANCH   3   4
ENDBRANCH   2   3
ENDBRANCH   1   2
BRANCH   1   8
ATOM      8  C   UNL     1       5.344  10.562 -13.591  1.00  0.00     0.000 C 
BRANCH   8   9
ATOM      9  C   UNL     1       5.172  10.451 -15.115  1.00  0.00     0.000 C 
BRANCH   9  10
ATOM     10  C   UNL     1       3.887  11.133 -15.618  1.00  0.00     0.006 C 
BRANCH  10  11
ATOM     11  C   UNL     1       4.147  12.564 -16.110  1.00  0.00     0.053 C 
BRANCH  11  12
ATOM     12  C   UNL     1       3.399  13.578 -15.300  1.00  0.00     0.041 C 
ATOM     13  O   UNL     1       2.844  13.241 -14.221  1.00  0.00    -0.550 OA
ATOM     14  O   UNL     1       3.341  14.900 -15.721  1.00  0.00    -0.550 OA
ENDBRANCH  11  12
ENDBRANCH  10  11
ENDBRANCH   9  10
ENDBRANCH   8   9
ENDBRANCH   1   8
TORSDOF 9
ENDMDL
MODEL 3
REMARK VINA RESULT:    -3.075      1.460      2.363
REMARK INTER + INTRA:          -5.233
REMARK INTER:                  -4.486
REMARK INTRA:                  -0.747
REMARK UNBOUND:                -0.539
REMARK SMILES O=C([O-])CCCCCCCCC(=O)[O-]
REMARK SMILES IDX 7 1 6 2 5 3 4 4 2 5 1 6 3 7 8 8 9 9 10 10 11 11 12 12 13 13
REMARK SMILES IDX 14 14
REMARK H PARENT
REMARK Flexibility Score: inf
ROOT
ATOM      1  C   UNL     1       6.679   9.314 -12.718  1.00  0.00     0.000 C 
ENDROOT
BRANCH   1   2
ATOM      2  C   UNL     1       6.038  10.518 -13.427  1.00  0.00     0.000 C 
BRANCH   2   3
ATOM      3  C   UNL     1       5.715  10.236 -14.902  1.00  0.00     0.006 C 
BRANCH   3   4
ATOM      4  C   UNL     1       4.201  10.215 -15.135  1.00  0.00     0.053 C 
BRANCH   4   5
ATOM      5  C   UNL     1       3.601  11.543 -14.794  1.00  0.00     0.041 C 
ATOM      6  O   UNL     1       2.682  11.621 -13.938  1.00  0.00    -0.550 OA
ATOM      7  O   UNL     1       4.025  12.688 -15.456  1.00  0.00    -0.550 OA
ENDBRANCH   4   5
ENDBRANCH   3   4
ENDBRANCH   2   3
ENDBRANCH   1   2
BRANCH   1   8
ATOM      8  C   UNL     1       5.828   8.797 -11.545  1.00  0.00     0.000 C 
BRANCH   8   9
ATOM      9  C   UNL     1       4.420   8.361 -11.984  1.00  0.00     0.000 C 
BRANCH   9  10
ATOM     10  C   UNL     1       3.311   9.239 -11.376  1.00  0.00     0.006 C 
BRANCH  10  11
ATOM     11  C   UNL     1       2.386   8.441 -10.448  1.00  0.00     0.053 C 
BRANCH  11  12
ATOM     12  C   UNL     1       2.744   8.629  -9.005  1.00  0.00     0.041 C 
ATOM     13  O   UNL     1       1.989   9.294  -8.247  1.00  0.00    -0.550 OA
ATOM     14  O   UNL     1       3.895   8.045  -8.492  1.00  0.00    -0.550 OA
ENDBRANCH  11  12
ENDBRANCH  10  11
ENDBRANCH   9  10
ENDBRANCH   8   9
ENDBRANCH   1   8
TORSDOF 9
ENDMDL
MODEL 4
REMARK VINA RESULT:    -2.949      1.946      2.381
REMARK INTER + INTRA:          -5.039
REMARK INTER:                  -4.247
REMARK INTRA:                  -0.792
REMARK UNBOUND:                -0.539
REMARK SMILES O=C([O-])CCCCCCCCC(=O)[O-]
REMARK SMILES IDX 7 1 6 2 5 3 4 4 2 5 1 6 3 7 8 8 9 9 10 10 11 11 12 12 13 13
REMARK SMILES IDX 14 14
REMARK H PARENT
REMARK Flexibility Score: inf
ROOT
ATOM      1  C   UNL     1       6.672  10.443 -13.455  1.00  0.00     0.000 C 
ENDROOT
BRANCH   1   2
ATOM      2  C   UNL     1       5.653  10.149 -14.568  1.00  0.00     0.000 C 
BRANCH   2   3
ATOM      3  C   UNL     1       4.539  11.205 -14.647  1.00  0.00     0.006 C 
BRANCH   3   4
ATOM      4  C   UNL     1       3.249  10.599 -15.209  1.00  0.00     0.053 C 
BRANCH   4   5
ATOM      5  C   UNL     1       2.514   9.852 -14.142  1.00  0.00     0.041 C 
ATOM      6  O   UNL     1       2.163  10.439 -13.085  1.00  0.00    -0.550 OA
ATOM      7  O   UNL     1       2.256   8.495 -14.294  1.00  0.00    -0.550 OA
ENDBRANCH   4   5
ENDBRANCH   3   4
ENDBRANCH   2   3
ENDBRANCH   1   2
BRANCH   1   8
ATOM      8  C   UNL     1       6.833   9.268 -12.475  1.00  0.00     0.000 C 
BRANCH   8   9
ATOM      9  C   UNL     1       5.947   8.066 -12.844  1.00  0.00     0.000 C 
BRANCH   9  10
ATOM     10  C   UNL     1       4.770   7.875 -11.871  1.00  0.00     0.006 C 
BRANCH  10  11
ATOM     11  C   UNL     1       5.031   8.539 -10.512  1.00  0.00     0.053 C 
BRANCH  11  12
ATOM     12  C   UNL     1       3.813   8.526  -9.640  1.00  0.00     0.041 C 
ATOM     13  O   UNL     1       3.883   8.090  -8.461  1.00  0.00    -0.550 OA
ATOM     14  O   UNL     1       2.608   9.022 -10.121  1.00  0.00    -0.550 OA
ENDBRANCH  11  12
ENDBRANCH  10  11
ENDBRANCH   9  10
ENDBRANCH   8   9
ENDBRANCH   1   8
TORSDOF 9
ENDMDL
MODEL 5
REMARK VINA RESULT:    -2.816      2.882      5.433
REMARK INTER + INTRA:          -4.836
REMARK INTER:                  -4.177
REMARK INTRA:                  -0.659
REMARK UNBOUND:                -0.539
REMARK SMILES O=C([O-])CCCCCCCCC(=O)[O-]
REMARK SMILES IDX 7 1 6 2 5 3 4 4 2 5 1 6 3 7 8 8 9 9 10 10 11 11 12 12 13 13
REMARK SMILES IDX 14 14
REMARK H PARENT
REMARK Flexibility Score: inf
ROOT
ATOM      1  C   UNL     1       2.389  10.335 -14.076  1.00  0.00     0.000 C 
ENDROOT
BRANCH   1   2
ATOM      2  C   UNL     1       2.016   9.968 -12.630  1.00  0.00     0.000 C 
BRANCH   2   3
ATOM      3  C   UNL     1       3.219   9.465 -11.816  1.00  0.00     0.006 C 
BRANCH   3   4
ATOM      4  C   UNL     1       2.761   8.836 -10.496  1.00  0.00     0.053 C 
BRANCH   4   5
ATOM      5  C   UNL     1       3.939   8.536  -9.624  1.00  0.00     0.041 C 
ATOM      6  O   UNL     1       3.766   8.097  -8.456  1.00  0.00    -0.550 OA
ATOM      7  O   UNL     1       5.226   8.784 -10.083  1.00  0.00    -0.550 OA
ENDBRANCH   4   5
ENDBRANCH   3   4
ENDBRANCH   2   3
ENDBRANCH   1   2
BRANCH   1   8
ATOM      8  C   UNL     1       2.828  11.802 -14.220  1.00  0.00     0.000 C 
BRANCH   8   9
ATOM      9  C   UNL     1       4.265  11.940 -14.748  1.00  0.00     0.000 C 
BRANCH   9  10
ATOM     10  C   UNL     1       4.975  10.582 -14.896  1.00  0.00     0.006 C 
BRANCH  10  11
ATOM     11  C   UNL     1       6.079  10.390 -13.847  1.00  0.00     0.053 C 
BRANCH  11  12
ATOM     12  C   UNL     1       6.464   8.950 -13.698  1.00  0.00     0.041 C 
ATOM     13  O   UNL     1       6.119   8.109 -14.570  1.00  0.00    -0.550 OA
ATOM     14  O   UNL     1       7.230   8.543 -12.614  1.00  0.00    -0.550 OA
ENDBRANCH  11  12
ENDBRANCH  10  11
ENDBRANCH   9  10
ENDBRANCH   8   9
ENDBRANCH   1   8
TORSDOF 9
ENDMDL
MODEL 6
REMARK VINA RESULT:    -2.692     14.009     15.977
REMARK INTER + INTRA:          -4.648
REMARK INTER:                  -3.952
REMARK INTRA:                  -0.696
REMARK UNBOUND:                -0.539
REMARK SMILES O=C([O-])CCCCCCCCC(=O)[O-]
REMARK SMILES IDX 7 1 6 2 5 3 4 4 2 5 1 6 3 7 8 8 9 9 10 10 11 11 12 12 13 13
REMARK SMILES IDX 14 14
REMARK H PARENT
REMARK Flexibility Score: inf
ROOT
ATOM      1  C   UNL     1      19.162  10.636 -15.812  1.00  0.00     0.000 C 
ENDROOT
BRANCH   1   2
ATOM      2  C   UNL     1      18.525  11.601 -14.799  1.00  0.00     0.000 C 
BRANCH   2   3
ATOM      3  C   UNL     1      17.577  10.892 -13.819  1.00  0.00     0.006 C 
BRANCH   3   4
ATOM      4  C   UNL     1      17.834   9.381 -13.806  1.00  0.00     0.053 C 
BRANCH   4   5
ATOM      5  C   UNL     1      16.693   8.651 -14.441  1.00  0.00     0.041 C 
ATOM      6  O   UNL     1      16.894   7.898 -15.429  1.00  0.00    -0.550 OA
ATOM      7  O   UNL     1      15.399   8.839 -13.969  1.00  0.00    -0.550 OA
ENDBRANCH   4   5
ENDBRANCH   3   4
ENDBRANCH   2   3
ENDBRANCH   1   2
BRANCH   1   8
ATOM      8  C   UNL     1      20.688  10.801 -15.908  1.00  0.00     0.000 C 
BRANCH   8   9
ATOM      9  C   UNL     1      21.330  11.153 -14.555  1.00  0.00     0.000 C 
BRANCH   9  10
ATOM     10  C   UNL     1      22.125  12.470 -14.600  1.00  0.00     0.006 C 
BRANCH  10  11
ATOM     11  C   UNL     1      21.917  13.225 -15.920  1.00  0.00     0.053 C 
BRANCH  11  12
ATOM     12  C   UNL     1      21.144  14.494 -15.722  1.00  0.00     0.041 C 
ATOM     13  O   UNL     1      19.931  14.554 -16.055  1.00  0.00    -0.550 OA
ATOM     14  O   UNL     1      21.755  15.598 -15.142  1.00  0.00    -0.550 OA
ENDBRANCH  11  12
ENDBRANCH  10  11
ENDBRANCH   9  10
ENDBRANCH   8   9
ENDBRANCH   1   8
TORSDOF 9
ENDMDL
MODEL 7
REMARK VINA RESULT:    -2.509      2.249      4.879
REMARK INTER + INTRA:          -4.368
REMARK INTER:                  -3.676
REMARK INTRA:                  -0.692
REMARK UNBOUND:                -0.539
REMARK SMILES O=C([O-])CCCCCCCCC(=O)[O-]
REMARK SMILES IDX 7 1 6 2 5 3 4 4 2 5 1 6 3 7 8 8 9 9 10 10 11 11 12 12 13 13
REMARK SMILES IDX 14 14
REMARK H PARENT
REMARK Flexibility Score: inf
ROOT
ATOM      1  C   UNL     1       5.308   8.848 -10.397  1.00  0.00     0.000 C 
ENDROOT
BRANCH   1   2
ATOM      2  C   UNL     1       4.350   8.014  -9.530  1.00  0.00     0.000 C 
BRANCH   2   3
ATOM      3  C   UNL     1       2.953   7.875 -10.154  1.00  0.00     0.006 C 
BRANCH   3   4
ATOM      4  C   UNL     1       2.437   9.231 -10.645  1.00  0.00     0.053 C 
BRANCH   4   5
ATOM      5  C   UNL     1       2.183   9.192 -12.119  1.00  0.00     0.041 C 
ATOM      6  O   UNL     1       2.148   8.090 -12.726  1.00  0.00    -0.550 OA
ATOM      7  O   UNL     1       2.030  10.375 -12.831  1.00  0.00    -0.550 OA
ENDBRANCH   4   5
ENDBRANCH   3   4
ENDBRANCH   2   3
ENDBRANCH   1   2
BRANCH   1   8
ATOM      8  C   UNL     1       5.915   8.038 -11.555  1.00  0.00     0.000 C 
BRANCH   8   9
ATOM      9  C   UNL     1       6.759   8.905 -12.504  1.00  0.00     0.000 C 
BRANCH   9  10
ATOM     10  C   UNL     1       6.491   8.594 -13.987  1.00  0.00     0.006 C 
BRANCH  10  11
ATOM     11  C   UNL     1       5.092   9.047 -14.429  1.00  0.00     0.053 C 
BRANCH  11  12
ATOM     12  C   UNL     1       5.087  10.470 -14.897  1.00  0.00     0.041 C 
ATOM     13  O   UNL     1       5.306  10.738 -16.108  1.00  0.00    -0.550 OA
ATOM     14  O   UNL     1       4.809  11.496 -14.004  1.00  0.00    -0.550 OA
ENDBRANCH  11  12
ENDBRANCH  10  11
ENDBRANCH   9  10
ENDBRANCH   8   9
ENDBRANCH   1   8
TORSDOF 9
ENDMDL
MODEL 8
REMARK VINA RESULT:    -2.311     13.387     15.348
REMARK INTER + INTRA:          -4.066
REMARK INTER:                  -3.871
REMARK INTRA:                  -0.195
REMARK UNBOUND:                -0.539
REMARK SMILES O=C([O-])CCCCCCCCC(=O)[O-]
REMARK SMILES IDX 7 1 6 2 5 3 4 4 2 5 1 6 3 7 8 8 9 9 10 10 11 11 12 12 13 13
REMARK SMILES IDX 14 14
REMARK H PARENT
REMARK Flexibility Score: inf
ROOT
ATOM      1  C   UNL     1      18.276  11.596 -13.806  1.00  0.00     0.000 C 
ENDROOT
BRANCH   1   2
ATOM      2  C   UNL     1      18.012  10.119 -13.471  1.00  0.00     0.000 C 
BRANCH   2   3
ATOM      3  C   UNL     1      17.497   9.319 -14.677  1.00  0.00     0.006 C 
BRANCH   3   4
ATOM      4  C   UNL     1      16.594   8.167 -14.225  1.00  0.00     0.053 C 
BRANCH   4   5
ATOM      5  C   UNL     1      15.155   8.566 -14.310  1.00  0.00     0.041 C 
ATOM      6  O   UNL     1      14.355   7.904 -15.022  1.00  0.00    -0.550 OA
ATOM      7  O   UNL     1      14.706   9.696 -13.639  1.00  0.00    -0.550 OA
ENDBRANCH   4   5
ENDBRANCH   3   4
ENDBRANCH   2   3
ENDBRANCH   1   2
BRANCH   1   8
ATOM      8  C   UNL     1      18.884  11.784 -15.207  1.00  0.00     0.000 C 
BRANCH   8   9
ATOM      9  C   UNL     1      20.187  10.989 -15.397  1.00  0.00     0.000 C 
BRANCH   9  10
ATOM     10  C   UNL     1      21.391  11.892 -15.722  1.00  0.00     0.006 C 
BRANCH  10  11
ATOM     11  C   UNL     1      21.729  12.842 -14.566  1.00  0.00     0.053 C 
BRANCH  11  12
ATOM     12  C   UNL     1      21.544  14.278 -14.950  1.00  0.00     0.041 C 
ATOM     13  O   UNL     1      20.839  14.580 -15.949  1.00  0.00    -0.550 OA
ATOM     14  O   UNL     1      22.125  15.283 -14.187  1.00  0.00    -0.550 OA
ENDBRANCH  11  12
ENDBRANCH  10  11
ENDBRANCH   9  10
ENDBRANCH   8   9
ENDBRANCH   1   8
TORSDOF 9
ENDMDL
MODEL 9
REMARK VINA RESULT:    -2.221     14.345     15.758
REMARK INTER + INTRA:          -3.928
REMARK INTER:                  -3.894
REMARK INTRA:                  -0.034
REMARK UNBOUND:                -0.539
REMARK SMILES O=C([O-])CCCCCCCCC(=O)[O-]
REMARK SMILES IDX 7 1 6 2 5 3 4 4 2 5 1 6 3 7 8 8 9 9 10 10 11 11 12 12 13 13
REMARK SMILES IDX 14 14
REMARK H PARENT
REMARK Flexibility Score: inf
ROOT
ATOM      1  C   UNL     1      19.416  12.397 -14.209  1.00  0.00     0.000 C 
ENDROOT
BRANCH   1   2
ATOM      2  C   UNL     1      20.925  12.251 -13.954  1.00  0.00     0.000 C 
BRANCH   2   3
ATOM      3  C   UNL     1      21.775  13.063 -14.944  1.00  0.00     0.006 C 
BRANCH   3   4
ATOM      4  C   UNL     1      21.859  14.532 -14.516  1.00  0.00     0.053 C 
BRANCH   4   5
ATOM      5  C   UNL     1      21.378  15.425 -15.616  1.00  0.00     0.041 C 
ATOM      6  O   UNL     1      22.118  16.344 -16.054  1.00  0.00    -0.550 OA
ATOM      7  O   UNL     1      20.094  15.272 -16.125  1.00  0.00    -0.550 OA
ENDBRANCH   4   5
ENDBRANCH   3   4
ENDBRANCH   2   3
ENDBRANCH   1   2
BRANCH   1   8
ATOM      8  C   UNL     1      18.934  11.556 -15.403  1.00  0.00     0.000 C 
BRANCH   8   9
ATOM      9  C   UNL     1      19.974  10.516 -15.851  1.00  0.00     0.000 C 
BRANCH   9  10
ATOM     10  C   UNL     1      19.608   9.085 -15.415  1.00  0.00     0.006 C 
BRANCH  10  11
ATOM     11  C   UNL     1      18.140   8.750 -15.709  1.00  0.00     0.053 C 
BRANCH  11  12
ATOM     12  C   UNL     1      17.298   8.794 -14.470  1.00  0.00     0.041 C 
ATOM     13  O   UNL     1      17.699   9.422 -13.455  1.00  0.00    -0.550 OA
ATOM     14  O   UNL     1      16.059   8.167 -14.448  1.00  0.00    -0.550 OA
ENDBRANCH  11  12
ENDBRANCH  10  11
ENDBRANCH   9  10
ENDBRANCH   8   9
ENDBRANCH   1   8
TORSDOF 9
ENDMDL
