MODEL 1
REMARK VINA RESULT:    -4.729      0.000      0.000
REMARK INTER + INTRA:          -5.143
REMARK INTER:                  -5.006
REMARK INTRA:                  -0.137
REMARK UNBOUND:                -0.137
REMARK SMILES C=C(C)[C@@H]1CC=C(C)CC1
REMARK SMILES IDX 8 1 7 2 6 3 5 4 4 5 10 6 9 7 2 8 1 9 3 10
REMARK H PARENT
REMARK Flexibility Score: inf
ROOT
ATOM      1  C   UNL     1      -6.599 -13.895  18.748  1.00  0.00     0.039 C 
ATOM      2  C   UNL     1      -7.524 -14.057  17.574  1.00  0.00    -0.077 C 
ATOM      3  C   UNL     1      -7.903 -12.961  16.884  1.00  0.00    -0.027 C 
ATOM      4  C   UNL     1      -8.851 -13.001  15.708  1.00  0.00     0.035 C 
ATOM      5  C   UNL     1      -9.064 -14.410  15.112  1.00  0.00     0.018 C 
ATOM      6  C   UNL     1      -9.130 -15.476  16.218  1.00  0.00     0.013 C 
ATOM      7  C   UNL     1      -7.894 -15.453  17.121  1.00  0.00     0.031 C 
ENDROOT
BRANCH   5   8
ATOM      8  C   UNL     1      -8.066 -14.776  14.012  1.00  0.00    -0.077 C 
ATOM      9  C   UNL     1      -6.881 -14.156  13.880  1.00  0.00     0.008 C 
ATOM     10  C   UNL     1      -8.406 -15.876  13.040  1.00  0.00     0.039 C 
ENDBRANCH   5   8
TORSDOF 1
ENDMDL
MODEL 2
REMARK VINA RESULT:    -4.494     15.388     17.100
REMARK INTER + INTRA:          -4.894
REMARK INTER:                  -4.760
REMARK INTRA:                  -0.134
REMARK UNBOUND:                -0.137
REMARK SMILES C=C(C)[C@@H]1CC=C(C)CC1
REMARK SMILES IDX 8 1 7 2 6 3 5 4 4 5 10 6 9 7 2 8 1 9 3 10
REMARK H PARENT
REMARK Flexibility Score: inf
ROOT
ATOM      1  C   UNL     1       4.086 -18.798  28.807  1.00  0.00     0.039 C 
ATOM      2  C   UNL     1       2.603 -18.558  28.849  1.00  0.00    -0.077 C 
ATOM      3  C   UNL     1       1.805 -19.491  29.410  1.00  0.00    -0.027 C 
ATOM      4  C   UNL     1       0.301 -19.370  29.479  1.00  0.00     0.035 C 
ATOM      5  C   UNL     1      -0.235 -17.946  29.207  1.00  0.00     0.018 C 
ATOM      6  C   UNL     1       0.562 -17.259  28.087  1.00  0.00     0.013 C 
ATOM      7  C   UNL     1       2.064 -17.222  28.382  1.00  0.00     0.031 C 
ENDROOT
BRANCH   5   8
ATOM      8  C   UNL     1      -0.348 -17.076  30.458  1.00  0.00    -0.077 C 
ATOM      9  C   UNL     1      -0.141 -15.748  30.433  1.00  0.00     0.008 C 
ATOM     10  C   UNL     1      -0.713 -17.713  31.774  1.00  0.00     0.039 C 
ENDBRANCH   5   8
TORSDOF 1
ENDMDL
MODEL 3
REMARK VINA RESULT:    -4.407     13.542     16.061
REMARK INTER + INTRA:          -4.801
REMARK INTER:                  -4.531
REMARK INTRA:                  -0.271
REMARK UNBOUND:                -0.137
REMARK SMILES C=C(C)[C@@H]1CC=C(C)CC1
REMARK SMILES IDX 8 1 7 2 6 3 5 4 4 5 10 6 9 7 2 8 1 9 3 10
REMARK H PARENT
REMARK Flexibility Score: inf
ROOT
ATOM      1  C   UNL     1       3.605 -19.451  28.771  1.00  0.00     0.039 C 
ATOM      2  C   UNL     1       2.316 -18.715  29.009  1.00  0.00    -0.077 C 
ATOM      3  C   UNL     1       2.256 -17.395  28.734  1.00  0.00    -0.027 C 
ATOM      4  C   UNL     1       1.026 -16.549  28.963  1.00  0.00     0.035 C 
ATOM      5  C   UNL     1      -0.272 -17.361  29.176  1.00  0.00     0.018 C 
ATOM      6  C   UNL     1      -0.007 -18.617  30.022  1.00  0.00     0.013 C 
ATOM      7  C   UNL     1       1.090 -19.501  29.421  1.00  0.00     0.031 C 
ENDROOT
BRANCH   5   8
ATOM      8  C   UNL     1      -1.024 -17.679  27.883  1.00  0.00    -0.077 C 
ATOM      9  C   UNL     1      -0.741 -17.074  26.717  1.00  0.00     0.008 C 
ATOM     10  C   UNL     1      -2.119 -18.714  27.900  1.00  0.00     0.039 C 
ENDBRANCH   5   8
TORSDOF 1
ENDMDL
MODEL 4
REMARK VINA RESULT:    -4.289     13.633     16.082
REMARK INTER + INTRA:          -4.677
REMARK INTER:                  -4.408
REMARK INTRA:                  -0.269
REMARK UNBOUND:                -0.137
REMARK SMILES C=C(C)[C@@H]1CC=C(C)CC1
REMARK SMILES IDX 8 1 7 2 6 3 5 4 4 5 10 6 9 7 2 8 1 9 3 10
REMARK H PARENT
REMARK Flexibility Score: inf
ROOT
ATOM      1  C   UNL     1       1.517 -20.956  29.835  1.00  0.00     0.039 C 
ATOM      2  C   UNL     1       1.117 -19.521  29.635  1.00  0.00    -0.077 C 
ATOM      3  C   UNL     1       1.920 -18.712  28.913  1.00  0.00    -0.027 C 
ATOM      4  C   UNL     1       1.634 -17.248  28.674  1.00  0.00     0.035 C 
ATOM      5  C   UNL     1       0.182 -16.825  28.989  1.00  0.00     0.018 C 
ATOM      6  C   UNL     1      -0.342 -17.538  30.246  1.00  0.00     0.013 C 
ATOM      7  C   UNL     1      -0.236 -19.062  30.136  1.00  0.00     0.031 C 
ENDROOT
BRANCH   5   8
ATOM      8  C   UNL     1      -0.774 -16.959  27.804  1.00  0.00    -0.077 C 
ATOM      9  C   UNL     1      -0.341 -17.121  26.542  1.00  0.00     0.008 C 
ATOM     10  C   UNL     1      -2.262 -16.919  28.045  1.00  0.00     0.039 C 
ENDBRANCH   5   8
TORSDOF 1
ENDMDL
MODEL 5
REMARK VINA RESULT:    -4.282      1.495      3.769
REMARK INTER + INTRA:          -4.670
REMARK INTER:                  -4.421
REMARK INTRA:                  -0.249
REMARK UNBOUND:                -0.137
REMARK SMILES C=C(C)[C@@H]1CC=C(C)CC1
REMARK SMILES IDX 8 1 7 2 6 3 5 4 4 5 10 6 9 7 2 8 1 9 3 10
REMARK H PARENT
REMARK Flexibility Score: inf
ROOT
ATOM      1  C   UNL     1      -8.251 -15.743  13.259  1.00  0.00     0.039 C 
ATOM      2  C   UNL     1      -8.341 -14.905  14.505  1.00  0.00    -0.077 C 
ATOM      3  C   UNL     1      -7.902 -13.630  14.467  1.00  0.00    -0.027 C 
ATOM      4  C   UNL     1      -7.915 -12.707  15.664  1.00  0.00     0.035 C 
ATOM      5  C   UNL     1      -8.804 -13.193  16.830  1.00  0.00     0.018 C 
ATOM      6  C   UNL     1      -8.702 -14.717  17.008  1.00  0.00     0.013 C 
ATOM      7  C   UNL     1      -9.039 -15.475  15.721  1.00  0.00     0.031 C 
ENDROOT
BRANCH   5   8
ATOM      8  C   UNL     1     -10.254 -12.714  16.748  1.00  0.00    -0.077 C 
ATOM      9  C   UNL     1     -11.170 -13.027  17.679  1.00  0.00     0.008 C 
ATOM     10  C   UNL     1     -10.683 -11.850  15.590  1.00  0.00     0.039 C 
ENDBRANCH   5   8
TORSDOF 1
ENDMDL
MODEL 6
REMARK VINA RESULT:    -4.196      1.736      3.539
REMARK INTER + INTRA:          -4.578
REMARK INTER:                  -4.329
REMARK INTRA:                  -0.248
REMARK UNBOUND:                -0.137
REMARK SMILES C=C(C)[C@@H]1CC=C(C)CC1
REMARK SMILES IDX 8 1 7 2 6 3 5 4 4 5 10 6 9 7 2 8 1 9 3 10
REMARK H PARENT
REMARK Flexibility Score: inf
ROOT
ATOM      1  C   UNL     1     -12.022 -11.238  15.576  1.00  0.00     0.039 C 
ATOM      2  C   UNL     1     -10.729 -11.988  15.735  1.00  0.00    -0.077 C 
ATOM      3  C   UNL     1     -10.436 -12.539  16.932  1.00  0.00    -0.027 C 
ATOM      4  C   UNL     1      -9.154 -13.287  17.214  1.00  0.00     0.035 C 
ATOM      5  C   UNL     1      -8.371 -13.706  15.949  1.00  0.00     0.018 C 
ATOM      6  C   UNL     1      -8.425 -12.607  14.876  1.00  0.00     0.013 C 
ATOM      7  C   UNL     1      -9.861 -12.216  14.516  1.00  0.00     0.031 C 
ENDROOT
BRANCH   5   8
ATOM      8  C   UNL     1      -8.767 -15.076  15.399  1.00  0.00    -0.077 C 
ATOM      9  C   UNL     1      -9.396 -15.999  16.147  1.00  0.00     0.008 C 
ATOM     10  C   UNL     1      -8.458 -15.415  13.963  1.00  0.00     0.039 C 
ENDBRANCH   5   8
TORSDOF 1
ENDMDL
MODEL 7
REMARK VINA RESULT:    -4.104     12.352     15.599
REMARK INTER + INTRA:          -4.481
REMARK INTER:                  -4.261
REMARK INTRA:                  -0.220
REMARK UNBOUND:                -0.137
REMARK SMILES C=C(C)[C@@H]1CC=C(C)CC1
REMARK SMILES IDX 8 1 7 2 6 3 5 4 4 5 10 6 9 7 2 8 1 9 3 10
REMARK H PARENT
REMARK Flexibility Score: inf
ROOT
ATOM      1  C   UNL     1      -2.251 -16.178  26.201  1.00  0.00     0.039 C 
ATOM      2  C   UNL     1      -1.278 -16.500  27.302  1.00  0.00    -0.077 C 
ATOM      3  C   UNL     1      -1.584 -16.146  28.568  1.00  0.00    -0.027 C 
ATOM      4  C   UNL     1      -0.670 -16.390  29.746  1.00  0.00     0.035 C 
ATOM      5  C   UNL     1       0.465 -17.402  29.470  1.00  0.00     0.018 C 
ATOM      6  C   UNL     1       1.033 -17.224  28.053  1.00  0.00     0.013 C 
ATOM      7  C   UNL     1      -0.052 -17.324  26.976  1.00  0.00     0.031 C 
ENDROOT
BRANCH   5   8
ATOM      8  C   UNL     1       0.089 -18.854  29.768  1.00  0.00    -0.077 C 
ATOM      9  C   UNL     1      -1.165 -19.224  30.080  1.00  0.00     0.008 C 
ATOM     10  C   UNL     1       1.150 -19.922  29.703  1.00  0.00     0.039 C 
ENDBRANCH   5   8
TORSDOF 1
ENDMDL
MODEL 8
REMARK VINA RESULT:    -4.067      1.412      2.651
REMARK INTER + INTRA:          -4.442
REMARK INTER:                  -4.177
REMARK INTRA:                  -0.266
REMARK UNBOUND:                -0.137
REMARK SMILES C=C(C)[C@@H]1CC=C(C)CC1
REMARK SMILES IDX 8 1 7 2 6 3 5 4 4 5 10 6 9 7 2 8 1 9 3 10
REMARK H PARENT
REMARK Flexibility Score: inf
ROOT
ATOM      1  C   UNL     1     -11.292 -12.490  17.432  1.00  0.00     0.039 C 
ATOM      2  C   UNL     1     -10.025 -13.238  17.120  1.00  0.00    -0.077 C 
ATOM      3  C   UNL     1     -10.048 -14.587  17.110  1.00  0.00    -0.027 C 
ATOM      4  C   UNL     1      -8.831 -15.441  16.841  1.00  0.00     0.035 C 
ATOM      5  C   UNL     1      -7.646 -14.676  16.211  1.00  0.00     0.018 C 
ATOM      6  C   UNL     1      -7.507 -13.270  16.819  1.00  0.00     0.013 C 
ATOM      7  C   UNL     1      -8.799 -12.456  16.699  1.00  0.00     0.031 C 
ENDROOT
BRANCH   5   8
ATOM      8  C   UNL     1      -7.667 -14.648  14.682  1.00  0.00    -0.077 C 
ATOM      9  C   UNL     1      -6.796 -13.920  13.963  1.00  0.00     0.008 C 
ATOM     10  C   UNL     1      -8.690 -15.470  13.941  1.00  0.00     0.039 C 
ENDBRANCH   5   8
TORSDOF 1
ENDMDL
MODEL 9
REMARK VINA RESULT:    -4.014     11.476     14.431
REMARK INTER + INTRA:          -4.386
REMARK INTER:                  -4.169
REMARK INTRA:                  -0.217
REMARK UNBOUND:                -0.137
REMARK SMILES C=C(C)[C@@H]1CC=C(C)CC1
REMARK SMILES IDX 8 1 7 2 6 3 5 4 4 5 10 6 9 7 2 8 1 9 3 10
REMARK H PARENT
REMARK Flexibility Score: inf
ROOT
ATOM      1  C   UNL     1      -2.917 -14.359  25.879  1.00  0.00     0.039 C 
ATOM      2  C   UNL     1      -2.483 -15.470  26.793  1.00  0.00    -0.077 C 
ATOM      3  C   UNL     1      -1.921 -16.575  26.259  1.00  0.00    -0.027 C 
ATOM      4  C   UNL     1      -1.476 -17.764  27.077  1.00  0.00     0.035 C 
ATOM      5  C   UNL     1      -1.358 -17.484  28.592  1.00  0.00     0.018 C 
ATOM      6  C   UNL     1      -2.498 -16.573  29.077  1.00  0.00     0.013 C 
ATOM      7  C   UNL     1      -2.566 -15.261  28.290  1.00  0.00     0.031 C 
ENDROOT
BRANCH   5   8
ATOM      8  C   UNL     1       0.017 -16.975  29.025  1.00  0.00    -0.077 C 
ATOM      9  C   UNL     1       1.135 -17.238  28.326  1.00  0.00     0.008 C 
ATOM     10  C   UNL     1       0.138 -16.140  30.274  1.00  0.00     0.039 C 
ENDBRANCH   5   8
TORSDOF 1
ENDMDL
