MODEL 1
REMARK VINA RESULT:    -5.713      0.000      0.000
REMARK INTER + INTRA:          -7.024
REMARK INTER:                  -6.715
REMARK INTRA:                  -0.310
REMARK UNBOUND:                -0.310
REMARK SMILES O=c1c(O)c(-c2ccc(O)c(O)c2)oc2cc(O)ccc12
REMARK SMILES IDX 5 1 3 2 2 3 1 4 21 5 15 6 14 7 16 8 17 9 19 10 20 11 6 12
REMARK SMILES IDX 7 13 8 14 9 15 13 16 11 17 10 18 12 20 4 22 18 24
REMARK H PARENT 10 19 12 21 4 23 18 25
REMARK Flexibility Score: inf
ROOT
ATOM      1  C   UNL     1     -39.019  48.012  25.881  1.00  0.00     0.180 A 
ATOM      2  C   UNL     1     -40.057  47.167  26.325  1.00  0.00     0.208 A 
ATOM      3  C   UNL     1     -39.807  46.290  27.391  1.00  0.00     0.235 A 
ATOM      4  O   UNL     1     -40.723  45.533  27.814  1.00  0.00    -0.285 OA
ATOM      5  C   UNL     1     -38.530  46.260  27.975  1.00  0.00     0.069 A 
ATOM      6  C   UNL     1     -37.538  47.119  27.457  1.00  0.00     0.142 A 
ATOM      7  O   UNL     1     -37.818  47.941  26.452  1.00  0.00    -0.452 OA
ATOM      8  C   UNL     1     -36.250  47.111  28.005  1.00  0.00     0.094 A 
ATOM      9  C   UNL     1     -35.941  46.255  29.067  1.00  0.00     0.119 A 
ATOM     10  C   UNL     1     -36.924  45.401  29.584  1.00  0.00     0.047 A 
ATOM     11  C   UNL     1     -38.214  45.401  29.043  1.00  0.00     0.020 A 
ENDROOT
BRANCH   1  12
ATOM     12  C   UNL     1     -39.209  48.977  24.775  1.00  0.00     0.025 A 
ATOM     13  C   UNL     1     -39.595  50.293  25.066  1.00  0.00     0.016 A 
ATOM     14  C   UNL     1     -39.800  51.214  24.037  1.00  0.00     0.051 A 
ATOM     15  C   UNL     1     -39.639  50.837  22.700  1.00  0.00     0.157 A 
ATOM     16  C   UNL     1     -39.068  48.590  23.431  1.00  0.00     0.062 A 
ATOM     17  C   UNL     1     -39.274  49.505  22.392  1.00  0.00     0.158 A 
BRANCH  15  18
ATOM     18  O   UNL     1     -39.851  51.808  21.718  1.00  0.00    -0.504 OA
ATOM     19  H   UNL     1     -39.366  51.832  20.833  1.00  0.00     0.293 HD
ENDBRANCH  15  18
BRANCH  17  20
ATOM     20  O   UNL     1     -39.115  49.051  21.081  1.00  0.00    -0.504 OA
ATOM     21  H   UNL     1     -38.479  48.315  20.811  1.00  0.00     0.293 HD
ENDBRANCH  17  20
ENDBRANCH   1  12
BRANCH   2  22
ATOM     22  O   UNL     1     -41.303  47.185  25.692  1.00  0.00    -0.502 OA
ATOM     23  H   UNL     1     -41.568  47.914  25.040  1.00  0.00     0.293 HD
ENDBRANCH   2  22
BRANCH   9  24
ATOM     24  O   UNL     1     -34.653  46.260  29.600  1.00  0.00    -0.508 OA
ATOM     25  H   UNL     1     -33.934  46.877  29.239  1.00  0.00     0.293 HD
ENDBRANCH   9  24
TORSDOF 5
ENDMDL
MODEL 2
REMARK VINA RESULT:    -5.574      9.098     11.897
REMARK INTER + INTRA:          -6.861
REMARK INTER:                  -6.547
REMARK INTRA:                  -0.313
REMARK UNBOUND:                -0.310
REMARK SMILES O=c1c(O)c(-c2ccc(O)c(O)c2)oc2cc(O)ccc12
REMARK SMILES IDX 5 1 3 2 2 3 1 4 21 5 15 6 14 7 16 8 17 9 19 10 20 11 6 12
REMARK SMILES IDX 7 13 8 14 9 15 13 16 11 17 10 18 12 20 4 22 18 24
REMARK H PARENT 10 19 12 21 4 23 18 25
REMARK Flexibility Score: inf
ROOT
ATOM      1  C   UNL     1     -45.804  40.063  25.496  1.00  0.00     0.180 A 
ATOM      2  C   UNL     1     -46.389  39.002  24.773  1.00  0.00     0.208 A 
ATOM      3  C   UNL     1     -45.997  38.793  23.442  1.00  0.00     0.235 A 
ATOM      4  O   UNL     1     -46.497  37.844  22.779  1.00  0.00    -0.285 OA
ATOM      5  C   UNL     1     -45.052  39.652  22.858  1.00  0.00     0.069 A 
ATOM      6  C   UNL     1     -44.532  40.705  23.640  1.00  0.00     0.142 A 
ATOM      7  O   UNL     1     -44.923  40.863  24.900  1.00  0.00    -0.452 OA
ATOM      8  C   UNL     1     -43.596  41.588  23.090  1.00  0.00     0.094 A 
ATOM      9  C   UNL     1     -43.170  41.432  21.768  1.00  0.00     0.119 A 
ATOM     10  C   UNL     1     -43.684  40.386  20.988  1.00  0.00     0.047 A 
ATOM     11  C   UNL     1     -44.620  39.499  21.528  1.00  0.00     0.020 A 
ENDROOT
BRANCH   1  12
ATOM     12  C   UNL     1     -46.151  40.337  26.909  1.00  0.00     0.025 A 
ATOM     13  C   UNL     1     -45.484  39.645  27.929  1.00  0.00     0.016 A 
ATOM     14  C   UNL     1     -45.809  39.873  29.268  1.00  0.00     0.051 A 
ATOM     15  C   UNL     1     -46.815  40.783  29.612  1.00  0.00     0.157 A 
ATOM     16  C   UNL     1     -47.177  41.235  27.251  1.00  0.00     0.062 A 
ATOM     17  C   UNL     1     -47.512  41.468  28.590  1.00  0.00     0.158 A 
BRANCH  15  18
ATOM     18  O   UNL     1     -47.087  40.971  30.970  1.00  0.00    -0.504 OA
ATOM     19  H   UNL     1     -47.689  40.370  31.513  1.00  0.00     0.293 HD
ENDBRANCH  15  18
BRANCH  17  20
ATOM     20  O   UNL     1     -48.541  42.374  28.857  1.00  0.00    -0.504 OA
ATOM     21  H   UNL     1     -49.493  42.260  28.538  1.00  0.00     0.293 HD
ENDBRANCH  17  20
ENDBRANCH   1  12
BRANCH   2  22
ATOM     22  O   UNL     1     -47.363  38.194  25.366  1.00  0.00    -0.502 OA
ATOM     23  H   UNL     1     -48.348  38.426  25.337  1.00  0.00     0.293 HD
ENDBRANCH   2  22
BRANCH   9  24
ATOM     24  O   UNL     1     -42.237  42.321  21.237  1.00  0.00    -0.508 OA
ATOM     25  H   UNL     1     -42.525  43.180  20.781  1.00  0.00     0.293 HD
ENDBRANCH   9  24
TORSDOF 5
ENDMDL
MODEL 3
REMARK VINA RESULT:    -5.572      5.158      6.701
REMARK INTER + INTRA:          -6.859
REMARK INTER:                  -6.555
REMARK INTRA:                  -0.304
REMARK UNBOUND:                -0.310
REMARK SMILES O=c1c(O)c(-c2ccc(O)c(O)c2)oc2cc(O)ccc12
REMARK SMILES IDX 5 1 3 2 2 3 1 4 21 5 15 6 14 7 16 8 17 9 19 10 20 11 6 12
REMARK SMILES IDX 7 13 8 14 9 15 13 16 11 17 10 18 12 20 4 22 18 24
REMARK H PARENT 10 19 12 21 4 23 18 25
REMARK Flexibility Score: inf
ROOT
ATOM      1  C   UNL     1     -36.361  50.350  29.718  1.00  0.00     0.180 A 
ATOM      2  C   UNL     1     -36.507  49.857  31.031  1.00  0.00     0.208 A 
ATOM      3  C   UNL     1     -35.995  50.611  32.097  1.00  0.00     0.235 A 
ATOM      4  O   UNL     1     -36.123  50.197  33.282  1.00  0.00    -0.285 OA
ATOM      5  C   UNL     1     -35.336  51.823  31.833  1.00  0.00     0.069 A 
ATOM      6  C   UNL     1     -35.210  52.235  30.489  1.00  0.00     0.142 A 
ATOM      7  O   UNL     1     -35.717  51.496  29.508  1.00  0.00    -0.452 OA
ATOM      8  C   UNL     1     -34.552  53.432  30.184  1.00  0.00     0.094 A 
ATOM      9  C   UNL     1     -34.017  54.224  31.204  1.00  0.00     0.119 A 
ATOM     10  C   UNL     1     -34.141  53.817  32.540  1.00  0.00     0.047 A 
ATOM     11  C   UNL     1     -34.797  52.623  32.856  1.00  0.00     0.020 A 
ENDROOT
BRANCH   1  12
ATOM     12  C   UNL     1     -36.890  49.622  28.542  1.00  0.00     0.025 A 
ATOM     13  C   UNL     1     -38.161  49.944  28.046  1.00  0.00     0.016 A 
ATOM     14  C   UNL     1     -38.688  49.257  26.950  1.00  0.00     0.051 A 
ATOM     15  C   UNL     1     -37.964  48.228  26.339  1.00  0.00     0.157 A 
ATOM     16  C   UNL     1     -36.170  48.574  27.944  1.00  0.00     0.062 A 
ATOM     17  C   UNL     1     -36.691  47.877  26.847  1.00  0.00     0.158 A 
BRANCH  15  18
ATOM     18  O   UNL     1     -38.544  47.585  25.243  1.00  0.00    -0.504 OA
ATOM     19  H   UNL     1     -39.085  46.735  25.308  1.00  0.00     0.293 HD
ENDBRANCH  15  18
BRANCH  17  20
ATOM     20  O   UNL     1     -35.920  46.847  26.302  1.00  0.00    -0.504 OA
ATOM     21  H   UNL     1     -35.425  46.161  26.852  1.00  0.00     0.293 HD
ENDBRANCH  17  20
ENDBRANCH   1  12
BRANCH   2  22
ATOM     22  O   UNL     1     -37.125  48.624  31.259  1.00  0.00    -0.502 OA
ATOM     23  H   UNL     1     -38.071  48.429  30.956  1.00  0.00     0.293 HD
ENDBRANCH   2  22
BRANCH   9  24
ATOM     24  O   UNL     1     -33.364  55.411  30.882  1.00  0.00    -0.508 OA
ATOM     25  H   UNL     1     -33.482  56.249  31.441  1.00  0.00     0.293 HD
ENDBRANCH   9  24
TORSDOF 5
ENDMDL
MODEL 4
REMARK VINA RESULT:    -5.499      2.034      2.999
REMARK INTER + INTRA:          -6.772
REMARK INTER:                  -6.521
REMARK INTRA:                  -0.251
REMARK UNBOUND:                -0.310
REMARK SMILES O=c1c(O)c(-c2ccc(O)c(O)c2)oc2cc(O)ccc12
REMARK SMILES IDX 5 1 3 2 2 3 1 4 21 5 15 6 14 7 16 8 17 9 19 10 20 11 6 12
REMARK SMILES IDX 7 13 8 14 9 15 13 16 11 17 10 18 12 20 4 22 18 24
REMARK H PARENT 10 19 12 21 4 23 18 25
REMARK Flexibility Score: inf
ROOT
ATOM      1  C   UNL     1     -38.718  48.461  25.799  1.00  0.00     0.180 A 
ATOM      2  C   UNL     1     -39.105  49.630  26.487  1.00  0.00     0.208 A 
ATOM      3  C   UNL     1     -38.455  49.954  27.688  1.00  0.00     0.235 A 
ATOM      4  O   UNL     1     -38.775  51.000  28.316  1.00  0.00    -0.285 OA
ATOM      5  C   UNL     1     -37.455  49.102  28.183  1.00  0.00     0.069 A 
ATOM      6  C   UNL     1     -37.143  47.939  27.448  1.00  0.00     0.142 A 
ATOM      7  O   UNL     1     -37.775  47.673  26.311  1.00  0.00    -0.452 OA
ATOM      8  C   UNL     1     -36.158  47.060  27.914  1.00  0.00     0.094 A 
ATOM      9  C   UNL     1     -35.479  47.329  29.106  1.00  0.00     0.119 A 
ATOM     10  C   UNL     1     -35.786  48.484  29.839  1.00  0.00     0.047 A 
ATOM     11  C   UNL     1     -36.769  49.368  29.382  1.00  0.00     0.020 A 
ENDROOT
BRANCH   1  12
ATOM     12  C   UNL     1     -39.343  48.061  24.518  1.00  0.00     0.025 A 
ATOM     13  C   UNL     1     -40.168  46.928  24.477  1.00  0.00     0.016 A 
ATOM     14  C   UNL     1     -40.752  46.521  23.276  1.00  0.00     0.051 A 
ATOM     15  C   UNL     1     -40.511  47.225  22.092  1.00  0.00     0.157 A 
ATOM     16  C   UNL     1     -39.082  48.757  23.326  1.00  0.00     0.062 A 
ATOM     17  C   UNL     1     -39.660  48.355  22.115  1.00  0.00     0.158 A 
BRANCH  15  18
ATOM     18  O   UNL     1     -41.131  46.771  20.925  1.00  0.00    -0.504 OA
ATOM     19  H   UNL     1     -40.995  45.849  20.536  1.00  0.00     0.293 HD
ENDBRANCH  15  18
BRANCH  17  20
ATOM     20  O   UNL     1     -39.357  49.095  20.970  1.00  0.00    -0.504 OA
ATOM     21  H   UNL     1     -38.793  49.932  20.970  1.00  0.00     0.293 HD
ENDBRANCH  17  20
ENDBRANCH   1  12
BRANCH   2  22
ATOM     22  O   UNL     1     -40.138  50.432  25.995  1.00  0.00    -0.502 OA
ATOM     23  H   UNL     1     -40.021  51.425  25.833  1.00  0.00     0.293 HD
ENDBRANCH   2  22
BRANCH   9  24
ATOM     24  O   UNL     1     -34.502  46.442  29.555  1.00  0.00    -0.508 OA
ATOM     25  H   UNL     1     -33.531  46.722  29.636  1.00  0.00     0.293 HD
ENDBRANCH   9  24
TORSDOF 5
ENDMDL
MODEL 5
REMARK VINA RESULT:    -5.421      9.510     10.504
REMARK INTER + INTRA:          -6.682
REMARK INTER:                  -6.363
REMARK INTRA:                  -0.318
REMARK UNBOUND:                -0.310
REMARK SMILES O=c1c(O)c(-c2ccc(O)c(O)c2)oc2cc(O)ccc12
REMARK SMILES IDX 5 1 3 2 2 3 1 4 21 5 15 6 14 7 16 8 17 9 19 10 20 11 6 12
REMARK SMILES IDX 7 13 8 14 9 15 13 16 11 17 10 18 12 20 4 22 18 24
REMARK H PARENT 10 19 12 21 4 23 18 25
REMARK Flexibility Score: inf
ROOT
ATOM      1  C   UNL     1     -45.372  42.660  30.987  1.00  0.00     0.180 A 
ATOM      2  C   UNL     1     -46.256  43.751  31.112  1.00  0.00     0.208 A 
ATOM      3  C   UNL     1     -46.038  44.684  32.138  1.00  0.00     0.235 A 
ATOM      4  O   UNL     1     -46.808  45.675  32.264  1.00  0.00    -0.285 OA
ATOM      5  C   UNL     1     -44.963  44.499  33.022  1.00  0.00     0.069 A 
ATOM      6  C   UNL     1     -44.138  43.368  32.845  1.00  0.00     0.142 A 
ATOM      7  O   UNL     1     -44.373  42.513  31.856  1.00  0.00    -0.452 OA
ATOM      8  C   UNL     1     -43.063  43.144  33.711  1.00  0.00     0.094 A 
ATOM      9  C   UNL     1     -42.799  44.036  34.754  1.00  0.00     0.119 A 
ATOM     10  C   UNL     1     -43.615  45.162  34.933  1.00  0.00     0.047 A 
ATOM     11  C   UNL     1     -44.693  45.394  34.073  1.00  0.00     0.020 A 
ENDROOT
BRANCH   1  12
ATOM     12  C   UNL     1     -45.524  41.644  29.921  1.00  0.00     0.025 A 
ATOM     13  C   UNL     1     -46.329  40.519  30.149  1.00  0.00     0.016 A 
ATOM     14  C   UNL     1     -46.471  39.539  29.165  1.00  0.00     0.051 A 
ATOM     15  C   UNL     1     -45.801  39.654  27.942  1.00  0.00     0.157 A 
ATOM     16  C   UNL     1     -44.833  41.751  28.702  1.00  0.00     0.062 A 
ATOM     17  C   UNL     1     -44.966  40.772  27.710  1.00  0.00     0.158 A 
BRANCH  15  18
ATOM     18  O   UNL     1     -45.991  38.643  26.997  1.00  0.00    -0.504 OA
ATOM     19  H   UNL     1     -45.467  38.568  26.137  1.00  0.00     0.293 HD
ENDBRANCH  15  18
BRANCH  17  20
ATOM     20  O   UNL     1     -44.250  40.943  26.523  1.00  0.00    -0.504 OA
ATOM     21  H   UNL     1     -44.166  41.824  26.036  1.00  0.00     0.293 HD
ENDBRANCH  17  20
ENDBRANCH   1  12
BRANCH   2  22
ATOM     22  O   UNL     1     -47.346  43.882  30.248  1.00  0.00    -0.502 OA
ATOM     23  H   UNL     1     -48.239  43.443  30.433  1.00  0.00     0.293 HD
ENDBRANCH   2  22
BRANCH   9  24
ATOM     24  O   UNL     1     -41.724  43.797  35.608  1.00  0.00    -0.508 OA
ATOM     25  H   UNL     1     -41.601  44.325  36.465  1.00  0.00     0.293 HD
ENDBRANCH   9  24
TORSDOF 5
ENDMDL
MODEL 6
REMARK VINA RESULT:    -5.380      7.537     10.635
REMARK INTER + INTRA:          -6.633
REMARK INTER:                  -6.309
REMARK INTRA:                  -0.324
REMARK UNBOUND:                -0.310
REMARK SMILES O=c1c(O)c(-c2ccc(O)c(O)c2)oc2cc(O)ccc12
REMARK SMILES IDX 5 1 3 2 2 3 1 4 21 5 15 6 14 7 16 8 17 9 19 10 20 11 6 12
REMARK SMILES IDX 7 13 8 14 9 15 13 16 11 17 10 18 12 20 4 22 18 24
REMARK H PARENT 10 19 12 21 4 23 18 25
REMARK Flexibility Score: inf
ROOT
ATOM      1  C   UNL     1     -44.823  42.554  30.370  1.00  0.00     0.180 A 
ATOM      2  C   UNL     1     -45.765  41.532  30.131  1.00  0.00     0.208 A 
ATOM      3  C   UNL     1     -45.795  40.921  28.868  1.00  0.00     0.235 A 
ATOM      4  O   UNL     1     -46.622  39.997  28.633  1.00  0.00    -0.285 OA
ATOM      5  C   UNL     1     -44.905  41.353  27.871  1.00  0.00     0.069 A 
ATOM      6  C   UNL     1     -44.009  42.398  28.182  1.00  0.00     0.142 A 
ATOM      7  O   UNL     1     -44.007  42.943  29.393  1.00  0.00    -0.452 OA
ATOM      8  C   UNL     1     -43.113  42.861  27.213  1.00  0.00     0.094 A 
ATOM      9  C   UNL     1     -43.099  42.294  25.935  1.00  0.00     0.119 A 
ATOM     10  C   UNL     1     -43.987  41.256  25.623  1.00  0.00     0.047 A 
ATOM     11  C   UNL     1     -44.887  40.785  26.584  1.00  0.00     0.020 A 
ENDROOT
BRANCH   1  12
ATOM     12  C   UNL     1     -44.717  43.234  31.681  1.00  0.00     0.025 A 
ATOM     13  C   UNL     1     -45.418  44.429  31.897  1.00  0.00     0.016 A 
ATOM     14  C   UNL     1     -45.316  45.097  33.118  1.00  0.00     0.051 A 
ATOM     15  C   UNL     1     -44.504  44.596  34.141  1.00  0.00     0.157 A 
ATOM     16  C   UNL     1     -43.883  42.739  32.698  1.00  0.00     0.062 A 
ATOM     17  C   UNL     1     -43.772  43.404  33.925  1.00  0.00     0.158 A 
BRANCH  15  18
ATOM     18  O   UNL     1     -44.451  45.308  35.341  1.00  0.00    -0.504 OA
ATOM     19  H   UNL     1     -44.212  44.896  36.232  1.00  0.00     0.293 HD
ENDBRANCH  15  18
BRANCH  17  20
ATOM     20  O   UNL     1     -42.925  42.855  34.891  1.00  0.00    -0.504 OA
ATOM     21  H   UNL     1     -42.645  43.333  35.735  1.00  0.00     0.293 HD
ENDBRANCH  17  20
ENDBRANCH   1  12
BRANCH   2  22
ATOM     22  O   UNL     1     -46.672  41.158  31.127  1.00  0.00    -0.502 OA
ATOM     23  H   UNL     1     -46.843  41.730  31.945  1.00  0.00     0.293 HD
ENDBRANCH   2  22
BRANCH   9  24
ATOM     24  O   UNL     1     -42.200  42.769  24.982  1.00  0.00    -0.508 OA
ATOM     25  H   UNL     1     -41.278  42.361  24.875  1.00  0.00     0.293 HD
ENDBRANCH   9  24
TORSDOF 5
ENDMDL
MODEL 7
REMARK VINA RESULT:    -5.341      8.465     11.547
REMARK INTER + INTRA:          -6.587
REMARK INTER:                  -6.484
REMARK INTRA:                  -0.102
REMARK UNBOUND:                -0.310
REMARK SMILES O=c1c(O)c(-c2ccc(O)c(O)c2)oc2cc(O)ccc12
REMARK SMILES IDX 5 1 3 2 2 3 1 4 21 5 15 6 14 7 16 8 17 9 19 10 20 11 6 12
REMARK SMILES IDX 7 13 8 14 9 15 13 16 11 17 10 18 12 20 4 22 18 24
REMARK H PARENT 10 19 12 21 4 23 18 25
REMARK Flexibility Score: inf
ROOT
ATOM      1  C   UNL     1     -45.910  41.967  29.531  1.00  0.00     0.180 A 
ATOM      2  C   UNL     1     -47.293  41.995  29.804  1.00  0.00     0.208 A 
ATOM      3  C   UNL     1     -48.167  41.308  28.948  1.00  0.00     0.235 A 
ATOM      4  O   UNL     1     -49.407  41.309  29.178  1.00  0.00    -0.285 OA
ATOM      5  C   UNL     1     -47.648  40.628  27.835  1.00  0.00     0.069 A 
ATOM      6  C   UNL     1     -46.255  40.667  27.616  1.00  0.00     0.142 A 
ATOM      7  O   UNL     1     -45.461  41.322  28.456  1.00  0.00    -0.452 OA
ATOM      8  C   UNL     1     -45.701  40.010  26.512  1.00  0.00     0.094 A 
ATOM      9  C   UNL     1     -46.522  39.311  25.621  1.00  0.00     0.119 A 
ATOM     10  C   UNL     1     -47.907  39.270  25.835  1.00  0.00     0.047 A 
ATOM     11  C   UNL     1     -48.470  39.924  26.936  1.00  0.00     0.020 A 
ENDROOT
BRANCH   1  12
ATOM     12  C   UNL     1     -44.924  42.652  30.397  1.00  0.00     0.025 A 
ATOM     13  C   UNL     1     -44.031  43.573  29.830  1.00  0.00     0.016 A 
ATOM     14  C   UNL     1     -43.079  44.215  30.624  1.00  0.00     0.051 A 
ATOM     15  C   UNL     1     -42.990  43.941  31.993  1.00  0.00     0.157 A 
ATOM     16  C   UNL     1     -44.822  42.358  31.767  1.00  0.00     0.062 A 
ATOM     17  C   UNL     1     -43.869  42.995  32.571  1.00  0.00     0.158 A 
BRANCH  15  18
ATOM     18  O   UNL     1     -42.021  44.623  32.733  1.00  0.00    -0.504 OA
ATOM     19  H   UNL     1     -41.711  45.562  32.529  1.00  0.00     0.293 HD
ENDBRANCH  15  18
BRANCH  17  20
ATOM     20  O   UNL     1     -43.825  42.654  33.925  1.00  0.00    -0.504 OA
ATOM     21  H   UNL     1     -44.393  43.091  34.636  1.00  0.00     0.293 HD
ENDBRANCH  17  20
ENDBRANCH   1  12
BRANCH   2  22
ATOM     22  O   UNL     1     -47.785  42.722  30.893  1.00  0.00    -0.502 OA
ATOM     23  H   UNL     1     -48.406  42.313  31.580  1.00  0.00     0.293 HD
ENDBRANCH   2  22
BRANCH   9  24
ATOM     24  O   UNL     1     -45.954  38.663  24.527  1.00  0.00    -0.508 OA
ATOM     25  H   UNL     1     -45.352  39.155  23.875  1.00  0.00     0.293 HD
ENDBRANCH   9  24
TORSDOF 5
ENDMDL
MODEL 8
REMARK VINA RESULT:    -5.323      1.506      6.886
REMARK INTER + INTRA:          -6.567
REMARK INTER:                  -6.266
REMARK INTRA:                  -0.301
REMARK UNBOUND:                -0.310
REMARK SMILES O=c1c(O)c(-c2ccc(O)c(O)c2)oc2cc(O)ccc12
REMARK SMILES IDX 5 1 3 2 2 3 1 4 21 5 15 6 14 7 16 8 17 9 19 10 20 11 6 12
REMARK SMILES IDX 7 13 8 14 9 15 13 16 11 17 10 18 12 20 4 22 18 24
REMARK H PARENT 10 19 12 21 4 23 18 25
REMARK Flexibility Score: inf
ROOT
ATOM      1  C   UNL     1     -38.652  48.197  26.684  1.00  0.00     0.180 A 
ATOM      2  C   UNL     1     -39.037  49.471  27.152  1.00  0.00     0.208 A 
ATOM      3  C   UNL     1     -39.501  50.419  26.228  1.00  0.00     0.235 A 
ATOM      4  O   UNL     1     -39.863  51.561  26.624  1.00  0.00    -0.285 OA
ATOM      5  C   UNL     1     -39.553  50.087  24.865  1.00  0.00     0.069 A 
ATOM      6  C   UNL     1     -39.126  48.800  24.474  1.00  0.00     0.142 A 
ATOM      7  O   UNL     1     -38.702  47.928  25.381  1.00  0.00    -0.452 OA
ATOM      8  C   UNL     1     -39.154  48.435  23.123  1.00  0.00     0.094 A 
ATOM      9  C   UNL     1     -39.603  49.339  22.156  1.00  0.00     0.119 A 
ATOM     10  C   UNL     1     -40.028  50.619  22.541  1.00  0.00     0.047 A 
ATOM     11  C   UNL     1     -40.004  50.993  23.888  1.00  0.00     0.020 A 
ENDROOT
BRANCH   1  12
ATOM     12  C   UNL     1     -38.169  47.137  27.598  1.00  0.00     0.025 A 
ATOM     13  C   UNL     1     -39.072  46.183  28.085  1.00  0.00     0.016 A 
ATOM     14  C   UNL     1     -38.642  45.186  28.963  1.00  0.00     0.051 A 
ATOM     15  C   UNL     1     -37.309  45.132  29.384  1.00  0.00     0.157 A 
ATOM     16  C   UNL     1     -36.834  47.099  28.036  1.00  0.00     0.062 A 
ATOM     17  C   UNL     1     -36.394  46.105  28.919  1.00  0.00     0.158 A 
BRANCH  15  18
ATOM     18  O   UNL     1     -36.942  44.106  30.257  1.00  0.00    -0.504 OA
ATOM     19  H   UNL     1     -36.888  44.210  31.260  1.00  0.00     0.293 HD
ENDBRANCH  15  18
BRANCH  17  20
ATOM     20  O   UNL     1     -35.054  46.127  29.311  1.00  0.00    -0.504 OA
ATOM     21  H   UNL     1     -34.479  45.303  29.406  1.00  0.00     0.293 HD
ENDBRANCH  17  20
ENDBRANCH   1  12
BRANCH   2  22
ATOM     22  O   UNL     1     -38.928  49.789  28.509  1.00  0.00    -0.502 OA
ATOM     23  H   UNL     1     -38.816  50.742  28.834  1.00  0.00     0.293 HD
ENDBRANCH   2  22
BRANCH   9  24
ATOM     24  O   UNL     1     -39.622  48.958  20.816  1.00  0.00    -0.508 OA
ATOM     25  H   UNL     1     -40.129  48.136  20.507  1.00  0.00     0.293 HD
ENDBRANCH   9  24
TORSDOF 5
ENDMDL
MODEL 9
REMARK VINA RESULT:    -5.260      1.619      6.236
REMARK INTER + INTRA:          -6.492
REMARK INTER:                  -6.291
REMARK INTRA:                  -0.201
REMARK UNBOUND:                -0.310
REMARK SMILES O=c1c(O)c(-c2ccc(O)c(O)c2)oc2cc(O)ccc12
REMARK SMILES IDX 5 1 3 2 2 3 1 4 21 5 15 6 14 7 16 8 17 9 19 10 20 11 6 12
REMARK SMILES IDX 7 13 8 14 9 15 13 16 11 17 10 18 12 20 4 22 18 24
REMARK H PARENT 10 19 12 21 4 23 18 25
REMARK Flexibility Score: inf
ROOT
ATOM      1  C   UNL     1     -38.702  47.689  26.332  1.00  0.00     0.180 A 
ATOM      2  C   UNL     1     -39.859  46.938  26.628  1.00  0.00     0.208 A 
ATOM      3  C   UNL     1     -40.805  46.724  25.613  1.00  0.00     0.235 A 
ATOM      4  O   UNL     1     -41.842  46.047  25.850  1.00  0.00    -0.285 OA
ATOM      5  C   UNL     1     -40.587  47.275  24.340  1.00  0.00     0.069 A 
ATOM      6  C   UNL     1     -39.416  48.034  24.131  1.00  0.00     0.142 A 
ATOM      7  O   UNL     1     -38.542  48.206  25.116  1.00  0.00    -0.452 OA
ATOM      8  C   UNL     1     -39.169  48.607  22.878  1.00  0.00     0.094 A 
ATOM      9  C   UNL     1     -40.077  48.432  21.830  1.00  0.00     0.119 A 
ATOM     10  C   UNL     1     -41.241  47.678  22.034  1.00  0.00     0.047 A 
ATOM     11  C   UNL     1     -41.498  47.101  23.282  1.00  0.00     0.020 A 
ENDROOT
BRANCH   1  12
ATOM     12  C   UNL     1     -37.651  47.942  27.342  1.00  0.00     0.025 A 
ATOM     13  C   UNL     1     -37.391  49.258  27.752  1.00  0.00     0.016 A 
ATOM     14  C   UNL     1     -36.390  49.522  28.689  1.00  0.00     0.051 A 
ATOM     15  C   UNL     1     -35.621  48.483  29.223  1.00  0.00     0.157 A 
ATOM     16  C   UNL     1     -36.865  46.899  27.861  1.00  0.00     0.062 A 
ATOM     17  C   UNL     1     -35.857  47.155  28.799  1.00  0.00     0.158 A 
BRANCH  15  18
ATOM     18  O   UNL     1     -34.641  48.814  30.162  1.00  0.00    -0.504 OA
ATOM     19  H   UNL     1     -34.534  49.732  30.568  1.00  0.00     0.293 HD
ENDBRANCH  15  18
BRANCH  17  20
ATOM     20  O   UNL     1     -35.116  46.069  29.272  1.00  0.00    -0.504 OA
ATOM     21  H   UNL     1     -34.255  46.157  29.792  1.00  0.00     0.293 HD
ENDBRANCH  17  20
ENDBRANCH   1  12
BRANCH   2  22
ATOM     22  O   UNL     1     -40.072  46.444  27.917  1.00  0.00    -0.502 OA
ATOM     23  H   UNL     1     -39.665  46.879  28.737  1.00  0.00     0.293 HD
ENDBRANCH   2  22
BRANCH   9  24
ATOM     24  O   UNL     1     -39.814  49.010  20.590  1.00  0.00    -0.508 OA
ATOM     25  H   UNL     1     -39.438  49.949  20.513  1.00  0.00     0.293 HD
ENDBRANCH   9  24
TORSDOF 5
ENDMDL
