MODEL 1
REMARK VINA RESULT:    -4.475      0.000      0.000
REMARK INTER + INTRA:          -6.398
REMARK INTER:                  -6.044
REMARK INTRA:                  -0.354
REMARK UNBOUND:                -0.354
REMARK SMILES CCCCCCC=CC(=O)[O-]
REMARK SMILES IDX 5 1 6 2 7 3 8 4 9 5 10 6 11 7 4 8 3 9 2 10 1 11
REMARK H PARENT
REMARK Flexibility Score: inf
ROOT
ATOM      1  C   UNL     1      17.912  -0.517  45.621  1.00  0.00     0.004 C 
ENDROOT
BRANCH   1   2
ATOM      2  C   UNL     1      18.570  -0.830  44.268  1.00  0.00     0.027 C 
BRANCH   2   3
ATOM      3  C   UNL     1      20.066  -0.688  44.311  1.00  0.00    -0.025 C 
ATOM      4  C   UNL     1      20.700   0.259  43.611  1.00  0.00     0.020 C 
BRANCH   4   5
ATOM      5  C   UNL     1      22.163   0.409  43.634  1.00  0.00     0.064 C 
ATOM      6  O   UNL     1      22.764   0.785  44.676  1.00  0.00    -0.545 OA
ATOM      7  O   UNL     1      22.896   0.133  42.487  1.00  0.00    -0.545 OA
ENDBRANCH   4   5
ENDBRANCH   2   3
ENDBRANCH   1   2
BRANCH   1   8
ATOM      8  C   UNL     1      16.419  -0.178  45.472  1.00  0.00     0.000 C 
BRANCH   8   9
ATOM      9  C   UNL     1      15.905  -0.388  44.039  1.00  0.00    -0.000 C 
BRANCH   9  10
ATOM     10  C   UNL     1      15.110   0.815  43.512  1.00  0.00    -0.003 C 
ATOM     11  C   UNL     1      15.733   1.369  42.234  1.00  0.00     0.004 C 
ENDBRANCH   9  10
ENDBRANCH   8   9
ENDBRANCH   1   8
TORSDOF 6
ENDMDL
MODEL 2
REMARK VINA RESULT:    -4.463      9.292     10.754
REMARK INTER + INTRA:          -6.382
REMARK INTER:                  -5.880
REMARK INTRA:                  -0.502
REMARK UNBOUND:                -0.354
REMARK SMILES CCCCCCC=CC(=O)[O-]
REMARK SMILES IDX 5 1 6 2 7 3 8 4 9 5 10 6 11 7 4 8 3 9 2 10 1 11
REMARK H PARENT
REMARK Flexibility Score: inf
ROOT
ATOM      1  C   UNL     1      12.869   2.661  38.985  1.00  0.00     0.004 C 
ENDROOT
BRANCH   1   2
ATOM      2  C   UNL     1      13.211   3.747  40.017  1.00  0.00     0.027 C 
BRANCH   2   3
ATOM      3  C   UNL     1      12.060   4.681  40.268  1.00  0.00    -0.025 C 
ATOM      4  C   UNL     1      12.014   5.899  39.718  1.00  0.00     0.020 C 
BRANCH   4   5
ATOM      5  C   UNL     1      10.901   6.830  39.958  1.00  0.00     0.064 C 
ATOM      6  O   UNL     1       9.887   6.841  39.210  1.00  0.00    -0.545 OA
ATOM      7  O   UNL     1      10.970   7.715  41.026  1.00  0.00    -0.545 OA
ENDBRANCH   4   5
ENDBRANCH   2   3
ENDBRANCH   1   2
BRANCH   1   8
ATOM      8  C   UNL     1      11.370   2.317  38.983  1.00  0.00     0.000 C 
BRANCH   8   9
ATOM      9  C   UNL     1      10.718   2.522  37.606  1.00  0.00    -0.000 C 
BRANCH   9  10
ATOM     10  C   UNL     1      11.559   3.412  36.679  1.00  0.00    -0.003 C 
ATOM     11  C   UNL     1      12.068   2.625  35.475  1.00  0.00     0.004 C 
ENDBRANCH   9  10
ENDBRANCH   8   9
ENDBRANCH   1   8
TORSDOF 6
ENDMDL
MODEL 3
REMARK VINA RESULT:    -4.422      9.038     10.005
REMARK INTER + INTRA:          -6.327
REMARK INTER:                  -5.584
REMARK INTRA:                  -0.742
REMARK UNBOUND:                -0.354
REMARK SMILES CCCCCCC=CC(=O)[O-]
REMARK SMILES IDX 5 1 6 2 7 3 8 4 9 5 10 6 11 7 4 8 3 9 2 10 1 11
REMARK H PARENT
REMARK Flexibility Score: inf
ROOT
ATOM      1  C   UNL     1      22.497  -4.925  37.708  1.00  0.00     0.004 C 
ENDROOT
BRANCH   1   2
ATOM      2  C   UNL     1      23.468  -4.578  38.847  1.00  0.00     0.027 C 
BRANCH   2   3
ATOM      3  C   UNL     1      24.673  -5.477  38.866  1.00  0.00    -0.025 C 
ATOM      4  C   UNL     1      25.142  -5.994  40.007  1.00  0.00     0.020 C 
BRANCH   4   5
ATOM      5  C   UNL     1      26.323  -6.869  40.048  1.00  0.00     0.064 C 
ATOM      6  O   UNL     1      26.221  -8.112  39.871  1.00  0.00    -0.545 OA
ATOM      7  O   UNL     1      27.574  -6.315  40.289  1.00  0.00    -0.545 OA
ENDBRANCH   4   5
ENDBRANCH   2   3
ENDBRANCH   1   2
BRANCH   1   8
ATOM      8  C   UNL     1      22.014  -6.384  37.784  1.00  0.00     0.000 C 
BRANCH   8   9
ATOM      9  C   UNL     1      21.252  -6.687  39.084  1.00  0.00    -0.000 C 
BRANCH   9  10
ATOM     10  C   UNL     1      21.676  -8.017  39.724  1.00  0.00    -0.003 C 
ATOM     11  C   UNL     1      22.722  -8.729  38.871  1.00  0.00     0.004 C 
ENDBRANCH   9  10
ENDBRANCH   8   9
ENDBRANCH   1   8
TORSDOF 6
ENDMDL
MODEL 4
REMARK VINA RESULT:    -4.384      7.341      8.772
REMARK INTER + INTRA:          -6.275
REMARK INTER:                  -5.715
REMARK INTRA:                  -0.561
REMARK UNBOUND:                -0.354
REMARK SMILES CCCCCCC=CC(=O)[O-]
REMARK SMILES IDX 5 1 6 2 7 3 8 4 9 5 10 6 11 7 4 8 3 9 2 10 1 11
REMARK H PARENT
REMARK Flexibility Score: inf
ROOT
ATOM      1  C   UNL     1      21.802   2.718  35.210  1.00  0.00     0.004 C 
ENDROOT
BRANCH   1   2
ATOM      2  C   UNL     1      22.113   1.432  34.428  1.00  0.00     0.027 C 
BRANCH   2   3
ATOM      3  C   UNL     1      21.972   0.199  35.275  1.00  0.00    -0.025 C 
ATOM      4  C   UNL     1      23.032  -0.385  35.844  1.00  0.00     0.020 C 
BRANCH   4   5
ATOM      5  C   UNL     1      22.916  -1.597  36.669  1.00  0.00     0.064 C 
ATOM      6  O   UNL     1      22.377  -1.562  37.808  1.00  0.00    -0.545 OA
ATOM      7  O   UNL     1      23.410  -2.802  36.187  1.00  0.00    -0.545 OA
ENDBRANCH   4   5
ENDBRANCH   2   3
ENDBRANCH   1   2
BRANCH   1   8
ATOM      8  C   UNL     1      20.567   2.560  36.114  1.00  0.00     0.000 C 
BRANCH   8   9
ATOM      9  C   UNL     1      20.536   3.586  37.257  1.00  0.00    -0.000 C 
BRANCH   9  10
ATOM     10  C   UNL     1      20.611   2.931  38.644  1.00  0.00    -0.003 C 
ATOM     11  C   UNL     1      20.585   1.409  38.535  1.00  0.00     0.004 C 
ENDBRANCH   9  10
ENDBRANCH   8   9
ENDBRANCH   1   8
TORSDOF 6
ENDMDL
MODEL 5
REMARK VINA RESULT:    -4.334      8.979     10.948
REMARK INTER + INTRA:          -6.208
REMARK INTER:                  -5.856
REMARK INTRA:                  -0.352
REMARK UNBOUND:                -0.354
REMARK SMILES CCCCCCC=CC(=O)[O-]
REMARK SMILES IDX 5 1 6 2 7 3 8 4 9 5 10 6 11 7 4 8 3 9 2 10 1 11
REMARK H PARENT
REMARK Flexibility Score: inf
ROOT
ATOM      1  C   UNL     1      24.746  -5.644  38.521  1.00  0.00     0.004 C 
ENDROOT
BRANCH   1   2
ATOM      2  C   UNL     1      23.386  -6.197  38.066  1.00  0.00     0.027 C 
BRANCH   2   3
ATOM      3  C   UNL     1      22.567  -6.718  39.213  1.00  0.00    -0.025 C 
ATOM      4  C   UNL     1      21.262  -6.976  39.081  1.00  0.00     0.020 C 
BRANCH   4   5
ATOM      5  C   UNL     1      20.441  -7.479  40.193  1.00  0.00     0.064 C 
ATOM      6  O   UNL     1      20.870  -8.376  40.968  1.00  0.00    -0.545 OA
ATOM      7  O   UNL     1      19.170  -6.958  40.394  1.00  0.00    -0.545 OA
ENDBRANCH   4   5
ENDBRANCH   2   3
ENDBRANCH   1   2
BRANCH   1   8
ATOM      8  C   UNL     1      24.852  -5.561  40.053  1.00  0.00     0.000 C 
BRANCH   8   9
ATOM      9  C   UNL     1      26.275  -5.840  40.563  1.00  0.00    -0.000 C 
BRANCH   9  10
ATOM     10  C   UNL     1      27.353  -5.521  39.516  1.00  0.00    -0.003 C 
ATOM     11  C   UNL     1      28.265  -6.722  39.283  1.00  0.00     0.004 C 
ENDBRANCH   9  10
ENDBRANCH   8   9
ENDBRANCH   1   8
TORSDOF 6
ENDMDL
MODEL 6
REMARK VINA RESULT:    -4.323     10.975     12.259
REMARK INTER + INTRA:          -6.193
REMARK INTER:                  -5.949
REMARK INTRA:                  -0.244
REMARK UNBOUND:                -0.354
REMARK SMILES CCCCCCC=CC(=O)[O-]
REMARK SMILES IDX 5 1 6 2 7 3 8 4 9 5 10 6 11 7 4 8 3 9 2 10 1 11
REMARK H PARENT
REMARK Flexibility Score: inf
ROOT
ATOM      1  C   UNL     1      21.995  -3.075  35.102  1.00  0.00     0.004 C 
ENDROOT
BRANCH   1   2
ATOM      2  C   UNL     1      22.314  -4.530  34.726  1.00  0.00     0.027 C 
BRANCH   2   3
ATOM      3  C   UNL     1      21.693  -4.934  33.418  1.00  0.00    -0.025 C 
ATOM      4  C   UNL     1      22.394  -5.577  32.479  1.00  0.00     0.020 C 
BRANCH   4   5
ATOM      5  C   UNL     1      21.806  -5.974  31.190  1.00  0.00     0.064 C 
ATOM      6  O   UNL     1      22.429  -5.799  30.108  1.00  0.00    -0.545 OA
ATOM      7  O   UNL     1      20.543  -6.549  31.164  1.00  0.00    -0.545 OA
ENDBRANCH   4   5
ENDBRANCH   2   3
ENDBRANCH   1   2
BRANCH   1   8
ATOM      8  C   UNL     1      23.182  -2.384  35.795  1.00  0.00     0.000 C 
BRANCH   8   9
ATOM      9  C   UNL     1      22.936  -0.886  36.034  1.00  0.00    -0.000 C 
BRANCH   9  10
ATOM     10  C   UNL     1      21.789  -0.330  35.178  1.00  0.00    -0.003 C 
ATOM     11  C   UNL     1      22.091   1.090  34.709  1.00  0.00     0.004 C 
ENDBRANCH   9  10
ENDBRANCH   8   9
ENDBRANCH   1   8
TORSDOF 6
ENDMDL
MODEL 7
REMARK VINA RESULT:    -4.304      7.159      8.893
REMARK INTER + INTRA:          -6.167
REMARK INTER:                  -5.566
REMARK INTRA:                  -0.601
REMARK UNBOUND:                -0.354
REMARK SMILES CCCCCCC=CC(=O)[O-]
REMARK SMILES IDX 5 1 6 2 7 3 8 4 9 5 10 6 11 7 4 8 3 9 2 10 1 11
REMARK H PARENT
REMARK Flexibility Score: inf
ROOT
ATOM      1  C   UNL     1      21.886   2.633  35.140  1.00  0.00     0.004 C 
ENDROOT
BRANCH   1   2
ATOM      2  C   UNL     1      20.548   2.421  35.867  1.00  0.00     0.027 C 
BRANCH   2   3
ATOM      3  C   UNL     1      20.479   3.168  37.169  1.00  0.00    -0.025 C 
ATOM      4  C   UNL     1      20.584   2.540  38.344  1.00  0.00     0.020 C 
BRANCH   4   5
ATOM      5  C   UNL     1      20.511   3.252  39.629  1.00  0.00     0.064 C 
ATOM      6  O   UNL     1      21.472   3.957  40.040  1.00  0.00    -0.545 OA
ATOM      7  O   UNL     1      19.363   3.146  40.403  1.00  0.00    -0.545 OA
ENDBRANCH   4   5
ENDBRANCH   2   3
ENDBRANCH   1   2
BRANCH   1   8
ATOM      8  C   UNL     1      22.324   1.381  34.361  1.00  0.00     0.000 C 
BRANCH   8   9
ATOM      9  C   UNL     1      21.731   0.087  34.940  1.00  0.00    -0.000 C 
BRANCH   9  10
ATOM     10  C   UNL     1      22.691  -0.625  35.905  1.00  0.00    -0.003 C 
ATOM     11  C   UNL     1      22.068  -0.773  37.290  1.00  0.00     0.004 C 
ENDBRANCH   9  10
ENDBRANCH   8   9
ENDBRANCH   1   8
TORSDOF 6
ENDMDL
MODEL 8
REMARK VINA RESULT:    -4.286      6.653      8.764
REMARK INTER + INTRA:          -6.144
REMARK INTER:                  -5.818
REMARK INTRA:                  -0.325
REMARK UNBOUND:                -0.354
REMARK SMILES CCCCCCC=CC(=O)[O-]
REMARK SMILES IDX 5 1 6 2 7 3 8 4 9 5 10 6 11 7 4 8 3 9 2 10 1 11
REMARK H PARENT
REMARK Flexibility Score: inf
ROOT
ATOM      1  C   UNL     1      12.781   1.830  41.351  1.00  0.00     0.004 C 
ENDROOT
BRANCH   1   2
ATOM      2  C   UNL     1      13.871   2.675  40.673  1.00  0.00     0.027 C 
BRANCH   2   3
ATOM      3  C   UNL     1      13.318   3.564  39.594  1.00  0.00    -0.025 C 
ATOM      4  C   UNL     1      12.399   4.498  39.859  1.00  0.00     0.020 C 
BRANCH   4   5
ATOM      5  C   UNL     1      11.840   5.372  38.816  1.00  0.00     0.064 C 
ATOM      6  O   UNL     1      11.400   4.898  37.734  1.00  0.00    -0.545 OA
ATOM      7  O   UNL     1      11.799   6.744  39.026  1.00  0.00    -0.545 OA
ENDBRANCH   4   5
ENDBRANCH   2   3
ENDBRANCH   1   2
BRANCH   1   8
ATOM      8  C   UNL     1      13.315   1.081  42.584  1.00  0.00     0.000 C 
BRANCH   8   9
ATOM      9  C   UNL     1      14.788   1.403  42.879  1.00  0.00    -0.000 C 
BRANCH   9  10
ATOM     10  C   UNL     1      15.514   0.254  43.595  1.00  0.00    -0.003 C 
ATOM     11  C   UNL     1      15.011  -1.102  43.109  1.00  0.00     0.004 C 
ENDBRANCH   9  10
ENDBRANCH   8   9
ENDBRANCH   1   8
TORSDOF 6
ENDMDL
MODEL 9
REMARK VINA RESULT:    -4.253      8.673     10.060
REMARK INTER + INTRA:          -6.099
REMARK INTER:                  -5.780
REMARK INTRA:                  -0.320
REMARK UNBOUND:                -0.354
REMARK SMILES CCCCCCC=CC(=O)[O-]
REMARK SMILES IDX 5 1 6 2 7 3 8 4 9 5 10 6 11 7 4 8 3 9 2 10 1 11
REMARK H PARENT
REMARK Flexibility Score: inf
ROOT
ATOM      1  C   UNL     1      21.781   0.091  35.123  1.00  0.00     0.004 C 
ENDROOT
BRANCH   1   2
ATOM      2  C   UNL     1      22.933  -0.539  35.923  1.00  0.00     0.027 C 
BRANCH   2   3
ATOM      3  C   UNL     1      22.964  -2.036  35.799  1.00  0.00    -0.025 C 
ATOM      4  C   UNL     1      22.048  -2.699  35.086  1.00  0.00     0.020 C 
BRANCH   4   5
ATOM      5  C   UNL     1      22.057  -4.165  34.959  1.00  0.00     0.064 C 
ATOM      6  O   UNL     1      21.465  -4.741  34.008  1.00  0.00    -0.545 OA
ATOM      7  O   UNL     1      22.730  -4.927  35.905  1.00  0.00    -0.545 OA
ENDBRANCH   4   5
ENDBRANCH   2   3
ENDBRANCH   1   2
BRANCH   1   8
ATOM      8  C   UNL     1      22.216   1.379  34.402  1.00  0.00     0.000 C 
BRANCH   8   9
ATOM      9  C   UNL     1      21.787   2.650  35.152  1.00  0.00    -0.000 C 
BRANCH   9  10
ATOM     10  C   UNL     1      20.599   2.410  36.095  1.00  0.00    -0.003 C 
ATOM     11  C   UNL     1      20.560   3.453  37.208  1.00  0.00     0.004 C 
ENDBRANCH   9  10
ENDBRANCH   8   9
ENDBRANCH   1   8
TORSDOF 6
ENDMDL
