MODEL 1
REMARK VINA RESULT:    -6.781      0.000      0.000
REMARK INTER + INTRA:          -8.032
REMARK INTER:                  -7.970
REMARK INTRA:                  -0.062
REMARK UNBOUND:                -0.062
REMARK SMILES O=c1c(O)c(-c2ccc(O)c(O)c2)oc2cc(O)ccc12
REMARK SMILES IDX 5 1 3 2 2 3 1 4 21 5 15 6 14 7 16 8 17 9 19 10 20 11 6 12
REMARK SMILES IDX 7 13 8 14 9 15 13 16 11 17 10 18 12 20 4 22 18 24
REMARK H PARENT 10 19 12 21 4 23 18 25
REMARK Flexibility Score: inf
ROOT
ATOM      1  C   UNL     1     -16.147  14.872  -8.251  1.00  0.00     0.180 A 
ATOM      2  C   UNL     1     -14.887  15.478  -8.442  1.00  0.00     0.208 A 
ATOM      3  C   UNL     1     -14.380  16.315  -7.436  1.00  0.00     0.235 A 
ATOM      4  O   UNL     1     -13.251  16.859  -7.578  1.00  0.00    -0.285 OA
ATOM      5  C   UNL     1     -15.141  16.544  -6.279  1.00  0.00     0.069 A 
ATOM      6  C   UNL     1     -16.403  15.920  -6.174  1.00  0.00     0.142 A 
ATOM      7  O   UNL     1     -16.843  15.127  -7.146  1.00  0.00    -0.452 OA
ATOM      8  C   UNL     1     -17.197  16.131  -5.041  1.00  0.00     0.094 A 
ATOM      9  C   UNL     1     -16.743  16.960  -4.006  1.00  0.00     0.119 A 
ATOM     10  C   UNL     1     -15.492  17.578  -4.108  1.00  0.00     0.047 A 
ATOM     11  C   UNL     1     -14.693  17.375  -5.237  1.00  0.00     0.020 A 
ENDROOT
BRANCH   1  12
ATOM     12  C   UNL     1     -16.742  13.964  -9.256  1.00  0.00     0.025 A 
ATOM     13  C   UNL     1     -18.054  14.190  -9.701  1.00  0.00     0.016 A 
ATOM     14  C   UNL     1     -18.643  13.333 -10.634  1.00  0.00     0.051 A 
ATOM     15  C   UNL     1     -17.936  12.227 -11.124  1.00  0.00     0.157 A 
ATOM     16  C   UNL     1     -16.042  12.841  -9.735  1.00  0.00     0.062 A 
ATOM     17  C   UNL     1     -16.630  11.978 -10.668  1.00  0.00     0.158 A 
BRANCH  15  18
ATOM     18  O   UNL     1     -18.525  11.375 -12.056  1.00  0.00    -0.504 OA
ATOM     19  H   UNL     1     -19.342  10.821 -11.826  1.00  0.00     0.293 HD
ENDBRANCH  15  18
BRANCH  17  20
ATOM     20  O   UNL     1     -15.905  10.879 -11.125  1.00  0.00    -0.504 OA
ATOM     21  H   UNL     1     -15.076  10.544 -10.648  1.00  0.00     0.293 HD
ENDBRANCH  17  20
ENDBRANCH   1  12
BRANCH   2  22
ATOM     22  O   UNL     1     -14.174  15.271  -9.625  1.00  0.00    -0.502 OA
ATOM     23  H   UNL     1     -13.446  14.570  -9.703  1.00  0.00     0.293 HD
ENDBRANCH   2  22
BRANCH   9  24
ATOM     24  O   UNL     1     -17.526  17.176  -2.875  1.00  0.00    -0.508 OA
ATOM     25  H   UNL     1     -17.940  16.406  -2.362  1.00  0.00     0.293 HD
ENDBRANCH   9  24
TORSDOF 5
ENDMDL
MODEL 2
REMARK VINA RESULT:    -6.536      2.268      3.964
REMARK INTER + INTRA:          -7.744
REMARK INTER:                  -7.604
REMARK INTRA:                  -0.140
REMARK UNBOUND:                -0.062
REMARK SMILES O=c1c(O)c(-c2ccc(O)c(O)c2)oc2cc(O)ccc12
REMARK SMILES IDX 5 1 3 2 2 3 1 4 21 5 15 6 14 7 16 8 17 9 19 10 20 11 6 12
REMARK SMILES IDX 7 13 8 14 9 15 13 16 11 17 10 18 12 20 4 22 18 24
REMARK H PARENT 10 19 12 21 4 23 18 25
REMARK Flexibility Score: inf
ROOT
ATOM      1  C   UNL     1     -17.451  13.561  -8.103  1.00  0.00     0.180 A 
ATOM      2  C   UNL     1     -17.638  14.085  -6.807  1.00  0.00     0.208 A 
ATOM      3  C   UNL     1     -16.725  15.035  -6.324  1.00  0.00     0.235 A 
ATOM      4  O   UNL     1     -16.876  15.528  -5.172  1.00  0.00    -0.285 OA
ATOM      5  C   UNL     1     -15.642  15.424  -7.129  1.00  0.00     0.069 A 
ATOM      6  C   UNL     1     -15.511  14.835  -8.405  1.00  0.00     0.142 A 
ATOM      7  O   UNL     1     -16.403  13.946  -8.828  1.00  0.00    -0.452 OA
ATOM      8  C   UNL     1     -14.440  15.189  -9.233  1.00  0.00     0.094 A 
ATOM      9  C   UNL     1     -13.496  16.129  -8.801  1.00  0.00     0.119 A 
ATOM     10  C   UNL     1     -13.624  16.715  -7.537  1.00  0.00     0.047 A 
ATOM     11  C   UNL     1     -14.689  16.367  -6.702  1.00  0.00     0.020 A 
ENDROOT
BRANCH   1  12
ATOM     12  C   UNL     1     -18.380  12.570  -8.691  1.00  0.00     0.025 A 
ATOM     13  C   UNL     1     -19.154  12.926  -9.807  1.00  0.00     0.016 A 
ATOM     14  C   UNL     1     -20.052  12.014 -10.366  1.00  0.00     0.051 A 
ATOM     15  C   UNL     1     -20.203  10.738  -9.808  1.00  0.00     0.157 A 
ATOM     16  C   UNL     1     -18.549  11.295  -8.121  1.00  0.00     0.062 A 
ATOM     17  C   UNL     1     -19.450  10.379  -8.677  1.00  0.00     0.158 A 
BRANCH  15  18
ATOM     18  O   UNL     1     -21.098   9.829 -10.368  1.00  0.00    -0.504 OA
ATOM     19  H   UNL     1     -21.801   9.361  -9.807  1.00  0.00     0.293 HD
ENDBRANCH  15  18
BRANCH  17  20
ATOM     20  O   UNL     1     -19.588   9.122  -8.089  1.00  0.00    -0.504 OA
ATOM     21  H   UNL     1     -20.245   8.948  -7.338  1.00  0.00     0.293 HD
ENDBRANCH  17  20
ENDBRANCH   1  12
BRANCH   2  22
ATOM     22  O   UNL     1     -18.697  13.643  -6.010  1.00  0.00    -0.502 OA
ATOM     23  H   UNL     1     -19.124  12.733  -6.134  1.00  0.00     0.293 HD
ENDBRANCH   2  22
BRANCH   9  24
ATOM     24  O   UNL     1     -12.426  16.488  -9.618  1.00  0.00    -0.508 OA
ATOM     25  H   UNL     1     -12.040  15.843 -10.298  1.00  0.00     0.293 HD
ENDBRANCH   9  24
TORSDOF 5
ENDMDL
MODEL 3
REMARK VINA RESULT:    -6.531      1.858      7.179
REMARK INTER + INTRA:          -7.739
REMARK INTER:                  -7.512
REMARK INTRA:                  -0.227
REMARK UNBOUND:                -0.062
REMARK SMILES O=c1c(O)c(-c2ccc(O)c(O)c2)oc2cc(O)ccc12
REMARK SMILES IDX 5 1 3 2 2 3 1 4 21 5 15 6 14 7 16 8 17 9 19 10 20 11 6 12
REMARK SMILES IDX 7 13 8 14 9 15 13 16 11 17 10 18 12 20 4 22 18 24
REMARK H PARENT 10 19 12 21 4 23 18 25
REMARK Flexibility Score: inf
ROOT
ATOM      1  C   UNL     1     -16.770  15.033  -7.267  1.00  0.00     0.180 A 
ATOM      2  C   UNL     1     -18.139  14.700  -7.331  1.00  0.00     0.208 A 
ATOM      3  C   UNL     1     -18.571  13.795  -8.313  1.00  0.00     0.235 A 
ATOM      4  O   UNL     1     -19.788  13.472  -8.383  1.00  0.00    -0.285 OA
ATOM      5  C   UNL     1     -17.638  13.261  -9.216  1.00  0.00     0.069 A 
ATOM      6  C   UNL     1     -16.290  13.662  -9.103  1.00  0.00     0.142 A 
ATOM      7  O   UNL     1     -15.922  14.515  -8.152  1.00  0.00    -0.452 OA
ATOM      8  C   UNL     1     -15.332  13.160  -9.990  1.00  0.00     0.094 A 
ATOM      9  C   UNL     1     -15.706  12.256 -10.993  1.00  0.00     0.119 A 
ATOM     10  C   UNL     1     -17.041  11.856 -11.107  1.00  0.00     0.047 A 
ATOM     11  C   UNL     1     -18.006  12.353 -10.226  1.00  0.00     0.020 A 
ENDROOT
BRANCH   1  12
ATOM     12  C   UNL     1     -16.235  15.965  -6.250  1.00  0.00     0.025 A 
ATOM     13  C   UNL     1     -15.493  15.458  -5.172  1.00  0.00     0.016 A 
ATOM     14  C   UNL     1     -14.995  16.317  -4.189  1.00  0.00     0.051 A 
ATOM     15  C   UNL     1     -15.245  17.693  -4.259  1.00  0.00     0.157 A 
ATOM     16  C   UNL     1     -16.502  17.345  -6.307  1.00  0.00     0.062 A 
ATOM     17  C   UNL     1     -16.007  18.208  -5.322  1.00  0.00     0.158 A 
BRANCH  15  18
ATOM     18  O   UNL     1     -14.746  18.549  -3.278  1.00  0.00    -0.504 OA
ATOM     19  H   UNL     1     -14.634  19.541  -3.448  1.00  0.00     0.293 HD
ENDBRANCH  15  18
BRANCH  17  20
ATOM     20  O   UNL     1     -16.287  19.571  -5.413  1.00  0.00    -0.504 OA
ATOM     21  H   UNL     1     -16.982  20.019  -4.829  1.00  0.00     0.293 HD
ENDBRANCH  17  20
ENDBRANCH   1  12
BRANCH   2  22
ATOM     22  O   UNL     1     -19.052  15.285  -6.449  1.00  0.00    -0.502 OA
ATOM     23  H   UNL     1     -18.834  15.449  -5.474  1.00  0.00     0.293 HD
ENDBRANCH   2  22
BRANCH   9  24
ATOM     24  O   UNL     1     -14.760  11.751 -11.882  1.00  0.00    -0.508 OA
ATOM     25  H   UNL     1     -15.017  11.446 -12.814  1.00  0.00     0.293 HD
ENDBRANCH   9  24
TORSDOF 5
ENDMDL
MODEL 4
REMARK VINA RESULT:    -6.407      1.631      3.023
REMARK INTER + INTRA:          -7.593
REMARK INTER:                  -7.349
REMARK INTRA:                  -0.244
REMARK UNBOUND:                -0.062
REMARK SMILES O=c1c(O)c(-c2ccc(O)c(O)c2)oc2cc(O)ccc12
REMARK SMILES IDX 5 1 3 2 2 3 1 4 21 5 15 6 14 7 16 8 17 9 19 10 20 11 6 12
REMARK SMILES IDX 7 13 8 14 9 15 13 16 11 17 10 18 12 20 4 22 18 24
REMARK H PARENT 10 19 12 21 4 23 18 25
REMARK Flexibility Score: inf
ROOT
ATOM      1  C   UNL     1     -17.183  14.209  -7.432  1.00  0.00     0.180 A 
ATOM      2  C   UNL     1     -17.904  13.972  -6.244  1.00  0.00     0.208 A 
ATOM      3  C   UNL     1     -17.401  14.475  -5.034  1.00  0.00     0.235 A 
ATOM      4  O   UNL     1     -18.033  14.286  -3.960  1.00  0.00    -0.285 OA
ATOM      5  C   UNL     1     -16.189  15.183  -5.033  1.00  0.00     0.069 A 
ATOM      6  C   UNL     1     -15.514  15.358  -6.261  1.00  0.00     0.142 A 
ATOM      7  O   UNL     1     -16.030  14.873  -7.385  1.00  0.00    -0.452 OA
ATOM      8  C   UNL     1     -14.298  16.049  -6.299  1.00  0.00     0.094 A 
ATOM      9  C   UNL     1     -13.745  16.570  -5.122  1.00  0.00     0.119 A 
ATOM     10  C   UNL     1     -14.412  16.399  -3.905  1.00  0.00     0.047 A 
ATOM     11  C   UNL     1     -15.627  15.709  -3.855  1.00  0.00     0.020 A 
ENDROOT
BRANCH   1  12
ATOM     12  C   UNL     1     -17.657  13.727  -8.749  1.00  0.00     0.025 A 
ATOM     13  C   UNL     1     -18.743  14.365  -9.368  1.00  0.00     0.016 A 
ATOM     14  C   UNL     1     -19.219  13.915 -10.601  1.00  0.00     0.051 A 
ATOM     15  C   UNL     1     -18.629  12.808 -11.226  1.00  0.00     0.157 A 
ATOM     16  C   UNL     1     -17.080  12.604  -9.369  1.00  0.00     0.062 A 
ATOM     17  C   UNL     1     -17.557  12.147 -10.604  1.00  0.00     0.158 A 
BRANCH  15  18
ATOM     18  O   UNL     1     -19.106  12.361 -12.457  1.00  0.00    -0.504 OA
ATOM     19  H   UNL     1     -18.671  11.586 -12.945  1.00  0.00     0.293 HD
ENDBRANCH  15  18
BRANCH  17  20
ATOM     20  O   UNL     1     -16.957  11.034 -11.192  1.00  0.00    -0.504 OA
ATOM     21  H   UNL     1     -16.720  11.008 -12.176  1.00  0.00     0.293 HD
ENDBRANCH  17  20
ENDBRANCH   1  12
BRANCH   2  22
ATOM     22  O   UNL     1     -19.083  13.222  -6.269  1.00  0.00    -0.502 OA
ATOM     23  H   UNL     1     -19.574  12.955  -5.424  1.00  0.00     0.293 HD
ENDBRANCH   2  22
BRANCH   9  24
ATOM     24  O   UNL     1     -12.535  17.259  -5.151  1.00  0.00    -0.508 OA
ATOM     25  H   UNL     1     -11.682  16.819  -5.478  1.00  0.00     0.293 HD
ENDBRANCH   9  24
TORSDOF 5
ENDMDL
MODEL 5
REMARK VINA RESULT:    -6.276      1.666      6.733
REMARK INTER + INTRA:          -7.439
REMARK INTER:                  -7.125
REMARK INTRA:                  -0.313
REMARK UNBOUND:                -0.062
REMARK SMILES O=c1c(O)c(-c2ccc(O)c(O)c2)oc2cc(O)ccc12
REMARK SMILES IDX 5 1 3 2 2 3 1 4 21 5 15 6 14 7 16 8 17 9 19 10 20 11 6 12
REMARK SMILES IDX 7 13 8 14 9 15 13 16 11 17 10 18 12 20 4 22 18 24
REMARK H PARENT 10 19 12 21 4 23 18 25
REMARK Flexibility Score: inf
ROOT
ATOM      1  C   UNL     1     -15.522  16.304  -7.201  1.00  0.00     0.180 A 
ATOM      2  C   UNL     1     -14.452  16.428  -8.111  1.00  0.00     0.208 A 
ATOM      3  C   UNL     1     -14.334  15.489  -9.148  1.00  0.00     0.235 A 
ATOM      4  O   UNL     1     -13.392  15.584  -9.982  1.00  0.00    -0.285 OA
ATOM      5  C   UNL     1     -15.265  14.443  -9.241  1.00  0.00     0.069 A 
ATOM      6  C   UNL     1     -16.294  14.373  -8.277  1.00  0.00     0.142 A 
ATOM      7  O   UNL     1     -16.376  15.289  -7.317  1.00  0.00    -0.452 OA
ATOM      8  C   UNL     1     -17.236  13.341  -8.330  1.00  0.00     0.094 A 
ATOM      9  C   UNL     1     -17.165  12.372  -9.340  1.00  0.00     0.119 A 
ATOM     10  C   UNL     1     -16.147  12.439 -10.298  1.00  0.00     0.047 A 
ATOM     11  C   UNL     1     -15.200  13.466 -10.252  1.00  0.00     0.020 A 
ENDROOT
BRANCH   1  12
ATOM     12  C   UNL     1     -15.726  17.264  -6.093  1.00  0.00     0.025 A 
ATOM     13  C   UNL     1     -15.079  17.049  -4.866  1.00  0.00     0.016 A 
ATOM     14  C   UNL     1     -15.273  17.931  -3.800  1.00  0.00     0.051 A 
ATOM     15  C   UNL     1     -16.130  19.032  -3.939  1.00  0.00     0.157 A 
ATOM     16  C   UNL     1     -16.601  18.358  -6.223  1.00  0.00     0.062 A 
ATOM     17  C   UNL     1     -16.800  19.242  -5.156  1.00  0.00     0.158 A 
BRANCH  15  18
ATOM     18  O   UNL     1     -16.321  19.911  -2.875  1.00  0.00    -0.504 OA
ATOM     19  H   UNL     1     -16.551  20.886  -3.028  1.00  0.00     0.293 HD
ENDBRANCH  15  18
BRANCH  17  20
ATOM     20  O   UNL     1     -17.670  20.319  -5.322  1.00  0.00    -0.504 OA
ATOM     21  H   UNL     1     -17.955  20.906  -4.547  1.00  0.00     0.293 HD
ENDBRANCH  17  20
ENDBRANCH   1  12
BRANCH   2  22
ATOM     22  O   UNL     1     -13.512  17.450  -7.964  1.00  0.00    -0.502 OA
ATOM     23  H   UNL     1     -12.847  17.469  -7.200  1.00  0.00     0.293 HD
ENDBRANCH   2  22
BRANCH   9  24
ATOM     24  O   UNL     1     -18.098  11.340  -9.401  1.00  0.00    -0.508 OA
ATOM     25  H   UNL     1     -18.966  11.379  -8.879  1.00  0.00     0.293 HD
ENDBRANCH   9  24
TORSDOF 5
ENDMDL
MODEL 6
REMARK VINA RESULT:    -6.154      1.207      1.230
REMARK INTER + INTRA:          -7.295
REMARK INTER:                  -7.017
REMARK INTRA:                  -0.278
REMARK UNBOUND:                -0.062
REMARK SMILES O=c1c(O)c(-c2ccc(O)c(O)c2)oc2cc(O)ccc12
REMARK SMILES IDX 5 1 3 2 2 3 1 4 21 5 15 6 14 7 16 8 17 9 19 10 20 11 6 12
REMARK SMILES IDX 7 13 8 14 9 15 13 16 11 17 10 18 12 20 4 22 18 24
REMARK H PARENT 10 19 12 21 4 23 18 25
REMARK Flexibility Score: inf
ROOT
ATOM      1  C   UNL     1     -16.641  14.476  -8.163  1.00  0.00     0.180 A 
ATOM      2  C   UNL     1     -15.298  14.789  -8.460  1.00  0.00     0.208 A 
ATOM      3  C   UNL     1     -14.582  15.609  -7.574  1.00  0.00     0.235 A 
ATOM      4  O   UNL     1     -13.377  15.894  -7.811  1.00  0.00    -0.285 OA
ATOM      5  C   UNL     1     -15.222  16.113  -6.431  1.00  0.00     0.069 A 
ATOM      6  C   UNL     1     -16.576  15.775  -6.217  1.00  0.00     0.142 A 
ATOM      7  O   UNL     1     -17.214  14.987  -7.076  1.00  0.00    -0.452 OA
ATOM      8  C   UNL     1     -17.251  16.265  -5.094  1.00  0.00     0.094 A 
ATOM      9  C   UNL     1     -16.589  17.092  -4.177  1.00  0.00     0.119 A 
ATOM     10  C   UNL     1     -15.247  17.428  -4.387  1.00  0.00     0.047 A 
ATOM     11  C   UNL     1     -14.564  16.944  -5.506  1.00  0.00     0.020 A 
ENDROOT
BRANCH   1  12
ATOM     12  C   UNL     1     -17.456  13.604  -9.037  1.00  0.00     0.025 A 
ATOM     13  C   UNL     1     -18.023  14.133 -10.207  1.00  0.00     0.016 A 
ATOM     14  C   UNL     1     -18.812  13.333 -11.036  1.00  0.00     0.051 A 
ATOM     15  C   UNL     1     -19.062  11.996 -10.700  1.00  0.00     0.157 A 
ATOM     16  C   UNL     1     -17.726  12.267  -8.692  1.00  0.00     0.062 A 
ATOM     17  C   UNL     1     -18.519  11.463  -9.519  1.00  0.00     0.158 A 
BRANCH  15  18
ATOM     18  O   UNL     1     -19.849  11.199 -11.530  1.00  0.00    -0.504 OA
ATOM     19  H   UNL     1     -19.546  10.944 -12.463  1.00  0.00     0.293 HD
ENDBRANCH  15  18
BRANCH  17  20
ATOM     20  O   UNL     1     -18.761  10.140  -9.149  1.00  0.00    -0.504 OA
ATOM     21  H   UNL     1     -18.994   9.425  -9.826  1.00  0.00     0.293 HD
ENDBRANCH  17  20
ENDBRANCH   1  12
BRANCH   2  22
ATOM     22  O   UNL     1     -14.702  14.312  -9.631  1.00  0.00    -0.502 OA
ATOM     23  H   UNL     1     -15.221  14.195 -10.493  1.00  0.00     0.293 HD
ENDBRANCH   2  22
BRANCH   9  24
ATOM     24  O   UNL     1     -17.253  17.585  -3.057  1.00  0.00    -0.508 OA
ATOM     25  H   UNL     1     -18.259  17.711  -3.050  1.00  0.00     0.293 HD
ENDBRANCH   9  24
TORSDOF 5
ENDMDL
MODEL 7
REMARK VINA RESULT:    -6.146      1.856      6.604
REMARK INTER + INTRA:          -7.286
REMARK INTER:                  -6.963
REMARK INTRA:                  -0.323
REMARK UNBOUND:                -0.062
REMARK SMILES O=c1c(O)c(-c2ccc(O)c(O)c2)oc2cc(O)ccc12
REMARK SMILES IDX 5 1 3 2 2 3 1 4 21 5 15 6 14 7 16 8 17 9 19 10 20 11 6 12
REMARK SMILES IDX 7 13 8 14 9 15 13 16 11 17 10 18 12 20 4 22 18 24
REMARK H PARENT 10 19 12 21 4 23 18 25
REMARK Flexibility Score: inf
ROOT
ATOM      1  C   UNL     1     -16.256  14.845  -7.604  1.00  0.00     0.180 A 
ATOM      2  C   UNL     1     -15.342  14.543  -8.635  1.00  0.00     0.208 A 
ATOM      3  C   UNL     1     -15.700  13.588  -9.599  1.00  0.00     0.235 A 
ATOM      4  O   UNL     1     -14.905  13.309 -10.537  1.00  0.00    -0.285 OA
ATOM      5  C   UNL     1     -16.944  12.944  -9.504  1.00  0.00     0.069 A 
ATOM      6  C   UNL     1     -17.794  13.284  -8.428  1.00  0.00     0.142 A 
ATOM      7  O   UNL     1     -17.420  14.201  -7.542  1.00  0.00    -0.452 OA
ATOM      8  C   UNL     1     -19.038  12.658  -8.293  1.00  0.00     0.094 A 
ATOM      9  C   UNL     1     -19.446  11.693  -9.224  1.00  0.00     0.119 A 
ATOM     10  C   UNL     1     -18.607  11.356 -10.291  1.00  0.00     0.047 A 
ATOM     11  C   UNL     1     -17.362  11.975 -10.434  1.00  0.00     0.020 A 
ENDROOT
BRANCH   1  12
ATOM     12  C   UNL     1     -15.961  15.852  -6.561  1.00  0.00     0.025 A 
ATOM     13  C   UNL     1     -15.411  15.439  -5.337  1.00  0.00     0.016 A 
ATOM     14  C   UNL     1     -15.143  16.370  -4.332  1.00  0.00     0.051 A 
ATOM     15  C   UNL     1     -15.435  17.727  -4.527  1.00  0.00     0.157 A 
ATOM     16  C   UNL     1     -16.271  17.212  -6.746  1.00  0.00     0.062 A 
ATOM     17  C   UNL     1     -16.006  18.148  -5.739  1.00  0.00     0.158 A 
BRANCH  15  18
ATOM     18  O   UNL     1     -15.165  18.655  -3.523  1.00  0.00    -0.504 OA
ATOM     19  H   UNL     1     -14.536  18.439  -2.758  1.00  0.00     0.293 HD
ENDBRANCH  15  18
BRANCH  17  20
ATOM     20  O   UNL     1     -16.322  19.488  -5.960  1.00  0.00    -0.504 OA
ATOM     21  H   UNL     1     -17.231  19.778  -6.300  1.00  0.00     0.293 HD
ENDBRANCH  17  20
ENDBRANCH   1  12
BRANCH   2  22
ATOM     22  O   UNL     1     -14.091  15.164  -8.676  1.00  0.00    -0.502 OA
ATOM     23  H   UNL     1     -13.241  14.656  -8.889  1.00  0.00     0.293 HD
ENDBRANCH   2  22
BRANCH   9  24
ATOM     24  O   UNL     1     -20.683  11.065  -9.097  1.00  0.00    -0.508 OA
ATOM     25  H   UNL     1     -21.341  11.331  -8.374  1.00  0.00     0.293 HD
ENDBRANCH   9  24
TORSDOF 5
ENDMDL
MODEL 8
REMARK VINA RESULT:    -6.133      1.901      6.855
REMARK INTER + INTRA:          -7.271
REMARK INTER:                  -7.361
REMARK INTRA:                   0.090
REMARK UNBOUND:                -0.062
REMARK SMILES O=c1c(O)c(-c2ccc(O)c(O)c2)oc2cc(O)ccc12
REMARK SMILES IDX 5 1 3 2 2 3 1 4 21 5 15 6 14 7 16 8 17 9 19 10 20 11 6 12
REMARK SMILES IDX 7 13 8 14 9 15 13 16 11 17 10 18 12 20 4 22 18 24
REMARK H PARENT 10 19 12 21 4 23 18 25
REMARK Flexibility Score: inf
ROOT
ATOM      1  C   UNL     1     -17.191  14.518  -7.455  1.00  0.00     0.180 A 
ATOM      2  C   UNL     1     -18.401  14.574  -6.733  1.00  0.00     0.208 A 
ATOM      3  C   UNL     1     -19.527  13.910  -7.245  1.00  0.00     0.235 A 
ATOM      4  O   UNL     1     -20.618  13.935  -6.612  1.00  0.00    -0.285 OA
ATOM      5  C   UNL     1     -19.428  13.228  -8.468  1.00  0.00     0.069 A 
ATOM      6  C   UNL     1     -18.188  13.239  -9.143  1.00  0.00     0.142 A 
ATOM      7  O   UNL     1     -17.144  13.872  -8.618  1.00  0.00    -0.452 OA
ATOM      8  C   UNL     1     -18.052  12.579 -10.369  1.00  0.00     0.094 A 
ATOM      9  C   UNL     1     -19.143  11.903 -10.931  1.00  0.00     0.119 A 
ATOM     10  C   UNL     1     -20.373  11.889 -10.264  1.00  0.00     0.047 A 
ATOM     11  C   UNL     1     -20.519  12.547  -9.039  1.00  0.00     0.020 A 
ENDROOT
BRANCH   1  12
ATOM     12  C   UNL     1     -15.957  15.176  -6.973  1.00  0.00     0.025 A 
ATOM     13  C   UNL     1     -15.585  15.042  -5.626  1.00  0.00     0.016 A 
ATOM     14  C   UNL     1     -14.434  15.670  -5.143  1.00  0.00     0.051 A 
ATOM     15  C   UNL     1     -13.648  16.457  -5.995  1.00  0.00     0.157 A 
ATOM     16  C   UNL     1     -15.176  15.983  -7.820  1.00  0.00     0.062 A 
ATOM     17  C   UNL     1     -14.024  16.617  -7.339  1.00  0.00     0.158 A 
BRANCH  15  18
ATOM     18  O   UNL     1     -12.499  17.082  -5.512  1.00  0.00    -0.504 OA
ATOM     19  H   UNL     1     -11.714  16.548  -5.158  1.00  0.00     0.293 HD
ENDBRANCH  15  18
BRANCH  17  20
ATOM     20  O   UNL     1     -13.271  17.404  -8.210  1.00  0.00    -0.504 OA
ATOM     21  H   UNL     1     -12.259  17.398  -8.202  1.00  0.00     0.293 HD
ENDBRANCH  17  20
ENDBRANCH   1  12
BRANCH   2  22
ATOM     22  O   UNL     1     -18.483  15.302  -5.543  1.00  0.00    -0.502 OA
ATOM     23  H   UNL     1     -19.205  15.993  -5.379  1.00  0.00     0.293 HD
ENDBRANCH   2  22
BRANCH   9  24
ATOM     24  O   UNL     1     -19.017  11.243 -12.151  1.00  0.00    -0.508 OA
ATOM     25  H   UNL     1     -18.126  10.878 -12.467  1.00  0.00     0.293 HD
ENDBRANCH   9  24
TORSDOF 5
ENDMDL
