MODEL 1
REMARK VINA RESULT:    -5.097      0.000      0.000
REMARK INTER + INTRA:          -5.713
REMARK INTER:                  -6.140
REMARK INTRA:                   0.427
REMARK UNBOUND:                 0.427
REMARK SMILES O=c1c(O)c(-c2ccc(O)c(O)c2)oc2cc(O)cc(O)c12
REMARK SMILES IDX 5 1 3 2 2 3 1 4 22 5 20 6 19 7 17 8 16 9 15 10 14 11 6 12
REMARK SMILES IDX 7 13 8 14 9 15 13 16 11 17 10 18 12 20 4 22 21 24 18 26
REMARK H PARENT 10 19 12 21 4 23 21 25 18 27
REMARK Flexibility Score: inf
ROOT
ATOM      1  C   UNL     1      27.097 -18.119   0.816  1.00  0.00     0.180 A 
ATOM      2  C   UNL     1      28.179 -17.573   0.104  1.00  0.00     0.208 A 
ATOM      3  C   UNL     1      29.475 -17.707   0.625  1.00  0.00     0.238 A 
ATOM      4  O   UNL     1      30.445 -17.264  -0.044  1.00  0.00    -0.285 OA
ATOM      5  C   UNL     1      29.672 -18.371   1.861  1.00  0.00     0.111 A 
ATOM      6  C   UNL     1      30.937 -18.529   2.503  1.00  0.00     0.134 A 
ATOM      7  C   UNL     1      31.032 -19.316   3.657  1.00  0.00     0.093 A 
ATOM      8  C   UNL     1      29.897 -19.896   4.229  1.00  0.00     0.123 A 
ATOM      9  C   UNL     1      28.649 -19.698   3.643  1.00  0.00     0.094 A 
ATOM     10  C   UNL     1      28.528 -18.947   2.470  1.00  0.00     0.146 A 
ATOM     11  O   UNL     1      27.321 -18.792   1.939  1.00  0.00    -0.452 OA
ENDROOT
BRANCH   1  12
ATOM     12  C   UNL     1      25.699 -17.996   0.342  1.00  0.00     0.025 A 
ATOM     13  C   UNL     1      25.373 -17.001  -0.593  1.00  0.00     0.016 A 
ATOM     14  C   UNL     1      24.066 -16.878  -1.069  1.00  0.00     0.051 A 
ATOM     15  C   UNL     1      23.069 -17.756  -0.632  1.00  0.00     0.157 A 
ATOM     16  C   UNL     1      24.701 -18.891   0.765  1.00  0.00     0.062 A 
ATOM     17  C   UNL     1      23.388 -18.772   0.286  1.00  0.00     0.158 A 
BRANCH  15  18
ATOM     18  O   UNL     1      21.772 -17.610  -1.124  1.00  0.00    -0.504 OA
ATOM     19  H   UNL     1      21.038 -17.169  -0.583  1.00  0.00     0.293 HD
ENDBRANCH  15  18
BRANCH  17  20
ATOM     20  O   UNL     1      22.402 -19.659   0.715  1.00  0.00    -0.504 OA
ATOM     21  H   UNL     1      21.497 -19.706   0.262  1.00  0.00     0.293 HD
ENDBRANCH  17  20
ENDBRANCH   1  12
BRANCH   2  22
ATOM     22  O   UNL     1      27.964 -16.941  -1.125  1.00  0.00    -0.502 OA
ATOM     23  H   UNL     1      27.318 -17.302  -1.816  1.00  0.00     0.293 HD
ENDBRANCH   2  22
BRANCH   6  24
ATOM     24  O   UNL     1      32.116 -17.916   2.067  1.00  0.00    -0.507 OA
ATOM     25  H   UNL     1      32.477 -17.045   2.424  1.00  0.00     0.293 HD
ENDBRANCH   6  24
BRANCH   8  26
ATOM     26  O   UNL     1      29.998 -20.664   5.387  1.00  0.00    -0.508 OA
ATOM     27  H   UNL     1      30.858 -20.708   5.920  1.00  0.00     0.293 HD
ENDBRANCH   8  26
TORSDOF 6
ENDMDL
MODEL 2
REMARK VINA RESULT:    -4.787      4.512      6.746
REMARK INTER + INTRA:          -5.339
REMARK INTER:                  -5.336
REMARK INTRA:                  -0.004
REMARK UNBOUND:                 0.427
REMARK SMILES O=c1c(O)c(-c2ccc(O)c(O)c2)oc2cc(O)cc(O)c12
REMARK SMILES IDX 5 1 3 2 2 3 1 4 22 5 20 6 19 7 17 8 16 9 15 10 14 11 6 12
REMARK SMILES IDX 7 13 8 14 9 15 13 16 11 17 10 18 12 20 4 22 21 24 18 26
REMARK H PARENT 10 19 12 21 4 23 21 25 18 27
REMARK Flexibility Score: inf
ROOT
ATOM      1  C   UNL     1      30.106 -21.903   1.234  1.00  0.00     0.180 A 
ATOM      2  C   UNL     1      30.857 -21.551   2.369  1.00  0.00     0.208 A 
ATOM      3  C   UNL     1      30.725 -20.258   2.900  1.00  0.00     0.238 A 
ATOM      4  O   UNL     1      31.358 -19.966   3.948  1.00  0.00    -0.285 OA
ATOM      5  C   UNL     1      29.856 -19.327   2.279  1.00  0.00     0.111 A 
ATOM      6  C   UNL     1      29.675 -17.978   2.707  1.00  0.00     0.134 A 
ATOM      7  C   UNL     1      28.693 -17.187   2.099  1.00  0.00     0.093 A 
ATOM      8  C   UNL     1      27.931 -17.675   1.035  1.00  0.00     0.123 A 
ATOM      9  C   UNL     1      28.142 -18.971   0.571  1.00  0.00     0.094 A 
ATOM     10  C   UNL     1      29.090 -19.797   1.181  1.00  0.00     0.146 A 
ATOM     11  O   UNL     1      29.252 -21.029   0.714  1.00  0.00    -0.452 OA
ENDROOT
BRANCH   1  12
ATOM     12  C   UNL     1      30.212 -23.238   0.603  1.00  0.00     0.025 A 
ATOM     13  C   UNL     1      31.478 -23.745   0.269  1.00  0.00     0.016 A 
ATOM     14  C   UNL     1      31.603 -25.011  -0.308  1.00  0.00     0.051 A 
ATOM     15  C   UNL     1      30.470 -25.795  -0.546  1.00  0.00     0.157 A 
ATOM     16  C   UNL     1      29.075 -24.036   0.383  1.00  0.00     0.062 A 
ATOM     17  C   UNL     1      29.199 -25.308  -0.194  1.00  0.00     0.158 A 
BRANCH  15  18
ATOM     18  O   UNL     1      30.625 -27.054  -1.125  1.00  0.00    -0.504 OA
ATOM     19  H   UNL     1      29.999 -27.823  -0.918  1.00  0.00     0.293 HD
ENDBRANCH  15  18
BRANCH  17  20
ATOM     20  O   UNL     1      28.067 -26.090  -0.416  1.00  0.00    -0.504 OA
ATOM     21  H   UNL     1      27.132 -25.719  -0.290  1.00  0.00     0.293 HD
ENDBRANCH  17  20
ENDBRANCH   1  12
BRANCH   2  22
ATOM     22  O   UNL     1      31.693 -22.492   2.979  1.00  0.00    -0.502 OA
ATOM     23  H   UNL     1      32.688 -22.533   2.797  1.00  0.00     0.293 HD
ENDBRANCH   2  22
BRANCH   6  24
ATOM     24  O   UNL     1      30.446 -17.363   3.699  1.00  0.00    -0.507 OA
ATOM     25  H   UNL     1      30.904 -16.471   3.599  1.00  0.00     0.293 HD
ENDBRANCH   6  24
BRANCH   8  26
ATOM     26  O   UNL     1      26.966 -16.876   0.425  1.00  0.00    -0.508 OA
ATOM     27  H   UNL     1      27.076 -16.547  -0.528  1.00  0.00     0.293 HD
ENDBRANCH   8  26
TORSDOF 6
ENDMDL
MODEL 3
REMARK VINA RESULT:    -4.631      2.306      2.691
REMARK INTER + INTRA:          -5.152
REMARK INTER:                  -4.856
REMARK INTRA:                  -0.296
REMARK UNBOUND:                 0.427
REMARK SMILES O=c1c(O)c(-c2ccc(O)c(O)c2)oc2cc(O)cc(O)c12
REMARK SMILES IDX 5 1 3 2 2 3 1 4 22 5 20 6 19 7 17 8 16 9 15 10 14 11 6 12
REMARK SMILES IDX 7 13 8 14 9 15 13 16 11 17 10 18 12 20 4 22 21 24 18 26
REMARK H PARENT 10 19 12 21 4 23 21 25 18 27
REMARK Flexibility Score: inf
ROOT
ATOM      1  C   UNL     1      27.946 -19.013   1.319  1.00  0.00     0.180 A 
ATOM      2  C   UNL     1      28.724 -18.285   2.236  1.00  0.00     0.208 A 
ATOM      3  C   UNL     1      29.866 -18.887   2.789  1.00  0.00     0.238 A 
ATOM      4  O   UNL     1      30.588 -18.212   3.568  1.00  0.00    -0.285 OA
ATOM      5  C   UNL     1      30.205 -20.215   2.431  1.00  0.00     0.111 A 
ATOM      6  C   UNL     1      31.317 -20.937   2.961  1.00  0.00     0.134 A 
ATOM      7  C   UNL     1      31.633 -22.196   2.437  1.00  0.00     0.093 A 
ATOM      8  C   UNL     1      30.840 -22.787   1.451  1.00  0.00     0.123 A 
ATOM      9  C   UNL     1      29.719 -22.115   0.970  1.00  0.00     0.094 A 
ATOM     10  C   UNL     1      29.398 -20.841   1.447  1.00  0.00     0.146 A 
ATOM     11  O   UNL     1      28.327 -20.231   0.954  1.00  0.00    -0.452 OA
ENDROOT
BRANCH   1  12
ATOM     12  C   UNL     1      26.715 -18.454   0.714  1.00  0.00     0.025 A 
ATOM     13  C   UNL     1      26.818 -17.599  -0.394  1.00  0.00     0.016 A 
ATOM     14  C   UNL     1      25.669 -17.077  -0.994  1.00  0.00     0.051 A 
ATOM     15  C   UNL     1      24.402 -17.412  -0.507  1.00  0.00     0.157 A 
ATOM     16  C   UNL     1      25.440 -18.807   1.190  1.00  0.00     0.062 A 
ATOM     17  C   UNL     1      24.285 -18.286   0.587  1.00  0.00     0.158 A 
BRANCH  15  18
ATOM     18  O   UNL     1      23.274 -16.875  -1.125  1.00  0.00    -0.504 OA
ATOM     19  H   UNL     1      22.337 -17.045  -0.778  1.00  0.00     0.293 HD
ENDBRANCH  15  18
BRANCH  17  20
ATOM     20  O   UNL     1      23.025 -18.636   1.069  1.00  0.00    -0.504 OA
ATOM     21  H   UNL     1      22.881 -19.473   1.623  1.00  0.00     0.293 HD
ENDBRANCH  17  20
ENDBRANCH   1  12
BRANCH   2  22
ATOM     22  O   UNL     1      28.383 -16.968   2.559  1.00  0.00    -0.502 OA
ATOM     23  H   UNL     1      28.819 -16.170   2.116  1.00  0.00     0.293 HD
ENDBRANCH   2  22
BRANCH   6  24
ATOM     24  O   UNL     1      32.118 -20.478   4.010  1.00  0.00    -0.507 OA
ATOM     25  H   UNL     1      31.809 -19.849   4.736  1.00  0.00     0.293 HD
ENDBRANCH   6  24
BRANCH   8  26
ATOM     26  O   UNL     1      31.153 -24.048   0.947  1.00  0.00    -0.508 OA
ATOM     27  H   UNL     1      30.706 -24.886   1.300  1.00  0.00     0.293 HD
ENDBRANCH   8  26
TORSDOF 6
ENDMDL
MODEL 4
REMARK VINA RESULT:    -2.511      0.802      0.819
REMARK INTER + INTRA:          -2.598
REMARK INTER:                  -2.781
REMARK INTRA:                   0.184
REMARK UNBOUND:                 0.427
REMARK SMILES O=c1c(O)c(-c2ccc(O)c(O)c2)oc2cc(O)cc(O)c12
REMARK SMILES IDX 5 1 3 2 2 3 1 4 22 5 20 6 19 7 17 8 16 9 15 10 14 11 6 12
REMARK SMILES IDX 7 13 8 14 9 15 13 16 11 17 10 18 12 20 4 22 21 24 18 26
REMARK H PARENT 10 19 12 21 4 23 21 25 18 27
REMARK Flexibility Score: inf
ROOT
ATOM      1  C   UNL     1      26.359 -18.219   0.769  1.00  0.00     0.180 A 
ATOM      2  C   UNL     1      27.379 -17.540   0.081  1.00  0.00     0.208 A 
ATOM      3  C   UNL     1      28.685 -17.571   0.595  1.00  0.00     0.238 A 
ATOM      4  O   UNL     1      29.604 -17.008  -0.055  1.00  0.00    -0.285 OA
ATOM      5  C   UNL     1      28.951 -18.265   1.801  1.00  0.00     0.111 A 
ATOM      6  C   UNL     1      30.229 -18.328   2.435  1.00  0.00     0.134 A 
ATOM      7  C   UNL     1      30.404 -19.151   3.553  1.00  0.00     0.093 A 
ATOM      8  C   UNL     1      29.334 -19.862   4.100  1.00  0.00     0.123 A 
ATOM      9  C   UNL     1      28.070 -19.760   3.523  1.00  0.00     0.094 A 
ATOM     10  C   UNL     1      27.871 -18.975   2.385  1.00  0.00     0.146 A 
ATOM     11  O   UNL     1      26.652 -18.914   1.862  1.00  0.00    -0.452 OA
ENDROOT
BRANCH   1  12
ATOM     12  C   UNL     1      24.953 -18.210   0.302  1.00  0.00     0.025 A 
ATOM     13  C   UNL     1      24.415 -17.035  -0.246  1.00  0.00     0.016 A 
ATOM     14  C   UNL     1      23.098 -17.010  -0.711  1.00  0.00     0.051 A 
ATOM     15  C   UNL     1      22.305 -18.160  -0.652  1.00  0.00     0.157 A 
ATOM     16  C   UNL     1      24.161 -19.371   0.343  1.00  0.00     0.062 A 
ATOM     17  C   UNL     1      22.840 -19.349  -0.127  1.00  0.00     0.158 A 
BRANCH  15  18
ATOM     18  O   UNL     1      20.994 -18.105  -1.123  1.00  0.00    -0.504 OA
ATOM     19  H   UNL     1      20.233 -18.582  -0.655  1.00  0.00     0.293 HD
ENDBRANCH  15  18
BRANCH  17  20
ATOM     20  O   UNL     1      22.059 -20.503  -0.078  1.00  0.00    -0.504 OA
ATOM     21  H   UNL     1      21.535 -20.824  -0.884  1.00  0.00     0.293 HD
ENDBRANCH  17  20
ENDBRANCH   1  12
BRANCH   2  22
ATOM     22  O   UNL     1      27.099 -16.880  -1.119  1.00  0.00    -0.502 OA
ATOM     23  H   UNL     1      27.412 -15.935  -1.305  1.00  0.00     0.293 HD
ENDBRANCH   2  22
BRANCH   6  24
ATOM     24  O   UNL     1      31.340 -17.586   2.024  1.00  0.00    -0.507 OA
ATOM     25  H   UNL     1      32.116 -17.337   2.618  1.00  0.00     0.293 HD
ENDBRANCH   6  24
BRANCH   8  26
ATOM     26  O   UNL     1      29.514 -20.667   5.223  1.00  0.00    -0.508 OA
ATOM     27  H   UNL     1      29.892 -21.604   5.148  1.00  0.00     0.293 HD
ENDBRANCH   8  26
TORSDOF 6
ENDMDL
MODEL 5
REMARK VINA RESULT:    -2.171      1.309      3.002
REMARK INTER + INTRA:          -2.188
REMARK INTER:                  -2.313
REMARK INTRA:                   0.125
REMARK UNBOUND:                 0.427
REMARK SMILES O=c1c(O)c(-c2ccc(O)c(O)c2)oc2cc(O)cc(O)c12
REMARK SMILES IDX 5 1 3 2 2 3 1 4 22 5 20 6 19 7 17 8 16 9 15 10 14 11 6 12
REMARK SMILES IDX 7 13 8 14 9 15 13 16 11 17 10 18 12 20 4 22 21 24 18 26
REMARK H PARENT 10 19 12 21 4 23 21 25 18 27
REMARK Flexibility Score: inf
ROOT
ATOM      1  C   UNL     1      26.598 -18.327   0.839  1.00  0.00     0.180 A 
ATOM      2  C   UNL     1      26.894 -18.872   2.100  1.00  0.00     0.208 A 
ATOM      3  C   UNL     1      28.238 -19.016   2.482  1.00  0.00     0.238 A 
ATOM      4  O   UNL     1      28.496 -19.454   3.633  1.00  0.00    -0.285 OA
ATOM      5  C   UNL     1      29.269 -18.629   1.590  1.00  0.00     0.111 A 
ATOM      6  C   UNL     1      30.664 -18.768   1.856  1.00  0.00     0.134 A 
ATOM      7  C   UNL     1      31.594 -18.231   0.958  1.00  0.00     0.093 A 
ATOM      8  C   UNL     1      31.181 -17.620  -0.228  1.00  0.00     0.123 A 
ATOM      9  C   UNL     1      29.823 -17.532  -0.524  1.00  0.00     0.094 A 
ATOM     10  C   UNL     1      28.869 -18.027   0.370  1.00  0.00     0.146 A 
ATOM     11  O   UNL     1      27.585 -17.913   0.053  1.00  0.00    -0.452 OA
ENDROOT
BRANCH   1  12
ATOM     12  C   UNL     1      25.207 -18.168   0.358  1.00  0.00     0.025 A 
ATOM     13  C   UNL     1      24.867 -17.044  -0.412  1.00  0.00     0.016 A 
ATOM     14  C   UNL     1      23.566 -16.883  -0.894  1.00  0.00     0.051 A 
ATOM     15  C   UNL     1      22.590 -17.848  -0.630  1.00  0.00     0.157 A 
ATOM     16  C   UNL     1      24.229 -19.147   0.606  1.00  0.00     0.062 A 
ATOM     17  C   UNL     1      22.923 -18.989   0.120  1.00  0.00     0.158 A 
BRANCH  15  18
ATOM     18  O   UNL     1      21.299 -17.660  -1.123  1.00  0.00    -0.504 OA
ATOM     19  H   UNL     1      20.488 -18.074  -0.680  1.00  0.00     0.293 HD
ENDBRANCH  15  18
BRANCH  17  20
ATOM     20  O   UNL     1      21.957 -19.962   0.376  1.00  0.00    -0.504 OA
ATOM     21  H   UNL     1      21.519 -20.049   1.285  1.00  0.00     0.293 HD
ENDBRANCH  17  20
ENDBRANCH   1  12
BRANCH   2  22
ATOM     22  O   UNL     1      25.862 -19.228   2.973  1.00  0.00    -0.502 OA
ATOM     23  H   UNL     1      25.976 -19.930   3.693  1.00  0.00     0.293 HD
ENDBRANCH   2  22
BRANCH   6  24
ATOM     24  O   UNL     1      31.184 -19.443   2.965  1.00  0.00    -0.507 OA
ATOM     25  H   UNL     1      31.844 -20.204   2.917  1.00  0.00     0.293 HD
ENDBRANCH   6  24
BRANCH   8  26
ATOM     26  O   UNL     1      32.114 -17.102  -1.124  1.00  0.00    -0.508 OA
ATOM     27  H   UNL     1      33.104 -17.085  -0.907  1.00  0.00     0.293 HD
ENDBRANCH   8  26
TORSDOF 6
ENDMDL
