MODEL 1
REMARK VINA RESULT:    -3.702      0.000      0.000
REMARK INTER + INTRA:          -6.566
REMARK INTER:                  -5.649
REMARK INTRA:                  -0.916
REMARK UNBOUND:                -0.916
REMARK SMILES O=C([O-])CCCCCCCCC(=O)[O-]
REMARK SMILES IDX 7 1 6 2 5 3 4 4 2 5 1 6 3 7 8 8 9 9 10 10 11 11 12 12 13 13
REMARK SMILES IDX 14 14
REMARK H PARENT
REMARK Flexibility Score: inf
ROOT
ATOM      1  C   UNL     1      93.559 103.513  89.747  1.00  0.00     0.000 C 
ENDROOT
BRANCH   1   2
ATOM      2  C   UNL     1      94.519 103.899  90.882  1.00  0.00     0.000 C 
BRANCH   2   3
ATOM      3  C   UNL     1      94.633 102.806  91.959  1.00  0.00     0.006 C 
BRANCH   3   4
ATOM      4  C   UNL     1      95.715 101.772  91.622  1.00  0.00     0.053 C 
BRANCH   4   5
ATOM      5  C   UNL     1      95.135 100.402  91.436  1.00  0.00     0.041 C 
ATOM      6  O   UNL     1      95.377  99.749  90.386  1.00  0.00    -0.550 OA
ATOM      7  O   UNL     1      94.359  99.832  92.438  1.00  0.00    -0.550 OA
ENDBRANCH   4   5
ENDBRANCH   3   4
ENDBRANCH   2   3
ENDBRANCH   1   2
BRANCH   1   8
ATOM      8  C   UNL     1      92.344 102.710  90.244  1.00  0.00     0.000 C 
BRANCH   8   9
ATOM      9  C   UNL     1      92.230 101.336  89.551  1.00  0.00     0.000 C 
BRANCH   9  10
ATOM     10  C   UNL     1      91.521 100.272  90.405  1.00  0.00     0.006 C 
BRANCH  10  11
ATOM     11  C   UNL     1      91.039 100.814  91.756  1.00  0.00     0.053 C 
BRANCH  11  12
ATOM     12  C   UNL     1      89.745 100.172  92.145  1.00  0.00     0.041 C 
ATOM     13  O   UNL     1      88.947  99.768  91.259  1.00  0.00    -0.550 OA
ATOM     14  O   UNL     1      89.397 100.066  93.486  1.00  0.00    -0.550 OA
ENDBRANCH  11  12
ENDBRANCH  10  11
ENDBRANCH   9  10
ENDBRANCH   8   9
ENDBRANCH   1   8
TORSDOF 9
ENDMDL
MODEL 2
REMARK VINA RESULT:    -3.700     12.287     14.417
REMARK INTER + INTRA:          -6.563
REMARK INTER:                  -6.000
REMARK INTRA:                  -0.563
REMARK UNBOUND:                -0.916
REMARK SMILES O=C([O-])CCCCCCCCC(=O)[O-]
REMARK SMILES IDX 7 1 6 2 5 3 4 4 2 5 1 6 3 7 8 8 9 9 10 10 11 11 12 12 13 13
REMARK SMILES IDX 14 14
REMARK H PARENT
REMARK Flexibility Score: inf
ROOT
ATOM      1  C   UNL     1     105.748  95.377  90.306  1.00  0.00     0.000 C 
ENDROOT
BRANCH   1   2
ATOM      2  C   UNL     1     104.543  94.983  89.438  1.00  0.00     0.000 C 
BRANCH   2   3
ATOM      3  C   UNL     1     103.789  93.760  89.990  1.00  0.00     0.006 C 
BRANCH   3   4
ATOM      4  C   UNL     1     102.273  93.876  89.789  1.00  0.00     0.053 C 
BRANCH   4   5
ATOM      5  C   UNL     1     101.731  92.737  88.980  1.00  0.00     0.041 C 
ATOM      6  O   UNL     1     100.773  92.924  88.185  1.00  0.00    -0.550 OA
ATOM      7  O   UNL     1     102.308  91.476  89.077  1.00  0.00    -0.550 OA
ENDBRANCH   4   5
ENDBRANCH   3   4
ENDBRANCH   2   3
ENDBRANCH   1   2
BRANCH   1   8
ATOM      8  C   UNL     1     105.373  95.577  91.785  1.00  0.00     0.000 C 
BRANCH   8   9
ATOM      9  C   UNL     1     104.521  96.845  92.004  1.00  0.00     0.000 C 
BRANCH   9  10
ATOM     10  C   UNL     1     105.317  98.153  91.868  1.00  0.00     0.006 C 
BRANCH  10  11
ATOM     11  C   UNL     1     106.231  98.424  93.069  1.00  0.00     0.053 C 
BRANCH  11  12
ATOM     12  C   UNL     1     107.665  98.436  92.642  1.00  0.00     0.041 C 
ATOM     13  O   UNL     1     108.214  99.515  92.297  1.00  0.00    -0.550 OA
ATOM     14  O   UNL     1     108.381  97.247  92.578  1.00  0.00    -0.550 OA
ENDBRANCH  11  12
ENDBRANCH  10  11
ENDBRANCH   9  10
ENDBRANCH   8   9
ENDBRANCH   1   8
TORSDOF 9
ENDMDL
MODEL 3
REMARK VINA RESULT:    -3.698      2.184      3.430
REMARK INTER + INTRA:          -6.560
REMARK INTER:                  -5.537
REMARK INTRA:                  -1.023
REMARK UNBOUND:                -0.916
REMARK SMILES O=C([O-])CCCCCCCCC(=O)[O-]
REMARK SMILES IDX 7 1 6 2 5 3 4 4 2 5 1 6 3 7 8 8 9 9 10 10 11 11 12 12 13 13
REMARK SMILES IDX 14 14
REMARK H PARENT
REMARK Flexibility Score: inf
ROOT
ATOM      1  C   UNL     1      92.882  98.521  90.434  1.00  0.00     0.000 C 
ENDROOT
BRANCH   1   2
ATOM      2  C   UNL     1      93.312  99.950  90.797  1.00  0.00     0.000 C 
BRANCH   2   3
ATOM      3  C   UNL     1      92.467 101.022  90.089  1.00  0.00     0.006 C 
BRANCH   3   4
ATOM      4  C   UNL     1      92.167 102.219  91.000  1.00  0.00     0.053 C 
BRANCH   4   5
ATOM      5  C   UNL     1      93.346 103.135  91.121  1.00  0.00     0.041 C 
ATOM      6  O   UNL     1      93.668 103.885  90.162  1.00  0.00    -0.550 OA
ATOM      7  O   UNL     1      94.069 103.187  92.307  1.00  0.00    -0.550 OA
ENDBRANCH   4   5
ENDBRANCH   3   4
ENDBRANCH   2   3
ENDBRANCH   1   2
BRANCH   1   8
ATOM      8  C   UNL     1      91.793  98.487  89.346  1.00  0.00     0.000 C 
BRANCH   8   9
ATOM      9  C   UNL     1      90.492  97.825  89.845  1.00  0.00     0.000 C 
BRANCH   9  10
ATOM     10  C   UNL     1      89.524  98.805  90.528  1.00  0.00     0.006 C 
BRANCH  10  11
ATOM     11  C   UNL     1      89.434  98.596  92.044  1.00  0.00     0.053 C 
BRANCH  11  12
ATOM     12  C   UNL     1      89.909  99.816  92.769  1.00  0.00     0.041 C 
ATOM     13  O   UNL     1      89.255 100.890  92.700  1.00  0.00    -0.550 OA
ATOM     14  O   UNL     1      91.102  99.782  93.480  1.00  0.00    -0.550 OA
ENDBRANCH  11  12
ENDBRANCH  10  11
ENDBRANCH   9  10
ENDBRANCH   8   9
ENDBRANCH   1   8
TORSDOF 9
ENDMDL
MODEL 4
REMARK VINA RESULT:    -3.676     10.812     13.506
REMARK INTER + INTRA:          -6.526
REMARK INTER:                  -5.541
REMARK INTRA:                  -0.986
REMARK UNBOUND:                -0.916
REMARK SMILES O=C([O-])CCCCCCCCC(=O)[O-]
REMARK SMILES IDX 7 1 6 2 5 3 4 4 2 5 1 6 3 7 8 8 9 9 10 10 11 11 12 12 13 13
REMARK SMILES IDX 14 14
REMARK H PARENT
REMARK Flexibility Score: inf
ROOT
ATOM      1  C   UNL     1     105.495  95.385  89.968  1.00  0.00     0.000 C 
ENDROOT
BRANCH   1   2
ATOM      2  C   UNL     1     104.342  94.373  90.047  1.00  0.00     0.000 C 
BRANCH   2   3
ATOM      3  C   UNL     1     103.553  94.476  91.364  1.00  0.00     0.006 C 
BRANCH   3   4
ATOM      4  C   UNL     1     103.657  95.871  91.994  1.00  0.00     0.053 C 
BRANCH   4   5
ATOM      5  C   UNL     1     102.496  96.740  91.614  1.00  0.00     0.041 C 
ATOM      6  O   UNL     1     102.694  97.861  91.074  1.00  0.00    -0.550 OA
ATOM      7  O   UNL     1     101.196  96.298  91.823  1.00  0.00    -0.550 OA
ENDBRANCH   4   5
ENDBRANCH   3   4
ENDBRANCH   2   3
ENDBRANCH   1   2
BRANCH   1   8
ATOM      8  C   UNL     1     105.363  96.342  88.770  1.00  0.00     0.000 C 
BRANCH   8   9
ATOM      9  C   UNL     1     105.662  97.806  89.158  1.00  0.00     0.000 C 
BRANCH   9  10
ATOM     10  C   UNL     1     106.482  97.944  90.452  1.00  0.00     0.006 C 
BRANCH  10  11
ATOM     11  C   UNL     1     105.919  99.005  91.404  1.00  0.00     0.053 C 
BRANCH  11  12
ATOM     12  C   UNL     1     106.098  98.579  92.827  1.00  0.00     0.041 C 
ATOM     13  O   UNL     1     105.243  98.894  93.696  1.00  0.00    -0.550 OA
ATOM     14  O   UNL     1     107.236  97.875  93.204  1.00  0.00    -0.550 OA
ENDBRANCH  11  12
ENDBRANCH  10  11
ENDBRANCH   9  10
ENDBRANCH   8   9
ENDBRANCH   1   8
TORSDOF 9
ENDMDL
MODEL 5
REMARK VINA RESULT:    -3.671      1.002      4.643
REMARK INTER + INTRA:          -6.519
REMARK INTER:                  -5.584
REMARK INTRA:                  -0.935
REMARK UNBOUND:                -0.916
REMARK SMILES O=C([O-])CCCCCCCCC(=O)[O-]
REMARK SMILES IDX 7 1 6 2 5 3 4 4 2 5 1 6 3 7 8 8 9 9 10 10 11 11 12 12 13 13
REMARK SMILES IDX 14 14
REMARK H PARENT
REMARK Flexibility Score: inf
ROOT
ATOM      1  C   UNL     1      92.411 103.087  90.124  1.00  0.00     0.000 C 
ENDROOT
BRANCH   1   2
ATOM      2  C   UNL     1      92.497 101.669  89.540  1.00  0.00     0.000 C 
BRANCH   2   3
ATOM      3  C   UNL     1      91.820 100.617  90.435  1.00  0.00     0.006 C 
BRANCH   3   4
ATOM      4  C   UNL     1      91.524 101.156  91.840  1.00  0.00     0.053 C 
BRANCH   4   5
ATOM      5  C   UNL     1      91.010 100.082  92.750  1.00  0.00     0.041 C 
ATOM      6  O   UNL     1      89.833 100.138  93.194  1.00  0.00    -0.550 OA
ATOM      7  O   UNL     1      91.819  99.001  93.079  1.00  0.00    -0.550 OA
ENDBRANCH   4   5
ENDBRANCH   3   4
ENDBRANCH   2   3
ENDBRANCH   1   2
BRANCH   1   8
ATOM      8  C   UNL     1      93.736 103.860  90.004  1.00  0.00     0.000 C 
BRANCH   8   9
ATOM      9  C   UNL     1      94.767 103.416  91.063  1.00  0.00     0.000 C 
BRANCH   9  10
ATOM     10  C   UNL     1      95.983 102.686  90.469  1.00  0.00     0.006 C 
BRANCH  10  11
ATOM     11  C   UNL     1      96.458 101.515  91.337  1.00  0.00     0.053 C 
BRANCH  11  12
ATOM     12  C   UNL     1      95.527 100.351  91.200  1.00  0.00     0.041 C 
ATOM     13  O   UNL     1      94.849  99.963  92.188  1.00  0.00    -0.550 OA
ATOM     14  O   UNL     1      95.445  99.664  89.996  1.00  0.00    -0.550 OA
ENDBRANCH  11  12
ENDBRANCH  10  11
ENDBRANCH   9  10
ENDBRANCH   8   9
ENDBRANCH   1   8
TORSDOF 9
ENDMDL
MODEL 6
REMARK VINA RESULT:    -3.659      1.678      4.841
REMARK INTER + INTRA:          -6.501
REMARK INTER:                  -5.461
REMARK INTRA:                  -1.039
REMARK UNBOUND:                -0.916
REMARK SMILES O=C([O-])CCCCCCCCC(=O)[O-]
REMARK SMILES IDX 7 1 6 2 5 3 4 4 2 5 1 6 3 7 8 8 9 9 10 10 11 11 12 12 13 13
REMARK SMILES IDX 14 14
REMARK H PARENT
REMARK Flexibility Score: inf
ROOT
ATOM      1  C   UNL     1      92.594  99.852  89.912  1.00  0.00     0.000 C 
ENDROOT
BRANCH   1   2
ATOM      2  C   UNL     1      93.134  99.317  91.247  1.00  0.00     0.000 C 
BRANCH   2   3
ATOM      3  C   UNL     1      92.451  99.964  92.464  1.00  0.00     0.006 C 
BRANCH   3   4
ATOM      4  C   UNL     1      91.072 100.538  92.118  1.00  0.00     0.053 C 
BRANCH   4   5
ATOM      5  C   UNL     1      89.964  99.648  92.594  1.00  0.00     0.041 C 
ATOM      6  O   UNL     1      89.223 100.013  93.546  1.00  0.00    -0.550 OA
ATOM      7  O   UNL     1      89.726  98.433  91.964  1.00  0.00    -0.550 OA
ENDBRANCH   4   5
ENDBRANCH   3   4
ENDBRANCH   2   3
ENDBRANCH   1   2
BRANCH   1   8
ATOM      8  C   UNL     1      93.687 100.513  89.053  1.00  0.00     0.000 C 
BRANCH   8   9
ATOM      9  C   UNL     1      93.287 101.930  88.591  1.00  0.00     0.000 C 
BRANCH   9  10
ATOM     10  C   UNL     1      92.779 102.829  89.731  1.00  0.00     0.006 C 
BRANCH  10  11
ATOM     11  C   UNL     1      93.881 103.707  90.335  1.00  0.00     0.053 C 
BRANCH  11  12
ATOM     12  C   UNL     1      94.429 103.079  91.577  1.00  0.00     0.041 C 
ATOM     13  O   UNL     1      93.875 103.285  92.689  1.00  0.00    -0.550 OA
ATOM     14  O   UNL     1      95.582 102.306  91.516  1.00  0.00    -0.550 OA
ENDBRANCH  11  12
ENDBRANCH  10  11
ENDBRANCH   9  10
ENDBRANCH   8   9
ENDBRANCH   1   8
TORSDOF 9
ENDMDL
MODEL 7
REMARK VINA RESULT:    -3.653     10.273     13.508
REMARK INTER + INTRA:          -6.492
REMARK INTER:                  -5.626
REMARK INTRA:                  -0.866
REMARK UNBOUND:                -0.916
REMARK SMILES O=C([O-])CCCCCCCCC(=O)[O-]
REMARK SMILES IDX 7 1 6 2 5 3 4 4 2 5 1 6 3 7 8 8 9 9 10 10 11 11 12 12 13 13
REMARK SMILES IDX 14 14
REMARK H PARENT
REMARK Flexibility Score: inf
ROOT
ATOM      1  C   UNL     1     104.129  94.144  90.103  1.00  0.00     0.000 C 
ENDROOT
BRANCH   1   2
ATOM      2  C   UNL     1     103.091  94.986  89.347  1.00  0.00     0.000 C 
BRANCH   2   3
ATOM      3  C   UNL     1     101.870  95.341  90.214  1.00  0.00     0.006 C 
BRANCH   3   4
ATOM      4  C   UNL     1     102.275  95.961  91.558  1.00  0.00     0.053 C 
BRANCH   4   5
ATOM      5  C   UNL     1     102.070  97.445  91.569  1.00  0.00     0.041 C 
ATOM      6  O   UNL     1     103.009  98.216  91.235  1.00  0.00    -0.550 OA
ATOM      7  O   UNL     1     100.833  97.976  91.913  1.00  0.00    -0.550 OA
ENDBRANCH   4   5
ENDBRANCH   3   4
ENDBRANCH   2   3
ENDBRANCH   1   2
BRANCH   1   8
ATOM      8  C   UNL     1     105.508  94.824  90.175  1.00  0.00     0.000 C 
BRANCH   8   9
ATOM      9  C   UNL     1     105.494  96.234  89.548  1.00  0.00     0.000 C 
BRANCH   9  10
ATOM     10  C   UNL     1     106.174  97.302  90.420  1.00  0.00     0.006 C 
BRANCH  10  11
ATOM     11  C   UNL     1     106.468  96.813  91.843  1.00  0.00     0.053 C 
BRANCH  11  12
ATOM     12  C   UNL     1     106.777  97.970  92.740  1.00  0.00     0.041 C 
ATOM     13  O   UNL     1     107.853  97.993  93.395  1.00  0.00    -0.550 OA
ATOM     14  O   UNL     1     105.856  98.998  92.892  1.00  0.00    -0.550 OA
ENDBRANCH  11  12
ENDBRANCH  10  11
ENDBRANCH   9  10
ENDBRANCH   8   9
ENDBRANCH   1   8
TORSDOF 9
ENDMDL
MODEL 8
REMARK VINA RESULT:    -3.610     13.162     14.903
REMARK INTER + INTRA:          -6.425
REMARK INTER:                  -5.505
REMARK INTRA:                  -0.920
REMARK UNBOUND:                -0.916
REMARK SMILES O=C([O-])CCCCCCCCC(=O)[O-]
REMARK SMILES IDX 7 1 6 2 5 3 4 4 2 5 1 6 3 7 8 8 9 9 10 10 11 11 12 12 13 13
REMARK SMILES IDX 14 14
REMARK H PARENT
REMARK Flexibility Score: inf
ROOT
ATOM      1  C   UNL     1     105.748 100.102  89.754  1.00  0.00     0.000 C 
ENDROOT
BRANCH   1   2
ATOM      2  C   UNL     1     104.996  98.781  89.971  1.00  0.00     0.000 C 
BRANCH   2   3
ATOM      3  C   UNL     1     105.827  97.552  89.564  1.00  0.00     0.006 C 
BRANCH   3   4
ATOM      4  C   UNL     1     104.945  96.341  89.231  1.00  0.00     0.053 C 
BRANCH   4   5
ATOM      5  C   UNL     1     105.112  95.240  90.234  1.00  0.00     0.041 C 
ATOM      6  O   UNL     1     104.764  94.064  89.947  1.00  0.00    -0.550 OA
ATOM      7  O   UNL     1     105.686  95.505  91.471  1.00  0.00    -0.550 OA
ENDBRANCH   4   5
ENDBRANCH   3   4
ENDBRANCH   2   3
ENDBRANCH   1   2
BRANCH   1   8
ATOM      8  C   UNL     1     106.986  99.940  88.854  1.00  0.00     0.000 C 
BRANCH   8   9
ATOM      9  C   UNL     1     108.257 100.530  89.501  1.00  0.00     0.000 C 
BRANCH   9  10
ATOM     10  C   UNL     1     109.021  99.530  90.384  1.00  0.00     0.006 C 
BRANCH  10  11
ATOM     11  C   UNL     1     108.653  99.641  91.868  1.00  0.00     0.053 C 
BRANCH  11  12
ATOM     12  C   UNL     1     108.038  98.366  92.351  1.00  0.00     0.041 C 
ATOM     13  O   UNL     1     108.555  97.258  92.050  1.00  0.00    -0.550 OA
ATOM     14  O   UNL     1     106.863  98.398  93.092  1.00  0.00    -0.550 OA
ENDBRANCH  11  12
ENDBRANCH  10  11
ENDBRANCH   9  10
ENDBRANCH   8   9
ENDBRANCH   1   8
TORSDOF 9
ENDMDL
MODEL 9
REMARK VINA RESULT:    -3.605      2.804      3.504
REMARK INTER + INTRA:          -6.418
REMARK INTER:                  -5.906
REMARK INTRA:                  -0.512
REMARK UNBOUND:                -0.916
REMARK SMILES O=C([O-])CCCCCCCCC(=O)[O-]
REMARK SMILES IDX 7 1 6 2 5 3 4 4 2 5 1 6 3 7 8 8 9 9 10 10 11 11 12 12 13 13
REMARK SMILES IDX 14 14
REMARK H PARENT
REMARK Flexibility Score: inf
ROOT
ATOM      1  C   UNL     1      92.592 103.049  90.256  1.00  0.00     0.000 C 
ENDROOT
BRANCH   1   2
ATOM      2  C   UNL     1      93.620 102.440  89.291  1.00  0.00     0.000 C 
BRANCH   2   3
ATOM      3  C   UNL     1      94.982 103.153  89.347  1.00  0.00     0.006 C 
BRANCH   3   4
ATOM      4  C   UNL     1      94.858 104.599  89.844  1.00  0.00     0.053 C 
BRANCH   4   5
ATOM      5  C   UNL     1      96.011 105.442  89.393  1.00  0.00     0.041 C 
ATOM      6  O   UNL     1      96.043 106.671  89.669  1.00  0.00    -0.550 OA
ATOM      7  O   UNL     1      97.068 104.865  88.700  1.00  0.00    -0.550 OA
ENDBRANCH   4   5
ENDBRANCH   3   4
ENDBRANCH   2   3
ENDBRANCH   1   2
BRANCH   1   8
ATOM      8  C   UNL     1      91.949 101.999  91.179  1.00  0.00     0.000 C 
BRANCH   8   9
ATOM      9  C   UNL     1      92.963 100.933  91.644  1.00  0.00     0.000 C 
BRANCH   9  10
ATOM     10  C   UNL     1      92.318  99.748  92.381  1.00  0.00     0.006 C 
BRANCH  10  11
ATOM     11  C   UNL     1      91.204  99.076  91.570  1.00  0.00     0.053 C 
BRANCH  11  12
ATOM     12  C   UNL     1      89.931  99.046  92.355  1.00  0.00     0.041 C 
ATOM     13  O   UNL     1      89.180  98.036  92.308  1.00  0.00    -0.550 OA
ATOM     14  O   UNL     1      89.546 100.154  93.100  1.00  0.00    -0.550 OA
ENDBRANCH  11  12
ENDBRANCH  10  11
ENDBRANCH   9  10
ENDBRANCH   8   9
ENDBRANCH   1   8
TORSDOF 9
ENDMDL
