MODEL 1
REMARK VINA RESULT:    -5.703      0.000      0.000
REMARK INTER + INTRA:          -8.788
REMARK INTER:                  -7.703
REMARK INTRA:                  -1.085
REMARK UNBOUND:                -1.085
REMARK SMILES CC(=O)CCC=C(C)CCC=C(C)C
REMARK SMILES IDX 7 1 6 2 8 3 9 4 10 5 11 6 13 7 12 8 14 9 5 10 4 11 2 12 3 13
REMARK SMILES IDX 1 14
REMARK H PARENT
REMARK Flexibility Score: inf
ROOT
ATOM      1  C   UNL     1      -8.387  32.942  20.757  1.00  0.00    -0.077 C 
ATOM      2  C   UNL     1      -8.656  33.678  21.861  1.00  0.00    -0.028 C 
ATOM      3  C   UNL     1      -7.161  33.192  19.911  1.00  0.00     0.039 C 
ENDROOT
BRANCH   1   4
ATOM      4  C   UNL     1      -9.331  31.825  20.371  1.00  0.00     0.034 C 
BRANCH   4   5
ATOM      5  C   UNL     1      -9.569  30.879  21.553  1.00  0.00     0.032 C 
BRANCH   5   6
ATOM      6  C   UNL     1      -8.282  30.217  21.977  1.00  0.00    -0.028 C 
ATOM      7  C   UNL     1      -8.547  30.873  24.379  1.00  0.00     0.039 C 
ATOM      8  C   UNL     1      -7.797  30.227  23.238  1.00  0.00    -0.080 C 
ATOM      9  C   UNL     1      -6.475  29.556  23.504  1.00  0.00     0.039 C 
ENDBRANCH   5   6
ENDBRANCH   4   5
ENDBRANCH   1   4
BRANCH   2  10
ATOM     10  C   UNL     1      -7.821  34.839  22.336  1.00  0.00     0.035 C 
BRANCH  10  11
ATOM     11  C   UNL     1      -7.201  34.539  23.704  1.00  0.00     0.079 C 
BRANCH  11  12
ATOM     12  C   UNL     1      -8.185  34.824  24.808  1.00  0.00     0.130 C 
ATOM     13  O   UNL     1      -8.262  34.058  25.757  1.00  0.00    -0.300 OA
ATOM     14  C   UNL     1      -9.081  36.025  24.765  1.00  0.00     0.087 C 
ENDBRANCH  11  12
ENDBRANCH  10  11
ENDBRANCH   2  10
TORSDOF 6
ENDMDL
MODEL 2
REMARK VINA RESULT:    -5.617      1.457      4.310
REMARK INTER + INTRA:          -8.672
REMARK INTER:                  -8.134
REMARK INTRA:                  -0.538
REMARK UNBOUND:                -1.085
REMARK SMILES CC(=O)CCC=C(C)CCC=C(C)C
REMARK SMILES IDX 7 1 6 2 8 3 9 4 10 5 11 6 13 7 12 8 14 9 5 10 4 11 2 12 3 13
REMARK SMILES IDX 1 14
REMARK H PARENT
REMARK Flexibility Score: inf
ROOT
ATOM      1  C   UNL     1      -8.463  32.459  21.454  1.00  0.00    -0.077 C 
ATOM      2  C   UNL     1      -7.666  31.432  21.829  1.00  0.00    -0.028 C 
ATOM      3  C   UNL     1      -9.970  32.349  21.474  1.00  0.00     0.039 C 
ENDROOT
BRANCH   1   4
ATOM      4  C   UNL     1      -7.828  33.762  21.021  1.00  0.00     0.034 C 
BRANCH   4   5
ATOM      5  C   UNL     1      -7.801  34.767  22.178  1.00  0.00     0.032 C 
BRANCH   5   6
ATOM      6  C   UNL     1      -7.845  34.055  23.507  1.00  0.00    -0.028 C 
ATOM      7  C   UNL     1      -9.012  35.945  24.663  1.00  0.00     0.039 C 
ATOM      8  C   UNL     1      -8.363  34.581  24.639  1.00  0.00    -0.080 C 
ATOM      9  C   UNL     1      -8.300  33.766  25.904  1.00  0.00     0.039 C 
ENDBRANCH   5   6
ENDBRANCH   4   5
ENDBRANCH   1   4
BRANCH   2  10
ATOM     10  C   UNL     1      -8.166  30.072  22.247  1.00  0.00     0.035 C 
BRANCH  10  11
ATOM     11  C   UNL     1      -7.484  29.616  23.540  1.00  0.00     0.079 C 
BRANCH  11  12
ATOM     12  C   UNL     1      -8.275  30.061  24.743  1.00  0.00     0.130 C 
ATOM     13  O   UNL     1      -9.374  30.572  24.585  1.00  0.00    -0.300 OA
ATOM     14  C   UNL     1      -7.740  29.896  26.134  1.00  0.00     0.087 C 
ENDBRANCH  11  12
ENDBRANCH  10  11
ENDBRANCH   2  10
TORSDOF 6
ENDMDL
MODEL 3
REMARK VINA RESULT:    -5.517      2.013      4.366
REMARK INTER + INTRA:          -8.538
REMARK INTER:                  -7.308
REMARK INTRA:                  -1.230
REMARK UNBOUND:                -1.085
REMARK SMILES CC(=O)CCC=C(C)CCC=C(C)C
REMARK SMILES IDX 7 1 6 2 8 3 9 4 10 5 11 6 13 7 12 8 14 9 5 10 4 11 2 12 3 13
REMARK SMILES IDX 1 14
REMARK H PARENT
REMARK Flexibility Score: inf
ROOT
ATOM      1  C   UNL     1      -8.116  34.862  24.799  1.00  0.00    -0.077 C 
ATOM      2  C   UNL     1      -7.532  34.286  23.723  1.00  0.00    -0.028 C 
ATOM      3  C   UNL     1      -9.105  35.996  24.660  1.00  0.00     0.039 C 
ENDROOT
BRANCH   1   4
ATOM      4  C   UNL     1      -7.784  34.343  26.181  1.00  0.00     0.034 C 
BRANCH   4   5
ATOM      5  C   UNL     1      -8.778  33.259  26.610  1.00  0.00     0.032 C 
BRANCH   5   6
ATOM      6  C   UNL     1      -8.285  31.891  26.207  1.00  0.00    -0.028 C 
ATOM      7  C   UNL     1     -10.049  31.595  24.455  1.00  0.00     0.039 C 
ATOM      8  C   UNL     1      -8.861  31.120  25.258  1.00  0.00    -0.080 C 
ATOM      9  C   UNL     1      -8.280  29.756  24.992  1.00  0.00     0.039 C 
ENDBRANCH   5   6
ENDBRANCH   4   5
ENDBRANCH   1   4
BRANCH   2  10
ATOM     10  C   UNL     1      -7.747  34.728  22.298  1.00  0.00     0.035 C 
BRANCH  10  11
ATOM     11  C   UNL     1      -8.649  33.740  21.553  1.00  0.00     0.079 C 
BRANCH  11  12
ATOM     12  C   UNL     1      -7.835  32.621  20.958  1.00  0.00     0.130 C 
ATOM     13  O   UNL     1      -7.163  32.831  19.959  1.00  0.00    -0.300 OA
ATOM     14  C   UNL     1      -7.836  31.248  21.561  1.00  0.00     0.087 C 
ENDBRANCH  11  12
ENDBRANCH  10  11
ENDBRANCH   2  10
TORSDOF 6
ENDMDL
MODEL 4
REMARK VINA RESULT:    -5.408      1.362      3.867
REMARK INTER + INTRA:          -8.390
REMARK INTER:                  -7.383
REMARK INTRA:                  -1.006
REMARK UNBOUND:                -1.085
REMARK SMILES CC(=O)CCC=C(C)CCC=C(C)C
REMARK SMILES IDX 7 1 6 2 8 3 9 4 10 5 11 6 13 7 12 8 14 9 5 10 4 11 2 12 3 13
REMARK SMILES IDX 1 14
REMARK H PARENT
REMARK Flexibility Score: inf
ROOT
ATOM      1  C   UNL     1      -8.337  30.383  23.249  1.00  0.00    -0.077 C 
ATOM      2  C   UNL     1      -9.392  30.406  24.096  1.00  0.00    -0.028 C 
ATOM      3  C   UNL     1      -6.913  30.306  23.750  1.00  0.00     0.039 C 
ENDROOT
BRANCH   1   4
ATOM      4  C   UNL     1      -8.591  30.415  21.759  1.00  0.00     0.034 C 
BRANCH   4   5
ATOM      5  C   UNL     1      -9.516  31.580  21.388  1.00  0.00     0.032 C 
BRANCH   5   6
ATOM      6  C   UNL     1      -8.972  32.884  21.914  1.00  0.00    -0.028 C 
ATOM      7  C   UNL     1      -7.458  33.230  19.950  1.00  0.00     0.039 C 
ATOM      8  C   UNL     1      -8.029  33.625  21.292  1.00  0.00    -0.080 C 
ATOM      9  C   UNL     1      -7.553  34.889  21.959  1.00  0.00     0.039 C 
ENDBRANCH   5   6
ENDBRANCH   4   5
ENDBRANCH   1   4
BRANCH   2  10
ATOM     10  C   UNL     1      -9.279  30.415  25.600  1.00  0.00     0.035 C 
BRANCH  10  11
ATOM     11  C   UNL     1      -9.820  31.727  26.177  1.00  0.00     0.079 C 
BRANCH  11  12
ATOM     12  C   UNL     1      -8.702  32.711  26.398  1.00  0.00     0.130 C 
ATOM     13  O   UNL     1      -7.972  32.585  27.370  1.00  0.00    -0.300 OA
ATOM     14  C   UNL     1      -8.467  33.852  25.453  1.00  0.00     0.087 C 
ENDBRANCH  11  12
ENDBRANCH  10  11
ENDBRANCH   2  10
TORSDOF 6
ENDMDL
MODEL 5
REMARK VINA RESULT:    -5.403      1.832      4.973
REMARK INTER + INTRA:          -8.384
REMARK INTER:                  -7.486
REMARK INTRA:                  -0.898
REMARK UNBOUND:                -1.085
REMARK SMILES CC(=O)CCC=C(C)CCC=C(C)C
REMARK SMILES IDX 7 1 6 2 8 3 9 4 10 5 11 6 13 7 12 8 14 9 5 10 4 11 2 12 3 13
REMARK SMILES IDX 1 14
REMARK H PARENT
REMARK Flexibility Score: inf
ROOT
ATOM      1  C   UNL     1      -8.134  33.664  25.266  1.00  0.00    -0.077 C 
ATOM      2  C   UNL     1      -8.450  32.445  24.770  1.00  0.00    -0.028 C 
ATOM      3  C   UNL     1      -8.179  33.959  26.748  1.00  0.00     0.039 C 
ENDROOT
BRANCH   1   4
ATOM      4  C   UNL     1      -7.706  34.756  24.312  1.00  0.00     0.034 C 
BRANCH   4   5
ATOM      5  C   UNL     1      -8.607  34.783  23.073  1.00  0.00     0.032 C 
BRANCH   5   6
ATOM      6  C   UNL     1      -7.829  34.404  21.837  1.00  0.00    -0.028 C 
ATOM      7  C   UNL     1      -9.337  32.483  21.282  1.00  0.00     0.039 C 
ATOM      8  C   UNL     1      -8.130  33.358  21.036  1.00  0.00    -0.080 C 
ATOM      9  C   UNL     1      -7.236  33.076  19.857  1.00  0.00     0.039 C 
ENDBRANCH   5   6
ENDBRANCH   4   5
ENDBRANCH   1   4
BRANCH   2  10
ATOM     10  C   UNL     1      -8.926  31.282  25.604  1.00  0.00     0.035 C 
BRANCH  10  11
ATOM     11  C   UNL     1      -8.037  30.055  25.381  1.00  0.00     0.079 C 
BRANCH  11  12
ATOM     12  C   UNL     1      -7.966  29.709  23.917  1.00  0.00     0.130 C 
ATOM     13  O   UNL     1      -8.942  29.224  23.365  1.00  0.00    -0.300 OA
ATOM     14  C   UNL     1      -6.717  29.940  23.120  1.00  0.00     0.087 C 
ENDBRANCH  11  12
ENDBRANCH  10  11
ENDBRANCH   2  10
TORSDOF 6
ENDMDL
MODEL 6
REMARK VINA RESULT:    -5.378      2.307      4.305
REMARK INTER + INTRA:          -8.349
REMARK INTER:                  -7.353
REMARK INTRA:                  -0.996
REMARK UNBOUND:                -1.085
REMARK SMILES CC(=O)CCC=C(C)CCC=C(C)C
REMARK SMILES IDX 7 1 6 2 8 3 9 4 10 5 11 6 13 7 12 8 14 9 5 10 4 11 2 12 3 13
REMARK SMILES IDX 1 14
REMARK H PARENT
REMARK Flexibility Score: inf
ROOT
ATOM      1  C   UNL     1      -8.215  29.893  23.497  1.00  0.00    -0.077 C 
ATOM      2  C   UNL     1      -8.901  30.639  22.600  1.00  0.00    -0.028 C 
ATOM      3  C   UNL     1      -6.733  29.637  23.354  1.00  0.00     0.039 C 
ENDROOT
BRANCH   1   4
ATOM      4  C   UNL     1      -8.948  29.316  24.687  1.00  0.00     0.034 C 
BRANCH   4   5
ATOM      5  C   UNL     1      -9.848  30.372  25.338  1.00  0.00     0.032 C 
BRANCH   5   6
ATOM      6  C   UNL     1      -9.156  31.013  26.515  1.00  0.00    -0.028 C 
ATOM      7  C   UNL     1      -8.640  33.123  25.268  1.00  0.00     0.039 C 
ATOM      8  C   UNL     1      -8.586  32.239  26.492  1.00  0.00    -0.080 C 
ATOM      9  C   UNL     1      -7.894  32.732  27.735  1.00  0.00     0.039 C 
ENDBRANCH   5   6
ENDBRANCH   4   5
ENDBRANCH   1   4
BRANCH   2  10
ATOM     10  C   UNL     1      -8.302  31.242  21.355  1.00  0.00     0.035 C 
BRANCH  10  11
ATOM     11  C   UNL     1      -8.939  32.600  21.048  1.00  0.00     0.079 C 
BRANCH  11  12
ATOM     12  C   UNL     1      -7.878  33.637  20.786  1.00  0.00     0.130 C 
ATOM     13  O   UNL     1      -7.149  33.518  19.813  1.00  0.00    -0.300 OA
ATOM     14  C   UNL     1      -7.690  34.812  21.699  1.00  0.00     0.087 C 
ENDBRANCH  11  12
ENDBRANCH  10  11
ENDBRANCH   2  10
TORSDOF 6
ENDMDL
MODEL 7
REMARK VINA RESULT:    -5.282      2.103      5.572
REMARK INTER + INTRA:          -8.220
REMARK INTER:                  -7.326
REMARK INTRA:                  -0.894
REMARK UNBOUND:                -1.085
REMARK SMILES CC(=O)CCC=C(C)CCC=C(C)C
REMARK SMILES IDX 7 1 6 2 8 3 9 4 10 5 11 6 13 7 12 8 14 9 5 10 4 11 2 12 3 13
REMARK SMILES IDX 1 14
REMARK H PARENT
REMARK Flexibility Score: inf
ROOT
ATOM      1  C   UNL     1      -9.020  30.634  25.949  1.00  0.00    -0.077 C 
ATOM      2  C   UNL     1      -9.534  30.129  24.803  1.00  0.00    -0.028 C 
ATOM      3  C   UNL     1      -7.836  29.999  26.641  1.00  0.00     0.039 C 
ENDROOT
BRANCH   1   4
ATOM      4  C   UNL     1      -9.635  31.882  26.542  1.00  0.00     0.034 C 
BRANCH   4   5
ATOM      5  C   UNL     1      -8.641  33.048  26.512  1.00  0.00     0.032 C 
BRANCH   5   6
ATOM      6  C   UNL     1      -8.257  33.388  25.094  1.00  0.00    -0.028 C 
ATOM      7  C   UNL     1      -8.737  35.829  25.379  1.00  0.00     0.039 C 
ATOM      8  C   UNL     1      -8.319  34.629  24.562  1.00  0.00    -0.080 C 
ATOM      9  C   UNL     1      -7.941  34.810  23.116  1.00  0.00     0.039 C 
ENDBRANCH   5   6
ENDBRANCH   4   5
ENDBRANCH   1   4
BRANCH   2  10
ATOM     10  C   UNL     1      -9.040  28.875  24.127  1.00  0.00     0.035 C 
BRANCH  10  11
ATOM     11  C   UNL     1      -8.745  29.137  22.647  1.00  0.00     0.079 C 
BRANCH  11  12
ATOM     12  C   UNL     1      -7.665  30.175  22.496  1.00  0.00     0.130 C 
ATOM     13  O   UNL     1      -6.597  30.021  23.070  1.00  0.00    -0.300 OA
ATOM     14  C   UNL     1      -7.873  31.403  21.660  1.00  0.00     0.087 C 
ENDBRANCH  11  12
ENDBRANCH  10  11
ENDBRANCH   2  10
TORSDOF 6
ENDMDL
MODEL 8
REMARK VINA RESULT:    -5.273      1.472      2.156
REMARK INTER + INTRA:          -8.208
REMARK INTER:                  -6.924
REMARK INTRA:                  -1.284
REMARK UNBOUND:                -1.085
REMARK SMILES CC(=O)CCC=C(C)CCC=C(C)C
REMARK SMILES IDX 7 1 6 2 8 3 9 4 10 5 11 6 13 7 12 8 14 9 5 10 4 11 2 12 3 13
REMARK SMILES IDX 1 14
REMARK H PARENT
REMARK Flexibility Score: inf
ROOT
ATOM      1  C   UNL     1      -8.015  32.151  22.046  1.00  0.00    -0.077 C 
ATOM      2  C   UNL     1      -7.580  32.940  23.055  1.00  0.00    -0.028 C 
ATOM      3  C   UNL     1      -8.993  32.650  21.007  1.00  0.00     0.039 C 
ENDROOT
BRANCH   1   4
ATOM      4  C   UNL     1      -7.494  30.735  21.943  1.00  0.00     0.034 C 
BRANCH   4   5
ATOM      5  C   UNL     1      -8.470  29.746  22.589  1.00  0.00     0.032 C 
BRANCH   5   6
ATOM      6  C   UNL     1      -8.082  29.466  24.019  1.00  0.00    -0.028 C 
ATOM      7  C   UNL     1     -10.004  30.763  24.964  1.00  0.00     0.039 C 
ATOM      8  C   UNL     1      -8.746  29.937  25.098  1.00  0.00    -0.080 C 
ATOM      9  C   UNL     1      -8.216  29.608  26.469  1.00  0.00     0.039 C 
ENDBRANCH   5   6
ENDBRANCH   4   5
ENDBRANCH   1   4
BRANCH   2  10
ATOM     10  C   UNL     1      -8.046  34.354  23.294  1.00  0.00     0.035 C 
BRANCH  10  11
ATOM     11  C   UNL     1      -8.994  34.419  24.495  1.00  0.00     0.079 C 
BRANCH  11  12
ATOM     12  C   UNL     1      -8.217  34.512  25.781  1.00  0.00     0.130 C 
ATOM     13  O   UNL     1      -7.573  35.522  26.023  1.00  0.00    -0.300 OA
ATOM     14  C   UNL     1      -8.209  33.387  26.773  1.00  0.00     0.087 C 
ENDBRANCH  11  12
ENDBRANCH  10  11
ENDBRANCH   2  10
TORSDOF 6
ENDMDL
MODEL 9
REMARK VINA RESULT:    -5.060      1.962      4.537
REMARK INTER + INTRA:          -7.920
REMARK INTER:                  -7.082
REMARK INTRA:                  -0.838
REMARK UNBOUND:                -1.085
REMARK SMILES CC(=O)CCC=C(C)CCC=C(C)C
REMARK SMILES IDX 7 1 6 2 8 3 9 4 10 5 11 6 13 7 12 8 14 9 5 10 4 11 2 12 3 13
REMARK SMILES IDX 1 14
REMARK H PARENT
REMARK Flexibility Score: inf
ROOT
ATOM      1  C   UNL     1      -8.409  34.626  24.897  1.00  0.00    -0.077 C 
ATOM      2  C   UNL     1      -8.485  33.298  25.146  1.00  0.00    -0.028 C 
ATOM      3  C   UNL     1      -8.434  35.649  26.009  1.00  0.00     0.039 C 
ENDROOT
BRANCH   1   4
ATOM      4  C   UNL     1      -8.276  35.099  23.467  1.00  0.00     0.034 C 
BRANCH   4   5
ATOM      5  C   UNL     1      -7.534  34.062  22.616  1.00  0.00     0.032 C 
BRANCH   5   6
ATOM      6  C   UNL     1      -8.486  33.351  21.688  1.00  0.00    -0.028 C 
ATOM      7  C   UNL     1      -7.661  31.074  22.326  1.00  0.00     0.039 C 
ATOM      8  C   UNL     1      -8.538  32.010  21.527  1.00  0.00    -0.080 C 
ATOM      9  C   UNL     1      -9.516  31.443  20.532  1.00  0.00     0.039 C 
ENDBRANCH   5   6
ENDBRANCH   4   5
ENDBRANCH   1   4
BRANCH   2  10
ATOM     10  C   UNL     1      -8.655  32.695  26.517  1.00  0.00     0.035 C 
BRANCH  10  11
ATOM     11  C   UNL     1      -9.638  31.522  26.477  1.00  0.00     0.079 C 
BRANCH  11  12
ATOM     12  C   UNL     1      -8.983  30.300  25.888  1.00  0.00     0.130 C 
ATOM     13  O   UNL     1      -9.550  29.685  24.997  1.00  0.00    -0.300 OA
ATOM     14  C   UNL     1      -7.652  29.815  26.378  1.00  0.00     0.087 C 
ENDBRANCH  11  12
ENDBRANCH  10  11
ENDBRANCH   2  10
TORSDOF 6
ENDMDL
