MODEL 1
REMARK VINA RESULT:    -7.538      0.000      0.000
REMARK INTER + INTRA:         -14.752
REMARK INTER:                 -12.385
REMARK INTRA:                  -2.367
REMARK UNBOUND:                -2.367
REMARK SMILES C[C@H]1O[C@@H](OC[C@H]2O[C@H](Oc3c(-c4ccc(O)c(O)c4)oc4cc(O)cc(O)c4c3=O)[C@H](O)[C@H](O)[C@@H]2O)[C@H](O)[C@@H](O)[C@@H]1O
REMARK SMILES IDX 7 1 36 2 34 3 32 4 9 5 8 6 6 7 5 8 4 9 1 10 2 11 42 12 3 13
REMARK SMILES IDX 40 14 38 15 43 16 41 18 39 20 37 22 35 24 10 26 11 27 12 28
REMARK SMILES IDX 30 29 21 30 29 31 31 32 22 33 27 34 23 35 26 36 24 37 13 38
REMARK SMILES IDX 20 39 14 40 18 41 15 42 16 43 19 44 17 46 28 48 25 50 33 52
REMARK H PARENT 43 17 41 19 39 21 37 23 35 25 19 45 17 47 28 49 25 51 33 53
REMARK Flexibility Score: inf
ROOT
ATOM      1  C   UNL     1      13.871  46.998  46.419  1.00  0.00     0.180 C 
ATOM      2  C   UNL     1      13.615  47.734  47.769  1.00  0.00     0.177 C 
ATOM      3  C   UNL     1      14.923  48.227  48.307  1.00  0.00     0.180 C 
ATOM      4  C   UNL     1      15.412  49.215  47.287  1.00  0.00     0.214 C 
ATOM      5  C   UNL     1      15.813  48.456  46.037  1.00  0.00     0.339 C 
ATOM      6  O   UNL     1      14.909  47.462  45.548  1.00  0.00    -0.332 OA
ENDROOT
BRANCH   1   7
ATOM      7  C   UNL     1      12.591  46.914  45.543  1.00  0.00     0.198 C 
BRANCH   7   8
ATOM      8  O   UNL     1      11.989  45.629  45.598  1.00  0.00    -0.347 OA
BRANCH   8   9
ATOM      9  C   UNL     1      11.873  45.032  44.295  1.00  0.00     0.281 C 
ATOM     10  C   UNL     1      13.010  42.637  46.016  1.00  0.00     0.041 C 
ATOM     11  C   UNL     1      12.441  42.686  44.587  1.00  0.00     0.150 C 
ATOM     12  C   UNL     1      13.542  42.817  43.517  1.00  0.00     0.174 C 
ATOM     13  O   UNL     1      11.444  43.666  44.389  1.00  0.00    -0.344 OA
ATOM     14  C   UNL     1      14.216  44.192  43.542  1.00  0.00     0.179 C 
ATOM     15  C   UNL     1      13.114  45.244  43.307  1.00  0.00     0.202 C 
BRANCH  12  16
ATOM     16  O   UNL     1      12.913  42.647  42.261  1.00  0.00    -0.388 OA
ATOM     17  H   UNL     1      12.164  42.038  42.441  1.00  0.00     0.211 HD
ENDBRANCH  12  16
BRANCH  14  18
ATOM     18  O   UNL     1      14.940  44.434  44.733  1.00  0.00    -0.387 OA
ATOM     19  H   UNL     1      14.971  45.426  44.826  1.00  0.00     0.211 HD
ENDBRANCH  14  18
BRANCH  15  20
ATOM     20  O   UNL     1      12.775  45.242  41.928  1.00  0.00    -0.385 OA
ATOM     21  H   UNL     1      13.218  46.026  41.463  1.00  0.00     0.211 HD
ENDBRANCH  15  20
ENDBRANCH   8   9
ENDBRANCH   7   8
ENDBRANCH   1   7
BRANCH   2  22
ATOM     22  O   UNL     1      13.026  46.880  48.756  1.00  0.00    -0.387 OA
ATOM     23  H   UNL     1      12.084  47.174  48.772  1.00  0.00     0.211 HD
ENDBRANCH   2  22
BRANCH   3  24
ATOM     24  O   UNL     1      15.784  47.126  48.470  1.00  0.00    -0.387 OA
ATOM     25  H   UNL     1      15.206  46.312  48.517  1.00  0.00     0.211 HD
ENDBRANCH   3  24
BRANCH   5  26
ATOM     26  O   UNL     1      17.132  47.891  46.164  1.00  0.00    -0.454 OA
BRANCH  26  27
ATOM     27  C   UNL     1      18.206  48.542  45.580  1.00  0.00     0.214 A 
ATOM     28  C   UNL     1      18.386  48.561  44.162  1.00  0.00     0.180 A 
ATOM     29  C   UNL     1      19.184  49.089  46.394  1.00  0.00     0.239 A 
ATOM     30  O   UNL     1      19.555  48.932  43.687  1.00  0.00    -0.452 OA
ATOM     31  C   UNL     1      20.409  49.499  45.841  1.00  0.00     0.111 A 
ATOM     32  O   UNL     1      18.965  49.175  47.640  1.00  0.00    -0.285 OA
ATOM     33  C   UNL     1      20.562  49.376  44.437  1.00  0.00     0.146 A 
ATOM     34  C   UNL     1      21.501  49.941  46.618  1.00  0.00     0.134 A 
ATOM     35  C   UNL     1      21.795  49.657  43.838  1.00  0.00     0.094 A 
ATOM     36  C   UNL     1      22.722  50.233  46.008  1.00  0.00     0.093 A 
ATOM     37  C   UNL     1      22.883  50.081  44.609  1.00  0.00     0.123 A 
BRANCH  28  38
ATOM     38  C   UNL     1      17.365  48.068  43.200  1.00  0.00     0.025 A 
ATOM     39  C   UNL     1      16.412  48.972  42.674  1.00  0.00     0.062 A 
ATOM     40  C   UNL     1      17.390  46.749  42.726  1.00  0.00     0.016 A 
ATOM     41  C   UNL     1      15.545  48.581  41.638  1.00  0.00     0.158 A 
ATOM     42  C   UNL     1      16.523  46.355  41.684  1.00  0.00     0.051 A 
ATOM     43  C   UNL     1      15.602  47.270  41.141  1.00  0.00     0.157 A 
BRANCH  41  44
ATOM     44  O   UNL     1      14.691  49.542  41.103  1.00  0.00    -0.504 OA
ATOM     45  H   UNL     1      15.019  50.488  40.931  1.00  0.00     0.293 HD
ENDBRANCH  41  44
BRANCH  43  46
ATOM     46  O   UNL     1      14.784  46.894  40.074  1.00  0.00    -0.504 OA
ATOM     47  H   UNL     1      13.878  46.453  40.257  1.00  0.00     0.293 HD
ENDBRANCH  43  46
ENDBRANCH  28  38
BRANCH  34  48
ATOM     48  O   UNL     1      21.357  50.099  47.999  1.00  0.00    -0.507 OA
ATOM     49  H   UNL     1      22.156  50.097  48.608  1.00  0.00     0.293 HD
ENDBRANCH  34  48
BRANCH  37  50
ATOM     50  O   UNL     1      24.132  50.308  44.052  1.00  0.00    -0.508 OA
ATOM     51  H   UNL     1      24.902  49.663  44.247  1.00  0.00     0.293 HD
ENDBRANCH  37  50
ENDBRANCH  26  27
ENDBRANCH   5  26
BRANCH   4  52
ATOM     52  O   UNL     1      16.458  49.982  47.799  1.00  0.00    -0.384 OA
ATOM     53  H   UNL     1      16.068  50.567  48.512  1.00  0.00     0.211 HD
ENDBRANCH   4  52
TORSDOF 16
ENDMDL
MODEL 2
REMARK VINA RESULT:    -7.538      2.211      3.743
REMARK INTER + INTRA:         -14.751
REMARK INTER:                 -12.757
REMARK INTRA:                  -1.994
REMARK UNBOUND:                -2.367
REMARK SMILES C[C@H]1O[C@@H](OC[C@H]2O[C@H](Oc3c(-c4ccc(O)c(O)c4)oc4cc(O)cc(O)c4c3=O)[C@H](O)[C@H](O)[C@@H]2O)[C@H](O)[C@@H](O)[C@@H]1O
REMARK SMILES IDX 7 1 36 2 34 3 32 4 9 5 8 6 6 7 5 8 4 9 1 10 2 11 42 12 3 13
REMARK SMILES IDX 40 14 38 15 43 16 41 18 39 20 37 22 35 24 10 26 11 27 12 28
REMARK SMILES IDX 30 29 21 30 29 31 31 32 22 33 27 34 23 35 26 36 24 37 13 38
REMARK SMILES IDX 20 39 14 40 18 41 15 42 16 43 19 44 17 46 28 48 25 50 33 52
REMARK H PARENT 43 17 41 19 39 21 37 23 35 25 19 45 17 47 28 49 25 51 33 53
REMARK Flexibility Score: inf
ROOT
ATOM      1  C   UNL     1      15.677  47.745  45.132  1.00  0.00     0.180 C 
ATOM      2  C   UNL     1      14.751  47.503  46.363  1.00  0.00     0.177 C 
ATOM      3  C   UNL     1      15.589  47.485  47.604  1.00  0.00     0.180 C 
ATOM      4  C   UNL     1      16.181  48.862  47.690  1.00  0.00     0.214 C 
ATOM      5  C   UNL     1      17.204  49.017  46.580  1.00  0.00     0.339 C 
ATOM      6  O   UNL     1      16.827  48.588  45.269  1.00  0.00    -0.332 OA
ENDROOT
BRANCH   1   7
ATOM      7  C   UNL     1      14.896  48.292  43.906  1.00  0.00     0.198 C 
BRANCH   7   8
ATOM      8  O   UNL     1      15.023  47.447  42.772  1.00  0.00    -0.347 OA
BRANCH   8   9
ATOM      9  C   UNL     1      15.458  46.125  43.131  1.00  0.00     0.281 C 
ATOM     10  C   UNL     1      15.573  46.019  39.973  1.00  0.00     0.041 C 
ATOM     11  C   UNL     1      16.093  45.046  41.046  1.00  0.00     0.150 C 
ATOM     12  C   UNL     1      15.105  43.900  41.334  1.00  0.00     0.174 C 
ATOM     13  O   UNL     1      16.494  45.665  42.250  1.00  0.00    -0.344 OA
ATOM     14  C   UNL     1      13.846  44.388  42.059  1.00  0.00     0.179 C 
ATOM     15  C   UNL     1      14.305  45.043  43.378  1.00  0.00     0.202 C 
BRANCH  12  16
ATOM     16  O   UNL     1      15.778  42.980  42.172  1.00  0.00    -0.388 OA
ATOM     17  H   UNL     1      15.395  42.107  41.935  1.00  0.00     0.211 HD
ENDBRANCH  12  16
BRANCH  14  18
ATOM     18  O   UNL     1      13.056  45.261  41.275  1.00  0.00    -0.387 OA
ATOM     19  H   UNL     1      13.693  45.702  40.648  1.00  0.00     0.211 HD
ENDBRANCH  14  18
BRANCH  15  20
ATOM     20  O   UNL     1      14.647  44.016  44.296  1.00  0.00    -0.385 OA
ATOM     21  H   UNL     1      15.230  43.325  43.840  1.00  0.00     0.211 HD
ENDBRANCH  15  20
ENDBRANCH   8   9
ENDBRANCH   7   8
ENDBRANCH   1   7
BRANCH   2  22
ATOM     22  O   UNL     1      14.051  46.256  46.285  1.00  0.00    -0.387 OA
ATOM     23  H   UNL     1      14.766  45.612  46.068  1.00  0.00     0.211 HD
ENDBRANCH   2  22
BRANCH   3  24
ATOM     24  O   UNL     1      16.558  46.472  47.475  1.00  0.00    -0.387 OA
ATOM     25  H   UNL     1      17.291  46.843  46.906  1.00  0.00     0.211 HD
ENDBRANCH   3  24
BRANCH   5  26
ATOM     26  O   UNL     1      18.465  48.420  46.940  1.00  0.00    -0.454 OA
BRANCH  26  27
ATOM     27  C   UNL     1      19.618  49.185  46.869  1.00  0.00     0.214 A 
ATOM     28  C   UNL     1      20.611  48.948  45.868  1.00  0.00     0.180 A 
ATOM     29  C   UNL     1      19.865  50.122  47.859  1.00  0.00     0.239 A 
ATOM     30  O   UNL     1      21.796  49.494  46.024  1.00  0.00    -0.452 OA
ATOM     31  C   UNL     1      21.139  50.704  47.973  1.00  0.00     0.111 A 
ATOM     32  O   UNL     1      18.937  50.412  48.672  1.00  0.00    -0.285 OA
ATOM     33  C   UNL     1      22.112  50.329  47.013  1.00  0.00     0.146 A 
ATOM     34  C   UNL     1      21.507  51.563  49.029  1.00  0.00     0.134 A 
ATOM     35  C   UNL     1      23.431  50.781  47.137  1.00  0.00     0.094 A 
ATOM     36  C   UNL     1      22.821  52.021  49.135  1.00  0.00     0.093 A 
ATOM     37  C   UNL     1      23.801  51.622  48.193  1.00  0.00     0.123 A 
BRANCH  28  38
ATOM     38  C   UNL     1      20.415  48.019  44.724  1.00  0.00     0.025 A 
ATOM     39  C   UNL     1      21.087  46.774  44.716  1.00  0.00     0.062 A 
ATOM     40  C   UNL     1      19.501  48.309  43.701  1.00  0.00     0.016 A 
ATOM     41  C   UNL     1      20.794  45.804  43.740  1.00  0.00     0.158 A 
ATOM     42  C   UNL     1      19.203  47.335  42.722  1.00  0.00     0.051 A 
ATOM     43  C   UNL     1      19.849  46.086  42.742  1.00  0.00     0.157 A 
BRANCH  41  44
ATOM     44  O   UNL     1      21.424  44.566  43.840  1.00  0.00    -0.504 OA
ATOM     45  H   UNL     1      21.653  44.033  43.005  1.00  0.00     0.293 HD
ENDBRANCH  41  44
BRANCH  43  46
ATOM     46  O   UNL     1      19.513  45.107  41.806  1.00  0.00    -0.504 OA
ATOM     47  H   UNL     1      18.759  45.279  41.135  1.00  0.00     0.293 HD
ENDBRANCH  43  46
ENDBRANCH  28  38
BRANCH  34  48
ATOM     48  O   UNL     1      20.552  51.969  49.965  1.00  0.00    -0.507 OA
ATOM     49  H   UNL     1      20.600  52.874  50.399  1.00  0.00     0.293 HD
ENDBRANCH  34  48
BRANCH  37  50
ATOM     50  O   UNL     1      25.111  52.036  48.375  1.00  0.00    -0.508 OA
ATOM     51  H   UNL     1      25.310  52.865  48.943  1.00  0.00     0.293 HD
ENDBRANCH  37  50
ENDBRANCH  26  27
ENDBRANCH   5  26
BRANCH   4  52
ATOM     52  O   UNL     1      16.731  49.090  48.951  1.00  0.00    -0.384 OA
ATOM     53  H   UNL     1      16.034  49.566  49.491  1.00  0.00     0.211 HD
ENDBRANCH   4  52
TORSDOF 16
ENDMDL
MODEL 3
REMARK VINA RESULT:    -7.437      2.329      7.591
REMARK INTER + INTRA:         -14.587
REMARK INTER:                 -12.350
REMARK INTRA:                  -2.237
REMARK UNBOUND:                -2.367
REMARK SMILES C[C@H]1O[C@@H](OC[C@H]2O[C@H](Oc3c(-c4ccc(O)c(O)c4)oc4cc(O)cc(O)c4c3=O)[C@H](O)[C@H](O)[C@@H]2O)[C@H](O)[C@@H](O)[C@@H]1O
REMARK SMILES IDX 7 1 36 2 34 3 32 4 9 5 8 6 6 7 5 8 4 9 1 10 2 11 42 12 3 13
REMARK SMILES IDX 40 14 38 15 43 16 41 18 39 20 37 22 35 24 10 26 11 27 12 28
REMARK SMILES IDX 30 29 21 30 29 31 31 32 22 33 27 34 23 35 26 36 24 37 13 38
REMARK SMILES IDX 20 39 14 40 18 41 15 42 16 43 19 44 17 46 28 48 25 50 33 52
REMARK H PARENT 43 17 41 19 39 21 37 23 35 25 19 45 17 47 28 49 25 51 33 53
REMARK Flexibility Score: inf
ROOT
ATOM      1  C   UNL     1      16.210  47.746  46.443  1.00  0.00     0.180 C 
ATOM      2  C   UNL     1      14.875  47.776  47.247  1.00  0.00     0.177 C 
ATOM      3  C   UNL     1      13.730  47.662  46.288  1.00  0.00     0.180 C 
ATOM      4  C   UNL     1      13.894  46.314  45.648  1.00  0.00     0.214 C 
ATOM      5  C   UNL     1      15.107  46.358  44.739  1.00  0.00     0.339 C 
ATOM      6  O   UNL     1      16.304  46.943  45.260  1.00  0.00    -0.332 OA
ENDROOT
BRANCH   1   7
ATOM      7  C   UNL     1      17.420  47.336  47.327  1.00  0.00     0.198 C 
BRANCH   7   8
ATOM      8  O   UNL     1      18.521  48.218  47.166  1.00  0.00    -0.347 OA
BRANCH   8   9
ATOM      9  C   UNL     1      18.267  49.509  47.746  1.00  0.00     0.281 C 
ATOM     10  C   UNL     1      21.401  49.580  47.332  1.00  0.00     0.041 C 
ATOM     11  C   UNL     1      20.396  50.683  47.709  1.00  0.00     0.150 C 
ATOM     12  C   UNL     1      20.304  50.903  49.231  1.00  0.00     0.174 C 
ATOM     13  O   UNL     1      19.108  50.513  47.158  1.00  0.00    -0.344 OA
ATOM     14  C   UNL     1      19.632  49.728  49.948  1.00  0.00     0.179 C 
ATOM     15  C   UNL     1      18.222  49.571  49.344  1.00  0.00     0.202 C 
BRANCH  12  16
ATOM     16  O   UNL     1      19.516  52.061  49.430  1.00  0.00    -0.388 OA
ATOM     17  H   UNL     1      20.014  52.586  50.094  1.00  0.00     0.211 HD
ENDBRANCH  12  16
BRANCH  14  18
ATOM     18  O   UNL     1      20.381  48.530  49.874  1.00  0.00    -0.387 OA
ATOM     19  H   UNL     1      20.562  48.392  48.904  1.00  0.00     0.211 HD
ENDBRANCH  14  18
BRANCH  15  20
ATOM     20  O   UNL     1      17.389  50.594  49.870  1.00  0.00    -0.385 OA
ATOM     21  H   UNL     1      17.957  51.312  50.304  1.00  0.00     0.211 HD
ENDBRANCH  15  20
ENDBRANCH   8   9
ENDBRANCH   7   8
ENDBRANCH   1   7
BRANCH   2  22
ATOM     22  O   UNL     1      14.710  48.989  47.989  1.00  0.00    -0.387 OA
ATOM     23  H   UNL     1      13.950  48.785  48.585  1.00  0.00     0.211 HD
ENDBRANCH   2  22
BRANCH   3  24
ATOM     24  O   UNL     1      13.808  48.726  45.370  1.00  0.00    -0.387 OA
ATOM     25  H   UNL     1      13.964  49.557  45.902  1.00  0.00     0.211 HD
ENDBRANCH   3  24
BRANCH   5  26
ATOM     26  O   UNL     1      14.791  46.955  43.467  1.00  0.00    -0.454 OA
BRANCH  26  27
ATOM     27  C   UNL     1      15.623  46.720  42.384  1.00  0.00     0.214 A 
ATOM     28  C   UNL     1      16.666  47.632  42.032  1.00  0.00     0.180 A 
ATOM     29  C   UNL     1      15.363  45.637  41.561  1.00  0.00     0.239 A 
ATOM     30  O   UNL     1      17.223  47.514  40.847  1.00  0.00    -0.452 OA
ATOM     31  C   UNL     1      16.002  45.535  40.313  1.00  0.00     0.111 A 
ATOM     32  O   UNL     1      14.519  44.771  41.937  1.00  0.00    -0.285 OA
ATOM     33  C   UNL     1      16.939  46.545  39.979  1.00  0.00     0.146 A 
ATOM     34  C   UNL     1      15.695  44.538  39.364  1.00  0.00     0.134 A 
ATOM     35  C   UNL     1      17.524  46.567  38.708  1.00  0.00     0.094 A 
ATOM     36  C   UNL     1      16.295  44.560  38.104  1.00  0.00     0.093 A 
ATOM     37  C   UNL     1      17.209  45.586  37.760  1.00  0.00     0.123 A 
BRANCH  28  38
ATOM     38  C   UNL     1      17.072  48.781  42.884  1.00  0.00     0.025 A 
ATOM     39  C   UNL     1      18.435  48.949  43.221  1.00  0.00     0.062 A 
ATOM     40  C   UNL     1      16.145  49.757  43.277  1.00  0.00     0.016 A 
ATOM     41  C   UNL     1      18.876  50.113  43.877  1.00  0.00     0.158 A 
ATOM     42  C   UNL     1      16.586  50.927  43.934  1.00  0.00     0.051 A 
ATOM     43  C   UNL     1      17.949  51.104  44.233  1.00  0.00     0.157 A 
BRANCH  41  44
ATOM     44  O   UNL     1      20.243  50.259  44.101  1.00  0.00    -0.504 OA
ATOM     45  H   UNL     1      20.713  49.707  44.812  1.00  0.00     0.293 HD
ENDBRANCH  41  44
BRANCH  43  46
ATOM     46  O   UNL     1      18.389  52.285  44.833  1.00  0.00    -0.504 OA
ATOM     47  H   UNL     1      18.485  52.334  45.851  1.00  0.00     0.293 HD
ENDBRANCH  43  46
ENDBRANCH  28  38
BRANCH  34  48
ATOM     48  O   UNL     1      14.798  43.517  39.689  1.00  0.00    -0.507 OA
ATOM     49  H   UNL     1      13.934  43.404  39.189  1.00  0.00     0.293 HD
ENDBRANCH  34  48
BRANCH  37  50
ATOM     50  O   UNL     1      17.726  45.617  36.474  1.00  0.00    -0.508 OA
ATOM     51  H   UNL     1      18.076  44.757  36.044  1.00  0.00     0.293 HD
ENDBRANCH  37  50
ENDBRANCH  26  27
ENDBRANCH   5  26
BRANCH   4  52
ATOM     52  O   UNL     1      12.736  45.942  44.967  1.00  0.00    -0.384 OA
ATOM     53  H   UNL     1      12.449  45.058  45.341  1.00  0.00     0.211 HD
ENDBRANCH   4  52
TORSDOF 16
ENDMDL
MODEL 4
REMARK VINA RESULT:    -7.354      2.616      4.443
REMARK INTER + INTRA:         -14.449
REMARK INTER:                 -11.510
REMARK INTRA:                  -2.939
REMARK UNBOUND:                -2.367
REMARK SMILES C[C@H]1O[C@@H](OC[C@H]2O[C@H](Oc3c(-c4ccc(O)c(O)c4)oc4cc(O)cc(O)c4c3=O)[C@H](O)[C@H](O)[C@@H]2O)[C@H](O)[C@@H](O)[C@@H]1O
REMARK SMILES IDX 7 1 36 2 34 3 32 4 9 5 8 6 6 7 5 8 4 9 1 10 2 11 42 12 3 13
REMARK SMILES IDX 40 14 38 15 43 16 41 18 39 20 37 22 35 24 10 26 11 27 12 28
REMARK SMILES IDX 30 29 21 30 29 31 31 32 22 33 27 34 23 35 26 36 24 37 13 38
REMARK SMILES IDX 20 39 14 40 18 41 15 42 16 43 19 44 17 46 28 48 25 50 33 52
REMARK H PARENT 43 17 41 19 39 21 37 23 35 25 19 45 17 47 28 49 25 51 33 53
REMARK Flexibility Score: inf
ROOT
ATOM      1  C   UNL     1      15.889  48.145  45.798  1.00  0.00     0.180 C 
ATOM      2  C   UNL     1      14.822  48.002  46.926  1.00  0.00     0.177 C 
ATOM      3  C   UNL     1      15.506  48.103  48.255  1.00  0.00     0.180 C 
ATOM      4  C   UNL     1      16.082  49.489  48.289  1.00  0.00     0.214 C 
ATOM      5  C   UNL     1      17.230  49.557  47.300  1.00  0.00     0.339 C 
ATOM      6  O   UNL     1      17.013  49.011  45.996  1.00  0.00    -0.332 OA
ENDROOT
BRANCH   1   7
ATOM      7  C   UNL     1      15.259  48.574  44.444  1.00  0.00     0.198 C 
BRANCH   7   8
ATOM      8  O   UNL     1      15.061  47.469  43.574  1.00  0.00    -0.347 OA
BRANCH   8   9
ATOM      9  C   UNL     1      16.300  46.983  43.029  1.00  0.00     0.281 C 
ATOM     10  C   UNL     1      15.645  49.410  41.111  1.00  0.00     0.041 C 
ATOM     11  C   UNL     1      16.911  48.548  41.272  1.00  0.00     0.150 C 
ATOM     12  C   UNL     1      16.970  47.390  40.257  1.00  0.00     0.174 C 
ATOM     13  O   UNL     1      17.127  48.067  42.581  1.00  0.00    -0.344 OA
ATOM     14  C   UNL     1      15.921  46.312  40.545  1.00  0.00     0.179 C 
ATOM     15  C   UNL     1      16.186  45.788  41.971  1.00  0.00     0.202 C 
BRANCH  12  16
ATOM     16  O   UNL     1      18.255  46.810  40.373  1.00  0.00    -0.388 OA
ATOM     17  H   UNL     1      18.870  47.509  40.059  1.00  0.00     0.211 HD
ENDBRANCH  12  16
BRANCH  14  18
ATOM     18  O   UNL     1      14.593  46.771  40.384  1.00  0.00    -0.387 OA
ATOM     19  H   UNL     1      14.496  46.961  39.411  1.00  0.00     0.211 HD
ENDBRANCH  14  18
BRANCH  15  20
ATOM     20  O   UNL     1      17.315  44.926  41.933  1.00  0.00    -0.385 OA
ATOM     21  H   UNL     1      17.122  44.131  41.336  1.00  0.00     0.211 HD
ENDBRANCH  15  20
ENDBRANCH   8   9
ENDBRANCH   7   8
ENDBRANCH   1   7
BRANCH   2  22
ATOM     22  O   UNL     1      14.137  46.746  46.876  1.00  0.00    -0.387 OA
ATOM     23  H   UNL     1      13.299  46.929  47.364  1.00  0.00     0.211 HD
ENDBRANCH   2  22
BRANCH   3  24
ATOM     24  O   UNL     1      16.483  47.093  48.332  1.00  0.00    -0.387 OA
ATOM     25  H   UNL     1      16.442  46.583  47.474  1.00  0.00     0.211 HD
ENDBRANCH   3  24
BRANCH   5  26
ATOM     26  O   UNL     1      18.439  49.009  47.859  1.00  0.00    -0.454 OA
BRANCH  26  27
ATOM     27  C   UNL     1      19.641  49.664  47.642  1.00  0.00     0.214 A 
ATOM     28  C   UNL     1      20.606  49.165  46.713  1.00  0.00     0.180 A 
ATOM     29  C   UNL     1      19.959  50.760  48.426  1.00  0.00     0.239 A 
ATOM     30  O   UNL     1      21.827  49.650  46.763  1.00  0.00    -0.452 OA
ATOM     31  C   UNL     1      21.270  51.265  48.428  1.00  0.00     0.111 A 
ATOM     32  O   UNL     1      19.060  51.268  49.161  1.00  0.00    -0.285 OA
ATOM     33  C   UNL     1      22.208  50.641  47.566  1.00  0.00     0.146 A 
ATOM     34  C   UNL     1      21.705  52.291  49.293  1.00  0.00     0.134 A 
ATOM     35  C   UNL     1      23.554  51.018  47.604  1.00  0.00     0.094 A 
ATOM     36  C   UNL     1      23.048  52.669  49.312  1.00  0.00     0.093 A 
ATOM     37  C   UNL     1      23.990  52.025  48.472  1.00  0.00     0.123 A 
BRANCH  28  38
ATOM     38  C   UNL     1      20.337  48.042  45.776  1.00  0.00     0.025 A 
ATOM     39  C   UNL     1      20.294  48.293  44.384  1.00  0.00     0.062 A 
ATOM     40  C   UNL     1      20.225  46.722  46.236  1.00  0.00     0.016 A 
ATOM     41  C   UNL     1      20.213  47.233  43.464  1.00  0.00     0.158 A 
ATOM     42  C   UNL     1      20.147  45.656  45.313  1.00  0.00     0.051 A 
ATOM     43  C   UNL     1      20.142  45.911  43.930  1.00  0.00     0.157 A 
BRANCH  41  44
ATOM     44  O   UNL     1      20.265  47.541  42.106  1.00  0.00    -0.504 OA
ATOM     45  H   UNL     1      20.902  48.252  41.761  1.00  0.00     0.293 HD
ENDBRANCH  41  44
BRANCH  43  46
ATOM     46  O   UNL     1      20.119  44.853  43.021  1.00  0.00    -0.504 OA
ATOM     47  H   UNL     1      20.752  44.859  42.215  1.00  0.00     0.293 HD
ENDBRANCH  43  46
ENDBRANCH  28  38
BRANCH  34  48
ATOM     48  O   UNL     1      20.788  52.939  50.125  1.00  0.00    -0.507 OA
ATOM     49  H   UNL     1      21.094  53.558  50.854  1.00  0.00     0.293 HD
ENDBRANCH  34  48
BRANCH  37  50
ATOM     50  O   UNL     1      25.327  52.378  48.575  1.00  0.00    -0.508 OA
ATOM     51  H   UNL     1      25.932  52.329  47.751  1.00  0.00     0.293 HD
ENDBRANCH  37  50
ENDBRANCH  26  27
ENDBRANCH   5  26
BRANCH   4  52
ATOM     52  O   UNL     1      16.476  49.832  49.581  1.00  0.00    -0.384 OA
ATOM     53  H   UNL     1      16.013  49.200  50.205  1.00  0.00     0.211 HD
ENDBRANCH   4  52
TORSDOF 16
ENDMDL
MODEL 5
REMARK VINA RESULT:    -7.341      2.611      6.479
REMARK INTER + INTRA:         -14.428
REMARK INTER:                 -12.489
REMARK INTRA:                  -1.939
REMARK UNBOUND:                -2.367
REMARK SMILES C[C@H]1O[C@@H](OC[C@H]2O[C@H](Oc3c(-c4ccc(O)c(O)c4)oc4cc(O)cc(O)c4c3=O)[C@H](O)[C@H](O)[C@@H]2O)[C@H](O)[C@@H](O)[C@@H]1O
REMARK SMILES IDX 7 1 36 2 34 3 32 4 9 5 8 6 6 7 5 8 4 9 1 10 2 11 42 12 3 13
REMARK SMILES IDX 40 14 38 15 43 16 41 18 39 20 37 22 35 24 10 26 11 27 12 28
REMARK SMILES IDX 30 29 21 30 29 31 31 32 22 33 27 34 23 35 26 36 24 37 13 38
REMARK SMILES IDX 20 39 14 40 18 41 15 42 16 43 19 44 17 46 28 48 25 50 33 52
REMARK H PARENT 43 17 41 19 39 21 37 23 35 25 19 45 17 47 28 49 25 51 33 53
REMARK Flexibility Score: inf
ROOT
ATOM      1  C   UNL     1      19.764  47.885  43.587  1.00  0.00     0.180 C 
ATOM      2  C   UNL     1      21.038  48.440  44.293  1.00  0.00     0.177 C 
ATOM      3  C   UNL     1      20.617  49.338  45.415  1.00  0.00     0.180 C 
ATOM      4  C   UNL     1      19.871  48.446  46.365  1.00  0.00     0.214 C 
ATOM      5  C   UNL     1      18.555  48.051  45.723  1.00  0.00     0.339 C 
ATOM      6  O   UNL     1      18.589  47.612  44.362  1.00  0.00    -0.332 OA
ENDROOT
BRANCH   1   7
ATOM      7  C   UNL     1      20.053  46.584  42.788  1.00  0.00     0.198 C 
BRANCH   7   8
ATOM      8  O   UNL     1      18.863  45.888  42.452  1.00  0.00    -0.347 OA
BRANCH   8   9
ATOM      9  C   UNL     1      18.518  46.048  41.065  1.00  0.00     0.281 C 
ATOM     10  C   UNL     1      15.685  45.623  42.402  1.00  0.00     0.041 C 
ATOM     11  C   UNL     1      16.088  46.064  40.983  1.00  0.00     0.150 C 
ATOM     12  C   UNL     1      16.111  44.891  39.985  1.00  0.00     0.174 C 
ATOM     13  O   UNL     1      17.297  46.789  40.919  1.00  0.00    -0.344 OA
ATOM     14  C   UNL     1      17.262  43.918  40.258  1.00  0.00     0.179 C 
ATOM     15  C   UNL     1      18.573  44.726  40.165  1.00  0.00     0.202 C 
BRANCH  12  16
ATOM     16  O   UNL     1      16.292  45.452  38.699  1.00  0.00    -0.388 OA
ATOM     17  H   UNL     1      15.679  44.946  38.121  1.00  0.00     0.211 HD
ENDBRANCH  12  16
BRANCH  14  18
ATOM     18  O   UNL     1      17.138  43.243  41.495  1.00  0.00    -0.387 OA
ATOM     19  H   UNL     1      16.987  42.287  41.259  1.00  0.00     0.211 HD
ENDBRANCH  14  18
BRANCH  15  20
ATOM     20  O   UNL     1      18.864  44.958  38.795  1.00  0.00    -0.385 OA
ATOM     21  H   UNL     1      18.494  44.202  38.231  1.00  0.00     0.211 HD
ENDBRANCH  15  20
ENDBRANCH   8   9
ENDBRANCH   7   8
ENDBRANCH   1   7
BRANCH   2  22
ATOM     22  O   UNL     1      21.867  49.200  43.407  1.00  0.00    -0.387 OA
ATOM     23  H   UNL     1      22.674  49.370  43.948  1.00  0.00     0.211 HD
ENDBRANCH   2  22
BRANCH   3  24
ATOM     24  O   UNL     1      19.822  50.372  44.887  1.00  0.00    -0.387 OA
ATOM     25  H   UNL     1      20.238  51.234  45.176  1.00  0.00     0.211 HD
ENDBRANCH   3  24
BRANCH   5  26
ATOM     26  O   UNL     1      17.565  49.086  45.872  1.00  0.00    -0.454 OA
BRANCH  26  27
ATOM     27  C   UNL     1      16.224  48.738  45.904  1.00  0.00     0.214 A 
ATOM     28  C   UNL     1      15.342  49.071  44.829  1.00  0.00     0.180 A 
ATOM     29  C   UNL     1      15.707  48.159  47.050  1.00  0.00     0.239 A 
ATOM     30  O   UNL     1      14.046  48.981  45.037  1.00  0.00    -0.452 OA
ATOM     31  C   UNL     1      14.316  48.057  47.220  1.00  0.00     0.111 A 
ATOM     32  O   UNL     1      16.508  47.760  47.948  1.00  0.00    -0.285 OA
ATOM     33  C   UNL     1      13.497  48.519  46.158  1.00  0.00     0.146 A 
ATOM     34  C   UNL     1      13.711  47.602  48.410  1.00  0.00     0.134 A 
ATOM     35  C   UNL     1      12.107  48.553  46.309  1.00  0.00     0.094 A 
ATOM     36  C   UNL     1      12.322  47.627  48.544  1.00  0.00     0.093 A 
ATOM     37  C   UNL     1      11.506  48.116  47.495  1.00  0.00     0.123 A 
BRANCH  28  38
ATOM     38  C   UNL     1      15.805  49.627  43.530  1.00  0.00     0.025 A 
ATOM     39  C   UNL     1      16.960  50.442  43.496  1.00  0.00     0.062 A 
ATOM     40  C   UNL     1      15.177  49.279  42.326  1.00  0.00     0.016 A 
ATOM     41  C   UNL     1      17.522  50.843  42.270  1.00  0.00     0.158 A 
ATOM     42  C   UNL     1      15.741  49.677  41.094  1.00  0.00     0.051 A 
ATOM     43  C   UNL     1      16.911  50.457  41.067  1.00  0.00     0.157 A 
BRANCH  41  44
ATOM     44  O   UNL     1      18.710  51.569  42.302  1.00  0.00    -0.504 OA
ATOM     45  H   UNL     1      19.387  51.422  43.045  1.00  0.00     0.293 HD
ENDBRANCH  41  44
BRANCH  43  46
ATOM     46  O   UNL     1      17.497  50.804  39.848  1.00  0.00    -0.504 OA
ATOM     47  H   UNL     1      17.964  51.709  39.745  1.00  0.00     0.293 HD
ENDBRANCH  43  46
ENDBRANCH  28  38
BRANCH  34  48
ATOM     48  O   UNL     1      14.502  47.113  49.453  1.00  0.00    -0.507 OA
ATOM     49  H   UNL     1      14.303  47.345  50.410  1.00  0.00     0.293 HD
ENDBRANCH  34  48
BRANCH  37  50
ATOM     50  O   UNL     1      10.137  48.195  47.695  1.00  0.00    -0.508 OA
ATOM     51  H   UNL     1       9.504  47.617  47.135  1.00  0.00     0.293 HD
ENDBRANCH  37  50
ENDBRANCH  26  27
ENDBRANCH   5  26
BRANCH   4  52
ATOM     52  O   UNL     1      19.691  49.071  47.598  1.00  0.00    -0.384 OA
ATOM     53  H   UNL     1      19.108  48.470  48.148  1.00  0.00     0.211 HD
ENDBRANCH   4  52
TORSDOF 16
ENDMDL
MODEL 6
REMARK VINA RESULT:    -7.287      1.851      7.345
REMARK INTER + INTRA:         -14.339
REMARK INTER:                 -11.586
REMARK INTRA:                  -2.753
REMARK UNBOUND:                -2.367
REMARK SMILES C[C@H]1O[C@@H](OC[C@H]2O[C@H](Oc3c(-c4ccc(O)c(O)c4)oc4cc(O)cc(O)c4c3=O)[C@H](O)[C@H](O)[C@@H]2O)[C@H](O)[C@@H](O)[C@@H]1O
REMARK SMILES IDX 7 1 36 2 34 3 32 4 9 5 8 6 6 7 5 8 4 9 1 10 2 11 42 12 3 13
REMARK SMILES IDX 40 14 38 15 43 16 41 18 39 20 37 22 35 24 10 26 11 27 12 28
REMARK SMILES IDX 30 29 21 30 29 31 31 32 22 33 27 34 23 35 26 36 24 37 13 38
REMARK SMILES IDX 20 39 14 40 18 41 15 42 16 43 19 44 17 46 28 48 25 50 33 52
REMARK H PARENT 43 17 41 19 39 21 37 23 35 25 19 45 17 47 28 49 25 51 33 53
REMARK Flexibility Score: inf
ROOT
ATOM      1  C   UNL     1      17.449  47.879  45.885  1.00  0.00     0.180 C 
ATOM      2  C   UNL     1      17.129  48.966  46.955  1.00  0.00     0.177 C 
ATOM      3  C   UNL     1      15.729  49.454  46.745  1.00  0.00     0.180 C 
ATOM      4  C   UNL     1      14.861  48.253  46.982  1.00  0.00     0.214 C 
ATOM      5  C   UNL     1      15.065  47.278  45.837  1.00  0.00     0.339 C 
ATOM      6  O   UNL     1      16.410  46.999  45.439  1.00  0.00    -0.332 OA
ENDROOT
BRANCH   1   7
ATOM      7  C   UNL     1      18.626  46.959  46.314  1.00  0.00     0.198 C 
BRANCH   7   8
ATOM      8  O   UNL     1      19.862  47.656  46.352  1.00  0.00    -0.347 OA
BRANCH   8   9
ATOM      9  C   UNL     1      20.608  47.497  45.132  1.00  0.00     0.281 C 
ATOM     10  C   UNL     1      21.971  50.049  46.408  1.00  0.00     0.041 C 
ATOM     11  C   UNL     1      22.372  49.168  45.211  1.00  0.00     0.150 C 
ATOM     12  C   UNL     1      21.891  49.744  43.866  1.00  0.00     0.174 C 
ATOM     13  O   UNL     1      21.994  47.813  45.330  1.00  0.00    -0.344 OA
ATOM     14  C   UNL     1      20.369  49.661  43.710  1.00  0.00     0.179 C 
ATOM     15  C   UNL     1      19.979  48.173  43.825  1.00  0.00     0.202 C 
BRANCH  12  16
ATOM     16  O   UNL     1      22.490  48.964  42.849  1.00  0.00    -0.388 OA
ATOM     17  H   UNL     1      22.840  48.175  43.318  1.00  0.00     0.211 HD
ENDBRANCH  12  16
BRANCH  14  18
ATOM     18  O   UNL     1      19.670  50.469  44.638  1.00  0.00    -0.387 OA
ATOM     19  H   UNL     1      18.916  50.869  44.124  1.00  0.00     0.211 HD
ENDBRANCH  14  18
BRANCH  15  20
ATOM     20  O   UNL     1      20.314  47.524  42.608  1.00  0.00    -0.385 OA
ATOM     21  H   UNL     1      19.501  47.047  42.237  1.00  0.00     0.211 HD
ENDBRANCH  15  20
ENDBRANCH   8   9
ENDBRANCH   7   8
ENDBRANCH   1   7
BRANCH   2  22
ATOM     22  O   UNL     1      18.008  50.093  46.871  1.00  0.00    -0.387 OA
ATOM     23  H   UNL     1      18.616  49.846  46.135  1.00  0.00     0.211 HD
ENDBRANCH   2  22
BRANCH   3  24
ATOM     24  O   UNL     1      15.625  49.965  45.438  1.00  0.00    -0.387 OA
ATOM     25  H   UNL     1      16.003  50.890  45.458  1.00  0.00     0.211 HD
ENDBRANCH   3  24
BRANCH   5  26
ATOM     26  O   UNL     1      14.287  47.650  44.684  1.00  0.00    -0.454 OA
BRANCH  26  27
ATOM     27  C   UNL     1      14.579  47.075  43.458  1.00  0.00     0.214 A 
ATOM     28  C   UNL     1      14.158  45.747  43.137  1.00  0.00     0.180 A 
ATOM     29  C   UNL     1      15.393  47.760  42.571  1.00  0.00     0.239 A 
ATOM     30  O   UNL     1      14.704  45.154  42.098  1.00  0.00    -0.452 OA
ATOM     31  C   UNL     1      15.933  47.095  41.457  1.00  0.00     0.111 A 
ATOM     32  O   UNL     1      15.666  48.975  42.805  1.00  0.00    -0.285 OA
ATOM     33  C   UNL     1      15.565  45.740  41.268  1.00  0.00     0.146 A 
ATOM     34  C   UNL     1      16.872  47.683  40.583  1.00  0.00     0.134 A 
ATOM     35  C   UNL     1      16.156  44.988  40.247  1.00  0.00     0.094 A 
ATOM     36  C   UNL     1      17.444  46.929  39.558  1.00  0.00     0.093 A 
ATOM     37  C   UNL     1      17.098  45.565  39.388  1.00  0.00     0.123 A 
BRANCH  28  38
ATOM     38  C   UNL     1      13.227  44.955  43.984  1.00  0.00     0.025 A 
ATOM     39  C   UNL     1      13.745  43.956  44.840  1.00  0.00     0.062 A 
ATOM     40  C   UNL     1      11.856  45.247  44.025  1.00  0.00     0.016 A 
ATOM     41  C   UNL     1      12.917  43.309  45.775  1.00  0.00     0.158 A 
ATOM     42  C   UNL     1      11.024  44.601  44.965  1.00  0.00     0.051 A 
ATOM     43  C   UNL     1      11.554  43.634  45.839  1.00  0.00     0.157 A 
BRANCH  41  44
ATOM     44  O   UNL     1      13.506  42.400  46.650  1.00  0.00    -0.504 OA
ATOM     45  H   UNL     1      14.504  42.215  46.611  1.00  0.00     0.293 HD
ENDBRANCH  41  44
BRANCH  43  46
ATOM     46  O   UNL     1      10.740  43.037  46.803  1.00  0.00    -0.504 OA
ATOM     47  H   UNL     1       9.880  43.503  47.105  1.00  0.00     0.293 HD
ENDBRANCH  43  46
ENDBRANCH  28  38
BRANCH  34  48
ATOM     48  O   UNL     1      17.221  49.028  40.735  1.00  0.00    -0.507 OA
ATOM     49  H   UNL     1      16.780  49.605  41.430  1.00  0.00     0.293 HD
ENDBRANCH  34  48
BRANCH  37  50
ATOM     50  O   UNL     1      17.745  44.830  38.407  1.00  0.00    -0.508 OA
ATOM     51  H   UNL     1      17.205  44.410  37.646  1.00  0.00     0.293 HD
ENDBRANCH  37  50
ENDBRANCH  26  27
ENDBRANCH   5  26
BRANCH   4  52
ATOM     52  O   UNL     1      13.525  48.625  47.127  1.00  0.00    -0.384 OA
ATOM     53  H   UNL     1      12.972  47.823  46.891  1.00  0.00     0.211 HD
ENDBRANCH   4  52
TORSDOF 16
ENDMDL
MODEL 7
REMARK VINA RESULT:    -7.228      2.634      7.427
REMARK INTER + INTRA:         -14.243
REMARK INTER:                 -11.074
REMARK INTRA:                  -3.169
REMARK UNBOUND:                -2.367
REMARK SMILES C[C@H]1O[C@@H](OC[C@H]2O[C@H](Oc3c(-c4ccc(O)c(O)c4)oc4cc(O)cc(O)c4c3=O)[C@H](O)[C@H](O)[C@@H]2O)[C@H](O)[C@@H](O)[C@@H]1O
REMARK SMILES IDX 7 1 36 2 34 3 32 4 9 5 8 6 6 7 5 8 4 9 1 10 2 11 42 12 3 13
REMARK SMILES IDX 40 14 38 15 43 16 41 18 39 20 37 22 35 24 10 26 11 27 12 28
REMARK SMILES IDX 30 29 21 30 29 31 31 32 22 33 27 34 23 35 26 36 24 37 13 38
REMARK SMILES IDX 20 39 14 40 18 41 15 42 16 43 19 44 17 46 28 48 25 50 33 52
REMARK H PARENT 43 17 41 19 39 21 37 23 35 25 19 45 17 47 28 49 25 51 33 53
REMARK Flexibility Score: inf
ROOT
ATOM      1  C   UNL     1      15.094  46.764  45.066  1.00  0.00     0.180 C 
ATOM      2  C   UNL     1      13.578  46.686  45.420  1.00  0.00     0.177 C 
ATOM      3  C   UNL     1      12.781  46.769  44.155  1.00  0.00     0.180 C 
ATOM      4  C   UNL     1      13.171  45.548  43.372  1.00  0.00     0.214 C 
ATOM      5  C   UNL     1      14.601  45.720  42.895  1.00  0.00     0.339 C 
ATOM      6  O   UNL     1      15.566  46.177  43.846  1.00  0.00    -0.332 OA
ENDROOT
BRANCH   1   7
ATOM      7  C   UNL     1      15.992  46.178  46.190  1.00  0.00     0.198 C 
BRANCH   7   8
ATOM      8  O   UNL     1      16.467  47.184  47.072  1.00  0.00    -0.347 OA
BRANCH   8   9
ATOM      9  C   UNL     1      17.124  48.252  46.368  1.00  0.00     0.281 C 
ATOM     10  C   UNL     1      19.509  46.986  48.012  1.00  0.00     0.041 C 
ATOM     11  C   UNL     1      19.490  48.029  46.880  1.00  0.00     0.150 C 
ATOM     12  C   UNL     1      19.515  49.476  47.409  1.00  0.00     0.174 C 
ATOM     13  O   UNL     1      18.441  47.863  45.951  1.00  0.00    -0.344 OA
ATOM     14  C   UNL     1      18.203  49.864  48.099  1.00  0.00     0.179 C 
ATOM     15  C   UNL     1      17.074  49.693  47.062  1.00  0.00     0.202 C 
BRANCH  12  16
ATOM     16  O   UNL     1      19.699  50.318  46.287  1.00  0.00    -0.388 OA
ATOM     17  H   UNL     1      18.788  50.527  45.984  1.00  0.00     0.211 HD
ENDBRANCH  12  16
BRANCH  14  18
ATOM     18  O   UNL     1      17.958  49.128  49.282  1.00  0.00    -0.387 OA
ATOM     19  H   UNL     1      18.144  48.178  49.045  1.00  0.00     0.211 HD
ENDBRANCH  14  18
BRANCH  15  20
ATOM     20  O   UNL     1      17.124  50.785  46.157  1.00  0.00    -0.385 OA
ATOM     21  H   UNL     1      17.945  51.349  46.340  1.00  0.00     0.211 HD
ENDBRANCH  15  20
ENDBRANCH   8   9
ENDBRANCH   7   8
ENDBRANCH   1   7
BRANCH   2  22
ATOM     22  O   UNL     1      13.160  47.756  46.275  1.00  0.00    -0.387 OA
ATOM     23  H   UNL     1      12.257  47.968  45.941  1.00  0.00     0.211 HD
ENDBRANCH   2  22
BRANCH   3  24
ATOM     24  O   UNL     1      13.101  47.973  43.501  1.00  0.00    -0.387 OA
ATOM     25  H   UNL     1      13.076  47.785  42.520  1.00  0.00     0.211 HD
ENDBRANCH   3  24
BRANCH   5  26
ATOM     26  O   UNL     1      14.666  46.536  41.710  1.00  0.00    -0.454 OA
BRANCH  26  27
ATOM     27  C   UNL     1      15.600  46.235  40.732  1.00  0.00     0.214 A 
ATOM     28  C   UNL     1      16.772  47.033  40.548  1.00  0.00     0.180 A 
ATOM     29  C   UNL     1      15.334  45.206  39.844  1.00  0.00     0.239 A 
ATOM     30  O   UNL     1      17.460  46.881  39.438  1.00  0.00    -0.452 OA
ATOM     31  C   UNL     1      16.114  45.062  38.683  1.00  0.00     0.111 A 
ATOM     32  O   UNL     1      14.361  44.430  40.079  1.00  0.00    -0.285 OA
ATOM     33  C   UNL     1      17.189  45.969  38.507  1.00  0.00     0.146 A 
ATOM     34  C   UNL     1      15.826  44.126  37.667  1.00  0.00     0.134 A 
ATOM     35  C   UNL     1      17.931  45.954  37.320  1.00  0.00     0.094 A 
ATOM     36  C   UNL     1      16.583  44.111  36.495  1.00  0.00     0.093 A 
ATOM     37  C   UNL     1      17.638  45.037  36.305  1.00  0.00     0.123 A 
BRANCH  28  38
ATOM     38  C   UNL     1      17.185  48.110  41.485  1.00  0.00     0.025 A 
ATOM     39  C   UNL     1      18.327  47.923  42.299  1.00  0.00     0.062 A 
ATOM     40  C   UNL     1      16.525  49.347  41.507  1.00  0.00     0.016 A 
ATOM     41  C   UNL     1      18.844  48.982  43.068  1.00  0.00     0.158 A 
ATOM     42  C   UNL     1      17.044  50.412  42.276  1.00  0.00     0.051 A 
ATOM     43  C   UNL     1      18.201  50.229  43.054  1.00  0.00     0.157 A 
BRANCH  41  44
ATOM     44  O   UNL     1      20.021  48.760  43.778  1.00  0.00    -0.504 OA
ATOM     45  H   UNL     1      20.436  49.500  44.337  1.00  0.00     0.293 HD
ENDBRANCH  41  44
BRANCH  43  46
ATOM     46  O   UNL     1      18.742  51.298  43.770  1.00  0.00    -0.504 OA
ATOM     47  H   UNL     1      18.731  52.240  43.368  1.00  0.00     0.293 HD
ENDBRANCH  43  46
ENDBRANCH  28  38
BRANCH  34  48
ATOM     48  O   UNL     1      14.791  43.204  37.840  1.00  0.00    -0.507 OA
ATOM     49  H   UNL     1      14.980  42.222  37.939  1.00  0.00     0.293 HD
ENDBRANCH  34  48
BRANCH  37  50
ATOM     50  O   UNL     1      18.316  45.039  35.097  1.00  0.00    -0.508 OA
ATOM     51  H   UNL     1      19.336  44.948  35.083  1.00  0.00     0.293 HD
ENDBRANCH  37  50
ENDBRANCH  26  27
ENDBRANCH   5  26
BRANCH   4  52
ATOM     52  O   UNL     1      12.285  45.328  42.319  1.00  0.00    -0.384 OA
ATOM     53  H   UNL     1      11.673  46.120  42.282  1.00  0.00     0.211 HD
ENDBRANCH   4  52
TORSDOF 16
ENDMDL
MODEL 8
REMARK VINA RESULT:    -7.195      2.075      6.790
REMARK INTER + INTRA:         -14.188
REMARK INTER:                 -11.076
REMARK INTRA:                  -3.112
REMARK UNBOUND:                -2.367
REMARK SMILES C[C@H]1O[C@@H](OC[C@H]2O[C@H](Oc3c(-c4ccc(O)c(O)c4)oc4cc(O)cc(O)c4c3=O)[C@H](O)[C@H](O)[C@@H]2O)[C@H](O)[C@@H](O)[C@@H]1O
REMARK SMILES IDX 7 1 36 2 34 3 32 4 9 5 8 6 6 7 5 8 4 9 1 10 2 11 42 12 3 13
REMARK SMILES IDX 40 14 38 15 43 16 41 18 39 20 37 22 35 24 10 26 11 27 12 28
REMARK SMILES IDX 30 29 21 30 29 31 31 32 22 33 27 34 23 35 26 36 24 37 13 38
REMARK SMILES IDX 20 39 14 40 18 41 15 42 16 43 19 44 17 46 28 48 25 50 33 52
REMARK H PARENT 43 17 41 19 39 21 37 23 35 25 19 45 17 47 28 49 25 51 33 53
REMARK Flexibility Score: inf
ROOT
ATOM      1  C   UNL     1      17.938  47.974  47.818  1.00  0.00     0.180 C 
ATOM      2  C   UNL     1      17.906  48.445  49.303  1.00  0.00     0.177 C 
ATOM      3  C   UNL     1      16.579  49.081  49.581  1.00  0.00     0.180 C 
ATOM      4  C   UNL     1      15.576  47.980  49.387  1.00  0.00     0.214 C 
ATOM      5  C   UNL     1      15.502  47.652  47.908  1.00  0.00     0.339 C 
ATOM      6  O   UNL     1      16.737  47.492  47.203  1.00  0.00    -0.332 OA
ENDROOT
BRANCH   1   7
ATOM      7  C   UNL     1      19.008  46.874  47.572  1.00  0.00     0.198 C 
BRANCH   7   8
ATOM      8  O   UNL     1      19.995  47.288  46.639  1.00  0.00    -0.347 OA
BRANCH   8   9
ATOM      9  C   UNL     1      19.596  48.469  45.921  1.00  0.00     0.281 C 
ATOM     10  C   UNL     1      21.370  46.965  43.779  1.00  0.00     0.041 C 
ATOM     11  C   UNL     1      20.442  48.187  43.659  1.00  0.00     0.150 C 
ATOM     12  C   UNL     1      21.203  49.522  43.774  1.00  0.00     0.174 C 
ATOM     13  O   UNL     1      19.340  48.172  44.540  1.00  0.00    -0.344 OA
ATOM     14  C   UNL     1      21.726  49.771  45.193  1.00  0.00     0.179 C 
ATOM     15  C   UNL     1      20.505  49.768  46.135  1.00  0.00     0.202 C 
BRANCH  12  16
ATOM     16  O   UNL     1      20.284  50.546  43.447  1.00  0.00    -0.388 OA
ATOM     17  H   UNL     1      20.018  50.924  44.314  1.00  0.00     0.211 HD
ENDBRANCH  12  16
BRANCH  14  18
ATOM     18  O   UNL     1      22.713  48.839  45.593  1.00  0.00    -0.387 OA
ATOM     19  H   UNL     1      22.224  48.145  46.113  1.00  0.00     0.211 HD
ENDBRANCH  14  18
BRANCH  15  20
ATOM     20  O   UNL     1      19.816  51.000  45.985  1.00  0.00    -0.385 OA
ATOM     21  H   UNL     1      20.470  51.733  45.735  1.00  0.00     0.211 HD
ENDBRANCH  15  20
ENDBRANCH   8   9
ENDBRANCH   7   8
ENDBRANCH   1   7
BRANCH   2  22
ATOM     22  O   UNL     1      18.926  49.407  49.595  1.00  0.00    -0.387 OA
ATOM     23  H   UNL     1      18.410  50.204  49.864  1.00  0.00     0.211 HD
ENDBRANCH   2  22
BRANCH   3  24
ATOM     24  O   UNL     1      16.402  50.156  48.691  1.00  0.00    -0.387 OA
ATOM     25  H   UNL     1      16.796  49.875  47.816  1.00  0.00     0.211 HD
ENDBRANCH   3  24
BRANCH   5  26
ATOM     26  O   UNL     1      14.660  48.584  47.203  1.00  0.00    -0.454 OA
BRANCH  26  27
ATOM     27  C   UNL     1      14.760  48.675  45.824  1.00  0.00     0.214 A 
ATOM     28  C   UNL     1      14.054  47.778  44.963  1.00  0.00     0.180 A 
ATOM     29  C   UNL     1      15.651  49.582  45.273  1.00  0.00     0.239 A 
ATOM     30  O   UNL     1      14.408  47.721  43.698  1.00  0.00    -0.452 OA
ATOM     31  C   UNL     1      15.980  49.502  43.910  1.00  0.00     0.111 A 
ATOM     32  O   UNL     1      16.184  50.450  46.027  1.00  0.00    -0.285 OA
ATOM     33  C   UNL     1      15.327  48.506  43.141  1.00  0.00     0.146 A 
ATOM     34  C   UNL     1      16.973  50.300  43.304  1.00  0.00     0.134 A 
ATOM     35  C   UNL     1      15.693  48.298  41.806  1.00  0.00     0.094 A 
ATOM     36  C   UNL     1      17.320  50.094  41.968  1.00  0.00     0.093 A 
ATOM     37  C   UNL     1      16.688  49.079  41.208  1.00  0.00     0.123 A 
BRANCH  28  38
ATOM     38  C   UNL     1      13.024  46.820  45.445  1.00  0.00     0.025 A 
ATOM     39  C   UNL     1      13.382  45.470  45.668  1.00  0.00     0.062 A 
ATOM     40  C   UNL     1      11.732  47.249  45.778  1.00  0.00     0.016 A 
ATOM     41  C   UNL     1      12.483  44.579  46.284  1.00  0.00     0.158 A 
ATOM     42  C   UNL     1      10.829  46.358  46.399  1.00  0.00     0.051 A 
ATOM     43  C   UNL     1      11.204  45.026  46.651  1.00  0.00     0.157 A 
BRANCH  41  44
ATOM     44  O   UNL     1      12.926  43.288  46.557  1.00  0.00    -0.504 OA
ATOM     45  H   UNL     1      13.903  43.038  46.429  1.00  0.00     0.293 HD
ENDBRANCH  41  44
BRANCH  43  46
ATOM     46  O   UNL     1      10.330  44.163  47.313  1.00  0.00    -0.504 OA
ATOM     47  H   UNL     1      10.424  44.015  48.322  1.00  0.00     0.293 HD
ENDBRANCH  43  46
ENDBRANCH  28  38
BRANCH  34  48
ATOM     48  O   UNL     1      17.603  51.309  44.039  1.00  0.00    -0.507 OA
ATOM     49  H   UNL     1      17.808  51.191  45.015  1.00  0.00     0.293 HD
ENDBRANCH  34  48
BRANCH  37  50
ATOM     50  O   UNL     1      17.113  48.855  39.908  1.00  0.00    -0.508 OA
ATOM     51  H   UNL     1      17.128  49.627  39.236  1.00  0.00     0.293 HD
ENDBRANCH  37  50
ENDBRANCH  26  27
ENDBRANCH   5  26
BRANCH   4  52
ATOM     52  O   UNL     1      14.335  48.340  49.911  1.00  0.00    -0.384 OA
ATOM     53  H   UNL     1      13.667  47.683  49.556  1.00  0.00     0.211 HD
ENDBRANCH   4  52
TORSDOF 16
ENDMDL
MODEL 9
REMARK VINA RESULT:    -6.995      2.159      7.711
REMARK INTER + INTRA:         -13.860
REMARK INTER:                 -11.006
REMARK INTRA:                  -2.854
REMARK UNBOUND:                -2.367
REMARK SMILES C[C@H]1O[C@@H](OC[C@H]2O[C@H](Oc3c(-c4ccc(O)c(O)c4)oc4cc(O)cc(O)c4c3=O)[C@H](O)[C@H](O)[C@@H]2O)[C@H](O)[C@@H](O)[C@@H]1O
REMARK SMILES IDX 7 1 36 2 34 3 32 4 9 5 8 6 6 7 5 8 4 9 1 10 2 11 42 12 3 13
REMARK SMILES IDX 40 14 38 15 43 16 41 18 39 20 37 22 35 24 10 26 11 27 12 28
REMARK SMILES IDX 30 29 21 30 29 31 31 32 22 33 27 34 23 35 26 36 24 37 13 38
REMARK SMILES IDX 20 39 14 40 18 41 15 42 16 43 19 44 17 46 28 48 25 50 33 52
REMARK H PARENT 43 17 41 19 39 21 37 23 35 25 19 45 17 47 28 49 25 51 33 53
REMARK Flexibility Score: inf
ROOT
ATOM      1  C   UNL     1      16.225  47.357  46.267  1.00  0.00     0.180 C 
ATOM      2  C   UNL     1      15.161  48.018  47.194  1.00  0.00     0.177 C 
ATOM      3  C   UNL     1      13.882  48.171  46.429  1.00  0.00     0.180 C 
ATOM      4  C   UNL     1      13.456  46.768  46.105  1.00  0.00     0.214 C 
ATOM      5  C   UNL     1      14.412  46.201  45.073  1.00  0.00     0.339 C 
ATOM      6  O   UNL     1      15.813  46.384  45.299  1.00  0.00    -0.332 OA
ENDROOT
BRANCH   1   7
ATOM      7  C   UNL     1      17.374  46.689  47.073  1.00  0.00     0.198 C 
BRANCH   7   8
ATOM      8  O   UNL     1      17.910  47.559  48.059  1.00  0.00    -0.347 OA
BRANCH   8   9
ATOM      9  C   UNL     1      19.285  47.888  47.797  1.00  0.00     0.281 C 
ATOM     10  C   UNL     1      18.354  50.326  49.582  1.00  0.00     0.041 C 
ATOM     11  C   UNL     1      19.749  49.886  49.102  1.00  0.00     0.150 C 
ATOM     12  C   UNL     1      20.194  50.622  47.824  1.00  0.00     0.174 C 
ATOM     13  O   UNL     1      19.899  48.492  48.945  1.00  0.00    -0.344 OA
ATOM     14  C   UNL     1      19.385  50.193  46.596  1.00  0.00     0.179 C 
ATOM     15  C   UNL     1      19.577  48.672  46.432  1.00  0.00     0.202 C 
BRANCH  12  16
ATOM     16  O   UNL     1      21.551  50.284  47.609  1.00  0.00    -0.388 OA
ATOM     17  H   UNL     1      21.919  50.158  48.511  1.00  0.00     0.211 HD
ENDBRANCH  12  16
BRANCH  14  18
ATOM     18  O   UNL     1      18.019  50.553  46.677  1.00  0.00    -0.387 OA
ATOM     19  H   UNL     1      18.008  51.549  46.673  1.00  0.00     0.211 HD
ENDBRANCH  14  18
BRANCH  15  20
ATOM     20  O   UNL     1      20.865  48.436  45.882  1.00  0.00    -0.385 OA
ATOM     21  H   UNL     1      20.778  47.969  44.988  1.00  0.00     0.211 HD
ENDBRANCH  15  20
ENDBRANCH   8   9
ENDBRANCH   7   8
ENDBRANCH   1   7
BRANCH   2  22
ATOM     22  O   UNL     1      15.561  49.315  47.649  1.00  0.00    -0.387 OA
ATOM     23  H   UNL     1      16.375  49.126  48.174  1.00  0.00     0.211 HD
ENDBRANCH   2  22
BRANCH   3  24
ATOM     24  O   UNL     1      14.134  48.952  45.287  1.00  0.00    -0.387 OA
ATOM     25  H   UNL     1      15.124  49.081  45.236  1.00  0.00     0.211 HD
ENDBRANCH   3  24
BRANCH   5  26
ATOM     26  O   UNL     1      14.076  46.642  43.744  1.00  0.00    -0.454 OA
BRANCH  26  27
ATOM     27  C   UNL     1      14.657  46.013  42.656  1.00  0.00     0.214 A 
ATOM     28  C   UNL     1      15.728  46.618  41.927  1.00  0.00     0.180 A 
ATOM     29  C   UNL     1      14.113  44.824  42.197  1.00  0.00     0.239 A 
ATOM     30  O   UNL     1      16.038  46.123  40.749  1.00  0.00    -0.452 OA
ATOM     31  C   UNL     1      14.494  44.315  40.944  1.00  0.00     0.111 A 
ATOM     32  O   UNL     1      13.247  44.233  42.909  1.00  0.00    -0.285 OA
ATOM     33  C   UNL     1      15.477  45.037  40.222  1.00  0.00     0.146 A 
ATOM     34  C   UNL     1      13.891  43.186  40.351  1.00  0.00     0.134 A 
ATOM     35  C   UNL     1      15.816  44.649  38.920  1.00  0.00     0.094 A 
ATOM     36  C   UNL     1      14.249  42.800  39.058  1.00  0.00     0.093 A 
ATOM     37  C   UNL     1      15.209  43.539  38.324  1.00  0.00     0.123 A 
BRANCH  28  38
ATOM     38  C   UNL     1      16.428  47.851  42.373  1.00  0.00     0.025 A 
ATOM     39  C   UNL     1      17.800  47.787  42.715  1.00  0.00     0.062 A 
ATOM     40  C   UNL     1      15.783  49.096  42.368  1.00  0.00     0.016 A 
ATOM     41  C   UNL     1      18.532  48.959  42.975  1.00  0.00     0.158 A 
ATOM     42  C   UNL     1      16.518  50.274  42.625  1.00  0.00     0.051 A 
ATOM     43  C   UNL     1      17.890  50.206  42.928  1.00  0.00     0.157 A 
BRANCH  41  44
ATOM     44  O   UNL     1      19.899  48.836  43.217  1.00  0.00    -0.504 OA
ATOM     45  H   UNL     1      20.309  47.928  43.415  1.00  0.00     0.293 HD
ENDBRANCH  41  44
BRANCH  43  46
ATOM     46  O   UNL     1      18.624  51.375  43.129  1.00  0.00    -0.504 OA
ATOM     47  H   UNL     1      19.519  51.337  43.626  1.00  0.00     0.293 HD
ENDBRANCH  43  46
ENDBRANCH  28  38
BRANCH  34  48
ATOM     48  O   UNL     1      12.945  42.444  41.062  1.00  0.00    -0.507 OA
ATOM     49  H   UNL     1      12.735  41.494  40.814  1.00  0.00     0.293 HD
ENDBRANCH  34  48
BRANCH  37  50
ATOM     50  O   UNL     1      15.481  43.168  37.017  1.00  0.00    -0.508 OA
ATOM     51  H   UNL     1      15.558  43.884  36.289  1.00  0.00     0.293 HD
ENDBRANCH  37  50
ENDBRANCH  26  27
ENDBRANCH   5  26
BRANCH   4  52
ATOM     52  O   UNL     1      12.131  46.738  45.670  1.00  0.00    -0.384 OA
ATOM     53  H   UNL     1      11.778  45.824  45.875  1.00  0.00     0.211 HD
ENDBRANCH   4  52
TORSDOF 16
ENDMDL
