MODEL 1
REMARK VINA RESULT:    -7.555      0.000      0.000
REMARK INTER + INTRA:         -11.482
REMARK INTER:                  -9.985
REMARK INTRA:                  -1.497
REMARK UNBOUND:                -1.497
REMARK SMILES CC[C@@H](C=C[C@H](C)[C@H]1CC[C@H]2[C@@H]3CC[C@@H]4C[C@@H](O)CC[C@@]4(C)[C@@H]3CC[C@]12C)C(C)C
REMARK SMILES IDX 6 1 7 2 5 3 4 4 3 5 2 6 1 7 28 8 29 9 30 10 8 11 9 12 26 13
REMARK SMILES IDX 10 14 11 15 25 16 27 17 12 18 24 19 23 20 13 21 21 22 14 23
REMARK SMILES IDX 15 24 20 25 22 26 16 27 19 28 17 29 18 30
REMARK H PARENT 18 31
REMARK Flexibility Score: inf
ROOT
ATOM      1  C   UNL     1     114.814 122.990 127.956  1.00  0.00     0.012 C 
ATOM      2  C   UNL     1     113.462 122.699 127.276  1.00  0.00     0.012 C 
ENDROOT
BRANCH   1   3
ATOM      3  C   UNL     1     115.189 124.431 127.677  1.00  0.00    -0.028 C 
ATOM      4  C   UNL     1     116.244 125.009 128.276  1.00  0.00    -0.027 C 
BRANCH   4   5
ATOM      5  C   UNL     1     116.649 126.450 128.016  1.00  0.00     0.014 C 
BRANCH   5   6
ATOM      6  C   UNL     1     117.961 126.509 127.191  1.00  0.00     0.004 C 
ATOM      7  C   UNL     1     118.737 125.188 127.206  1.00  0.00     0.004 C 
ENDBRANCH   5   6
BRANCH   5   8
ATOM      8  C   UNL     1     116.741 127.261 129.352  1.00  0.00    -0.011 C 
ATOM      9  C   UNL     1     116.645 126.352 130.590  1.00  0.00     0.008 C 
ATOM     10  C   UNL     1     118.053 128.070 129.430  1.00  0.00     0.008 C 
ENDBRANCH   5   8
ENDBRANCH   4   5
ENDBRANCH   1   3
BRANCH   1  11
ATOM     11  C   UNL     1     114.910 122.720 129.498  1.00  0.00     0.002 C 
ATOM     12  C   UNL     1     113.616 122.267 130.220  1.00  0.00     0.005 C 
ATOM     13  C   UNL     1     116.008 121.750 130.012  1.00  0.00    -0.026 C 
ATOM     14  C   UNL     1     114.076 121.507 131.477  1.00  0.00     0.005 C 
ATOM     15  C   UNL     1     115.595 121.666 131.493  1.00  0.00    -0.001 C 
ATOM     16  C   UNL     1     117.465 122.312 129.914  1.00  0.00     0.007 C 
ATOM     17  C   UNL     1     115.912 120.370 129.292  1.00  0.00     0.012 C 
ATOM     18  C   UNL     1     116.426 120.648 132.315  1.00  0.00    -0.004 C 
ATOM     19  C   UNL     1     118.315 122.063 131.191  1.00  0.00     0.005 C 
ATOM     20  C   UNL     1     117.957 120.735 131.924  1.00  0.00    -0.001 C 
ATOM     21  C   UNL     1     116.179 120.859 133.823  1.00  0.00     0.004 C 
ATOM     22  C   UNL     1     118.958 120.345 133.092  1.00  0.00    -0.026 C 
ATOM     23  C   UNL     1     117.004 119.918 134.724  1.00  0.00     0.004 C 
ATOM     24  C   UNL     1     118.239 119.311 134.022  1.00  0.00    -0.002 C 
ATOM     25  C   UNL     1     120.220 119.659 132.473  1.00  0.00     0.010 C 
ATOM     26  C   UNL     1     119.421 121.604 133.893  1.00  0.00     0.012 C 
ATOM     27  C   UNL     1     119.178 118.655 135.061  1.00  0.00     0.036 C 
ATOM     28  C   UNL     1     121.146 119.020 133.519  1.00  0.00     0.032 C 
ATOM     29  C   UNL     1     120.402 118.005 134.393  1.00  0.00     0.114 C 
BRANCH  29  30
ATOM     30  O   UNL     1     120.007 116.903 133.613  1.00  0.00    -0.393 OA
ATOM     31  H   UNL     1     120.799 116.306 133.542  1.00  0.00     0.210 HD
ENDBRANCH  29  30
ENDBRANCH   1  11
TORSDOF 6
ENDMDL
MODEL 2
REMARK VINA RESULT:    -7.053      4.096      7.427
REMARK INTER + INTRA:         -10.817
REMARK INTER:                  -9.968
REMARK INTRA:                  -0.849
REMARK UNBOUND:                -1.497
REMARK SMILES CC[C@@H](C=C[C@H](C)[C@H]1CC[C@H]2[C@@H]3CC[C@@H]4C[C@@H](O)CC[C@@]4(C)[C@@H]3CC[C@]12C)C(C)C
REMARK SMILES IDX 6 1 7 2 5 3 4 4 3 5 2 6 1 7 28 8 29 9 30 10 8 11 9 12 26 13
REMARK SMILES IDX 10 14 11 15 25 16 27 17 12 18 24 19 23 20 13 21 21 22 14 23
REMARK SMILES IDX 15 24 20 25 22 26 16 27 19 28 17 29 18 30
REMARK H PARENT 18 31
REMARK Flexibility Score: inf
ROOT
ATOM      1  C   UNL     1     118.691 129.605 129.885  1.00  0.00     0.012 C 
ATOM      2  C   UNL     1     119.298 129.861 131.278  1.00  0.00     0.012 C 
ENDROOT
BRANCH   1   3
ATOM      3  C   UNL     1     119.154 130.704 128.951  1.00  0.00    -0.028 C 
ATOM      4  C   UNL     1     120.223 131.465 129.239  1.00  0.00    -0.027 C 
BRANCH   4   5
ATOM      5  C   UNL     1     120.714 132.572 128.323  1.00  0.00     0.014 C 
BRANCH   5   6
ATOM      6  C   UNL     1     122.112 133.073 128.771  1.00  0.00     0.004 C 
ATOM      7  C   UNL     1     123.256 132.464 127.953  1.00  0.00     0.004 C 
ENDBRANCH   5   6
BRANCH   5   8
ATOM      8  C   UNL     1     119.664 133.729 128.222  1.00  0.00    -0.011 C 
ATOM      9  C   UNL     1     120.205 135.055 128.784  1.00  0.00     0.008 C 
ATOM     10  C   UNL     1     119.215 133.956 126.762  1.00  0.00     0.008 C 
ENDBRANCH   5   8
ENDBRANCH   4   5
ENDBRANCH   1   3
BRANCH   1  11
ATOM     11  C   UNL     1     118.979 128.211 129.227  1.00  0.00     0.002 C 
ATOM     12  C   UNL     1     120.362 127.569 129.502  1.00  0.00     0.005 C 
ATOM     13  C   UNL     1     117.959 127.061 129.452  1.00  0.00    -0.026 C 
ATOM     14  C   UNL     1     120.173 126.054 129.304  1.00  0.00     0.005 C 
ATOM     15  C   UNL     1     118.739 125.904 128.801  1.00  0.00    -0.001 C 
ATOM     16  C   UNL     1     116.597 127.250 128.706  1.00  0.00     0.007 C 
ATOM     17  C   UNL     1     117.714 126.827 130.975  1.00  0.00     0.012 C 
ATOM     18  C   UNL     1     118.052 124.523 128.960  1.00  0.00    -0.004 C 
ATOM     19  C   UNL     1     116.094 125.963 127.995  1.00  0.00     0.005 C 
ATOM     20  C   UNL     1     116.491 124.650 128.738  1.00  0.00    -0.001 C 
ATOM     21  C   UNL     1     118.711 123.494 128.019  1.00  0.00     0.004 C 
ATOM     22  C   UNL     1     115.799 123.342 128.163  1.00  0.00    -0.026 C 
ATOM     23  C   UNL     1     118.059 122.098 128.074  1.00  0.00     0.004 C 
ATOM     24  C   UNL     1     116.625 122.104 128.648  1.00  0.00    -0.002 C 
ATOM     25  C   UNL     1     114.352 123.233 128.747  1.00  0.00     0.010 C 
ATOM     26  C   UNL     1     115.702 123.384 126.604  1.00  0.00     0.012 C 
ATOM     27  C   UNL     1     115.930 120.749 128.372  1.00  0.00     0.036 C 
ATOM     28  C   UNL     1     113.675 121.885 128.457  1.00  0.00     0.032 C 
ATOM     29  C   UNL     1     114.511 120.705 128.965  1.00  0.00     0.114 C 
BRANCH  29  30
ATOM     30  O   UNL     1     114.566 120.729 130.370  1.00  0.00    -0.393 OA
ATOM     31  H   UNL     1     113.649 120.520 130.694  1.00  0.00     0.210 HD
ENDBRANCH  29  30
ENDBRANCH   1  11
TORSDOF 6
ENDMDL
MODEL 3
REMARK VINA RESULT:    -6.789      4.042      7.562
REMARK INTER + INTRA:         -10.469
REMARK INTER:                  -9.137
REMARK INTRA:                  -1.332
REMARK UNBOUND:                -1.497
REMARK SMILES CC[C@@H](C=C[C@H](C)[C@H]1CC[C@H]2[C@@H]3CC[C@@H]4C[C@@H](O)CC[C@@]4(C)[C@@H]3CC[C@]12C)C(C)C
REMARK SMILES IDX 6 1 7 2 5 3 4 4 3 5 2 6 1 7 28 8 29 9 30 10 8 11 9 12 26 13
REMARK SMILES IDX 10 14 11 15 25 16 27 17 12 18 24 19 23 20 13 21 21 22 14 23
REMARK SMILES IDX 15 24 20 25 22 26 16 27 19 28 17 29 18 30
REMARK H PARENT 18 31
REMARK Flexibility Score: inf
ROOT
ATOM      1  C   UNL     1     116.862 118.229 128.239  1.00  0.00     0.012 C 
ATOM      2  C   UNL     1     115.863 117.056 128.208  1.00  0.00     0.012 C 
ENDROOT
BRANCH   1   3
ATOM      3  C   UNL     1     118.057 117.863 127.383  1.00  0.00    -0.028 C 
ATOM      4  C   UNL     1     118.129 118.220 126.089  1.00  0.00    -0.027 C 
BRANCH   4   5
ATOM      5  C   UNL     1     119.314 117.872 125.205  1.00  0.00     0.014 C 
BRANCH   5   6
ATOM      6  C   UNL     1     119.934 116.516 125.632  1.00  0.00     0.004 C 
ATOM      7  C   UNL     1     119.269 115.314 124.953  1.00  0.00     0.004 C 
ENDBRANCH   5   6
BRANCH   5   8
ATOM      8  C   UNL     1     120.363 119.034 125.185  1.00  0.00    -0.011 C 
ATOM      9  C   UNL     1     121.785 118.539 125.505  1.00  0.00     0.008 C 
ATOM     10  C   UNL     1     120.384 119.749 123.817  1.00  0.00     0.008 C 
ENDBRANCH   5   8
ENDBRANCH   4   5
ENDBRANCH   1   3
BRANCH   1  11
ATOM     11  C   UNL     1     116.325 119.635 127.802  1.00  0.00     0.002 C 
ATOM     12  C   UNL     1     114.796 119.871 127.896  1.00  0.00     0.005 C 
ATOM     13  C   UNL     1     116.958 120.901 128.442  1.00  0.00    -0.026 C 
ATOM     14  C   UNL     1     114.609 121.393 128.023  1.00  0.00     0.005 C 
ATOM     15  C   UNL     1     116.013 121.972 127.867  1.00  0.00    -0.001 C 
ATOM     16  C   UNL     1     118.421 121.199 127.976  1.00  0.00     0.007 C 
ATOM     17  C   UNL     1     116.892 120.828 129.999  1.00  0.00     0.012 C 
ATOM     18  C   UNL     1     116.279 123.397 128.416  1.00  0.00    -0.004 C 
ATOM     19  C   UNL     1     118.673 122.693 127.634  1.00  0.00     0.005 C 
ATOM     20  C   UNL     1     117.834 123.678 128.505  1.00  0.00    -0.001 C 
ATOM     21  C   UNL     1     115.530 124.441 127.563  1.00  0.00     0.004 C 
ATOM     22  C   UNL     1     118.239 125.203 128.337  1.00  0.00    -0.026 C 
ATOM     23  C   UNL     1     115.774 125.896 128.009  1.00  0.00     0.004 C 
ATOM     24  C   UNL     1     117.051 126.080 128.858  1.00  0.00    -0.002 C 
ATOM     25  C   UNL     1     119.496 125.496 129.221  1.00  0.00     0.010 C 
ATOM     26  C   UNL     1     118.587 125.543 126.852  1.00  0.00     0.012 C 
ATOM     27  C   UNL     1     117.400 127.582 128.986  1.00  0.00     0.036 C 
ATOM     28  C   UNL     1     119.832 126.991 129.330  1.00  0.00     0.032 C 
ATOM     29  C   UNL     1     118.647 127.805 129.860  1.00  0.00     0.114 C 
BRANCH  29  30
ATOM     30  O   UNL     1     118.381 127.448 131.194  1.00  0.00    -0.393 OA
ATOM     31  H   UNL     1     118.806 128.142 131.765  1.00  0.00     0.210 HD
ENDBRANCH  29  30
ENDBRANCH   1  11
TORSDOF 6
ENDMDL
MODEL 4
REMARK VINA RESULT:    -6.776      5.139      7.429
REMARK INTER + INTRA:         -10.452
REMARK INTER:                  -9.145
REMARK INTRA:                  -1.307
REMARK UNBOUND:                -1.497
REMARK SMILES CC[C@@H](C=C[C@H](C)[C@H]1CC[C@H]2[C@@H]3CC[C@@H]4C[C@@H](O)CC[C@@]4(C)[C@@H]3CC[C@]12C)C(C)C
REMARK SMILES IDX 6 1 7 2 5 3 4 4 3 5 2 6 1 7 28 8 29 9 30 10 8 11 9 12 26 13
REMARK SMILES IDX 10 14 11 15 25 16 27 17 12 18 24 19 23 20 13 21 21 22 14 23
REMARK SMILES IDX 15 24 20 25 22 26 16 27 19 28 17 29 18 30
REMARK H PARENT 18 31
REMARK Flexibility Score: inf
ROOT
ATOM      1  C   UNL     1     121.124 117.067 126.398  1.00  0.00     0.012 C 
ATOM      2  C   UNL     1     121.273 115.603 125.942  1.00  0.00     0.012 C 
ENDROOT
BRANCH   1   3
ATOM      3  C   UNL     1     122.036 117.929 125.548  1.00  0.00    -0.028 C 
ATOM      4  C   UNL     1     121.607 119.082 125.009  1.00  0.00    -0.027 C 
BRANCH   4   5
ATOM      5  C   UNL     1     122.497 119.970 124.155  1.00  0.00     0.014 C 
BRANCH   5   6
ATOM      6  C   UNL     1     121.825 120.264 122.789  1.00  0.00     0.004 C 
ATOM      7  C   UNL     1     120.684 121.282 122.890  1.00  0.00     0.004 C 
ENDBRANCH   5   6
BRANCH   5   8
ATOM      8  C   UNL     1     123.928 119.354 124.002  1.00  0.00    -0.011 C 
ATOM      9  C   UNL     1     124.365 119.257 122.530  1.00  0.00     0.008 C 
ATOM     10  C   UNL     1     124.980 120.176 124.779  1.00  0.00     0.008 C 
ENDBRANCH   5   8
ENDBRANCH   4   5
ENDBRANCH   1   3
BRANCH   1  11
ATOM     11  C   UNL     1     119.679 117.675 126.386  1.00  0.00     0.002 C 
ATOM     12  C   UNL     1     118.569 116.851 125.685  1.00  0.00     0.005 C 
ATOM     13  C   UNL     1     119.050 118.116 127.736  1.00  0.00    -0.026 C 
ATOM     14  C   UNL     1     117.241 117.305 126.318  1.00  0.00     0.005 C 
ATOM     15  C   UNL     1     117.627 118.450 127.252  1.00  0.00    -0.001 C 
ATOM     16  C   UNL     1     119.696 119.395 128.364  1.00  0.00     0.007 C 
ATOM     17  C   UNL     1     119.064 116.942 128.764  1.00  0.00     0.012 C 
ATOM     18  C   UNL     1     116.649 118.817 128.398  1.00  0.00    -0.004 C 
ATOM     19  C   UNL     1     118.656 120.415 128.903  1.00  0.00     0.005 C 
ATOM     20  C   UNL     1     117.363 119.746 129.462  1.00  0.00    -0.001 C 
ATOM     21  C   UNL     1     115.366 119.446 127.817  1.00  0.00     0.004 C 
ATOM     22  C   UNL     1     116.391 120.742 130.224  1.00  0.00    -0.026 C 
ATOM     23  C   UNL     1     114.352 119.888 128.890  1.00  0.00     0.004 C 
ATOM     24  C   UNL     1     114.974 120.079 130.292  1.00  0.00    -0.002 C 
ATOM     25  C   UNL     1     116.912 120.946 131.684  1.00  0.00     0.010 C 
ATOM     26  C   UNL     1     116.333 122.136 129.519  1.00  0.00     0.012 C 
ATOM     27  C   UNL     1     113.985 120.824 131.220  1.00  0.00     0.036 C 
ATOM     28  C   UNL     1     115.922 121.694 132.590  1.00  0.00     0.032 C 
ATOM     29  C   UNL     1     114.557 120.999 132.638  1.00  0.00     0.114 C 
BRANCH  29  30
ATOM     30  O   UNL     1     114.679 119.751 133.274  1.00  0.00    -0.393 OA
ATOM     31  H   UNL     1     114.010 119.149 132.851  1.00  0.00     0.210 HD
ENDBRANCH  29  30
ENDBRANCH   1  11
TORSDOF 6
ENDMDL
MODEL 5
REMARK VINA RESULT:    -6.670      4.867      7.687
REMARK INTER + INTRA:         -10.311
REMARK INTER:                  -8.790
REMARK INTRA:                  -1.521
REMARK UNBOUND:                -1.497
REMARK SMILES CC[C@@H](C=C[C@H](C)[C@H]1CC[C@H]2[C@@H]3CC[C@@H]4C[C@@H](O)CC[C@@]4(C)[C@@H]3CC[C@]12C)C(C)C
REMARK SMILES IDX 6 1 7 2 5 3 4 4 3 5 2 6 1 7 28 8 29 9 30 10 8 11 9 12 26 13
REMARK SMILES IDX 10 14 11 15 25 16 27 17 12 18 24 19 23 20 13 21 21 22 14 23
REMARK SMILES IDX 15 24 20 25 22 26 16 27 19 28 17 29 18 30
REMARK H PARENT 18 31
REMARK Flexibility Score: inf
ROOT
ATOM      1  C   UNL     1     120.850 117.002 126.894  1.00  0.00     0.012 C 
ATOM      2  C   UNL     1     121.048 115.494 126.652  1.00  0.00     0.012 C 
ENDROOT
BRANCH   1   3
ATOM      3  C   UNL     1     121.914 117.755 126.123  1.00  0.00    -0.028 C 
ATOM      4  C   UNL     1     121.610 118.829 125.374  1.00  0.00    -0.027 C 
BRANCH   4   5
ATOM      5  C   UNL     1     122.654 119.608 124.592  1.00  0.00     0.014 C 
BRANCH   5   6
ATOM      6  C   UNL     1     123.377 120.628 125.510  1.00  0.00     0.004 C 
ATOM      7  C   UNL     1     122.414 121.408 126.412  1.00  0.00     0.004 C 
ENDBRANCH   5   6
BRANCH   5   8
ATOM      8  C   UNL     1     122.025 120.279 123.325  1.00  0.00    -0.011 C 
ATOM      9  C   UNL     1     122.638 119.742 122.019  1.00  0.00     0.008 C 
ATOM     10  C   UNL     1     120.496 120.071 123.278  1.00  0.00     0.008 C 
ENDBRANCH   5   8
ENDBRANCH   4   5
ENDBRANCH   1   3
BRANCH   1  11
ATOM     11  C   UNL     1     119.442 117.600 126.550  1.00  0.00     0.002 C 
ATOM     12  C   UNL     1     118.334 116.606 126.121  1.00  0.00     0.005 C 
ATOM     13  C   UNL     1     118.757 118.527 127.592  1.00  0.00    -0.026 C 
ATOM     14  C   UNL     1     116.996 117.297 126.441  1.00  0.00     0.005 C 
ATOM     15  C   UNL     1     117.385 118.696 126.913  1.00  0.00    -0.001 C 
ATOM     16  C   UNL     1     119.431 119.930 127.751  1.00  0.00     0.007 C 
ATOM     17  C   UNL     1     118.648 117.819 128.978  1.00  0.00     0.012 C 
ATOM     18  C   UNL     1     116.361 119.488 127.767  1.00  0.00    -0.004 C 
ATOM     19  C   UNL     1     118.415 121.105 127.797  1.00  0.00     0.005 C 
ATOM     20  C   UNL     1     117.058 120.726 128.464  1.00  0.00    -0.001 C 
ATOM     21  C   UNL     1     115.150 119.891 126.900  1.00  0.00     0.004 C 
ATOM     22  C   UNL     1     116.096 121.959 128.730  1.00  0.00    -0.026 C 
ATOM     23  C   UNL     1     114.098 120.726 127.656  1.00  0.00     0.004 C 
ATOM     24  C   UNL     1     114.644 121.407 128.931  1.00  0.00    -0.002 C 
ATOM     25  C   UNL     1     116.539 122.676 130.047  1.00  0.00     0.010 C 
ATOM     26  C   UNL     1     116.153 122.994 127.560  1.00  0.00     0.012 C 
ATOM     27  C   UNL     1     113.643 122.470 129.442  1.00  0.00     0.036 C 
ATOM     28  C   UNL     1     115.537 123.733 130.537  1.00  0.00     0.032 C 
ATOM     29  C   UNL     1     114.137 123.143 130.735  1.00  0.00     0.114 C 
BRANCH  29  30
ATOM     30  O   UNL     1     114.155 122.217 131.793  1.00  0.00    -0.393 OA
ATOM     31  H   UNL     1     115.102 122.134 132.084  1.00  0.00     0.210 HD
ENDBRANCH  29  30
ENDBRANCH   1  11
TORSDOF 6
ENDMDL
MODEL 6
REMARK VINA RESULT:    -6.574      1.591      2.975
REMARK INTER + INTRA:         -10.185
REMARK INTER:                  -8.848
REMARK INTRA:                  -1.337
REMARK UNBOUND:                -1.497
REMARK SMILES CC[C@@H](C=C[C@H](C)[C@H]1CC[C@H]2[C@@H]3CC[C@@H]4C[C@@H](O)CC[C@@]4(C)[C@@H]3CC[C@]12C)C(C)C
REMARK SMILES IDX 6 1 7 2 5 3 4 4 3 5 2 6 1 7 28 8 29 9 30 10 8 11 9 12 26 13
REMARK SMILES IDX 10 14 11 15 25 16 27 17 12 18 24 19 23 20 13 21 21 22 14 23
REMARK SMILES IDX 15 24 20 25 22 26 16 27 19 28 17 29 18 30
REMARK H PARENT 18 31
REMARK Flexibility Score: inf
ROOT
ATOM      1  C   UNL     1     118.295 125.306 128.194  1.00  0.00     0.012 C 
ATOM      2  C   UNL     1     117.571 125.280 126.835  1.00  0.00     0.012 C 
ENDROOT
BRANCH   1   3
ATOM      3  C   UNL     1     118.548 126.751 128.574  1.00  0.00    -0.028 C 
ATOM      4  C   UNL     1     118.591 127.141 129.860  1.00  0.00    -0.027 C 
BRANCH   4   5
ATOM      5  C   UNL     1     118.845 128.580 130.273  1.00  0.00     0.014 C 
BRANCH   5   6
ATOM      6  C   UNL     1     117.527 129.261 130.722  1.00  0.00     0.004 C 
ATOM      7  C   UNL     1     116.633 128.341 131.560  1.00  0.00     0.004 C 
ENDBRANCH   5   6
BRANCH   5   8
ATOM      8  C   UNL     1     119.577 129.373 129.138  1.00  0.00    -0.011 C 
ATOM      9  C   UNL     1     119.231 130.872 129.161  1.00  0.00     0.008 C 
ATOM     10  C   UNL     1     121.110 129.215 129.239  1.00  0.00     0.008 C 
ENDBRANCH   5   8
ENDBRANCH   4   5
ENDBRANCH   1   3
BRANCH   1  11
ATOM     11  C   UNL     1     117.596 124.572 129.390  1.00  0.00     0.002 C 
ATOM     12  C   UNL     1     116.128 124.122 129.184  1.00  0.00     0.005 C 
ATOM     13  C   UNL     1     118.302 123.339 130.017  1.00  0.00    -0.026 C 
ATOM     14  C   UNL     1     115.900 122.957 130.165  1.00  0.00     0.005 C 
ATOM     15  C   UNL     1     117.191 122.875 130.977  1.00  0.00    -0.001 C 
ATOM     16  C   UNL     1     119.587 123.680 130.841  1.00  0.00     0.007 C 
ATOM     17  C   UNL     1     118.626 122.272 128.927  1.00  0.00     0.012 C 
ATOM     18  C   UNL     1     117.512 121.543 131.703  1.00  0.00    -0.004 C 
ATOM     19  C   UNL     1     119.670 122.933 132.201  1.00  0.00     0.005 C 
ATOM     20  C   UNL     1     119.024 121.514 132.168  1.00  0.00    -0.001 C 
ATOM     21  C   UNL     1     116.522 121.324 132.866  1.00  0.00     0.004 C 
ATOM     22  C   UNL     1     119.296 120.644 133.467  1.00  0.00    -0.026 C 
ATOM     23  C   UNL     1     116.795 120.042 133.678  1.00  0.00     0.004 C 
ATOM     24  C   UNL     1     118.231 119.497 133.515  1.00  0.00    -0.002 C 
ATOM     25  C   UNL     1     120.716 119.997 133.358  1.00  0.00     0.010 C 
ATOM     26  C   UNL     1     119.249 121.518 134.762  1.00  0.00     0.012 C 
ATOM     27  C   UNL     1     118.523 118.425 134.591  1.00  0.00     0.036 C 
ATOM     28  C   UNL     1     120.993 118.940 134.439  1.00  0.00     0.032 C 
ATOM     29  C   UNL     1     119.935 117.832 134.436  1.00  0.00     0.114 C 
BRANCH  29  30
ATOM     30  O   UNL     1     120.025 117.089 133.245  1.00  0.00    -0.393 OA
ATOM     31  H   UNL     1     120.993 117.004 133.035  1.00  0.00     0.210 HD
ENDBRANCH  29  30
ENDBRANCH   1  11
TORSDOF 6
ENDMDL
MODEL 7
REMARK VINA RESULT:    -6.568      3.365      7.668
REMARK INTER + INTRA:         -10.177
REMARK INTER:                  -8.732
REMARK INTRA:                  -1.444
REMARK UNBOUND:                -1.497
REMARK SMILES CC[C@@H](C=C[C@H](C)[C@H]1CC[C@H]2[C@@H]3CC[C@@H]4C[C@@H](O)CC[C@@]4(C)[C@@H]3CC[C@]12C)C(C)C
REMARK SMILES IDX 6 1 7 2 5 3 4 4 3 5 2 6 1 7 28 8 29 9 30 10 8 11 9 12 26 13
REMARK SMILES IDX 10 14 11 15 25 16 27 17 12 18 24 19 23 20 13 21 21 22 14 23
REMARK SMILES IDX 15 24 20 25 22 26 16 27 19 28 17 29 18 30
REMARK H PARENT 18 31
REMARK Flexibility Score: inf
ROOT
ATOM      1  C   UNL     1     119.233 120.030 130.800  1.00  0.00     0.012 C 
ATOM      2  C   UNL     1     119.208 119.327 132.171  1.00  0.00     0.012 C 
ENDROOT
BRANCH   1   3
ATOM      3  C   UNL     1     118.983 118.991 129.725  1.00  0.00    -0.028 C 
ATOM      4  C   UNL     1     118.665 119.345 128.468  1.00  0.00    -0.027 C 
BRANCH   4   5
ATOM      5  C   UNL     1     118.413 118.328 127.368  1.00  0.00     0.014 C 
BRANCH   5   6
ATOM      6  C   UNL     1     119.196 118.706 126.084  1.00  0.00     0.004 C 
ATOM      7  C   UNL     1     120.105 119.925 126.275  1.00  0.00     0.004 C 
ENDBRANCH   5   6
BRANCH   5   8
ATOM      8  C   UNL     1     116.880 118.149 127.107  1.00  0.00    -0.011 C 
ATOM      9  C   UNL     1     116.292 116.962 127.891  1.00  0.00     0.008 C 
ATOM     10  C   UNL     1     116.093 119.425 127.475  1.00  0.00     0.008 C 
ENDBRANCH   5   8
ENDBRANCH   4   5
ENDBRANCH   1   3
BRANCH   1  11
ATOM     11  C   UNL     1     118.246 121.231 130.596  1.00  0.00     0.002 C 
ATOM     12  C   UNL     1     117.015 121.305 131.534  1.00  0.00     0.005 C 
ATOM     13  C   UNL     1     118.826 122.673 130.593  1.00  0.00    -0.026 C 
ATOM     14  C   UNL     1     116.595 122.785 131.566  1.00  0.00     0.005 C 
ATOM     15  C   UNL     1     117.510 123.472 130.554  1.00  0.00    -0.001 C 
ATOM     16  C   UNL     1     119.680 123.023 129.330  1.00  0.00     0.007 C 
ATOM     17  C   UNL     1     119.645 122.944 131.892  1.00  0.00     0.012 C 
ATOM     18  C   UNL     1     117.709 125.004 130.674  1.00  0.00    -0.004 C 
ATOM     19  C   UNL     1     119.361 124.421 128.733  1.00  0.00     0.005 C 
ATOM     20  C   UNL     1     118.946 125.474 129.806  1.00  0.00    -0.001 C 
ATOM     21  C   UNL     1     116.403 125.737 130.302  1.00  0.00     0.004 C 
ATOM     22  C   UNL     1     118.839 126.958 129.256  1.00  0.00    -0.026 C 
ATOM     23  C   UNL     1     116.521 127.273 130.346  1.00  0.00     0.004 C 
ATOM     24  C   UNL     1     117.975 127.788 130.264  1.00  0.00    -0.002 C 
ATOM     25  C   UNL     1     120.271 127.585 129.199  1.00  0.00     0.010 C 
ATOM     26  C   UNL     1     118.226 126.994 127.819  1.00  0.00     0.012 C 
ATOM     27  C   UNL     1     117.991 129.310 129.987  1.00  0.00     0.036 C 
ATOM     28  C   UNL     1     120.269 129.095 128.916  1.00  0.00     0.032 C 
ATOM     29  C   UNL     1     119.425 129.865 129.937  1.00  0.00     0.114 C 
BRANCH  29  30
ATOM     30  O   UNL     1     120.025 129.789 131.207  1.00  0.00    -0.393 OA
ATOM     31  H   UNL     1     120.404 128.873 131.288  1.00  0.00     0.210 HD
ENDBRANCH  29  30
ENDBRANCH   1  11
TORSDOF 6
ENDMDL
MODEL 8
REMARK VINA RESULT:    -6.444      1.433      2.598
REMARK INTER + INTRA:         -10.013
REMARK INTER:                  -8.915
REMARK INTRA:                  -1.098
REMARK UNBOUND:                -1.497
REMARK SMILES CC[C@@H](C=C[C@H](C)[C@H]1CC[C@H]2[C@@H]3CC[C@@H]4C[C@@H](O)CC[C@@]4(C)[C@@H]3CC[C@]12C)C(C)C
REMARK SMILES IDX 6 1 7 2 5 3 4 4 3 5 2 6 1 7 28 8 29 9 30 10 8 11 9 12 26 13
REMARK SMILES IDX 10 14 11 15 25 16 27 17 12 18 24 19 23 20 13 21 21 22 14 23
REMARK SMILES IDX 15 24 20 25 22 26 16 27 19 28 17 29 18 30
REMARK H PARENT 18 31
REMARK Flexibility Score: inf
ROOT
ATOM      1  C   UNL     1     115.161 122.949 130.529  1.00  0.00     0.012 C 
ATOM      2  C   UNL     1     113.638 123.026 130.309  1.00  0.00     0.012 C 
ENDROOT
BRANCH   1   3
ATOM      3  C   UNL     1     115.714 124.359 130.544  1.00  0.00    -0.028 C 
ATOM      4  C   UNL     1     116.651 124.754 129.665  1.00  0.00    -0.027 C 
BRANCH   4   5
ATOM      5  C   UNL     1     117.224 126.161 129.652  1.00  0.00     0.014 C 
BRANCH   5   6
ATOM      6  C   UNL     1     116.524 127.046 130.716  1.00  0.00     0.004 C 
ATOM      7  C   UNL     1     117.511 127.842 131.576  1.00  0.00     0.004 C 
ENDBRANCH   5   6
BRANCH   5   8
ATOM      8  C   UNL     1     117.162 126.782 128.216  1.00  0.00    -0.011 C 
ATOM      9  C   UNL     1     117.929 125.937 127.184  1.00  0.00     0.008 C 
ATOM     10  C   UNL     1     115.703 126.947 127.737  1.00  0.00     0.008 C 
ENDBRANCH   5   8
ENDBRANCH   4   5
ENDBRANCH   1   3
BRANCH   1  11
ATOM     11  C   UNL     1     115.659 122.183 131.803  1.00  0.00     0.002 C 
ATOM     12  C   UNL     1     114.651 121.236 132.501  1.00  0.00     0.005 C 
ATOM     13  C   UNL     1     116.972 121.359 131.706  1.00  0.00    -0.026 C 
ATOM     14  C   UNL     1     115.499 120.203 133.265  1.00  0.00     0.005 C 
ATOM     15  C   UNL     1     116.941 120.674 133.084  1.00  0.00    -0.001 C 
ATOM     16  C   UNL     1     118.271 122.223 131.588  1.00  0.00     0.007 C 
ATOM     17  C   UNL     1     116.897 120.333 130.533  1.00  0.00     0.012 C 
ATOM     18  C   UNL     1     118.077 119.639 133.291  1.00  0.00    -0.004 C 
ATOM     19  C   UNL     1     119.428 121.735 132.502  1.00  0.00     0.005 C 
ATOM     20  C   UNL     1     119.442 120.189 132.711  1.00  0.00    -0.001 C 
ATOM     21  C   UNL     1     118.172 119.250 134.781  1.00  0.00     0.004 C 
ATOM     22  C   UNL     1     120.738 119.643 133.446  1.00  0.00    -0.026 C 
ATOM     23  C   UNL     1     119.310 118.257 135.090  1.00  0.00     0.004 C 
ATOM     24  C   UNL     1     120.412 118.219 134.009  1.00  0.00    -0.002 C 
ATOM     25  C   UNL     1     121.897 119.511 132.405  1.00  0.00     0.010 C 
ATOM     26  C   UNL     1     121.201 120.611 134.583  1.00  0.00     0.012 C 
ATOM     27  C   UNL     1     121.654 117.462 134.535  1.00  0.00     0.036 C 
ATOM     28  C   UNL     1     123.126 118.764 132.946  1.00  0.00     0.032 C 
ATOM     29  C   UNL     1     122.760 117.371 133.469  1.00  0.00     0.114 C 
BRANCH  29  30
ATOM     30  O   UNL     1     122.346 116.554 132.402  1.00  0.00    -0.393 OA
ATOM     31  H   UNL     1     121.434 116.228 132.630  1.00  0.00     0.210 HD
ENDBRANCH  29  30
ENDBRANCH   1  11
TORSDOF 6
ENDMDL
MODEL 9
REMARK VINA RESULT:    -6.422      4.286      6.785
REMARK INTER + INTRA:          -9.984
REMARK INTER:                  -8.300
REMARK INTRA:                  -1.683
REMARK UNBOUND:                -1.497
REMARK SMILES CC[C@@H](C=C[C@H](C)[C@H]1CC[C@H]2[C@@H]3CC[C@@H]4C[C@@H](O)CC[C@@]4(C)[C@@H]3CC[C@]12C)C(C)C
REMARK SMILES IDX 6 1 7 2 5 3 4 4 3 5 2 6 1 7 28 8 29 9 30 10 8 11 9 12 26 13
REMARK SMILES IDX 10 14 11 15 25 16 27 17 12 18 24 19 23 20 13 21 21 22 14 23
REMARK SMILES IDX 15 24 20 25 22 26 16 27 19 28 17 29 18 30
REMARK H PARENT 18 31
REMARK Flexibility Score: inf
ROOT
ATOM      1  C   UNL     1     116.933 125.299 128.955  1.00  0.00     0.012 C 
ATOM      2  C   UNL     1     115.885 125.973 128.049  1.00  0.00     0.012 C 
ENDROOT
BRANCH   1   3
ATOM      3  C   UNL     1     116.209 124.605 130.091  1.00  0.00    -0.028 C 
ATOM      4  C   UNL     1     116.219 123.267 130.215  1.00  0.00    -0.027 C 
BRANCH   4   5
ATOM      5  C   UNL     1     115.506 122.541 131.343  1.00  0.00     0.014 C 
BRANCH   5   6
ATOM      6  C   UNL     1     116.485 121.602 132.094  1.00  0.00     0.004 C 
ATOM      7  C   UNL     1     117.666 121.153 131.228  1.00  0.00     0.004 C 
ENDBRANCH   5   6
BRANCH   5   8
ATOM      8  C   UNL     1     114.236 121.792 130.818  1.00  0.00    -0.011 C 
ATOM      9  C   UNL     1     114.343 121.444 129.323  1.00  0.00     0.008 C 
ATOM     10  C   UNL     1     113.980 120.492 131.612  1.00  0.00     0.008 C 
ENDBRANCH   5   8
ENDBRANCH   4   5
ENDBRANCH   1   3
BRANCH   1  11
ATOM     11  C   UNL     1     117.918 124.287 128.276  1.00  0.00     0.002 C 
ATOM     12  C   UNL     1     117.855 124.163 126.732  1.00  0.00     0.005 C 
ATOM     13  C   UNL     1     119.434 124.397 128.600  1.00  0.00    -0.026 C 
ATOM     14  C   UNL     1     119.235 123.642 126.292  1.00  0.00     0.005 C 
ATOM     15  C   UNL     1     119.981 123.366 127.596  1.00  0.00    -0.001 C 
ATOM     16  C   UNL     1     119.817 123.958 130.052  1.00  0.00     0.007 C 
ATOM     17  C   UNL     1     119.958 125.838 128.314  1.00  0.00     0.012 C 
ATOM     18  C   UNL     1     121.529 123.303 127.551  1.00  0.00    -0.004 C 
ATOM     19  C   UNL     1     121.080 123.054 130.114  1.00  0.00     0.005 C 
ATOM     20  C   UNL     1     122.132 123.383 129.011  1.00  0.00    -0.001 C 
ATOM     21  C   UNL     1     121.984 122.044 126.782  1.00  0.00     0.004 C 
ATOM     22  C   UNL     1     123.520 122.636 129.193  1.00  0.00    -0.026 C 
ATOM     23  C   UNL     1     123.515 121.872 126.727  1.00  0.00     0.004 C 
ATOM     24  C   UNL     1     124.269 122.664 127.818  1.00  0.00    -0.002 C 
ATOM     25  C   UNL     1     124.383 123.411 130.242  1.00  0.00     0.010 C 
ATOM     26  C   UNL     1     123.320 121.171 129.701  1.00  0.00     0.012 C 
ATOM     27  C   UNL     1     125.740 122.191 127.904  1.00  0.00     0.036 C 
ATOM     28  C   UNL     1     125.838 122.924 130.320  1.00  0.00     0.032 C 
ATOM     29  C   UNL     1     126.533 122.985 128.956  1.00  0.00     0.114 C 
BRANCH  29  30
ATOM     30  O   UNL     1     126.675 124.325 128.553  1.00  0.00    -0.393 OA
ATOM     31  H   UNL     1     127.158 124.793 129.286  1.00  0.00     0.210 HD
ENDBRANCH  29  30
ENDBRANCH   1  11
TORSDOF 6
ENDMDL
