MODEL 1
REMARK VINA RESULT:    -4.376      0.000      0.000
REMARK INTER + INTRA:          -6.721
REMARK INTER:                  -6.166
REMARK INTRA:                  -0.555
REMARK UNBOUND:                -0.555
REMARK SMILES CCCCCCCCC(=O)[O-]
REMARK SMILES IDX 6 1 7 2 8 3 9 4 10 5 11 6 5 7 4 8 3 9 2 10 1 11
REMARK H PARENT
REMARK Flexibility Score: inf
ROOT
ATOM      1  C   UNL     1       0.419 -21.711  -5.176  1.00  0.00     0.000 C 
ENDROOT
BRANCH   1   2
ATOM      2  C   UNL     1       0.833 -20.260  -4.902  1.00  0.00     0.006 C 
BRANCH   2   3
ATOM      3  C   UNL     1       0.391 -19.818  -3.504  1.00  0.00     0.053 C 
BRANCH   3   4
ATOM      4  C   UNL     1       1.389 -20.250  -2.477  1.00  0.00     0.041 C 
ATOM      5  O   UNL     1       2.515 -19.690  -2.413  1.00  0.00    -0.550 OA
ATOM      6  O   UNL     1       1.058 -21.238  -1.559  1.00  0.00    -0.550 OA
ENDBRANCH   3   4
ENDBRANCH   2   3
ENDBRANCH   1   2
BRANCH   1   7
ATOM      7  C   UNL     1      -0.045 -21.887  -6.627  1.00  0.00     0.000 C 
BRANCH   7   8
ATOM      8  C   UNL     1       1.137 -22.236  -7.545  1.00  0.00    -0.000 C 
BRANCH   8   9
ATOM      9  C   UNL     1       1.545 -21.072  -8.466  1.00  0.00    -0.000 C 
BRANCH   9  10
ATOM     10  C   UNL     1       2.785 -20.286  -8.004  1.00  0.00    -0.003 C 
ATOM     11  C   UNL     1       3.732 -21.117  -7.138  1.00  0.00     0.004 C 
ENDBRANCH   9  10
ENDBRANCH   8   9
ENDBRANCH   7   8
ENDBRANCH   1   7
TORSDOF 7
ENDMDL
MODEL 2
REMARK VINA RESULT:    -4.153      1.168      2.407
REMARK INTER + INTRA:          -6.407
REMARK INTER:                  -5.742
REMARK INTRA:                  -0.665
REMARK UNBOUND:                -0.555
REMARK SMILES CCCCCCCCC(=O)[O-]
REMARK SMILES IDX 6 1 7 2 8 3 9 4 10 5 11 6 5 7 4 8 3 9 2 10 1 11
REMARK H PARENT
REMARK Flexibility Score: inf
ROOT
ATOM      1  C   UNL     1       1.786 -18.916  -5.710  1.00  0.00     0.000 C 
ENDROOT
BRANCH   1   2
ATOM      2  C   UNL     1       1.225 -18.761  -4.292  1.00  0.00     0.006 C 
BRANCH   2   3
ATOM      3  C   UNL     1       0.452 -20.013  -3.867  1.00  0.00     0.053 C 
BRANCH   3   4
ATOM      4  C   UNL     1       0.987 -20.545  -2.575  1.00  0.00     0.041 C 
ATOM      5  O   UNL     1       0.285 -21.314  -1.867  1.00  0.00    -0.550 OA
ATOM      6  O   UNL     1       2.280 -20.232  -2.176  1.00  0.00    -0.550 OA
ENDBRANCH   3   4
ENDBRANCH   2   3
ENDBRANCH   1   2
BRANCH   1   7
ATOM      7  C   UNL     1       3.116 -19.680  -5.695  1.00  0.00     0.000 C 
BRANCH   7   8
ATOM      8  C   UNL     1       2.966 -21.060  -6.355  1.00  0.00    -0.000 C 
BRANCH   8   9
ATOM      9  C   UNL     1       2.427 -20.981  -7.795  1.00  0.00    -0.000 C 
BRANCH   9  10
ATOM     10  C   UNL     1       1.083 -21.695  -8.022  1.00  0.00    -0.003 C 
ATOM     11  C   UNL     1       0.594 -22.456  -6.789  1.00  0.00     0.004 C 
ENDBRANCH   9  10
ENDBRANCH   8   9
ENDBRANCH   7   8
ENDBRANCH   1   7
TORSDOF 7
ENDMDL
MODEL 3
REMARK VINA RESULT:    -4.076      2.471      4.476
REMARK INTER + INTRA:          -6.300
REMARK INTER:                  -5.833
REMARK INTRA:                  -0.466
REMARK UNBOUND:                -0.555
REMARK SMILES CCCCCCCCC(=O)[O-]
REMARK SMILES IDX 6 1 7 2 8 3 9 4 10 5 11 6 5 7 4 8 3 9 2 10 1 11
REMARK H PARENT
REMARK Flexibility Score: inf
ROOT
ATOM      1  C   UNL     1       2.320 -20.645  -8.255  1.00  0.00     0.000 C 
ENDROOT
BRANCH   1   2
ATOM      2  C   UNL     1       3.118 -20.006  -7.114  1.00  0.00     0.006 C 
BRANCH   2   3
ATOM      3  C   UNL     1       4.623 -20.211  -7.314  1.00  0.00     0.053 C 
BRANCH   3   4
ATOM      4  C   UNL     1       5.080 -21.452  -6.613  1.00  0.00     0.041 C 
ATOM      5  O   UNL     1       5.912 -22.220  -7.163  1.00  0.00    -0.550 OA
ATOM      6  O   UNL     1       4.625 -21.733  -5.331  1.00  0.00    -0.550 OA
ENDBRANCH   3   4
ENDBRANCH   2   3
ENDBRANCH   1   2
BRANCH   1   7
ATOM      7  C   UNL     1       1.117 -21.428  -7.715  1.00  0.00     0.000 C 
BRANCH   7   8
ATOM      8  C   UNL     1       1.339 -21.838  -6.251  1.00  0.00    -0.000 C 
BRANCH   8   9
ATOM      9  C   UNL     1       0.186 -21.407  -5.326  1.00  0.00    -0.000 C 
BRANCH   9  10
ATOM     10  C   UNL     1       0.532 -20.269  -4.349  1.00  0.00    -0.003 C 
ATOM     11  C   UNL     1       0.513 -20.710  -2.885  1.00  0.00     0.004 C 
ENDBRANCH   9  10
ENDBRANCH   8   9
ENDBRANCH   7   8
ENDBRANCH   1   7
TORSDOF 7
ENDMDL
MODEL 4
REMARK VINA RESULT:    -4.063      3.836      5.564
REMARK INTER + INTRA:          -6.281
REMARK INTER:                  -5.899
REMARK INTRA:                  -0.382
REMARK UNBOUND:                -0.555
REMARK SMILES CCCCCCCCC(=O)[O-]
REMARK SMILES IDX 6 1 7 2 8 3 9 4 10 5 11 6 5 7 4 8 3 9 2 10 1 11
REMARK H PARENT
REMARK Flexibility Score: inf
ROOT
ATOM      1  C   UNL     1       3.522 -21.100  -6.973  1.00  0.00     0.000 C 
ENDROOT
BRANCH   1   2
ATOM      2  C   UNL     1       5.024 -20.822  -7.101  1.00  0.00     0.006 C 
BRANCH   2   3
ATOM      3  C   UNL     1       5.841 -22.088  -6.826  1.00  0.00     0.053 C 
BRANCH   3   4
ATOM      4  C   UNL     1       7.057 -22.125  -7.697  1.00  0.00     0.041 C 
ATOM      5  O   UNL     1       7.758 -21.091  -7.850  1.00  0.00    -0.550 OA
ATOM      6  O   UNL     1       7.445 -23.316  -8.299  1.00  0.00    -0.550 OA
ENDBRANCH   3   4
ENDBRANCH   2   3
ENDBRANCH   1   2
BRANCH   1   7
ATOM      7  C   UNL     1       2.729 -20.347  -8.049  1.00  0.00     0.000 C 
BRANCH   7   8
ATOM      8  C   UNL     1       1.355 -20.996  -8.277  1.00  0.00    -0.000 C 
BRANCH   8   9
ATOM      9  C   UNL     1       1.177 -22.313  -7.500  1.00  0.00    -0.000 C 
BRANCH   9  10
ATOM     10  C   UNL     1       0.022 -22.311  -6.483  1.00  0.00    -0.003 C 
ATOM     11  C   UNL     1       0.318 -21.468  -5.242  1.00  0.00     0.004 C 
ENDBRANCH   9  10
ENDBRANCH   8   9
ENDBRANCH   7   8
ENDBRANCH   1   7
TORSDOF 7
ENDMDL
MODEL 5
REMARK VINA RESULT:    -4.038      2.956      4.472
REMARK INTER + INTRA:          -6.245
REMARK INTER:                  -5.914
REMARK INTRA:                  -0.331
REMARK UNBOUND:                -0.555
REMARK SMILES CCCCCCCCC(=O)[O-]
REMARK SMILES IDX 6 1 7 2 8 3 9 4 10 5 11 6 5 7 4 8 3 9 2 10 1 11
REMARK H PARENT
REMARK Flexibility Score: inf
ROOT
ATOM      1  C   UNL     1       3.376 -20.756  -7.322  1.00  0.00     0.000 C 
ENDROOT
BRANCH   1   2
ATOM      2  C   UNL     1       1.857 -20.614  -7.479  1.00  0.00     0.006 C 
BRANCH   2   3
ATOM      3  C   UNL     1       1.207 -21.968  -7.778  1.00  0.00     0.053 C 
BRANCH   3   4
ATOM      4  C   UNL     1       0.511 -22.494  -6.562  1.00  0.00     0.041 C 
ATOM      5  O   UNL     1       0.224 -21.721  -5.612  1.00  0.00    -0.550 OA
ATOM      6  O   UNL     1       0.135 -23.830  -6.500  1.00  0.00    -0.550 OA
ENDBRANCH   3   4
ENDBRANCH   2   3
ENDBRANCH   1   2
BRANCH   1   7
ATOM      7  C   UNL     1       3.751 -21.074  -5.870  1.00  0.00     0.000 C 
BRANCH   7   8
ATOM      8  C   UNL     1       5.255 -21.360  -5.739  1.00  0.00    -0.000 C 
BRANCH   8   9
ATOM      9  C   UNL     1       5.832 -22.106  -6.956  1.00  0.00    -0.000 C 
BRANCH   9  10
ATOM     10  C   UNL     1       7.156 -21.536  -7.495  1.00  0.00    -0.003 C 
ATOM     11  C   UNL     1       7.916 -22.522  -8.382  1.00  0.00     0.004 C 
ENDBRANCH   9  10
ENDBRANCH   8   9
ENDBRANCH   7   8
ENDBRANCH   1   7
TORSDOF 7
ENDMDL
MODEL 6
REMARK VINA RESULT:    -4.003      1.568      2.769
REMARK INTER + INTRA:          -6.197
REMARK INTER:                  -5.687
REMARK INTRA:                  -0.510
REMARK UNBOUND:                -0.555
REMARK SMILES CCCCCCCCC(=O)[O-]
REMARK SMILES IDX 6 1 7 2 8 3 9 4 10 5 11 6 5 7 4 8 3 9 2 10 1 11
REMARK H PARENT
REMARK Flexibility Score: inf
ROOT
ATOM      1  C   UNL     1       3.158 -19.167  -6.519  1.00  0.00     0.000 C 
ENDROOT
BRANCH   1   2
ATOM      2  C   UNL     1       1.741 -18.761  -6.098  1.00  0.00     0.006 C 
BRANCH   2   3
ATOM      3  C   UNL     1       1.706 -18.333  -4.628  1.00  0.00     0.053 C 
BRANCH   3   4
ATOM      4  C   UNL     1       1.320 -19.486  -3.756  1.00  0.00     0.041 C 
ATOM      5  O   UNL     1       2.129 -19.933  -2.902  1.00  0.00    -0.550 OA
ATOM      6  O   UNL     1       0.047 -20.035  -3.852  1.00  0.00    -0.550 OA
ENDBRANCH   3   4
ENDBRANCH   2   3
ENDBRANCH   1   2
BRANCH   1   7
ATOM      7  C   UNL     1       3.137 -20.450  -7.359  1.00  0.00     0.000 C 
BRANCH   7   8
ATOM      8  C   UNL     1       1.810 -20.589  -8.121  1.00  0.00    -0.000 C 
BRANCH   8   9
ATOM      9  C   UNL     1       1.156 -21.971  -7.942  1.00  0.00    -0.000 C 
BRANCH   9  10
ATOM     10  C   UNL     1       0.634 -22.260  -6.523  1.00  0.00    -0.003 C 
ATOM     11  C   UNL     1       0.110 -23.687  -6.357  1.00  0.00     0.004 C 
ENDBRANCH   9  10
ENDBRANCH   8   9
ENDBRANCH   7   8
ENDBRANCH   1   7
TORSDOF 7
ENDMDL
MODEL 7
REMARK VINA RESULT:    -3.992      9.989     11.320
REMARK INTER + INTRA:          -6.181
REMARK INTER:                  -5.660
REMARK INTRA:                  -0.521
REMARK UNBOUND:                -0.555
REMARK SMILES CCCCCCCCC(=O)[O-]
REMARK SMILES IDX 6 1 7 2 8 3 9 4 10 5 11 6 5 7 4 8 3 9 2 10 1 11
REMARK H PARENT
REMARK Flexibility Score: inf
ROOT
ATOM      1  C   UNL     1      -6.071 -26.995  -1.631  1.00  0.00     0.000 C 
ENDROOT
BRANCH   1   2
ATOM      2  C   UNL     1      -7.344 -26.142  -1.588  1.00  0.00     0.006 C 
BRANCH   2   3
ATOM      3  C   UNL     1      -7.229 -24.936  -2.525  1.00  0.00     0.053 C 
BRANCH   3   4
ATOM      4  C   UNL     1      -8.538 -24.217  -2.617  1.00  0.00     0.041 C 
ATOM      5  O   UNL     1      -8.701 -23.120  -2.023  1.00  0.00    -0.550 OA
ATOM      6  O   UNL     1      -9.561 -24.735  -3.401  1.00  0.00    -0.550 OA
ENDBRANCH   3   4
ENDBRANCH   2   3
ENDBRANCH   1   2
BRANCH   1   7
ATOM      7  C   UNL     1      -5.397 -26.910  -3.006  1.00  0.00     0.000 C 
BRANCH   7   8
ATOM      8  C   UNL     1      -5.178 -28.310  -3.599  1.00  0.00    -0.000 C 
BRANCH   8   9
ATOM      9  C   UNL     1      -6.479 -28.957  -4.109  1.00  0.00    -0.000 C 
BRANCH   9  10
ATOM     10  C   UNL     1      -6.725 -30.392  -3.611  1.00  0.00    -0.003 C 
ATOM     11  C   UNL     1      -7.241 -30.447  -2.173  1.00  0.00     0.004 C 
ENDBRANCH   9  10
ENDBRANCH   8   9
ENDBRANCH   7   8
ENDBRANCH   1   7
TORSDOF 7
ENDMDL
MODEL 8
REMARK VINA RESULT:    -3.985      1.561      2.571
REMARK INTER + INTRA:          -6.172
REMARK INTER:                  -5.820
REMARK INTRA:                  -0.351
REMARK UNBOUND:                -0.555
REMARK SMILES CCCCCCCCC(=O)[O-]
REMARK SMILES IDX 6 1 7 2 8 3 9 4 10 5 11 6 5 7 4 8 3 9 2 10 1 11
REMARK H PARENT
REMARK Flexibility Score: inf
ROOT
ATOM      1  C   UNL     1       0.447 -20.158  -3.450  1.00  0.00     0.000 C 
ENDROOT
BRANCH   1   2
ATOM      2  C   UNL     1       1.598 -20.288  -2.446  1.00  0.00     0.006 C 
BRANCH   2   3
ATOM      3  C   UNL     1       2.491 -19.044  -2.471  1.00  0.00     0.053 C 
BRANCH   3   4
ATOM      4  C   UNL     1       3.920 -19.430  -2.687  1.00  0.00     0.041 C 
ATOM      5  O   UNL     1       4.847 -18.704  -2.242  1.00  0.00    -0.550 OA
ATOM      6  O   UNL     1       4.229 -20.618  -3.338  1.00  0.00    -0.550 OA
ENDBRANCH   3   4
ENDBRANCH   2   3
ENDBRANCH   1   2
BRANCH   1   7
ATOM      7  C   UNL     1       0.909 -20.515  -4.867  1.00  0.00     0.000 C 
BRANCH   7   8
ATOM      8  C   UNL     1       0.128 -21.720  -5.415  1.00  0.00    -0.000 C 
BRANCH   8   9
ATOM      9  C   UNL     1       0.754 -22.311  -6.692  1.00  0.00    -0.000 C 
BRANCH   9  10
ATOM     10  C   UNL     1       1.846 -21.441  -7.338  1.00  0.00    -0.003 C 
ATOM     11  C   UNL     1       1.439 -20.885  -8.703  1.00  0.00     0.004 C 
ENDBRANCH   9  10
ENDBRANCH   8   9
ENDBRANCH   7   8
ENDBRANCH   1   7
TORSDOF 7
ENDMDL
MODEL 9
REMARK VINA RESULT:    -3.980      2.494      4.523
REMARK INTER + INTRA:          -6.164
REMARK INTER:                  -5.603
REMARK INTRA:                  -0.561
REMARK UNBOUND:                -0.555
REMARK SMILES CCCCCCCCC(=O)[O-]
REMARK SMILES IDX 6 1 7 2 8 3 9 4 10 5 11 6 5 7 4 8 3 9 2 10 1 11
REMARK H PARENT
REMARK Flexibility Score: inf
ROOT
ATOM      1  C   UNL     1       3.030 -20.476  -7.240  1.00  0.00     0.000 C 
ENDROOT
BRANCH   1   2
ATOM      2  C   UNL     1       1.576 -20.632  -7.699  1.00  0.00     0.006 C 
BRANCH   2   3
ATOM      3  C   UNL     1       1.197 -22.111  -7.827  1.00  0.00     0.053 C 
BRANCH   3   4
ATOM      4  C   UNL     1       0.489 -22.579  -6.596  1.00  0.00     0.041 C 
ATOM      5  O   UNL     1       0.167 -21.758  -5.698  1.00  0.00    -0.550 OA
ATOM      6  O   UNL     1       0.139 -23.917  -6.461  1.00  0.00    -0.550 OA
ENDBRANCH   3   4
ENDBRANCH   2   3
ENDBRANCH   1   2
BRANCH   1   7
ATOM      7  C   UNL     1       3.214 -19.194  -6.418  1.00  0.00     0.000 C 
BRANCH   7   8
ATOM      8  C   UNL     1       1.857 -18.560  -6.074  1.00  0.00    -0.000 C 
BRANCH   8   9
ATOM      9  C   UNL     1       1.747 -18.143  -4.597  1.00  0.00    -0.000 C 
BRANCH   9  10
ATOM     10  C   UNL     1       0.916 -19.094  -3.717  1.00  0.00    -0.003 C 
ATOM     11  C   UNL     1       1.773 -20.090  -2.936  1.00  0.00     0.004 C 
ENDBRANCH   9  10
ENDBRANCH   8   9
ENDBRANCH   7   8
ENDBRANCH   1   7
TORSDOF 7
ENDMDL
