MODEL 1
REMARK VINA RESULT:    -5.226      0.000      0.000
REMARK INTER + INTRA:          -6.140
REMARK INTER:                  -5.990
REMARK INTRA:                  -0.150
REMARK UNBOUND:                -0.150
REMARK SMILES O=C([O-])C=Cc1ccc(O)cc1
REMARK SMILES IDX 6 1 7 2 12 3 8 4 11 5 9 6 5 7 4 8 2 9 1 10 3 11 10 12
REMARK H PARENT 10 13
REMARK Flexibility Score: inf
ROOT
ATOM      1  C   UNL     1     -32.608  -3.302 -18.199  1.00  0.00    -0.025 A 
ATOM      2  C   UNL     1     -33.308  -3.151 -19.407  1.00  0.00     0.012 A 
ATOM      3  C   UNL     1     -31.247  -2.937 -18.152  1.00  0.00     0.012 A 
ATOM      4  C   UNL     1     -32.675  -2.624 -20.537  1.00  0.00     0.047 A 
ATOM      5  C   UNL     1     -30.616  -2.412 -19.285  1.00  0.00     0.047 A 
ATOM      6  C   UNL     1     -31.329  -2.252 -20.479  1.00  0.00     0.115 A 
ENDROOT
BRANCH   1   7
ATOM      7  C   UNL     1     -33.322  -3.874 -17.031  1.00  0.00     0.010 C 
ATOM      8  C   UNL     1     -34.253  -4.833 -17.122  1.00  0.00     0.025 C 
BRANCH   8   9
ATOM      9  C   UNL     1     -34.928  -5.379 -15.934  1.00  0.00     0.064 C 
ATOM     10  O   UNL     1     -34.749  -4.836 -14.814  1.00  0.00    -0.545 OA
ATOM     11  O   UNL     1     -35.760  -6.490 -16.030  1.00  0.00    -0.545 OA
ENDBRANCH   8   9
ENDBRANCH   1   7
BRANCH   6  12
ATOM     12  O   UNL     1     -30.711  -1.728 -21.612  1.00  0.00    -0.508 OA
ATOM     13  H   UNL     1     -30.433  -2.322 -22.385  1.00  0.00     0.293 HD
ENDBRANCH   6  12
TORSDOF 3
ENDMDL
MODEL 2
REMARK VINA RESULT:    -5.170      2.870      4.137
REMARK INTER + INTRA:          -6.076
REMARK INTER:                  -5.941
REMARK INTRA:                  -0.134
REMARK UNBOUND:                -0.150
REMARK SMILES O=C([O-])C=Cc1ccc(O)cc1
REMARK SMILES IDX 6 1 7 2 12 3 8 4 11 5 9 6 5 7 4 8 2 9 1 10 3 11 10 12
REMARK H PARENT 10 13
REMARK Flexibility Score: inf
ROOT
ATOM      1  C   UNL     1     -35.381  -5.693 -16.761  1.00  0.00    -0.025 A 
ATOM      2  C   UNL     1     -34.001  -5.433 -16.761  1.00  0.00     0.012 A 
ATOM      3  C   UNL     1     -36.135  -5.368 -17.908  1.00  0.00     0.012 A 
ATOM      4  C   UNL     1     -33.380  -4.884 -17.888  1.00  0.00     0.047 A 
ATOM      5  C   UNL     1     -35.510  -4.818 -19.032  1.00  0.00     0.047 A 
ATOM      6  C   UNL     1     -34.131  -4.577 -19.025  1.00  0.00     0.115 A 
ENDROOT
BRANCH   1   7
ATOM      7  C   UNL     1     -35.996  -6.268 -15.539  1.00  0.00     0.010 C 
ATOM      8  C   UNL     1     -36.432  -7.531 -15.446  1.00  0.00     0.025 C 
BRANCH   8   9
ATOM      9  C   UNL     1     -37.025  -8.062 -14.209  1.00  0.00     0.064 C 
ATOM     10  O   UNL     1     -36.377  -7.998 -13.132  1.00  0.00    -0.545 OA
ATOM     11  O   UNL     1     -38.292  -8.635 -14.209  1.00  0.00    -0.545 OA
ENDBRANCH   8   9
ENDBRANCH   1   7
BRANCH   6  12
ATOM     12  O   UNL     1     -33.499  -4.031 -20.140  1.00  0.00    -0.508 OA
ATOM     13  H   UNL     1     -33.450  -3.029 -20.283  1.00  0.00     0.293 HD
ENDBRANCH   6  12
TORSDOF 3
ENDMDL
MODEL 3
REMARK VINA RESULT:    -5.161      4.161      8.607
REMARK INTER + INTRA:          -6.066
REMARK INTER:                  -5.930
REMARK INTRA:                  -0.135
REMARK UNBOUND:                -0.150
REMARK SMILES O=C([O-])C=Cc1ccc(O)cc1
REMARK SMILES IDX 6 1 7 2 12 3 8 4 11 5 9 6 5 7 4 8 2 9 1 10 3 11 10 12
REMARK H PARENT 10 13
REMARK Flexibility Score: inf
ROOT
ATOM      1  C   UNL     1     -37.245  -6.971 -14.046  1.00  0.00    -0.025 A 
ATOM      2  C   UNL     1     -37.248  -8.375 -14.050  1.00  0.00     0.012 A 
ATOM      3  C   UNL     1     -38.438  -6.289 -13.726  1.00  0.00     0.012 A 
ATOM      4  C   UNL     1     -38.406  -9.086 -13.719  1.00  0.00     0.047 A 
ATOM      5  C   UNL     1     -39.594  -7.004 -13.396  1.00  0.00     0.047 A 
ATOM      6  C   UNL     1     -39.580  -8.404 -13.389  1.00  0.00     0.115 A 
ENDROOT
BRANCH   1   7
ATOM      7  C   UNL     1     -35.995  -6.262 -14.414  1.00  0.00     0.010 C 
ATOM      8  C   UNL     1     -35.691  -5.885 -15.663  1.00  0.00     0.025 C 
BRANCH   8   9
ATOM      9  C   UNL     1     -34.444  -5.173 -15.980  1.00  0.00     0.064 C 
ATOM     10  O   UNL     1     -33.851  -5.410 -17.064  1.00  0.00    -0.545 OA
ATOM     11  O   UNL     1     -33.906  -4.241 -15.098  1.00  0.00    -0.545 OA
ENDBRANCH   8   9
ENDBRANCH   1   7
BRANCH   6  12
ATOM     12  O   UNL     1     -40.726  -9.125 -13.061  1.00  0.00    -0.508 OA
ATOM     13  H   UNL     1     -41.598  -8.987 -13.558  1.00  0.00     0.293 HD
ENDBRANCH   6  12
TORSDOF 3
ENDMDL
MODEL 4
REMARK VINA RESULT:    -5.146      3.030      7.184
REMARK INTER + INTRA:          -6.049
REMARK INTER:                  -5.912
REMARK INTRA:                  -0.136
REMARK UNBOUND:                -0.150
REMARK SMILES O=C([O-])C=Cc1ccc(O)cc1
REMARK SMILES IDX 6 1 7 2 12 3 8 4 11 5 9 6 5 7 4 8 2 9 1 10 3 11 10 12
REMARK H PARENT 10 13
REMARK Flexibility Score: inf
ROOT
ATOM      1  C   UNL     1     -35.575  -6.012 -15.282  1.00  0.00    -0.025 A 
ATOM      2  C   UNL     1     -35.688  -6.128 -13.887  1.00  0.00     0.012 A 
ATOM      3  C   UNL     1     -36.270  -6.927 -16.099  1.00  0.00     0.012 A 
ATOM      4  C   UNL     1     -36.496  -7.118 -13.317  1.00  0.00     0.047 A 
ATOM      5  C   UNL     1     -37.076  -7.916 -15.526  1.00  0.00     0.047 A 
ATOM      6  C   UNL     1     -37.193  -8.012 -14.134  1.00  0.00     0.115 A 
ENDROOT
BRANCH   1   7
ATOM      7  C   UNL     1     -34.698  -4.952 -15.837  1.00  0.00     0.010 C 
ATOM      8  C   UNL     1     -33.662  -5.192 -16.652  1.00  0.00     0.025 C 
BRANCH   8   9
ATOM      9  C   UNL     1     -32.825  -4.108 -17.189  1.00  0.00     0.064 C 
ATOM     10  O   UNL     1     -33.313  -3.301 -18.023  1.00  0.00    -0.545 OA
ATOM     11  O   UNL     1     -31.500  -3.960 -16.792  1.00  0.00    -0.545 OA
ENDBRANCH   8   9
ENDBRANCH   1   7
BRANCH   6  12
ATOM     12  O   UNL     1     -37.994  -8.993 -13.553  1.00  0.00    -0.508 OA
ATOM     13  H   UNL     1     -38.183  -9.870 -14.025  1.00  0.00     0.293 HD
ENDBRANCH   6  12
TORSDOF 3
ENDMDL
MODEL 5
REMARK VINA RESULT:    -5.119      4.247      8.584
REMARK INTER + INTRA:          -6.018
REMARK INTER:                  -5.881
REMARK INTRA:                  -0.137
REMARK UNBOUND:                -0.150
REMARK SMILES O=C([O-])C=Cc1ccc(O)cc1
REMARK SMILES IDX 6 1 7 2 12 3 8 4 11 5 9 6 5 7 4 8 2 9 1 10 3 11 10 12
REMARK H PARENT 10 13
REMARK Flexibility Score: inf
ROOT
ATOM      1  C   UNL     1     -37.339  -6.913 -13.980  1.00  0.00    -0.025 A 
ATOM      2  C   UNL     1     -38.533  -6.267 -13.623  1.00  0.00     0.012 A 
ATOM      3  C   UNL     1     -37.314  -8.323 -14.017  1.00  0.00     0.012 A 
ATOM      4  C   UNL     1     -39.684  -7.005 -13.333  1.00  0.00     0.047 A 
ATOM      5  C   UNL     1     -38.467  -9.059 -13.725  1.00  0.00     0.047 A 
ATOM      6  C   UNL     1     -39.655  -8.402 -13.385  1.00  0.00     0.115 A 
ENDROOT
BRANCH   1   7
ATOM      7  C   UNL     1     -36.142  -6.086 -14.270  1.00  0.00     0.010 C 
ATOM      8  C   UNL     1     -35.610  -5.945 -15.491  1.00  0.00     0.025 C 
BRANCH   8   9
ATOM      9  C   UNL     1     -34.428  -5.103 -15.734  1.00  0.00     0.064 C 
ATOM     10  O   UNL     1     -34.094  -4.240 -14.881  1.00  0.00    -0.545 OA
ATOM     11  O   UNL     1     -33.672  -5.245 -16.893  1.00  0.00    -0.545 OA
ENDBRANCH   8   9
ENDBRANCH   1   7
BRANCH   6  12
ATOM     12  O   UNL     1     -40.810  -9.125 -13.094  1.00  0.00    -0.508 OA
ATOM     13  H   UNL     1     -41.692  -8.918 -13.547  1.00  0.00     0.293 HD
ENDBRANCH   6  12
TORSDOF 3
ENDMDL
MODEL 6
REMARK VINA RESULT:    -5.081      3.952      4.427
REMARK INTER + INTRA:          -5.973
REMARK INTER:                  -5.835
REMARK INTRA:                  -0.138
REMARK UNBOUND:                -0.150
REMARK SMILES O=C([O-])C=Cc1ccc(O)cc1
REMARK SMILES IDX 6 1 7 2 12 3 8 4 11 5 9 6 5 7 4 8 2 9 1 10 3 11 10 12
REMARK H PARENT 10 13
REMARK Flexibility Score: inf
ROOT
ATOM      1  C   UNL     1     -31.652  -4.919 -17.127  1.00  0.00    -0.025 A 
ATOM      2  C   UNL     1     -32.906  -5.436 -17.490  1.00  0.00     0.012 A 
ATOM      3  C   UNL     1     -31.310  -3.614 -17.537  1.00  0.00     0.012 A 
ATOM      4  C   UNL     1     -33.810  -4.662 -18.225  1.00  0.00     0.047 A 
ATOM      5  C   UNL     1     -32.216  -2.843 -18.272  1.00  0.00     0.047 A 
ATOM      6  C   UNL     1     -33.468  -3.364 -18.616  1.00  0.00     0.115 A 
ENDROOT
BRANCH   1   7
ATOM      7  C   UNL     1     -30.724  -5.782 -16.355  1.00  0.00     0.010 C 
ATOM      8  C   UNL     1     -29.841  -6.618 -16.918  1.00  0.00     0.025 C 
BRANCH   8   9
ATOM      9  C   UNL     1     -28.931  -7.448 -16.113  1.00  0.00     0.064 C 
ATOM     10  O   UNL     1     -28.994  -7.400 -14.857  1.00  0.00    -0.545 OA
ATOM     11  O   UNL     1     -27.999  -8.284 -16.718  1.00  0.00    -0.545 OA
ENDBRANCH   8   9
ENDBRANCH   1   7
BRANCH   6  12
ATOM     12  O   UNL     1     -34.379  -2.605 -19.347  1.00  0.00    -0.508 OA
ATOM     13  H   UNL     1     -34.190  -2.330 -20.305  1.00  0.00     0.293 HD
ENDBRANCH   6  12
TORSDOF 3
ENDMDL
MODEL 7
REMARK VINA RESULT:    -5.048      3.845      5.614
REMARK INTER + INTRA:          -5.936
REMARK INTER:                  -5.798
REMARK INTRA:                  -0.138
REMARK UNBOUND:                -0.150
REMARK SMILES O=C([O-])C=Cc1ccc(O)cc1
REMARK SMILES IDX 6 1 7 2 12 3 8 4 11 5 9 6 5 7 4 8 2 9 1 10 3 11 10 12
REMARK H PARENT 10 13
REMARK Flexibility Score: inf
ROOT
ATOM      1  C   UNL     1     -35.986  -6.245 -15.038  1.00  0.00    -0.025 A 
ATOM      2  C   UNL     1     -35.605  -6.359 -16.384  1.00  0.00     0.012 A 
ATOM      3  C   UNL     1     -35.417  -5.220 -14.254  1.00  0.00     0.012 A 
ATOM      4  C   UNL     1     -34.697  -5.456 -16.946  1.00  0.00     0.047 A 
ATOM      5  C   UNL     1     -34.508  -4.320 -14.819  1.00  0.00     0.047 A 
ATOM      6  C   UNL     1     -34.148  -4.434 -16.167  1.00  0.00     0.115 A 
ENDROOT
BRANCH   1   7
ATOM      7  C   UNL     1     -36.946  -7.233 -14.485  1.00  0.00     0.010 C 
ATOM      8  C   UNL     1     -38.155  -6.911 -14.008  1.00  0.00     0.025 C 
BRANCH   8   9
ATOM      9  C   UNL     1     -39.080  -7.926 -13.480  1.00  0.00     0.064 C 
ATOM     10  O   UNL     1     -38.706  -9.125 -13.399  1.00  0.00    -0.545 OA
ATOM     11  O   UNL     1     -40.364  -7.583 -13.069  1.00  0.00    -0.545 OA
ENDBRANCH   8   9
ENDBRANCH   1   7
BRANCH   6  12
ATOM     12  O   UNL     1     -33.244  -3.542 -16.740  1.00  0.00    -0.508 OA
ATOM     13  H   UNL     1     -32.255  -3.575 -16.519  1.00  0.00     0.293 HD
ENDBRANCH   6  12
TORSDOF 3
ENDMDL
MODEL 8
REMARK VINA RESULT:    -4.856      3.066      5.781
REMARK INTER + INTRA:          -5.715
REMARK INTER:                  -5.580
REMARK INTRA:                  -0.135
REMARK UNBOUND:                -0.150
REMARK SMILES O=C([O-])C=Cc1ccc(O)cc1
REMARK SMILES IDX 6 1 7 2 12 3 8 4 11 5 9 6 5 7 4 8 2 9 1 10 3 11 10 12
REMARK H PARENT 10 13
REMARK Flexibility Score: inf
ROOT
ATOM      1  C   UNL     1     -34.794  -5.321 -17.180  1.00  0.00    -0.025 A 
ATOM      2  C   UNL     1     -35.755  -4.766 -18.041  1.00  0.00     0.012 A 
ATOM      3  C   UNL     1     -35.229  -6.100 -16.088  1.00  0.00     0.012 A 
ATOM      4  C   UNL     1     -37.118  -5.002 -17.834  1.00  0.00     0.047 A 
ATOM      5  C   UNL     1     -36.593  -6.333 -15.883  1.00  0.00     0.047 A 
ATOM      6  C   UNL     1     -37.540  -5.786 -16.757  1.00  0.00     0.115 A 
ENDROOT
BRANCH   1   7
ATOM      7  C   UNL     1     -33.361  -5.034 -17.436  1.00  0.00     0.010 C 
ATOM      8  C   UNL     1     -32.555  -4.422 -16.558  1.00  0.00     0.025 C 
BRANCH   8   9
ATOM      9  C   UNL     1     -31.136  -4.168 -16.850  1.00  0.00     0.064 C 
ATOM     10  O   UNL     1     -30.757  -3.000 -17.124  1.00  0.00    -0.545 OA
ATOM     11  O   UNL     1     -30.204  -5.201 -16.830  1.00  0.00    -0.545 OA
ENDBRANCH   8   9
ENDBRANCH   1   7
BRANCH   6  12
ATOM     12  O   UNL     1     -38.901  -6.013 -16.563  1.00  0.00    -0.508 OA
ATOM     13  H   UNL     1     -39.276  -6.228 -15.647  1.00  0.00     0.293 HD
ENDBRANCH   6  12
TORSDOF 3
ENDMDL
MODEL 9
REMARK VINA RESULT:    -4.847      1.999      3.217
REMARK INTER + INTRA:          -5.706
REMARK INTER:                  -5.570
REMARK INTRA:                  -0.136
REMARK UNBOUND:                -0.150
REMARK SMILES O=C([O-])C=Cc1ccc(O)cc1
REMARK SMILES IDX 6 1 7 2 12 3 8 4 11 5 9 6 5 7 4 8 2 9 1 10 3 11 10 12
REMARK H PARENT 10 13
REMARK Flexibility Score: inf
ROOT
ATOM      1  C   UNL     1     -34.433  -4.332 -16.565  1.00  0.00    -0.025 A 
ATOM      2  C   UNL     1     -33.091  -4.192 -16.954  1.00  0.00     0.012 A 
ATOM      3  C   UNL     1     -35.440  -3.779 -17.383  1.00  0.00     0.012 A 
ATOM      4  C   UNL     1     -32.759  -3.540 -18.146  1.00  0.00     0.047 A 
ATOM      5  C   UNL     1     -35.104  -3.126 -18.574  1.00  0.00     0.047 A 
ATOM      6  C   UNL     1     -33.764  -3.007 -18.959  1.00  0.00     0.115 A 
ENDROOT
BRANCH   1   7
ATOM      7  C   UNL     1     -34.734  -5.024 -15.287  1.00  0.00     0.010 C 
ATOM      8  C   UNL     1     -35.735  -5.900 -15.131  1.00  0.00     0.025 C 
BRANCH   8   9
ATOM      9  C   UNL     1     -35.989  -6.572 -13.847  1.00  0.00     0.064 C 
ATOM     10  O   UNL     1     -36.440  -7.747 -13.839  1.00  0.00    -0.545 OA
ATOM     11  O   UNL     1     -35.741  -5.928 -12.639  1.00  0.00    -0.545 OA
ENDBRANCH   8   9
ENDBRANCH   1   7
BRANCH   6  12
ATOM     12  O   UNL     1     -33.419  -2.360 -20.143  1.00  0.00    -0.508 OA
ATOM     13  H   UNL     1     -33.918  -1.537 -20.462  1.00  0.00     0.293 HD
ENDBRANCH   6  12
TORSDOF 3
ENDMDL
