MODEL 1
REMARK VINA RESULT:    -3.810      0.000      0.000
REMARK INTER + INTRA:          -3.810
REMARK INTER:                  -3.810
REMARK INTRA:                   0.000
REMARK UNBOUND:                 0.000
REMARK SMILES CC(C)=C1CC[C@@H](C)CC1=O
REMARK SMILES IDX 8 1 7 2 6 3 5 4 4 5 2 6 1 7 3 8 10 9 11 10 9 11
REMARK H PARENT
REMARK Flexibility Score: inf
ROOT
ATOM      1  C   UNL     1     -31.878   0.841  57.532  1.00  0.00     0.008 C 
ATOM      2  C   UNL     1     -33.000   1.865  57.339  1.00  0.00    -0.006 C 
ATOM      3  C   UNL     1     -33.295   2.071  55.845  1.00  0.00     0.008 C 
ATOM      4  C   UNL     1     -34.486   3.016  55.636  1.00  0.00     0.039 C 
ATOM      5  C   UNL     1     -34.325   4.332  56.386  1.00  0.00    -0.006 C 
ATOM      6  C   UNL     1     -34.846   5.495  55.898  1.00  0.00    -0.070 C 
ATOM      7  C   UNL     1     -35.621   5.523  54.599  1.00  0.00     0.039 C 
ATOM      8  C   UNL     1     -34.644   6.816  56.604  1.00  0.00     0.039 C 
ATOM      9  C   UNL     1     -33.673   4.247  57.727  1.00  0.00     0.159 C 
ATOM     10  O   UNL     1     -33.988   5.032  58.660  1.00  0.00    -0.295 OA
ATOM     11  C   UNL     1     -32.623   3.206  57.988  1.00  0.00     0.084 C 
ENDROOT
TORSDOF 0
ENDMDL
MODEL 2
REMARK VINA RESULT:    -3.808     19.663     21.082
REMARK INTER + INTRA:          -3.808
REMARK INTER:                  -3.808
REMARK INTRA:                   0.000
REMARK UNBOUND:                 0.000
REMARK SMILES CC(C)=C1CC[C@@H](C)CC1=O
REMARK SMILES IDX 8 1 7 2 6 3 5 4 4 5 2 6 1 7 3 8 10 9 11 10 9 11
REMARK H PARENT
REMARK Flexibility Score: inf
ROOT
ATOM      1  C   UNL     1     -50.668  -1.715  41.891  1.00  0.00     0.008 C 
ATOM      2  C   UNL     1     -50.474  -1.060  43.262  1.00  0.00    -0.006 C 
ATOM      3  C   UNL     1     -51.812  -0.963  44.011  1.00  0.00     0.008 C 
ATOM      4  C   UNL     1     -51.621  -0.403  45.427  1.00  0.00     0.039 C 
ATOM      5  C   UNL     1     -50.849   0.910  45.436  1.00  0.00    -0.006 C 
ATOM      6  C   UNL     1     -51.091   1.869  46.377  1.00  0.00    -0.070 C 
ATOM      7  C   UNL     1     -52.125   1.660  47.461  1.00  0.00     0.039 C 
ATOM      8  C   UNL     1     -50.373   3.198  46.362  1.00  0.00     0.039 C 
ATOM      9  C   UNL     1     -49.746   1.029  44.437  1.00  0.00     0.159 C 
ATOM     10  O   UNL     1     -48.708   1.699  44.684  1.00  0.00    -0.295 OA
ATOM     11  C   UNL     1     -49.856   0.338  43.108  1.00  0.00     0.084 C 
ENDROOT
TORSDOF 0
ENDMDL
MODEL 3
REMARK VINA RESULT:    -3.780      1.760      4.332
REMARK INTER + INTRA:          -3.780
REMARK INTER:                  -3.780
REMARK INTRA:                   0.000
REMARK UNBOUND:                 0.000
REMARK SMILES CC(C)=C1CC[C@@H](C)CC1=O
REMARK SMILES IDX 8 1 7 2 6 3 5 4 4 5 2 6 1 7 3 8 10 9 11 10 9 11
REMARK H PARENT
REMARK Flexibility Score: inf
ROOT
ATOM      1  C   UNL     1     -32.902   7.512  59.460  1.00  0.00     0.008 C 
ATOM      2  C   UNL     1     -33.193   6.046  59.125  1.00  0.00    -0.006 C 
ATOM      3  C   UNL     1     -31.897   5.220  59.138  1.00  0.00     0.008 C 
ATOM      4  C   UNL     1     -32.181   3.730  58.905  1.00  0.00     0.039 C 
ATOM      5  C   UNL     1     -33.019   3.484  57.658  1.00  0.00    -0.006 C 
ATOM      6  C   UNL     1     -32.869   2.348  56.916  1.00  0.00    -0.070 C 
ATOM      7  C   UNL     1     -31.877   1.277  57.312  1.00  0.00     0.039 C 
ATOM      8  C   UNL     1     -33.653   2.118  55.644  1.00  0.00     0.039 C 
ATOM      9  C   UNL     1     -34.079   4.495  57.370  1.00  0.00     0.159 C 
ATOM     10  O   UNL     1     -35.161   4.168  56.811  1.00  0.00    -0.295 OA
ATOM     11  C   UNL     1     -33.873   5.932  57.752  1.00  0.00     0.084 C 
ENDROOT
TORSDOF 0
ENDMDL
MODEL 4
REMARK VINA RESULT:    -3.721     15.640     16.891
REMARK INTER + INTRA:          -3.721
REMARK INTER:                  -3.721
REMARK INTRA:                   0.000
REMARK UNBOUND:                 0.000
REMARK SMILES CC(C)=C1CC[C@@H](C)CC1=O
REMARK SMILES IDX 8 1 7 2 6 3 5 4 4 5 2 6 1 7 3 8 10 9 11 10 9 11
REMARK H PARENT
REMARK Flexibility Score: inf
ROOT
ATOM      1  C   UNL     1     -32.162  -6.812  42.649  1.00  0.00     0.008 C 
ATOM      2  C   UNL     1     -33.078  -7.610  43.584  1.00  0.00    -0.006 C 
ATOM      3  C   UNL     1     -34.080  -6.679  44.284  1.00  0.00     0.008 C 
ATOM      4  C   UNL     1     -35.072  -7.473  45.145  1.00  0.00     0.039 C 
ATOM      5  C   UNL     1     -34.375  -8.418  46.115  1.00  0.00    -0.006 C 
ATOM      6  C   UNL     1     -34.920  -8.714  47.332  1.00  0.00    -0.070 C 
ATOM      7  C   UNL     1     -36.248  -8.130  47.759  1.00  0.00     0.039 C 
ATOM      8  C   UNL     1     -34.211  -9.605  48.326  1.00  0.00     0.039 C 
ATOM      9  C   UNL     1     -33.136  -9.081  45.610  1.00  0.00     0.159 C 
ATOM     10  O   UNL     1     -32.814 -10.240  45.985  1.00  0.00    -0.295 OA
ATOM     11  C   UNL     1     -32.248  -8.369  44.631  1.00  0.00     0.084 C 
ENDROOT
TORSDOF 0
ENDMDL
MODEL 5
REMARK VINA RESULT:    -3.707     18.566     20.300
REMARK INTER + INTRA:          -3.707
REMARK INTER:                  -3.707
REMARK INTRA:                   0.000
REMARK UNBOUND:                 0.000
REMARK SMILES CC(C)=C1CC[C@@H](C)CC1=O
REMARK SMILES IDX 8 1 7 2 6 3 5 4 4 5 2 6 1 7 3 8 10 9 11 10 9 11
REMARK H PARENT
REMARK Flexibility Score: inf
ROOT
ATOM      1  C   UNL     1     -50.625   4.118  48.313  1.00  0.00     0.008 C 
ATOM      2  C   UNL     1     -50.644   3.197  47.089  1.00  0.00    -0.006 C 
ATOM      3  C   UNL     1     -51.868   2.270  47.128  1.00  0.00     0.008 C 
ATOM      4  C   UNL     1     -51.960   1.411  45.860  1.00  0.00     0.039 C 
ATOM      5  C   UNL     1     -50.667   0.660  45.569  1.00  0.00    -0.006 C 
ATOM      6  C   UNL     1     -50.677  -0.562  44.960  1.00  0.00    -0.070 C 
ATOM      7  C   UNL     1     -51.973  -1.213  44.531  1.00  0.00     0.039 C 
ATOM      8  C   UNL     1     -49.406  -1.342  44.718  1.00  0.00     0.039 C 
ATOM      9  C   UNL     1     -49.401   1.388  45.882  1.00  0.00     0.159 C 
ATOM     10  O   UNL     1     -48.357   1.209  45.201  1.00  0.00    -0.295 OA
ATOM     11  C   UNL     1     -49.356   2.362  47.024  1.00  0.00     0.084 C 
ENDROOT
TORSDOF 0
ENDMDL
MODEL 6
REMARK VINA RESULT:    -3.695     13.904     15.470
REMARK INTER + INTRA:          -3.695
REMARK INTER:                  -3.695
REMARK INTRA:                   0.000
REMARK UNBOUND:                 0.000
REMARK SMILES CC(C)=C1CC[C@@H](C)CC1=O
REMARK SMILES IDX 8 1 7 2 6 3 5 4 4 5 2 6 1 7 3 8 10 9 11 10 9 11
REMARK H PARENT
REMARK Flexibility Score: inf
ROOT
ATOM      1  C   UNL     1     -33.255  -7.940  43.348  1.00  0.00     0.008 C 
ATOM      2  C   UNL     1     -34.226  -7.819  44.526  1.00  0.00    -0.006 C 
ATOM      3  C   UNL     1     -34.449  -6.345  44.896  1.00  0.00     0.008 C 
ATOM      4  C   UNL     1     -35.498  -6.200  46.007  1.00  0.00     0.039 C 
ATOM      5  C   UNL     1     -35.186  -7.066  47.220  1.00  0.00    -0.006 C 
ATOM      6  C   UNL     1     -35.535  -6.674  48.480  1.00  0.00    -0.070 C 
ATOM      7  C   UNL     1     -36.262  -5.370  48.723  1.00  0.00     0.039 C 
ATOM      8  C   UNL     1     -35.181  -7.498  49.697  1.00  0.00     0.039 C 
ATOM      9  C   UNL     1     -34.590  -8.405  46.934  1.00  0.00     0.159 C 
ATOM     10  O   UNL     1     -34.826  -9.398  47.672  1.00  0.00    -0.295 OA
ATOM     11  C   UNL     1     -33.694  -8.591  45.743  1.00  0.00     0.084 C 
ENDROOT
TORSDOF 0
ENDMDL
MODEL 7
REMARK VINA RESULT:    -3.604     19.076     21.033
REMARK INTER + INTRA:          -3.604
REMARK INTER:                  -3.604
REMARK INTRA:                   0.000
REMARK UNBOUND:                 0.000
REMARK SMILES CC(C)=C1CC[C@@H](C)CC1=O
REMARK SMILES IDX 8 1 7 2 6 3 5 4 4 5 2 6 1 7 3 8 10 9 11 10 9 11
REMARK H PARENT
REMARK Flexibility Score: inf
ROOT
ATOM      1  C   UNL     1     -50.625  -1.979  42.995  1.00  0.00     0.008 C 
ATOM      2  C   UNL     1     -50.408  -0.592  43.608  1.00  0.00    -0.006 C 
ATOM      3  C   UNL     1     -49.834  -0.712  45.029  1.00  0.00     0.008 C 
ATOM      4  C   UNL     1     -49.514   0.668  45.620  1.00  0.00     0.039 C 
ATOM      5  C   UNL     1     -50.698   1.623  45.546  1.00  0.00    -0.006 C 
ATOM      6  C   UNL     1     -50.896   2.583  46.497  1.00  0.00    -0.070 C 
ATOM      7  C   UNL     1     -49.937   2.749  47.654  1.00  0.00     0.039 C 
ATOM      8  C   UNL     1     -52.098   3.499  46.466  1.00  0.00     0.039 C 
ATOM      9  C   UNL     1     -51.549   1.520  44.323  1.00  0.00     0.159 C 
ATOM     10  O   UNL     1     -52.125   2.530  43.839  1.00  0.00    -0.295 OA
ATOM     11  C   UNL     1     -51.727   0.195  43.640  1.00  0.00     0.084 C 
ENDROOT
TORSDOF 0
ENDMDL
MODEL 8
REMARK VINA RESULT:    -3.556     20.558     21.704
REMARK INTER + INTRA:          -3.556
REMARK INTER:                  -3.556
REMARK INTRA:                   0.000
REMARK UNBOUND:                 0.000
REMARK SMILES CC(C)=C1CC[C@@H](C)CC1=O
REMARK SMILES IDX 8 1 7 2 6 3 5 4 4 5 2 6 1 7 3 8 10 9 11 10 9 11
REMARK H PARENT
REMARK Flexibility Score: inf
ROOT
ATOM      1  C   UNL     1     -51.504   4.188  46.726  1.00  0.00     0.008 C 
ATOM      2  C   UNL     1     -51.699   2.978  45.806  1.00  0.00    -0.006 C 
ATOM      3  C   UNL     1     -51.036   1.729  46.407  1.00  0.00     0.008 C 
ATOM      4  C   UNL     1     -51.308   0.485  45.550  1.00  0.00     0.039 C 
ATOM      5  C   UNL     1     -50.943   0.695  44.086  1.00  0.00    -0.006 C 
ATOM      6  C   UNL     1     -50.494  -0.337  43.313  1.00  0.00    -0.070 C 
ATOM      7  C   UNL     1     -50.356  -1.735  43.873  1.00  0.00     0.039 C 
ATOM      8  C   UNL     1     -50.074  -0.130  41.875  1.00  0.00     0.039 C 
ATOM      9  C   UNL     1     -51.217   2.053  43.529  1.00  0.00     0.159 C 
ATOM     10  O   UNL     1     -51.540   2.213  42.322  1.00  0.00    -0.295 OA
ATOM     11  C   UNL     1     -51.117   3.262  44.413  1.00  0.00     0.084 C 
ENDROOT
TORSDOF 0
ENDMDL
MODEL 9
REMARK VINA RESULT:    -2.938      1.077      4.020
REMARK INTER + INTRA:          -2.938
REMARK INTER:                  -2.938
REMARK INTRA:                   0.000
REMARK UNBOUND:                 0.000
REMARK SMILES CC(C)=C1CC[C@@H](C)CC1=O
REMARK SMILES IDX 8 1 7 2 6 3 5 4 4 5 2 6 1 7 3 8 10 9 11 10 9 11
REMARK H PARENT
REMARK Flexibility Score: inf
ROOT
ATOM      1  C   UNL     1     -36.430   4.656  54.798  1.00  0.00     0.008 C 
ATOM      2  C   UNL     1     -35.093   4.203  55.395  1.00  0.00    -0.006 C 
ATOM      3  C   UNL     1     -34.923   2.683  55.251  1.00  0.00     0.008 C 
ATOM      4  C   UNL     1     -33.546   2.225  55.751  1.00  0.00     0.039 C 
ATOM      5  C   UNL     1     -33.244   2.717  57.160  1.00  0.00    -0.006 C 
ATOM      6  C   UNL     1     -32.474   1.984  58.017  1.00  0.00    -0.070 C 
ATOM      7  C   UNL     1     -31.875   0.660  57.597  1.00  0.00     0.039 C 
ATOM      8  C   UNL     1     -32.215   2.433  59.437  1.00  0.00     0.039 C 
ATOM      9  C   UNL     1     -33.737   4.085  57.497  1.00  0.00     0.159 C 
ATOM     10  O   UNL     1     -33.110   4.829  58.297  1.00  0.00    -0.295 OA
ATOM     11  C   UNL     1     -35.001   4.603  56.875  1.00  0.00     0.084 C 
ENDROOT
TORSDOF 0
ENDMDL
