MODEL 1
REMARK VINA RESULT:    -5.462      0.000      0.000
REMARK INTER + INTRA:         -17.674
REMARK INTER:                 -14.402
REMARK INTRA:                  -3.272
REMARK UNBOUND:                -3.272
REMARK SMILES CCCCCCCCCCCCCCCCCCCCCCCCCCCCCC(=O)[O-]
REMARK SMILES IDX 16 1 17 2 18 3 19 4 20 5 21 6 22 7 23 8 24 9 25 10 26 11
REMARK SMILES IDX 27 12 28 13 29 14 30 15 31 16 32 17 15 18 14 19 13 20 12 21
REMARK SMILES IDX 11 22 10 23 9 24 8 25 7 26 6 27 5 28 4 29 3 30 2 31 1 32
REMARK H PARENT
REMARK Flexibility Score: inf
ROOT
ATOM      1  C   UNL     1       9.935  21.748  -6.345  1.00  0.00     0.000 C 
ENDROOT
BRANCH   1   2
ATOM      2  C   UNL     1       8.824  21.342  -5.360  1.00  0.00     0.000 C 
BRANCH   2   3
ATOM      3  C   UNL     1       7.966  22.505  -4.823  1.00  0.00     0.000 C 
BRANCH   3   4
ATOM      4  C   UNL     1       6.587  22.662  -5.487  1.00  0.00     0.000 C 
BRANCH   4   5
ATOM      5  C   UNL     1       6.205  24.134  -5.718  1.00  0.00     0.000 C 
BRANCH   5   6
ATOM      6  C   UNL     1       6.902  24.744  -6.945  1.00  0.00     0.000 C 
BRANCH   6   7
ATOM      7  C   UNL     1       7.449  23.683  -7.913  1.00  0.00     0.000 C 
BRANCH   7   8
ATOM      8  C   UNL     1       7.119  24.043  -9.369  1.00  0.00     0.000 C 
BRANCH   8   9
ATOM      9  C   UNL     1       6.593  22.845 -10.174  1.00  0.00     0.000 C 
BRANCH   9  10
ATOM     10  C   UNL     1       5.072  22.902 -10.399  1.00  0.00     0.000 C 
BRANCH  10  11
ATOM     11  C   UNL     1       4.589  24.294 -10.843  1.00  0.00     0.000 C 
BRANCH  11  12
ATOM     12  C   UNL     1       4.595  24.531 -12.365  1.00  0.00     0.000 C 
BRANCH  12  13
ATOM     13  C   UNL     1       3.833  25.799 -12.803  1.00  0.00     0.006 C 
BRANCH  13  14
ATOM     14  C   UNL     1       4.338  27.060 -12.090  1.00  0.00     0.053 C 
BRANCH  14  15
ATOM     15  C   UNL     1       3.371  28.186 -12.279  1.00  0.00     0.041 C 
ATOM     16  O   UNL     1       2.324  28.015 -12.957  1.00  0.00    -0.550 OA
ATOM     17  O   UNL     1       3.591  29.404 -11.647  1.00  0.00    -0.550 OA
ENDBRANCH  14  15
ENDBRANCH  13  14
ENDBRANCH  12  13
ENDBRANCH  11  12
ENDBRANCH  10  11
ENDBRANCH   9  10
ENDBRANCH   8   9
ENDBRANCH   7   8
ENDBRANCH   6   7
ENDBRANCH   5   6
ENDBRANCH   4   5
ENDBRANCH   3   4
ENDBRANCH   2   3
ENDBRANCH   1   2
BRANCH   1  18
ATOM     18  C   UNL     1       9.855  20.994  -7.680  1.00  0.00     0.000 C 
BRANCH  18  19
ATOM     19  C   UNL     1      10.979  21.437  -8.629  1.00  0.00     0.000 C 
BRANCH  19  20
ATOM     20  C   UNL     1      10.531  22.539  -9.604  1.00  0.00     0.000 C 
BRANCH  20  21
ATOM     21  C   UNL     1      11.557  23.681  -9.715  1.00  0.00     0.000 C 
BRANCH  21  22
ATOM     22  C   UNL     1      11.919  24.291  -8.353  1.00  0.00     0.000 C 
BRANCH  22  23
ATOM     23  C   UNL     1      13.360  23.976  -7.932  1.00  0.00     0.000 C 
BRANCH  23  24
ATOM     24  C   UNL     1      13.389  23.044  -6.714  1.00  0.00    -0.000 C 
BRANCH  24  25
ATOM     25  C   UNL     1      14.815  22.627  -6.315  1.00  0.00    -0.000 C 
BRANCH  25  26
ATOM     26  C   UNL     1      15.716  22.267  -7.517  1.00  0.00    -0.000 C 
BRANCH  26  27
ATOM     27  C   UNL     1      17.212  22.469  -7.215  1.00  0.00    -0.000 C 
BRANCH  27  28
ATOM     28  C   UNL     1      17.497  23.817  -6.521  1.00  0.00    -0.000 C 
BRANCH  28  29
ATOM     29  C   UNL     1      17.281  25.049  -7.425  1.00  0.00    -0.000 C 
BRANCH  29  30
ATOM     30  C   UNL     1      16.831  26.325  -6.694  1.00  0.00    -0.000 C 
BRANCH  30  31
ATOM     31  C   UNL     1      15.422  26.205  -6.092  1.00  0.00    -0.003 C 
ATOM     32  C   UNL     1      15.489  26.013  -4.579  1.00  0.00     0.004 C 
ENDBRANCH  30  31
ENDBRANCH  29  30
ENDBRANCH  28  29
ENDBRANCH  27  28
ENDBRANCH  26  27
ENDBRANCH  25  26
ENDBRANCH  24  25
ENDBRANCH  23  24
ENDBRANCH  22  23
ENDBRANCH  21  22
ENDBRANCH  20  21
ENDBRANCH  19  20
ENDBRANCH  18  19
ENDBRANCH   1  18
TORSDOF 28
ENDMDL
MODEL 2
REMARK VINA RESULT:    -5.439      5.189     11.837
REMARK INTER + INTRA:         -17.614
REMARK INTER:                 -14.558
REMARK INTRA:                  -3.056
REMARK UNBOUND:                -3.272
REMARK SMILES CCCCCCCCCCCCCCCCCCCCCCCCCCCCCC(=O)[O-]
REMARK SMILES IDX 16 1 17 2 18 3 19 4 20 5 21 6 22 7 23 8 24 9 25 10 26 11
REMARK SMILES IDX 27 12 28 13 29 14 30 15 31 16 32 17 15 18 14 19 13 20 12 21
REMARK SMILES IDX 11 22 10 23 9 24 8 25 7 26 6 27 5 28 4 29 3 30 2 31 1 32
REMARK H PARENT
REMARK Flexibility Score: inf
ROOT
ATOM      1  C   UNL     1       6.698  22.723  -5.739  1.00  0.00     0.000 C 
ENDROOT
BRANCH   1   2
ATOM      2  C   UNL     1       7.934  22.280  -4.935  1.00  0.00     0.000 C 
BRANCH   2   3
ATOM      3  C   UNL     1       8.942  21.408  -5.710  1.00  0.00     0.000 C 
BRANCH   3   4
ATOM      4  C   UNL     1       9.786  22.156  -6.756  1.00  0.00     0.000 C 
BRANCH   4   5
ATOM      5  C   UNL     1      10.036  21.321  -8.023  1.00  0.00     0.000 C 
BRANCH   5   6
ATOM      6  C   UNL     1      10.036  22.169  -9.305  1.00  0.00     0.000 C 
BRANCH   6   7
ATOM      7  C   UNL     1      10.309  23.658  -9.038  1.00  0.00     0.000 C 
BRANCH   7   8
ATOM      8  C   UNL     1      11.722  24.049  -9.495  1.00  0.00     0.000 C 
BRANCH   8   9
ATOM      9  C   UNL     1      12.635  24.453  -8.328  1.00  0.00     0.000 C 
BRANCH   9  10
ATOM     10  C   UNL     1      13.220  23.239  -7.585  1.00  0.00     0.000 C 
BRANCH  10  11
ATOM     11  C   UNL     1      14.688  23.446  -7.171  1.00  0.00     0.000 C 
BRANCH  11  12
ATOM     12  C   UNL     1      15.019  24.844  -6.616  1.00  0.00     0.000 C 
BRANCH  12  13
ATOM     13  C   UNL     1      15.535  24.833  -5.163  1.00  0.00     0.006 C 
BRANCH  13  14
ATOM     14  C   UNL     1      15.346  26.187  -4.465  1.00  0.00     0.053 C 
BRANCH  14  15
ATOM     15  C   UNL     1      15.310  26.005  -2.980  1.00  0.00     0.041 C 
ATOM     16  O   UNL     1      16.330  26.258  -2.286  1.00  0.00    -0.550 OA
ATOM     17  O   UNL     1      14.130  25.621  -2.357  1.00  0.00    -0.550 OA
ENDBRANCH  14  15
ENDBRANCH  13  14
ENDBRANCH  12  13
ENDBRANCH  11  12
ENDBRANCH  10  11
ENDBRANCH   9  10
ENDBRANCH   8   9
ENDBRANCH   7   8
ENDBRANCH   6   7
ENDBRANCH   5   6
ENDBRANCH   4   5
ENDBRANCH   3   4
ENDBRANCH   2   3
ENDBRANCH   1   2
BRANCH   1  18
ATOM     18  C   UNL     1       6.677  24.231  -6.024  1.00  0.00     0.000 C 
BRANCH  18  19
ATOM     19  C   UNL     1       6.891  24.510  -7.519  1.00  0.00     0.000 C 
BRANCH  19  20
ATOM     20  C   UNL     1       6.798  23.237  -8.378  1.00  0.00     0.000 C 
BRANCH  20  21
ATOM     21  C   UNL     1       6.152  23.499  -9.750  1.00  0.00     0.000 C 
BRANCH  21  22
ATOM     22  C   UNL     1       4.619  23.404  -9.714  1.00  0.00     0.000 C 
BRANCH  22  23
ATOM     23  C   UNL     1       4.125  22.153  -8.976  1.00  0.00     0.000 C 
BRANCH  23  24
ATOM     24  C   UNL     1       3.188  22.528  -7.820  1.00  0.00    -0.000 C 
BRANCH  24  25
ATOM     25  C   UNL     1       1.846  21.776  -7.873  1.00  0.00    -0.000 C 
BRANCH  25  26
ATOM     26  C   UNL     1       0.870  22.170  -6.744  1.00  0.00    -0.000 C 
BRANCH  26  27
ATOM     27  C   UNL     1      -0.592  21.823  -7.079  1.00  0.00    -0.000 C 
BRANCH  27  28
ATOM     28  C   UNL     1      -0.868  21.835  -8.597  1.00  0.00    -0.000 C 
BRANCH  28  29
ATOM     29  C   UNL     1      -1.848  20.739  -9.067  1.00  0.00    -0.000 C 
BRANCH  29  30
ATOM     30  C   UNL     1      -1.302  19.796 -10.153  1.00  0.00    -0.000 C 
BRANCH  30  31
ATOM     31  C   UNL     1      -1.201  18.336  -9.681  1.00  0.00    -0.003 C 
ATOM     32  C   UNL     1      -0.859  18.265  -8.195  1.00  0.00     0.004 C 
ENDBRANCH  30  31
ENDBRANCH  29  30
ENDBRANCH  28  29
ENDBRANCH  27  28
ENDBRANCH  26  27
ENDBRANCH  25  26
ENDBRANCH  24  25
ENDBRANCH  23  24
ENDBRANCH  22  23
ENDBRANCH  21  22
ENDBRANCH  20  21
ENDBRANCH  19  20
ENDBRANCH  18  19
ENDBRANCH   1  18
TORSDOF 28
ENDMDL
MODEL 3
REMARK VINA RESULT:    -5.405      4.373     10.679
REMARK INTER + INTRA:         -17.525
REMARK INTER:                 -13.718
REMARK INTRA:                  -3.807
REMARK UNBOUND:                -3.272
REMARK SMILES CCCCCCCCCCCCCCCCCCCCCCCCCCCCCC(=O)[O-]
REMARK SMILES IDX 16 1 17 2 18 3 19 4 20 5 21 6 22 7 23 8 24 9 25 10 26 11
REMARK SMILES IDX 27 12 28 13 29 14 30 15 31 16 32 17 15 18 14 19 13 20 12 21
REMARK SMILES IDX 11 22 10 23 9 24 8 25 7 26 6 27 5 28 4 29 3 30 2 31 1 32
REMARK H PARENT
REMARK Flexibility Score: inf
ROOT
ATOM      1  C   UNL     1      12.742  22.167  -7.212  1.00  0.00     0.000 C 
ENDROOT
BRANCH   1   2
ATOM      2  C   UNL     1      12.703  23.522  -7.940  1.00  0.00     0.000 C 
BRANCH   2   3
ATOM      3  C   UNL     1      13.828  24.506  -7.558  1.00  0.00     0.000 C 
BRANCH   3   4
ATOM      4  C   UNL     1      15.059  23.867  -6.893  1.00  0.00     0.000 C 
BRANCH   4   5
ATOM      5  C   UNL     1      15.197  24.249  -5.410  1.00  0.00     0.000 C 
BRANCH   5   6
ATOM      6  C   UNL     1      16.101  23.282  -4.629  1.00  0.00     0.000 C 
BRANCH   6   7
ATOM      7  C   UNL     1      17.436  23.917  -4.207  1.00  0.00     0.000 C 
BRANCH   7   8
ATOM      8  C   UNL     1      17.362  25.450  -4.274  1.00  0.00     0.000 C 
BRANCH   8   9
ATOM      9  C   UNL     1      17.676  26.120  -2.927  1.00  0.00     0.000 C 
BRANCH   9  10
ATOM     10  C   UNL     1      17.136  27.557  -2.839  1.00  0.00     0.000 C 
BRANCH  10  11
ATOM     11  C   UNL     1      15.622  27.608  -2.563  1.00  0.00     0.000 C 
BRANCH  11  12
ATOM     12  C   UNL     1      15.113  26.584  -1.530  1.00  0.00     0.000 C 
BRANCH  12  13
ATOM     13  C   UNL     1      14.241  25.466  -2.136  1.00  0.00     0.006 C 
BRANCH  13  14
ATOM     14  C   UNL     1      14.438  24.120  -1.425  1.00  0.00     0.053 C 
BRANCH  14  15
ATOM     15  C   UNL     1      13.314  23.189  -1.758  1.00  0.00     0.041 C 
ATOM     16  O   UNL     1      12.958  23.028  -2.954  1.00  0.00    -0.550 OA
ATOM     17  O   UNL     1      12.708  22.446  -0.752  1.00  0.00    -0.550 OA
ENDBRANCH  14  15
ENDBRANCH  13  14
ENDBRANCH  12  13
ENDBRANCH  11  12
ENDBRANCH  10  11
ENDBRANCH   9  10
ENDBRANCH   8   9
ENDBRANCH   7   8
ENDBRANCH   6   7
ENDBRANCH   5   6
ENDBRANCH   4   5
ENDBRANCH   3   4
ENDBRANCH   2   3
ENDBRANCH   1   2
BRANCH   1  18
ATOM     18  C   UNL     1      12.404  20.984  -8.130  1.00  0.00     0.000 C 
BRANCH  18  19
ATOM     19  C   UNL     1      11.266  20.139  -7.540  1.00  0.00     0.000 C 
BRANCH  19  20
ATOM     20  C   UNL     1      10.206  20.992  -6.822  1.00  0.00     0.000 C 
BRANCH  20  21
ATOM     21  C   UNL     1       9.059  21.416  -7.757  1.00  0.00     0.000 C 
BRANCH  21  22
ATOM     22  C   UNL     1       9.162  22.884  -8.197  1.00  0.00     0.000 C 
BRANCH  22  23
ATOM     23  C   UNL     1       8.952  23.061  -9.707  1.00  0.00     0.000 C 
BRANCH  23  24
ATOM     24  C   UNL     1       7.739  22.259 -10.194  1.00  0.00    -0.000 C 
BRANCH  24  25
ATOM     25  C   UNL     1       6.450  23.098 -10.245  1.00  0.00    -0.000 C 
BRANCH  25  26
ATOM     26  C   UNL     1       5.163  22.272 -10.036  1.00  0.00    -0.000 C 
BRANCH  26  27
ATOM     27  C   UNL     1       4.467  22.591  -8.700  1.00  0.00    -0.000 C 
BRANCH  27  28
ATOM     28  C   UNL     1       5.319  23.502  -7.793  1.00  0.00    -0.000 C 
BRANCH  28  29
ATOM     29  C   UNL     1       5.529  22.952  -6.368  1.00  0.00    -0.000 C 
BRANCH  29  30
ATOM     30  C   UNL     1       6.674  23.607  -5.575  1.00  0.00    -0.000 C 
BRANCH  30  31
ATOM     31  C   UNL     1       6.717  25.135  -5.741  1.00  0.00    -0.003 C 
ATOM     32  C   UNL     1       5.660  25.810  -4.870  1.00  0.00     0.004 C 
ENDBRANCH  30  31
ENDBRANCH  29  30
ENDBRANCH  28  29
ENDBRANCH  27  28
ENDBRANCH  26  27
ENDBRANCH  25  26
ENDBRANCH  24  25
ENDBRANCH  23  24
ENDBRANCH  22  23
ENDBRANCH  21  22
ENDBRANCH  20  21
ENDBRANCH  19  20
ENDBRANCH  18  19
ENDBRANCH   1  18
TORSDOF 28
ENDMDL
MODEL 4
REMARK VINA RESULT:    -5.355      4.219     10.151
REMARK INTER + INTRA:         -17.391
REMARK INTER:                 -14.180
REMARK INTRA:                  -3.212
REMARK UNBOUND:                -3.272
REMARK SMILES CCCCCCCCCCCCCCCCCCCCCCCCCCCCCC(=O)[O-]
REMARK SMILES IDX 16 1 17 2 18 3 19 4 20 5 21 6 22 7 23 8 24 9 25 10 26 11
REMARK SMILES IDX 27 12 28 13 29 14 30 15 31 16 32 17 15 18 14 19 13 20 12 21
REMARK SMILES IDX 11 22 10 23 9 24 8 25 7 26 6 27 5 28 4 29 3 30 2 31 1 32
REMARK H PARENT
REMARK Flexibility Score: inf
ROOT
ATOM      1  C   UNL     1       9.584  23.001  -9.636  1.00  0.00     0.000 C 
ENDROOT
BRANCH   1   2
ATOM      2  C   UNL     1      10.908  23.201 -10.395  1.00  0.00     0.000 C 
BRANCH   2   3
ATOM      3  C   UNL     1      11.777  24.376  -9.904  1.00  0.00     0.000 C 
BRANCH   3   4
ATOM      4  C   UNL     1      11.997  24.435  -8.382  1.00  0.00     0.000 C 
BRANCH   4   5
ATOM      5  C   UNL     1      12.966  23.352  -7.880  1.00  0.00     0.000 C 
BRANCH   5   6
ATOM      6  C   UNL     1      14.236  23.939  -7.244  1.00  0.00     0.000 C 
BRANCH   6   7
ATOM      7  C   UNL     1      15.037  22.903  -6.440  1.00  0.00     0.000 C 
BRANCH   7   8
ATOM      8  C   UNL     1      16.510  22.888  -6.873  1.00  0.00     0.000 C 
BRANCH   8   9
ATOM      9  C   UNL     1      16.985  24.244  -7.417  1.00  0.00     0.000 C 
BRANCH   9  10
ATOM     10  C   UNL     1      17.799  25.045  -6.386  1.00  0.00     0.000 C 
BRANCH  10  11
ATOM     11  C   UNL     1      17.026  26.253  -5.826  1.00  0.00     0.000 C 
BRANCH  11  12
ATOM     12  C   UNL     1      16.664  26.160  -4.332  1.00  0.00     0.000 C 
BRANCH  12  13
ATOM     13  C   UNL     1      15.151  26.253  -4.048  1.00  0.00     0.006 C 
BRANCH  13  14
ATOM     14  C   UNL     1      14.791  25.782  -2.632  1.00  0.00     0.053 C 
BRANCH  14  15
ATOM     15  C   UNL     1      14.525  24.310  -2.628  1.00  0.00     0.041 C 
ATOM     16  O   UNL     1      13.414  23.868  -2.233  1.00  0.00    -0.550 OA
ATOM     17  O   UNL     1      15.479  23.431  -3.124  1.00  0.00    -0.550 OA
ENDBRANCH  14  15
ENDBRANCH  13  14
ENDBRANCH  12  13
ENDBRANCH  11  12
ENDBRANCH  10  11
ENDBRANCH   9  10
ENDBRANCH   8   9
ENDBRANCH   7   8
ENDBRANCH   6   7
ENDBRANCH   5   6
ENDBRANCH   4   5
ENDBRANCH   3   4
ENDBRANCH   2   3
ENDBRANCH   1   2
BRANCH   1  18
ATOM     18  C   UNL     1       8.455  22.471 -10.530  1.00  0.00     0.000 C 
BRANCH  18  19
ATOM     19  C   UNL     1       7.096  22.587  -9.824  1.00  0.00     0.000 C 
BRANCH  19  20
ATOM     20  C   UNL     1       6.030  23.268 -10.699  1.00  0.00     0.000 C 
BRANCH  20  21
ATOM     21  C   UNL     1       4.665  23.366  -9.997  1.00  0.00     0.000 C 
BRANCH  21  22
ATOM     22  C   UNL     1       4.402  22.193  -9.041  1.00  0.00     0.000 C 
BRANCH  22  23
ATOM     23  C   UNL     1       3.141  22.398  -8.190  1.00  0.00     0.000 C 
BRANCH  23  24
ATOM     24  C   UNL     1       3.501  22.831  -6.763  1.00  0.00    -0.000 C 
BRANCH  24  25
ATOM     25  C   UNL     1       5.018  22.840  -6.508  1.00  0.00    -0.000 C 
BRANCH  25  26
ATOM     26  C   UNL     1       5.483  23.975  -5.570  1.00  0.00    -0.000 C 
BRANCH  26  27
ATOM     27  C   UNL     1       6.997  24.240  -5.668  1.00  0.00    -0.000 C 
BRANCH  27  28
ATOM     28  C   UNL     1       7.713  23.235  -6.594  1.00  0.00    -0.000 C 
BRANCH  28  29
ATOM     29  C   UNL     1       8.419  22.084  -5.847  1.00  0.00    -0.000 C 
BRANCH  29  30
ATOM     30  C   UNL     1       9.836  21.752  -6.346  1.00  0.00    -0.000 C 
BRANCH  30  31
ATOM     31  C   UNL     1       9.918  20.388  -7.049  1.00  0.00    -0.003 C 
ATOM     32  C   UNL     1      11.239  20.238  -7.800  1.00  0.00     0.004 C 
ENDBRANCH  30  31
ENDBRANCH  29  30
ENDBRANCH  28  29
ENDBRANCH  27  28
ENDBRANCH  26  27
ENDBRANCH  25  26
ENDBRANCH  24  25
ENDBRANCH  23  24
ENDBRANCH  22  23
ENDBRANCH  21  22
ENDBRANCH  20  21
ENDBRANCH  19  20
ENDBRANCH  18  19
ENDBRANCH   1  18
TORSDOF 28
ENDMDL
MODEL 5
REMARK VINA RESULT:    -5.347      4.466     10.395
REMARK INTER + INTRA:         -17.372
REMARK INTER:                 -13.934
REMARK INTRA:                  -3.438
REMARK UNBOUND:                -3.272
REMARK SMILES CCCCCCCCCCCCCCCCCCCCCCCCCCCCCC(=O)[O-]
REMARK SMILES IDX 16 1 17 2 18 3 19 4 20 5 21 6 22 7 23 8 24 9 25 10 26 11
REMARK SMILES IDX 27 12 28 13 29 14 30 15 31 16 32 17 15 18 14 19 13 20 12 21
REMARK SMILES IDX 11 22 10 23 9 24 8 25 7 26 6 27 5 28 4 29 3 30 2 31 1 32
REMARK H PARENT
REMARK Flexibility Score: inf
ROOT
ATOM      1  C   UNL     1      10.925  24.172  -9.157  1.00  0.00     0.000 C 
ENDROOT
BRANCH   1   2
ATOM      2  C   UNL     1      12.451  24.350  -9.241  1.00  0.00     0.000 C 
BRANCH   2   3
ATOM      3  C   UNL     1      13.184  24.387  -7.885  1.00  0.00     0.000 C 
BRANCH   3   4
ATOM      4  C   UNL     1      13.211  23.054  -7.118  1.00  0.00     0.000 C 
BRANCH   4   5
ATOM      5  C   UNL     1      14.572  22.344  -7.210  1.00  0.00     0.000 C 
BRANCH   5   6
ATOM      6  C   UNL     1      15.576  22.845  -6.160  1.00  0.00     0.000 C 
BRANCH   6   7
ATOM      7  C   UNL     1      16.872  23.390  -6.782  1.00  0.00     0.000 C 
BRANCH   7   8
ATOM      8  C   UNL     1      16.711  24.862  -7.190  1.00  0.00     0.000 C 
BRANCH   8   9
ATOM      9  C   UNL     1      16.884  25.829  -6.008  1.00  0.00     0.000 C 
BRANCH   9  10
ATOM     10  C   UNL     1      15.540  26.311  -5.434  1.00  0.00     0.000 C 
BRANCH  10  11
ATOM     11  C   UNL     1      15.385  25.993  -3.936  1.00  0.00     0.000 C 
BRANCH  11  12
ATOM     12  C   UNL     1      15.008  27.195  -3.050  1.00  0.00     0.000 C 
BRANCH  12  13
ATOM     13  C   UNL     1      15.020  26.886  -1.539  1.00  0.00     0.006 C 
BRANCH  13  14
ATOM     14  C   UNL     1      14.533  25.464  -1.229  1.00  0.00     0.053 C 
BRANCH  14  15
ATOM     15  C   UNL     1      13.901  25.417   0.127  1.00  0.00     0.041 C 
ATOM     16  O   UNL     1      12.771  25.938   0.317  1.00  0.00    -0.550 OA
ATOM     17  O   UNL     1      14.529  24.737   1.162  1.00  0.00    -0.550 OA
ENDBRANCH  14  15
ENDBRANCH  13  14
ENDBRANCH  12  13
ENDBRANCH  11  12
ENDBRANCH  10  11
ENDBRANCH   9  10
ENDBRANCH   8   9
ENDBRANCH   7   8
ENDBRANCH   6   7
ENDBRANCH   5   6
ENDBRANCH   4   5
ENDBRANCH   3   4
ENDBRANCH   2   3
ENDBRANCH   1   2
BRANCH   1  18
ATOM     18  C   UNL     1      10.424  22.932  -9.911  1.00  0.00     0.000 C 
BRANCH  18  19
ATOM     19  C   UNL     1       8.889  22.886  -9.934  1.00  0.00     0.000 C 
BRANCH  19  20
ATOM     20  C   UNL     1       8.258  23.571  -8.710  1.00  0.00     0.000 C 
BRANCH  20  21
ATOM     21  C   UNL     1       6.912  24.241  -9.039  1.00  0.00     0.000 C 
BRANCH  21  22
ATOM     22  C   UNL     1       5.999  23.352  -9.899  1.00  0.00     0.000 C 
BRANCH  22  23
ATOM     23  C   UNL     1       4.568  23.274  -9.350  1.00  0.00     0.000 C 
BRANCH  23  24
ATOM     24  C   UNL     1       4.488  22.321  -8.150  1.00  0.00    -0.000 C 
BRANCH  24  25
ATOM     25  C   UNL     1       4.116  23.039  -6.841  1.00  0.00    -0.000 C 
BRANCH  25  26
ATOM     26  C   UNL     1       5.336  23.562  -6.052  1.00  0.00    -0.000 C 
BRANCH  26  27
ATOM     27  C   UNL     1       6.220  22.425  -5.510  1.00  0.00    -0.000 C 
BRANCH  27  28
ATOM     28  C   UNL     1       7.720  22.788  -5.519  1.00  0.00    -0.000 C 
BRANCH  28  29
ATOM     29  C   UNL     1       8.662  21.575  -5.377  1.00  0.00    -0.000 C 
BRANCH  29  30
ATOM     30  C   UNL     1       9.888  21.586  -6.305  1.00  0.00    -0.000 C 
BRANCH  30  31
ATOM     31  C   UNL     1       9.890  20.421  -7.309  1.00  0.00    -0.003 C 
ATOM     32  C   UNL     1      11.313  20.063  -7.729  1.00  0.00     0.004 C 
ENDBRANCH  30  31
ENDBRANCH  29  30
ENDBRANCH  28  29
ENDBRANCH  27  28
ENDBRANCH  26  27
ENDBRANCH  25  26
ENDBRANCH  24  25
ENDBRANCH  23  24
ENDBRANCH  22  23
ENDBRANCH  21  22
ENDBRANCH  20  21
ENDBRANCH  19  20
ENDBRANCH  18  19
ENDBRANCH   1  18
TORSDOF 28
ENDMDL
MODEL 6
REMARK VINA RESULT:    -5.299      4.916     11.150
REMARK INTER + INTRA:         -17.245
REMARK INTER:                 -14.217
REMARK INTRA:                  -3.028
REMARK UNBOUND:                -3.272
REMARK SMILES CCCCCCCCCCCCCCCCCCCCCCCCCCCCCC(=O)[O-]
REMARK SMILES IDX 16 1 17 2 18 3 19 4 20 5 21 6 22 7 23 8 24 9 25 10 26 11
REMARK SMILES IDX 27 12 28 13 29 14 30 15 31 16 32 17 15 18 14 19 13 20 12 21
REMARK SMILES IDX 11 22 10 23 9 24 8 25 7 26 6 27 5 28 4 29 3 30 2 31 1 32
REMARK H PARENT
REMARK Flexibility Score: inf
ROOT
ATOM      1  C   UNL     1       9.732  21.754  -5.942  1.00  0.00     0.000 C 
ENDROOT
BRANCH   1   2
ATOM      2  C   UNL     1       9.982  20.857  -7.168  1.00  0.00     0.000 C 
BRANCH   2   3
ATOM      3  C   UNL     1       9.785  21.543  -8.534  1.00  0.00     0.000 C 
BRANCH   3   4
ATOM      4  C   UNL     1      11.073  22.057  -9.200  1.00  0.00     0.000 C 
BRANCH   4   5
ATOM      5  C   UNL     1      11.014  23.560  -9.522  1.00  0.00     0.000 C 
BRANCH   5   6
ATOM      6  C   UNL     1      12.164  24.351  -8.877  1.00  0.00     0.000 C 
BRANCH   6   7
ATOM      7  C   UNL     1      12.670  23.717  -7.572  1.00  0.00     0.000 C 
BRANCH   7   8
ATOM      8  C   UNL     1      14.204  23.726  -7.514  1.00  0.00     0.000 C 
BRANCH   8   9
ATOM      9  C   UNL     1      14.772  22.636  -6.592  1.00  0.00     0.000 C 
BRANCH   9  10
ATOM     10  C   UNL     1      15.105  23.162  -5.185  1.00  0.00     0.000 C 
BRANCH  10  11
ATOM     11  C   UNL     1      14.024  22.810  -4.148  1.00  0.00     0.000 C 
BRANCH  11  12
ATOM     12  C   UNL     1      13.907  23.794  -2.968  1.00  0.00     0.000 C 
BRANCH  12  13
ATOM     13  C   UNL     1      15.242  24.461  -2.577  1.00  0.00     0.006 C 
BRANCH  13  14
ATOM     14  C   UNL     1      15.114  25.984  -2.434  1.00  0.00     0.053 C 
BRANCH  14  15
ATOM     15  C   UNL     1      15.487  26.408  -1.048  1.00  0.00     0.041 C 
ATOM     16  O   UNL     1      15.090  25.745  -0.054  1.00  0.00    -0.550 OA
ATOM     17  O   UNL     1      16.331  27.495  -0.859  1.00  0.00    -0.550 OA
ENDBRANCH  14  15
ENDBRANCH  13  14
ENDBRANCH  12  13
ENDBRANCH  11  12
ENDBRANCH  10  11
ENDBRANCH   9  10
ENDBRANCH   8   9
ENDBRANCH   7   8
ENDBRANCH   6   7
ENDBRANCH   5   6
ENDBRANCH   4   5
ENDBRANCH   3   4
ENDBRANCH   2   3
ENDBRANCH   1   2
BRANCH   1  18
ATOM     18  C   UNL     1       8.425  21.418  -5.211  1.00  0.00     0.000 C 
BRANCH  18  19
ATOM     19  C   UNL     1       7.611  22.690  -4.929  1.00  0.00     0.000 C 
BRANCH  19  20
ATOM     20  C   UNL     1       6.242  22.684  -5.631  1.00  0.00     0.000 C 
BRANCH  20  21
ATOM     21  C   UNL     1       5.973  23.984  -6.409  1.00  0.00     0.000 C 
BRANCH  21  22
ATOM     22  C   UNL     1       7.248  24.590  -7.014  1.00  0.00     0.000 C 
BRANCH  22  23
ATOM     23  C   UNL     1       7.185  24.685  -8.545  1.00  0.00     0.000 C 
BRANCH  23  24
ATOM     24  C   UNL     1       7.235  23.294  -9.188  1.00  0.00    -0.000 C 
BRANCH  24  25
ATOM     25  C   UNL     1       6.121  23.076 -10.226  1.00  0.00    -0.000 C 
BRANCH  25  26
ATOM     26  C   UNL     1       4.982  22.159  -9.730  1.00  0.00    -0.000 C 
BRANCH  26  27
ATOM     27  C   UNL     1       3.848  22.943  -9.044  1.00  0.00    -0.000 C 
BRANCH  27  28
ATOM     28  C   UNL     1       3.169  22.137  -7.918  1.00  0.00    -0.000 C 
BRANCH  28  29
ATOM     29  C   UNL     1       1.679  21.831  -8.172  1.00  0.00    -0.000 C 
BRANCH  29  30
ATOM     30  C   UNL     1       1.061  20.770  -7.246  1.00  0.00    -0.000 C 
BRANCH  30  31
ATOM     31  C   UNL     1       0.197  19.747  -8.002  1.00  0.00    -0.003 C 
ATOM     32  C   UNL     1       1.066  18.787  -8.809  1.00  0.00     0.004 C 
ENDBRANCH  30  31
ENDBRANCH  29  30
ENDBRANCH  28  29
ENDBRANCH  27  28
ENDBRANCH  26  27
ENDBRANCH  25  26
ENDBRANCH  24  25
ENDBRANCH  23  24
ENDBRANCH  22  23
ENDBRANCH  21  22
ENDBRANCH  20  21
ENDBRANCH  19  20
ENDBRANCH  18  19
ENDBRANCH   1  18
TORSDOF 28
ENDMDL
MODEL 7
REMARK VINA RESULT:    -5.265      4.027      5.344
REMARK INTER + INTRA:         -17.155
REMARK INTER:                 -14.597
REMARK INTRA:                  -2.558
REMARK UNBOUND:                -3.272
REMARK SMILES CCCCCCCCCCCCCCCCCCCCCCCCCCCCCC(=O)[O-]
REMARK SMILES IDX 16 1 17 2 18 3 19 4 20 5 21 6 22 7 23 8 24 9 25 10 26 11
REMARK SMILES IDX 27 12 28 13 29 14 30 15 31 16 32 17 15 18 14 19 13 20 12 21
REMARK SMILES IDX 11 22 10 23 9 24 8 25 7 26 6 27 5 28 4 29 3 30 2 31 1 32
REMARK H PARENT
REMARK Flexibility Score: inf
ROOT
ATOM      1  C   UNL     1       6.876  24.426  -6.514  1.00  0.00     0.000 C 
ENDROOT
BRANCH   1   2
ATOM      2  C   UNL     1       7.061  24.649  -8.026  1.00  0.00     0.000 C 
BRANCH   2   3
ATOM      3  C   UNL     1       7.590  23.431  -8.810  1.00  0.00     0.000 C 
BRANCH   3   4
ATOM      4  C   UNL     1       6.560  22.739  -9.719  1.00  0.00     0.000 C 
BRANCH   4   5
ATOM      5  C   UNL     1       5.148  23.331  -9.573  1.00  0.00     0.000 C 
BRANCH   5   6
ATOM      6  C   UNL     1       4.115  22.296  -9.101  1.00  0.00     0.000 C 
BRANCH   6   7
ATOM      7  C   UNL     1       3.691  22.498  -7.637  1.00  0.00     0.000 C 
BRANCH   7   8
ATOM      8  C   UNL     1       2.178  22.293  -7.468  1.00  0.00     0.000 C 
BRANCH   8   9
ATOM      9  C   UNL     1       1.669  21.019  -8.160  1.00  0.00     0.000 C 
BRANCH   9  10
ATOM     10  C   UNL     1       0.800  20.149  -7.235  1.00  0.00     0.000 C 
BRANCH  10  11
ATOM     11  C   UNL     1       0.537  18.746  -7.812  1.00  0.00     0.000 C 
BRANCH  11  12
ATOM     12  C   UNL     1       0.013  18.725  -9.261  1.00  0.00     0.000 C 
BRANCH  12  13
ATOM     13  C   UNL     1      -1.508  18.953  -9.378  1.00  0.00     0.006 C 
BRANCH  13  14
ATOM     14  C   UNL     1      -1.900  19.611 -10.708  1.00  0.00     0.053 C 
BRANCH  14  15
ATOM     15  C   UNL     1      -1.789  21.100 -10.602  1.00  0.00     0.041 C 
ATOM     16  O   UNL     1      -1.842  21.815 -11.637  1.00  0.00    -0.550 OA
ATOM     17  O   UNL     1      -1.697  21.702  -9.353  1.00  0.00    -0.550 OA
ENDBRANCH  14  15
ENDBRANCH  13  14
ENDBRANCH  12  13
ENDBRANCH  11  12
ENDBRANCH  10  11
ENDBRANCH   9  10
ENDBRANCH   8   9
ENDBRANCH   7   8
ENDBRANCH   6   7
ENDBRANCH   5   6
ENDBRANCH   4   5
ENDBRANCH   3   4
ENDBRANCH   2   3
ENDBRANCH   1   2
BRANCH   1  18
ATOM     18  C   UNL     1       6.855  22.941  -6.126  1.00  0.00     0.000 C 
BRANCH  18  19
ATOM     19  C   UNL     1       8.065  22.586  -5.249  1.00  0.00     0.000 C 
BRANCH  19  20
ATOM     20  C   UNL     1       8.934  21.473  -5.861  1.00  0.00     0.000 C 
BRANCH  20  21
ATOM     21  C   UNL     1       9.896  22.003  -6.939  1.00  0.00     0.000 C 
BRANCH  21  22
ATOM     22  C   UNL     1      10.654  20.880  -7.664  1.00  0.00     0.000 C 
BRANCH  22  23
ATOM     23  C   UNL     1      12.167  21.132  -7.717  1.00  0.00     0.000 C 
BRANCH  23  24
ATOM     24  C   UNL     1      12.510  22.544  -7.227  1.00  0.00    -0.000 C 
BRANCH  24  25
ATOM     25  C   UNL     1      13.776  22.582  -6.353  1.00  0.00    -0.000 C 
BRANCH  25  26
ATOM     26  C   UNL     1      15.090  22.526  -7.162  1.00  0.00    -0.000 C 
BRANCH  26  27
ATOM     27  C   UNL     1      16.183  23.439  -6.576  1.00  0.00    -0.000 C 
BRANCH  27  28
ATOM     28  C   UNL     1      16.830  22.846  -5.307  1.00  0.00    -0.000 C 
BRANCH  28  29
ATOM     29  C   UNL     1      17.071  23.876  -4.184  1.00  0.00    -0.000 C 
BRANCH  29  30
ATOM     30  C   UNL     1      16.193  23.697  -2.933  1.00  0.00    -0.000 C 
BRANCH  30  31
ATOM     31  C   UNL     1      14.815  24.365  -3.069  1.00  0.00    -0.003 C 
ATOM     32  C   UNL     1      13.694  23.339  -2.919  1.00  0.00     0.004 C 
ENDBRANCH  30  31
ENDBRANCH  29  30
ENDBRANCH  28  29
ENDBRANCH  27  28
ENDBRANCH  26  27
ENDBRANCH  25  26
ENDBRANCH  24  25
ENDBRANCH  23  24
ENDBRANCH  22  23
ENDBRANCH  21  22
ENDBRANCH  20  21
ENDBRANCH  19  20
ENDBRANCH  18  19
ENDBRANCH   1  18
TORSDOF 28
ENDMDL
MODEL 8
REMARK VINA RESULT:    -5.258      3.595      6.123
REMARK INTER + INTRA:         -17.136
REMARK INTER:                 -13.077
REMARK INTRA:                  -4.059
REMARK UNBOUND:                -3.272
REMARK SMILES CCCCCCCCCCCCCCCCCCCCCCCCCCCCCC(=O)[O-]
REMARK SMILES IDX 16 1 17 2 18 3 19 4 20 5 21 6 22 7 23 8 24 9 25 10 26 11
REMARK SMILES IDX 27 12 28 13 29 14 30 15 31 16 32 17 15 18 14 19 13 20 12 21
REMARK SMILES IDX 11 22 10 23 9 24 8 25 7 26 6 27 5 28 4 29 3 30 2 31 1 32
REMARK H PARENT
REMARK Flexibility Score: inf
ROOT
ATOM      1  C   UNL     1      10.282  23.965  -9.264  1.00  0.00     0.000 C 
ENDROOT
BRANCH   1   2
ATOM      2  C   UNL     1       9.673  22.833 -10.111  1.00  0.00     0.000 C 
BRANCH   2   3
ATOM      3  C   UNL     1       8.207  22.485  -9.785  1.00  0.00     0.000 C 
BRANCH   3   4
ATOM      4  C   UNL     1       7.346  23.664  -9.300  1.00  0.00     0.000 C 
BRANCH   4   5
ATOM      5  C   UNL     1       6.094  23.881 -10.166  1.00  0.00     0.000 C 
BRANCH   5   6
ATOM      6  C   UNL     1       4.877  23.090  -9.659  1.00  0.00     0.000 C 
BRANCH   6   7
ATOM      7  C   UNL     1       5.117  22.432  -8.291  1.00  0.00     0.000 C 
BRANCH   7   8
ATOM      8  C   UNL     1       4.139  22.974  -7.239  1.00  0.00     0.000 C 
BRANCH   8   9
ATOM      9  C   UNL     1       4.804  23.217  -5.876  1.00  0.00     0.000 C 
BRANCH   9  10
ATOM     10  C   UNL     1       6.338  23.119  -5.938  1.00  0.00     0.000 C 
BRANCH  10  11
ATOM     11  C   UNL     1       6.923  22.220  -4.834  1.00  0.00     0.000 C 
BRANCH  11  12
ATOM     12  C   UNL     1       8.425  21.909  -4.974  1.00  0.00     0.000 C 
BRANCH  12  13
ATOM     13  C   UNL     1       8.953  22.016  -6.419  1.00  0.00     0.006 C 
BRANCH  13  14
ATOM     14  C   UNL     1      10.461  21.742  -6.513  1.00  0.00     0.053 C 
BRANCH  14  15
ATOM     15  C   UNL     1      10.719  20.552  -7.382  1.00  0.00     0.041 C 
ATOM     16  O   UNL     1      11.661  20.570  -8.217  1.00  0.00    -0.550 OA
ATOM     17  O   UNL     1       9.963  19.398  -7.221  1.00  0.00    -0.550 OA
ENDBRANCH  14  15
ENDBRANCH  13  14
ENDBRANCH  12  13
ENDBRANCH  11  12
ENDBRANCH  10  11
ENDBRANCH   9  10
ENDBRANCH   8   9
ENDBRANCH   7   8
ENDBRANCH   6   7
ENDBRANCH   5   6
ENDBRANCH   4   5
ENDBRANCH   3   4
ENDBRANCH   2   3
ENDBRANCH   1   2
BRANCH   1  18
ATOM     18  C   UNL     1      11.778  24.176  -9.533  1.00  0.00     0.000 C 
BRANCH  18  19
ATOM     19  C   UNL     1      12.533  24.477  -8.230  1.00  0.00     0.000 C 
BRANCH  19  20
ATOM     20  C   UNL     1      13.593  23.412  -7.900  1.00  0.00     0.000 C 
BRANCH  20  21
ATOM     21  C   UNL     1      13.643  23.076  -6.399  1.00  0.00     0.000 C 
BRANCH  21  22
ATOM     22  C   UNL     1      15.037  22.628  -5.936  1.00  0.00     0.000 C 
BRANCH  22  23
ATOM     23  C   UNL     1      16.096  22.767  -7.038  1.00  0.00     0.000 C 
BRANCH  23  24
ATOM     24  C   UNL     1      17.215  23.726  -6.611  1.00  0.00    -0.000 C 
BRANCH  24  25
ATOM     25  C   UNL     1      17.169  25.068  -7.361  1.00  0.00    -0.000 C 
BRANCH  25  26
ATOM     26  C   UNL     1      16.919  26.285  -6.443  1.00  0.00    -0.000 C 
BRANCH  26  27
ATOM     27  C   UNL     1      15.635  26.139  -5.606  1.00  0.00    -0.000 C 
BRANCH  27  28
ATOM     28  C   UNL     1      15.904  26.241  -4.091  1.00  0.00    -0.000 C 
BRANCH  28  29
ATOM     29  C   UNL     1      14.820  25.581  -3.214  1.00  0.00    -0.000 C 
BRANCH  29  30
ATOM     30  C   UNL     1      15.127  24.142  -2.766  1.00  0.00    -0.000 C 
BRANCH  30  31
ATOM     31  C   UNL     1      14.008  23.531  -1.906  1.00  0.00    -0.003 C 
ATOM     32  C   UNL     1      12.959  22.848  -2.779  1.00  0.00     0.004 C 
ENDBRANCH  30  31
ENDBRANCH  29  30
ENDBRANCH  28  29
ENDBRANCH  27  28
ENDBRANCH  26  27
ENDBRANCH  25  26
ENDBRANCH  24  25
ENDBRANCH  23  24
ENDBRANCH  22  23
ENDBRANCH  21  22
ENDBRANCH  20  21
ENDBRANCH  19  20
ENDBRANCH  18  19
ENDBRANCH   1  18
TORSDOF 28
ENDMDL
MODEL 9
REMARK VINA RESULT:    -5.111      3.930      5.104
REMARK INTER + INTRA:         -16.750
REMARK INTER:                 -14.656
REMARK INTRA:                  -2.094
REMARK UNBOUND:                -3.272
REMARK SMILES CCCCCCCCCCCCCCCCCCCCCCCCCCCCCC(=O)[O-]
REMARK SMILES IDX 16 1 17 2 18 3 19 4 20 5 21 6 22 7 23 8 24 9 25 10 26 11
REMARK SMILES IDX 27 12 28 13 29 14 30 15 31 16 32 17 15 18 14 19 13 20 12 21
REMARK SMILES IDX 11 22 10 23 9 24 8 25 7 26 6 27 5 28 4 29 3 30 2 31 1 32
REMARK H PARENT
REMARK Flexibility Score: inf
ROOT
ATOM      1  C   UNL     1       7.168  22.793 -10.278  1.00  0.00     0.000 C 
ENDROOT
BRANCH   1   2
ATOM      2  C   UNL     1       6.376  23.659  -9.283  1.00  0.00     0.000 C 
BRANCH   2   3
ATOM      3  C   UNL     1       7.232  24.442  -8.268  1.00  0.00     0.000 C 
BRANCH   3   4
ATOM      4  C   UNL     1       7.266  23.853  -6.847  1.00  0.00     0.000 C 
BRANCH   4   5
ATOM      5  C   UNL     1       5.950  24.073  -6.083  1.00  0.00     0.000 C 
BRANCH   5   6
ATOM      6  C   UNL     1       5.048  22.828  -6.082  1.00  0.00     0.000 C 
BRANCH   6   7
ATOM      7  C   UNL     1       3.677  23.081  -6.728  1.00  0.00     0.000 C 
BRANCH   7   8
ATOM      8  C   UNL     1       3.422  22.099  -7.881  1.00  0.00     0.000 C 
BRANCH   8   9
ATOM      9  C   UNL     1       1.932  21.972  -8.236  1.00  0.00     0.000 C 
BRANCH   9  10
ATOM     10  C   UNL     1       1.248  20.798  -7.514  1.00  0.00     0.000 C 
BRANCH  10  11
ATOM     11  C   UNL     1       1.291  19.493  -8.327  1.00  0.00     0.000 C 
BRANCH  11  12
ATOM     12  C   UNL     1      -0.012  18.672  -8.312  1.00  0.00     0.000 C 
BRANCH  12  13
ATOM     13  C   UNL     1      -0.797  18.721  -9.639  1.00  0.00     0.006 C 
BRANCH  13  14
ATOM     14  C   UNL     1      -2.095  19.532  -9.522  1.00  0.00     0.053 C 
BRANCH  14  15
ATOM     15  C   UNL     1      -1.834  20.975  -9.821  1.00  0.00     0.041 C 
ATOM     16  O   UNL     1      -1.516  21.332 -10.986  1.00  0.00    -0.550 OA
ATOM     17  O   UNL     1      -2.009  21.932  -8.830  1.00  0.00    -0.550 OA
ENDBRANCH  14  15
ENDBRANCH  13  14
ENDBRANCH  12  13
ENDBRANCH  11  12
ENDBRANCH  10  11
ENDBRANCH   9  10
ENDBRANCH   8   9
ENDBRANCH   7   8
ENDBRANCH   6   7
ENDBRANCH   5   6
ENDBRANCH   4   5
ENDBRANCH   3   4
ENDBRANCH   2   3
ENDBRANCH   1   2
BRANCH   1  18
ATOM     18  C   UNL     1       8.403  22.133  -9.648  1.00  0.00     0.000 C 
BRANCH  18  19
ATOM     19  C   UNL     1       9.684  22.891 -10.025  1.00  0.00     0.000 C 
BRANCH  19  20
ATOM     20  C   UNL     1      10.634  23.081  -8.830  1.00  0.00     0.000 C 
BRANCH  20  21
ATOM     21  C   UNL     1      11.669  24.194  -9.071  1.00  0.00     0.000 C 
BRANCH  21  22
ATOM     22  C   UNL     1      12.887  24.086  -8.142  1.00  0.00     0.000 C 
BRANCH  22  23
ATOM     23  C   UNL     1      12.763  22.927  -7.143  1.00  0.00     0.000 C 
BRANCH  23  24
ATOM     24  C   UNL     1      14.033  22.792  -6.293  1.00  0.00    -0.000 C 
BRANCH  24  25
ATOM     25  C   UNL     1      15.322  22.964  -7.115  1.00  0.00    -0.000 C 
BRANCH  25  26
ATOM     26  C   UNL     1      16.317  23.975  -6.505  1.00  0.00    -0.000 C 
BRANCH  26  27
ATOM     27  C   UNL     1      15.611  25.124  -5.762  1.00  0.00    -0.000 C 
BRANCH  27  28
ATOM     28  C   UNL     1      15.997  25.187  -4.270  1.00  0.00    -0.000 C 
BRANCH  28  29
ATOM     29  C   UNL     1      14.848  25.631  -3.341  1.00  0.00    -0.000 C 
BRANCH  29  30
ATOM     30  C   UNL     1      15.279  26.456  -2.116  1.00  0.00    -0.000 C 
BRANCH  30  31
ATOM     31  C   UNL     1      15.167  27.972  -2.346  1.00  0.00    -0.003 C 
ATOM     32  C   UNL     1      16.421  28.693  -1.859  1.00  0.00     0.004 C 
ENDBRANCH  30  31
ENDBRANCH  29  30
ENDBRANCH  28  29
ENDBRANCH  27  28
ENDBRANCH  26  27
ENDBRANCH  25  26
ENDBRANCH  24  25
ENDBRANCH  23  24
ENDBRANCH  22  23
ENDBRANCH  21  22
ENDBRANCH  20  21
ENDBRANCH  19  20
ENDBRANCH  18  19
ENDBRANCH   1  18
TORSDOF 28
ENDMDL
