MODEL 1
REMARK VINA RESULT:     8.753      0.000      0.000
REMARK INTER + INTRA:          18.084
REMARK INTER:                  12.335
REMARK INTRA:                   5.749
REMARK UNBOUND:                 5.749
REMARK SMILES COc1c(O[C@H]2O[C@H](C(=O)[O-])[C@@H](O)[C@H](O)[C@H]2O)cc(O)c2c(=O)cc(-c3ccccc3)oc12
REMARK SMILES IDX 5 1 6 2 8 3 12 4 7 5 14 6 16 7 9 8 10 9 11 10 13 11 15 13
REMARK SMILES IDX 17 15 4 17 3 18 18 19 33 20 19 21 21 22 32 23 22 24 25 25
REMARK SMILES IDX 24 26 23 27 2 28 1 29 20 30 26 32 27 33 31 34 28 35 30 36
REMARK SMILES IDX 29 37
REMARK H PARENT 13 12 15 14 17 16 20 31
REMARK Flexibility Score: inf
ROOT
ATOM      1  O   UNL     1      15.788  21.719   0.723  1.00  0.00    -0.458 OA
ENDROOT
BRANCH   1   2
ATOM      2  C   UNL     1      15.484  23.083   0.414  1.00  0.00     0.339 C 
ATOM      3  C   UNL     1      17.670  23.805   0.874  1.00  0.00     0.199 C 
ATOM      4  C   UNL     1      17.969  24.127  -0.608  1.00  0.00     0.180 C 
ATOM      5  O   UNL     1      16.292  23.977   1.165  1.00  0.00    -0.328 OA
ATOM      6  C   UNL     1      17.107  23.238  -1.515  1.00  0.00     0.181 C 
ATOM      7  C   UNL     1      15.631  23.340  -1.098  1.00  0.00     0.214 C 
BRANCH   3   8
ATOM      8  C   UNL     1      18.460  24.711   1.771  1.00  0.00     0.073 C 
ATOM      9  O   UNL     1      19.597  25.123   1.418  1.00  0.00    -0.547 OA
ATOM     10  O   UNL     1      17.955  25.070   3.015  1.00  0.00    -0.547 OA
ENDBRANCH   3   8
BRANCH   4  11
ATOM     11  O   UNL     1      19.324  23.886  -0.895  1.00  0.00    -0.387 OA
ATOM     12  H   UNL     1      19.618  23.135  -0.317  1.00  0.00     0.211 HD
ENDBRANCH   4  11
BRANCH   6  13
ATOM     13  O   UNL     1      17.259  23.655  -2.848  1.00  0.00    -0.387 OA
ATOM     14  H   UNL     1      17.998  24.315  -2.862  1.00  0.00     0.211 HD
ENDBRANCH   6  13
BRANCH   7  15
ATOM     15  O   UNL     1      14.875  22.402  -1.820  1.00  0.00    -0.384 OA
ATOM     16  H   UNL     1      15.512  21.725  -2.168  1.00  0.00     0.211 HD
ENDBRANCH   7  15
ENDBRANCH   1   2
BRANCH   1  17
ATOM     17  C   UNL     1      15.939  21.194   2.018  1.00  0.00     0.172 A 
ATOM     18  C   UNL     1      15.898  22.088   3.098  1.00  0.00     0.205 A 
ATOM     19  C   UNL     1      16.120  19.821   2.248  1.00  0.00     0.097 A 
ATOM     20  C   UNL     1      16.044  21.597   4.420  1.00  0.00     0.188 A 
ATOM     21  C   UNL     1      16.257  19.323   3.546  1.00  0.00     0.134 A 
ATOM     22  C   UNL     1      16.225  20.208   4.646  1.00  0.00     0.111 A 
ATOM     23  O   UNL     1      16.023  22.436   5.454  1.00  0.00    -0.452 OA
ATOM     24  C   UNL     1      16.371  19.768   5.978  1.00  0.00     0.197 A 
ATOM     25  C   UNL     1      16.171  22.054   6.721  1.00  0.00     0.138 A 
ATOM     26  C   UNL     1      16.343  20.696   7.016  1.00  0.00     0.100 A 
ATOM     27  O   UNL     1      16.529  18.549   6.256  1.00  0.00    -0.289 OA
BRANCH  18  28
ATOM     28  O   UNL     1      15.711  23.448   2.783  1.00  0.00    -0.490 OA
ATOM     29  C   UNL     1      15.337  24.482   3.686  1.00  0.00     0.278 C 
ENDBRANCH  18  28
BRANCH  21  30
ATOM     30  O   UNL     1      16.426  17.950   3.734  1.00  0.00    -0.507 OA
ATOM     31  H   UNL     1      16.225  17.504   4.621  1.00  0.00     0.293 HD
ENDBRANCH  21  30
BRANCH  25  32
ATOM     32  C   UNL     1      16.147  23.082   7.792  1.00  0.00     0.017 A 
ATOM     33  C   UNL     1      17.060  24.152   7.754  1.00  0.00     0.012 A 
ATOM     34  C   UNL     1      15.243  23.000   8.870  1.00  0.00     0.012 A 
ATOM     35  C   UNL     1      17.058  25.124   8.758  1.00  0.00     0.001 A 
ATOM     36  C   UNL     1      15.246  23.975   9.872  1.00  0.00     0.001 A 
ATOM     37  C   UNL     1      16.152  25.037   9.815  1.00  0.00     0.000 A 
ENDBRANCH  25  32
ENDBRANCH   1  17
TORSDOF 9
ENDMDL
MODEL 2
REMARK VINA RESULT:    10.187      2.456      8.406
REMARK INTER + INTRA:          20.104
REMARK INTER:                  18.434
REMARK INTRA:                   1.670
REMARK UNBOUND:                 5.749
REMARK SMILES COc1c(O[C@H]2O[C@H](C(=O)[O-])[C@@H](O)[C@H](O)[C@H]2O)cc(O)c2c(=O)cc(-c3ccccc3)oc12
REMARK SMILES IDX 5 1 6 2 8 3 12 4 7 5 14 6 16 7 9 8 10 9 11 10 13 11 15 13
REMARK SMILES IDX 17 15 4 17 3 18 18 19 33 20 19 21 21 22 32 23 22 24 25 25
REMARK SMILES IDX 24 26 23 27 2 28 1 29 20 30 26 32 27 33 31 34 28 35 30 36
REMARK SMILES IDX 29 37
REMARK H PARENT 13 12 15 14 17 16 20 31
REMARK Flexibility Score: inf
ROOT
ATOM      1  O   UNL     1      16.088  19.601   4.503  1.00  0.00    -0.458 OA
ENDROOT
BRANCH   1   2
ATOM      2  C   UNL     1      15.128  19.542   5.564  1.00  0.00     0.339 C 
ATOM      3  C   UNL     1      16.157  17.681   6.560  1.00  0.00     0.199 C 
ATOM      4  C   UNL     1      16.626  18.490   7.790  1.00  0.00     0.180 C 
ATOM      5  O   UNL     1      14.952  18.213   6.030  1.00  0.00    -0.328 OA
ATOM      6  C   UNL     1      16.806  19.964   7.403  1.00  0.00     0.181 C 
ATOM      7  C   UNL     1      15.535  20.484   6.713  1.00  0.00     0.214 C 
BRANCH   3   8
ATOM      8  C   UNL     1      15.916  16.251   6.940  1.00  0.00     0.073 C 
ATOM      9  O   UNL     1      15.139  15.968   7.890  1.00  0.00    -0.547 OA
ATOM     10  O   UNL     1      16.579  15.231   6.268  1.00  0.00    -0.547 OA
ENDBRANCH   3   8
BRANCH   4  11
ATOM     11  O   UNL     1      17.854  17.993   8.260  1.00  0.00    -0.387 OA
ATOM     12  H   UNL     1      17.735  17.777   9.222  1.00  0.00     0.211 HD
ENDBRANCH   4  11
BRANCH   6  13
ATOM     13  O   UNL     1      17.066  20.717   8.561  1.00  0.00    -0.387 OA
ATOM     14  H   UNL     1      17.293  20.072   9.280  1.00  0.00     0.211 HD
ENDBRANCH   6  13
BRANCH   7  15
ATOM     15  O   UNL     1      15.767  21.776   6.216  1.00  0.00    -0.384 OA
ATOM     16  H   UNL     1      15.233  22.400   6.774  1.00  0.00     0.211 HD
ENDBRANCH   7  15
ENDBRANCH   1   2
BRANCH   1  17
ATOM     17  C   UNL     1      16.549  20.778   3.889  1.00  0.00     0.172 A 
ATOM     18  C   UNL     1      16.099  21.060   2.591  1.00  0.00     0.205 A 
ATOM     19  C   UNL     1      17.427  21.661   4.537  1.00  0.00     0.097 A 
ATOM     20  C   UNL     1      16.540  22.239   1.938  1.00  0.00     0.188 A 
ATOM     21  C   UNL     1      17.862  22.830   3.909  1.00  0.00     0.134 A 
ATOM     22  C   UNL     1      17.426  23.129   2.599  1.00  0.00     0.111 A 
ATOM     23  O   UNL     1      16.133  22.514   0.700  1.00  0.00    -0.452 OA
ATOM     24  C   UNL     1      17.840  24.286   1.908  1.00  0.00     0.197 A 
ATOM     25  C   UNL     1      16.517  23.589   0.015  1.00  0.00     0.138 A 
ATOM     26  C   UNL     1      17.382  24.514   0.613  1.00  0.00     0.100 A 
ATOM     27  O   UNL     1      18.621  25.125   2.434  1.00  0.00    -0.289 OA
BRANCH  18  28
ATOM     28  O   UNL     1      15.219  20.126   2.012  1.00  0.00    -0.490 OA
ATOM     29  C   UNL     1      15.563  18.846   1.496  1.00  0.00     0.278 C 
ENDBRANCH  18  28
BRANCH  21  30
ATOM     30  O   UNL     1      18.728  23.687   4.591  1.00  0.00    -0.507 OA
ATOM     31  H   UNL     1      18.582  23.931   5.563  1.00  0.00     0.293 HD
ENDBRANCH  21  30
BRANCH  25  32
ATOM     32  C   UNL     1      16.011  23.782  -1.367  1.00  0.00     0.017 A 
ATOM     33  C   UNL     1      16.230  22.786  -2.335  1.00  0.00     0.012 A 
ATOM     34  C   UNL     1      15.336  24.960  -1.746  1.00  0.00     0.012 A 
ATOM     35  C   UNL     1      15.770  22.954  -3.645  1.00  0.00     0.001 A 
ATOM     36  C   UNL     1      14.878  25.123  -3.057  1.00  0.00     0.001 A 
ATOM     37  C   UNL     1      15.093  24.120  -4.005  1.00  0.00     0.000 A 
ENDBRANCH  25  32
ENDBRANCH   1  17
TORSDOF 9
ENDMDL
MODEL 3
REMARK VINA RESULT:    11.517      2.505      8.220
REMARK INTER + INTRA:          21.979
REMARK INTER:                  18.430
REMARK INTRA:                   3.549
REMARK UNBOUND:                 5.749
REMARK SMILES COc1c(O[C@H]2O[C@H](C(=O)[O-])[C@@H](O)[C@H](O)[C@H]2O)cc(O)c2c(=O)cc(-c3ccccc3)oc12
REMARK SMILES IDX 5 1 6 2 8 3 12 4 7 5 14 6 16 7 9 8 10 9 11 10 13 11 15 13
REMARK SMILES IDX 17 15 4 17 3 18 18 19 33 20 19 21 21 22 32 23 22 24 25 25
REMARK SMILES IDX 24 26 23 27 2 28 1 29 20 30 26 32 27 33 31 34 28 35 30 36
REMARK SMILES IDX 29 37
REMARK H PARENT 13 12 15 14 17 16 20 31
REMARK Flexibility Score: inf
ROOT
ATOM      1  O   UNL     1      15.768  19.509   4.590  1.00  0.00    -0.458 OA
ENDROOT
BRANCH   1   2
ATOM      2  C   UNL     1      15.027  19.304   5.798  1.00  0.00     0.339 C 
ATOM      3  C   UNL     1      16.248  17.381   6.368  1.00  0.00     0.199 C 
ATOM      4  C   UNL     1      16.932  18.066   7.572  1.00  0.00     0.180 C 
ATOM      5  O   UNL     1      14.958  17.926   6.136  1.00  0.00    -0.328 OA
ATOM      6  C   UNL     1      17.018  19.579   7.327  1.00  0.00     0.181 C 
ATOM      7  C   UNL     1      15.633  20.128   6.950  1.00  0.00     0.214 C 
BRANCH   3   8
ATOM      8  C   UNL     1      16.100  15.910   6.622  1.00  0.00     0.073 C 
ATOM      9  O   UNL     1      16.752  15.077   5.939  1.00  0.00    -0.547 OA
ATOM     10  O   UNL     1      15.212  15.458   7.591  1.00  0.00    -0.547 OA
ENDBRANCH   3   8
BRANCH   4  11
ATOM     11  O   UNL     1      18.233  17.562   7.745  1.00  0.00    -0.387 OA
ATOM     12  H   UNL     1      18.242  17.062   8.603  1.00  0.00     0.211 HD
ENDBRANCH   4  11
BRANCH   6  13
ATOM     13  O   UNL     1      17.483  20.209   8.493  1.00  0.00    -0.387 OA
ATOM     14  H   UNL     1      18.352  19.790   8.722  1.00  0.00     0.211 HD
ENDBRANCH   6  13
BRANCH   7  15
ATOM     15  O   UNL     1      15.751  21.474   6.567  1.00  0.00    -0.384 OA
ATOM     16  H   UNL     1      15.762  21.491   5.574  1.00  0.00     0.211 HD
ENDBRANCH   7  15
ENDBRANCH   1   2
BRANCH   1  17
ATOM     17  C   UNL     1      16.333  20.729   4.181  1.00  0.00     0.172 A 
ATOM     18  C   UNL     1      16.053  21.179   2.883  1.00  0.00     0.205 A 
ATOM     19  C   UNL     1      17.150  21.492   5.030  1.00  0.00     0.097 A 
ATOM     20  C   UNL     1      16.603  22.406   2.433  1.00  0.00     0.188 A 
ATOM     21  C   UNL     1      17.691  22.707   4.603  1.00  0.00     0.134 A 
ATOM     22  C   UNL     1      17.427  23.174   3.297  1.00  0.00     0.111 A 
ATOM     23  O   UNL     1      16.359  22.840   1.198  1.00  0.00    -0.452 OA
ATOM     24  C   UNL     1      17.954  24.385   2.804  1.00  0.00     0.197 A 
ATOM     25  C   UNL     1      16.853  23.971   0.698  1.00  0.00     0.138 A 
ATOM     26  C   UNL     1      17.664  24.782   1.500  1.00  0.00     0.100 A 
ATOM     27  O   UNL     1      18.688  25.123   3.515  1.00  0.00    -0.289 OA
BRANCH  18  28
ATOM     28  O   UNL     1      15.224  20.357   2.095  1.00  0.00    -0.490 OA
ATOM     29  C   UNL     1      15.590  19.126   1.482  1.00  0.00     0.278 C 
ENDBRANCH  18  28
BRANCH  21  30
ATOM     30  O   UNL     1      18.491  23.441   5.480  1.00  0.00    -0.507 OA
ATOM     31  H   UNL     1      18.394  24.446   5.577  1.00  0.00     0.293 HD
ENDBRANCH  21  30
BRANCH  25  32
ATOM     32  C   UNL     1      16.525  24.344  -0.701  1.00  0.00     0.017 A 
ATOM     33  C   UNL     1      15.205  24.693  -1.039  1.00  0.00     0.012 A 
ATOM     34  C   UNL     1      17.504  24.332  -1.714  1.00  0.00     0.012 A 
ATOM     35  C   UNL     1      14.875  25.039  -2.353  1.00  0.00     0.001 A 
ATOM     36  C   UNL     1      17.169  24.679  -3.026  1.00  0.00     0.001 A 
ATOM     37  C   UNL     1      15.856  25.033  -3.345  1.00  0.00     0.000 A 
ENDBRANCH  25  32
ENDBRANCH   1  17
TORSDOF 9
ENDMDL
