MODEL 1
REMARK VINA RESULT:    -4.478      0.000      0.000
REMARK INTER + INTRA:          -6.558
REMARK INTER:                  -6.310
REMARK INTRA:                  -0.248
REMARK UNBOUND:                -0.248
REMARK SMILES CCCCCCCCC(=O)[O-]
REMARK SMILES IDX 6 1 7 2 8 3 9 4 10 5 11 6 5 7 4 8 3 9 2 10 1 11
REMARK H PARENT
REMARK Flexibility Score: inf
ROOT
ATOM      1  C   UNL     1     -30.330  -8.692  34.082  1.00  0.00     0.000 C 
ENDROOT
BRANCH   1   2
ATOM      2  C   UNL     1     -28.880  -9.110  33.780  1.00  0.00     0.006 C 
BRANCH   2   3
ATOM      3  C   UNL     1     -28.255  -9.903  34.936  1.00  0.00     0.053 C 
BRANCH   3   4
ATOM      4  C   UNL     1     -27.604 -11.164  34.455  1.00  0.00     0.041 C 
ATOM      5  O   UNL     1     -27.170 -12.009  35.281  1.00  0.00    -0.550 OA
ATOM      6  O   UNL     1     -27.446 -11.389  33.093  1.00  0.00    -0.550 OA
ENDBRANCH   3   4
ENDBRANCH   2   3
ENDBRANCH   1   2
BRANCH   1   7
ATOM      7  C   UNL     1     -30.927  -7.791  32.988  1.00  0.00     0.000 C 
BRANCH   7   8
ATOM      8  C   UNL     1     -32.001  -6.834  33.535  1.00  0.00    -0.000 C 
BRANCH   8   9
ATOM      9  C   UNL     1     -33.351  -7.533  33.765  1.00  0.00    -0.000 C 
BRANCH   9  10
ATOM     10  C   UNL     1     -33.869  -8.251  32.509  1.00  0.00    -0.003 C 
ATOM     11  C   UNL     1     -35.024  -7.482  31.875  1.00  0.00     0.004 C 
ENDBRANCH   9  10
ENDBRANCH   8   9
ENDBRANCH   7   8
ENDBRANCH   1   7
TORSDOF 7
ENDMDL
MODEL 2
REMARK VINA RESULT:    -4.387      3.498      6.357
REMARK INTER + INTRA:          -6.431
REMARK INTER:                  -6.277
REMARK INTRA:                  -0.154
REMARK UNBOUND:                -0.248
REMARK SMILES CCCCCCCCC(=O)[O-]
REMARK SMILES IDX 6 1 7 2 8 3 9 4 10 5 11 6 5 7 4 8 3 9 2 10 1 11
REMARK H PARENT
REMARK Flexibility Score: inf
ROOT
ATOM      1  C   UNL     1     -30.827  -7.919  32.989  1.00  0.00     0.000 C 
ENDROOT
BRANCH   1   2
ATOM      2  C   UNL     1     -32.034  -7.043  33.365  1.00  0.00     0.006 C 
BRANCH   2   3
ATOM      3  C   UNL     1     -32.946  -6.769  32.161  1.00  0.00     0.053 C 
BRANCH   3   4
ATOM      4  C   UNL     1     -34.093  -7.731  32.104  1.00  0.00     0.041 C 
ATOM      5  O   UNL     1     -33.891  -8.967  32.233  1.00  0.00    -0.550 OA
ATOM      6  O   UNL     1     -35.381  -7.264  31.875  1.00  0.00    -0.550 OA
ENDBRANCH   3   4
ENDBRANCH   2   3
ENDBRANCH   1   2
BRANCH   1   7
ATOM      7  C   UNL     1     -30.268  -8.704  34.188  1.00  0.00     0.000 C 
BRANCH   7   8
ATOM      8  C   UNL     1     -28.851  -9.244  33.930  1.00  0.00    -0.000 C 
BRANCH   8   9
ATOM      9  C   UNL     1     -28.253  -9.941  35.163  1.00  0.00    -0.000 C 
BRANCH   9  10
ATOM     10  C   UNL     1     -27.740 -11.356  34.855  1.00  0.00    -0.003 C 
ATOM     11  C   UNL     1     -27.230 -11.454  33.420  1.00  0.00     0.004 C 
ENDBRANCH   9  10
ENDBRANCH   8   9
ENDBRANCH   7   8
ENDBRANCH   1   7
TORSDOF 7
ENDMDL
MODEL 3
REMARK VINA RESULT:    -4.279      3.416      6.292
REMARK INTER + INTRA:          -6.277
REMARK INTER:                  -5.970
REMARK INTRA:                  -0.308
REMARK UNBOUND:                -0.248
REMARK SMILES CCCCCCCCC(=O)[O-]
REMARK SMILES IDX 6 1 7 2 8 3 9 4 10 5 11 6 5 7 4 8 3 9 2 10 1 11
REMARK H PARENT
REMARK Flexibility Score: inf
ROOT
ATOM      1  C   UNL     1     -30.149  -8.895  34.124  1.00  0.00     0.000 C 
ENDROOT
BRANCH   1   2
ATOM      2  C   UNL     1     -30.660  -8.109  32.904  1.00  0.00     0.006 C 
BRANCH   2   3
ATOM      3  C   UNL     1     -32.179  -8.240  32.726  1.00  0.00     0.053 C 
BRANCH   3   4
ATOM      4  C   UNL     1     -32.925  -7.301  33.624  1.00  0.00     0.041 C 
ATOM      5  O   UNL     1     -34.096  -7.576  33.997  1.00  0.00    -0.550 OA
ATOM      6  O   UNL     1     -32.339  -6.105  34.020  1.00  0.00    -0.550 OA
ENDBRANCH   3   4
ENDBRANCH   2   3
ENDBRANCH   1   2
BRANCH   1   7
ATOM      7  C   UNL     1     -28.646  -9.212  34.038  1.00  0.00     0.000 C 
BRANCH   7   8
ATOM      8  C   UNL     1     -28.154 -10.058  35.225  1.00  0.00    -0.000 C 
BRANCH   8   9
ATOM      9  C   UNL     1     -27.746 -11.480  34.805  1.00  0.00    -0.000 C 
BRANCH   9  10
ATOM     10  C   UNL     1     -27.361 -11.573  33.321  1.00  0.00    -0.003 C 
ATOM     11  C   UNL     1     -25.846 -11.627  33.149  1.00  0.00     0.004 C 
ENDBRANCH   9  10
ENDBRANCH   8   9
ENDBRANCH   7   8
ENDBRANCH   1   7
TORSDOF 7
ENDMDL
MODEL 4
REMARK VINA RESULT:    -4.208      1.586      2.629
REMARK INTER + INTRA:          -6.178
REMARK INTER:                  -5.914
REMARK INTRA:                  -0.264
REMARK UNBOUND:                -0.248
REMARK SMILES CCCCCCCCC(=O)[O-]
REMARK SMILES IDX 6 1 7 2 8 3 9 4 10 5 11 6 5 7 4 8 3 9 2 10 1 11
REMARK H PARENT
REMARK Flexibility Score: inf
ROOT
ATOM      1  C   UNL     1     -28.247  -9.900  35.140  1.00  0.00     0.000 C 
ENDROOT
BRANCH   1   2
ATOM      2  C   UNL     1     -27.622 -11.275  34.848  1.00  0.00     0.006 C 
BRANCH   2   3
ATOM      3  C   UNL     1     -27.383 -11.494  33.348  1.00  0.00     0.053 C 
BRANCH   3   4
ATOM      4  C   UNL     1     -25.946 -11.803  33.054  1.00  0.00     0.041 C 
ATOM      5  O   UNL     1     -25.042 -11.421  33.843  1.00  0.00    -0.550 OA
ATOM      6  O   UNL     1     -25.605 -12.482  31.892  1.00  0.00    -0.550 OA
ENDBRANCH   3   4
ENDBRANCH   2   3
ENDBRANCH   1   2
BRANCH   1   7
ATOM      7  C   UNL     1     -28.824  -9.231  33.880  1.00  0.00     0.000 C 
BRANCH   7   8
ATOM      8  C   UNL     1     -30.228  -8.647  34.113  1.00  0.00    -0.000 C 
BRANCH   8   9
ATOM      9  C   UNL     1     -30.852  -8.085  32.826  1.00  0.00    -0.000 C 
BRANCH   9  10
ATOM     10  C   UNL     1     -32.281  -7.562  33.039  1.00  0.00    -0.003 C 
ATOM     11  C   UNL     1     -32.283  -6.315  33.919  1.00  0.00     0.004 C 
ENDBRANCH   9  10
ENDBRANCH   8   9
ENDBRANCH   7   8
ENDBRANCH   1   7
TORSDOF 7
ENDMDL
MODEL 5
REMARK VINA RESULT:    -3.689      3.384      5.146
REMARK INTER + INTRA:          -5.446
REMARK INTER:                  -5.247
REMARK INTRA:                  -0.199
REMARK UNBOUND:                -0.248
REMARK SMILES CCCCCCCCC(=O)[O-]
REMARK SMILES IDX 6 1 7 2 8 3 9 4 10 5 11 6 5 7 4 8 3 9 2 10 1 11
REMARK H PARENT
REMARK Flexibility Score: inf
ROOT
ATOM      1  C   UNL     1     -34.804  -7.514  32.883  1.00  0.00     0.000 C 
ENDROOT
BRANCH   1   2
ATOM      2  C   UNL     1     -33.390  -7.212  32.357  1.00  0.00     0.006 C 
BRANCH   2   3
ATOM      3  C   UNL     1     -32.458  -8.426  32.476  1.00  0.00     0.053 C 
BRANCH   3   4
ATOM      4  C   UNL     1     -31.667  -8.395  33.748  1.00  0.00     0.041 C 
ATOM      5  O   UNL     1     -30.418  -8.553  33.721  1.00  0.00    -0.550 OA
ATOM      6  O   UNL     1     -32.314  -8.227  34.965  1.00  0.00    -0.550 OA
ENDBRANCH   3   4
ENDBRANCH   2   3
ENDBRANCH   1   2
BRANCH   1   7
ATOM      7  C   UNL     1     -35.904  -7.139  31.875  1.00  0.00     0.000 C 
BRANCH   7   8
ATOM      8  C   UNL     1     -37.300  -7.085  32.519  1.00  0.00    -0.000 C 
BRANCH   8   9
ATOM      9  C   UNL     1     -37.246  -6.724  34.013  1.00  0.00    -0.000 C 
BRANCH   9  10
ATOM     10  C   UNL     1     -38.277  -5.655  34.403  1.00  0.00    -0.003 C 
ATOM     11  C   UNL     1     -37.802  -4.848  35.608  1.00  0.00     0.004 C 
ENDBRANCH   9  10
ENDBRANCH   8   9
ENDBRANCH   7   8
ENDBRANCH   1   7
TORSDOF 7
ENDMDL
MODEL 6
REMARK VINA RESULT:    -3.636     19.579     20.324
REMARK INTER + INTRA:          -5.372
REMARK INTER:                  -4.792
REMARK INTRA:                  -0.580
REMARK UNBOUND:                -0.248
REMARK SMILES CCCCCCCCC(=O)[O-]
REMARK SMILES IDX 6 1 7 2 8 3 9 4 10 5 11 6 5 7 4 8 3 9 2 10 1 11
REMARK H PARENT
REMARK Flexibility Score: inf
ROOT
ATOM      1  C   UNL     1     -34.787  -1.403  50.211  1.00  0.00     0.000 C 
ENDROOT
BRANCH   1   2
ATOM      2  C   UNL     1     -35.347  -0.173  50.947  1.00  0.00     0.006 C 
BRANCH   2   3
ATOM      3  C   UNL     1     -36.019   0.818  49.987  1.00  0.00     0.053 C 
BRANCH   3   4
ATOM      4  C   UNL     1     -36.031   2.209  50.544  1.00  0.00     0.041 C 
ATOM      5  O   UNL     1     -37.121   2.820  50.700  1.00  0.00    -0.550 OA
ATOM      6  O   UNL     1     -34.836   2.841  50.859  1.00  0.00    -0.550 OA
ENDBRANCH   3   4
ENDBRANCH   2   3
ENDBRANCH   1   2
BRANCH   1   7
ATOM      7  C   UNL     1     -34.685  -2.641  51.119  1.00  0.00     0.000 C 
BRANCH   7   8
ATOM      8  C   UNL     1     -36.062  -3.152  51.575  1.00  0.00    -0.000 C 
BRANCH   8   9
ATOM      9  C   UNL     1     -36.762  -3.998  50.499  1.00  0.00    -0.000 C 
BRANCH   9  10
ATOM     10  C   UNL     1     -38.249  -3.644  50.340  1.00  0.00    -0.003 C 
ATOM     11  C   UNL     1     -38.426  -2.176  49.963  1.00  0.00     0.004 C 
ENDBRANCH   9  10
ENDBRANCH   8   9
ENDBRANCH   7   8
ENDBRANCH   1   7
TORSDOF 7
ENDMDL
MODEL 7
REMARK VINA RESULT:    -3.599     19.287     20.523
REMARK INTER + INTRA:          -5.320
REMARK INTER:                  -4.613
REMARK INTRA:                  -0.706
REMARK UNBOUND:                -0.248
REMARK SMILES CCCCCCCCC(=O)[O-]
REMARK SMILES IDX 6 1 7 2 8 3 9 4 10 5 11 6 5 7 4 8 3 9 2 10 1 11
REMARK H PARENT
REMARK Flexibility Score: inf
ROOT
ATOM      1  C   UNL     1     -38.043  -0.657  50.184  1.00  0.00     0.000 C 
ENDROOT
BRANCH   1   2
ATOM      2  C   UNL     1     -37.370   0.584  50.796  1.00  0.00     0.006 C 
BRANCH   2   3
ATOM      3  C   UNL     1     -36.077   0.963  50.059  1.00  0.00     0.053 C 
BRANCH   3   4
ATOM      4  C   UNL     1     -35.103   1.648  50.967  1.00  0.00     0.041 C 
ATOM      5  O   UNL     1     -34.586   1.024  51.931  1.00  0.00    -0.550 OA
ATOM      6  O   UNL     1     -34.791   2.987  50.769  1.00  0.00    -0.550 OA
ENDBRANCH   3   4
ENDBRANCH   2   3
ENDBRANCH   1   2
BRANCH   1   7
ATOM      7  C   UNL     1     -38.004  -1.876  51.121  1.00  0.00     0.000 C 
BRANCH   7   8
ATOM      8  C   UNL     1     -37.382  -3.114  50.453  1.00  0.00    -0.000 C 
BRANCH   8   9
ATOM      9  C   UNL     1     -36.081  -3.562  51.139  1.00  0.00    -0.000 C 
BRANCH   9  10
ATOM     10  C   UNL     1     -35.085  -2.409  51.333  1.00  0.00    -0.003 C 
ATOM     11  C   UNL     1     -34.220  -2.216  50.091  1.00  0.00     0.004 C 
ENDBRANCH   9  10
ENDBRANCH   8   9
ENDBRANCH   7   8
ENDBRANCH   1   7
TORSDOF 7
ENDMDL
MODEL 8
REMARK VINA RESULT:    -3.567      9.828     11.658
REMARK INTER + INTRA:          -5.274
REMARK INTER:                  -4.520
REMARK INTRA:                  -0.754
REMARK UNBOUND:                -0.248
REMARK SMILES CCCCCCCCC(=O)[O-]
REMARK SMILES IDX 6 1 7 2 8 3 9 4 10 5 11 6 5 7 4 8 3 9 2 10 1 11
REMARK H PARENT
REMARK Flexibility Score: inf
ROOT
ATOM      1  C   UNL     1     -24.150 -12.934  38.253  1.00  0.00     0.000 C 
ENDROOT
BRANCH   1   2
ATOM      2  C   UNL     1     -23.759 -14.228  38.987  1.00  0.00     0.006 C 
BRANCH   2   3
ATOM      3  C   UNL     1     -22.411 -14.781  38.505  1.00  0.00     0.053 C 
BRANCH   3   4
ATOM      4  C   UNL     1     -21.469 -15.017  39.646  1.00  0.00     0.041 C 
ATOM      5  O   UNL     1     -20.302 -15.438  39.429  1.00  0.00    -0.550 OA
ATOM      6  O   UNL     1     -21.891 -14.803  40.952  1.00  0.00    -0.550 OA
ENDBRANCH   3   4
ENDBRANCH   2   3
ENDBRANCH   1   2
BRANCH   1   7
ATOM      7  C   UNL     1     -22.943 -12.023  37.973  1.00  0.00     0.000 C 
BRANCH   7   8
ATOM      8  C   UNL     1     -22.788 -10.911  39.025  1.00  0.00    -0.000 C 
BRANCH   8   9
ATOM      9  C   UNL     1     -21.823 -11.302  40.156  1.00  0.00    -0.000 C 
BRANCH   9  10
ATOM     10  C   UNL     1     -20.377 -11.477  39.669  1.00  0.00    -0.003 C 
ATOM     11  C   UNL     1     -19.465 -11.927  40.806  1.00  0.00     0.004 C 
ENDBRANCH   9  10
ENDBRANCH   8   9
ENDBRANCH   7   8
ENDBRANCH   1   7
TORSDOF 7
ENDMDL
MODEL 9
REMARK VINA RESULT:    -3.540      9.616     11.956
REMARK INTER + INTRA:          -5.236
REMARK INTER:                  -4.668
REMARK INTRA:                  -0.568
REMARK UNBOUND:                -0.248
REMARK SMILES CCCCCCCCC(=O)[O-]
REMARK SMILES IDX 6 1 7 2 8 3 9 4 10 5 11 6 5 7 4 8 3 9 2 10 1 11
REMARK H PARENT
REMARK Flexibility Score: inf
ROOT
ATOM      1  C   UNL     1     -23.749 -13.775  39.149  1.00  0.00     0.000 C 
ENDROOT
BRANCH   1   2
ATOM      2  C   UNL     1     -23.680 -12.625  38.129  1.00  0.00     0.006 C 
BRANCH   2   3
ATOM      3  C   UNL     1     -22.365 -11.839  38.233  1.00  0.00     0.053 C 
BRANCH   3   4
ATOM      4  C   UNL     1     -22.335 -10.965  39.449  1.00  0.00     0.041 C 
ATOM      5  O   UNL     1     -21.305 -10.917  40.171  1.00  0.00    -0.550 OA
ATOM      6  O   UNL     1     -23.459 -10.230  39.804  1.00  0.00    -0.550 OA
ENDBRANCH   3   4
ENDBRANCH   2   3
ENDBRANCH   1   2
BRANCH   1   7
ATOM      7  C   UNL     1     -22.431 -14.561  39.246  1.00  0.00     0.000 C 
BRANCH   7   8
ATOM      8  C   UNL     1     -21.939 -14.709  40.696  1.00  0.00    -0.000 C 
BRANCH   8   9
ATOM      9  C   UNL     1     -22.686 -13.783  41.669  1.00  0.00    -0.000 C 
BRANCH   9  10
ATOM     10  C   UNL     1     -23.467 -14.555  42.743  1.00  0.00    -0.003 C 
ATOM     11  C   UNL     1     -22.543 -15.469  43.543  1.00  0.00     0.004 C 
ENDBRANCH   9  10
ENDBRANCH   8   9
ENDBRANCH   7   8
ENDBRANCH   1   7
TORSDOF 7
ENDMDL
