MODEL 1
REMARK VINA RESULT:    -5.407      0.000      0.000
REMARK INTER + INTRA:          -7.017
REMARK INTER:                  -6.513
REMARK INTRA:                  -0.504
REMARK UNBOUND:                -0.504
REMARK SMILES CCCCc1oc(O)c2ccccc12
REMARK SMILES IDX 4 1 5 2 7 3 6 4 9 5 14 6 10 7 13 8 11 9 12 10 8 11 3 13 2 14
REMARK SMILES IDX 1 15
REMARK H PARENT 8 12
REMARK Flexibility Score: inf
ROOT
ATOM      1  C   UNL     1       9.433 -13.472  -5.016  1.00  0.00     0.076 C 
ENDROOT
BRANCH   1   2
ATOM      2  C   UNL     1       8.257 -14.110  -5.693  1.00  0.00     0.116 A 
ATOM      3  C   UNL     1       6.986 -14.822  -7.267  1.00  0.00     0.290 A 
ATOM      4  O   UNL     1       8.144 -14.250  -7.002  1.00  0.00    -0.430 OA
ATOM      5  C   UNL     1       6.309 -15.067  -6.091  1.00  0.00     0.066 A 
ATOM      6  C   UNL     1       7.119 -14.612  -5.085  1.00  0.00     0.027 A 
ATOM      7  C   UNL     1       5.063 -15.638  -5.833  1.00  0.00     0.016 A 
ATOM      8  C   UNL     1       6.742 -14.694  -3.745  1.00  0.00     0.012 A 
ATOM      9  C   UNL     1       4.655 -15.736  -4.490  1.00  0.00     0.001 A 
ATOM     10  C   UNL     1       5.491 -15.266  -3.451  1.00  0.00     0.001 A 
BRANCH   3  11
ATOM     11  O   UNL     1       6.544 -15.118  -8.553  1.00  0.00    -0.480 OA
ATOM     12  H   UNL     1       7.045 -15.770  -9.144  1.00  0.00     0.297 HD
ENDBRANCH   3  11
ENDBRANCH   1   2
BRANCH   1  13
ATOM     13  C   UNL     1      10.614 -14.446  -4.875  1.00  0.00     0.008 C 
BRANCH  13  14
ATOM     14  C   UNL     1      10.412 -15.532  -3.802  1.00  0.00    -0.003 C 
ATOM     15  C   UNL     1      10.136 -14.954  -2.416  1.00  0.00     0.004 C 
ENDBRANCH  13  14
ENDBRANCH   1  13
TORSDOF 4
ENDMDL
MODEL 2
REMARK VINA RESULT:    -5.205      2.261      4.970
REMARK INTER + INTRA:          -6.775
REMARK INTER:                  -6.313
REMARK INTRA:                  -0.462
REMARK UNBOUND:                -0.504
REMARK SMILES CCCCc1oc(O)c2ccccc12
REMARK SMILES IDX 4 1 5 2 7 3 6 4 9 5 14 6 10 7 13 8 11 9 12 10 8 11 3 13 2 14
REMARK SMILES IDX 1 15
REMARK H PARENT 8 12
REMARK Flexibility Score: inf
ROOT
ATOM      1  C   UNL     1       6.007 -13.059  -4.518  1.00  0.00     0.076 C 
ENDROOT
BRANCH   1   2
ATOM      2  C   UNL     1       7.389 -13.525  -4.168  1.00  0.00     0.116 A 
ATOM      3  C   UNL     1       9.124 -13.962  -2.985  1.00  0.00     0.290 A 
ATOM      4  O   UNL     1       7.883 -13.518  -2.942  1.00  0.00    -0.430 OA
ATOM      5  C   UNL     1       9.462 -14.272  -4.285  1.00  0.00     0.066 A 
ATOM      6  C   UNL     1       8.355 -13.992  -5.041  1.00  0.00     0.027 A 
ATOM      7  C   UNL     1      10.638 -14.763  -4.852  1.00  0.00     0.016 A 
ATOM      8  C   UNL     1       8.343 -14.182  -6.424  1.00  0.00     0.012 A 
ATOM      9  C   UNL     1      10.656 -14.967  -6.244  1.00  0.00     0.001 A 
ATOM     10  C   UNL     1       9.514 -14.678  -7.026  1.00  0.00     0.001 A 
BRANCH   3  11
ATOM     11  O   UNL     1       9.941 -14.085  -1.865  1.00  0.00    -0.480 OA
ATOM     12  H   UNL     1      10.904 -14.389  -1.948  1.00  0.00     0.297 HD
ENDBRANCH   3  11
ENDBRANCH   1   2
BRANCH   1  13
ATOM     13  C   UNL     1       4.932 -13.754  -3.666  1.00  0.00     0.008 C 
BRANCH  13  14
ATOM     14  C   UNL     1       4.896 -15.286  -3.823  1.00  0.00    -0.003 C 
ATOM     15  C   UNL     1       4.541 -15.729  -5.241  1.00  0.00     0.004 C 
ENDBRANCH  13  14
ENDBRANCH   1  13
TORSDOF 4
ENDMDL
MODEL 3
REMARK VINA RESULT:    -5.121     10.335     12.079
REMARK INTER + INTRA:          -6.673
REMARK INTER:                  -6.452
REMARK INTRA:                  -0.221
REMARK UNBOUND:                -0.504
REMARK SMILES CCCCc1oc(O)c2ccccc12
REMARK SMILES IDX 4 1 5 2 7 3 6 4 9 5 14 6 10 7 13 8 11 9 12 10 8 11 3 13 2 14
REMARK SMILES IDX 1 15
REMARK H PARENT 8 12
REMARK Flexibility Score: inf
ROOT
ATOM      1  C   UNL     1       2.459 -23.049   1.980  1.00  0.00     0.076 C 
ENDROOT
BRANCH   1   2
ATOM      2  C   UNL     1       2.318 -23.879   0.740  1.00  0.00     0.116 A 
ATOM      3  C   UNL     1       2.117 -25.613  -0.507  1.00  0.00     0.290 A 
ATOM      4  O   UNL     1       2.189 -25.194   0.741  1.00  0.00    -0.430 OA
ATOM      5  C   UNL     1       2.203 -24.536  -1.364  1.00  0.00     0.066 A 
ATOM      6  C   UNL     1       2.332 -23.429  -0.569  1.00  0.00     0.027 A 
ATOM      7  C   UNL     1       2.184 -24.446  -2.755  1.00  0.00     0.016 A 
ATOM      8  C   UNL     1       2.454 -22.148  -1.108  1.00  0.00     0.012 A 
ATOM      9  C   UNL     1       2.303 -23.167  -3.329  1.00  0.00     0.001 A 
ATOM     10  C   UNL     1       2.438 -22.024  -2.509  1.00  0.00     0.001 A 
BRANCH   3  11
ATOM     11  O   UNL     1       1.977 -26.949  -0.869  1.00  0.00    -0.480 OA
ATOM     12  H   UNL     1       2.600 -27.380  -1.541  1.00  0.00     0.297 HD
ENDBRANCH   3  11
ENDBRANCH   1   2
BRANCH   1  13
ATOM     13  C   UNL     1       1.187 -22.238   2.278  1.00  0.00     0.008 C 
BRANCH  13  14
ATOM     14  C   UNL     1       1.242 -21.437   3.592  1.00  0.00    -0.003 C 
ATOM     15  C   UNL     1       1.009 -19.942   3.386  1.00  0.00     0.004 C 
ENDBRANCH  13  14
ENDBRANCH   1  13
TORSDOF 4
ENDMDL
MODEL 4
REMARK VINA RESULT:    -5.116      2.078      4.751
REMARK INTER + INTRA:          -6.667
REMARK INTER:                  -6.162
REMARK INTRA:                  -0.505
REMARK UNBOUND:                -0.504
REMARK SMILES CCCCc1oc(O)c2ccccc12
REMARK SMILES IDX 4 1 5 2 7 3 6 4 9 5 14 6 10 7 13 8 11 9 12 10 8 11 3 13 2 14
REMARK SMILES IDX 1 15
REMARK H PARENT 8 12
REMARK Flexibility Score: inf
ROOT
ATOM      1  C   UNL     1       6.023 -14.701  -3.840  1.00  0.00     0.076 C 
ENDROOT
BRANCH   1   2
ATOM      2  C   UNL     1       7.371 -15.046  -4.398  1.00  0.00     0.116 A 
ATOM      3  C   UNL     1       9.420 -15.675  -4.460  1.00  0.00     0.290 A 
ATOM      4  O   UNL     1       8.378 -15.499  -3.673  1.00  0.00    -0.430 OA
ATOM      5  C   UNL     1       9.091 -15.325  -5.753  1.00  0.00     0.066 A 
ATOM      6  C   UNL     1       7.783 -14.922  -5.714  1.00  0.00     0.027 A 
ATOM      7  C   UNL     1       9.828 -15.323  -6.936  1.00  0.00     0.016 A 
ATOM      8  C   UNL     1       7.115 -14.485  -6.858  1.00  0.00     0.012 A 
ATOM      9  C   UNL     1       9.182 -14.889  -8.108  1.00  0.00     0.001 A 
ATOM     10  C   UNL     1       7.832 -14.472  -8.069  1.00  0.00     0.001 A 
BRANCH   3  11
ATOM     11  O   UNL     1      10.654 -16.145  -4.020  1.00  0.00    -0.480 OA
ATOM     12  H   UNL     1      10.762 -16.559  -3.102  1.00  0.00     0.297 HD
ENDBRANCH   3  11
ENDBRANCH   1   2
BRANCH   1  13
ATOM     13  C   UNL     1       5.001 -15.827  -4.065  1.00  0.00     0.008 C 
BRANCH  13  14
ATOM     14  C   UNL     1       4.007 -15.558  -5.210  1.00  0.00    -0.003 C 
ATOM     15  C   UNL     1       3.723 -14.072  -5.413  1.00  0.00     0.004 C 
ENDBRANCH  13  14
ENDBRANCH   1  13
TORSDOF 4
ENDMDL
MODEL 5
REMARK VINA RESULT:    -5.093      1.460      4.528
REMARK INTER + INTRA:          -6.639
REMARK INTER:                  -6.388
REMARK INTRA:                  -0.251
REMARK UNBOUND:                -0.504
REMARK SMILES CCCCc1oc(O)c2ccccc12
REMARK SMILES IDX 4 1 5 2 7 3 6 4 9 5 14 6 10 7 13 8 11 9 12 10 8 11 3 13 2 14
REMARK SMILES IDX 1 15
REMARK H PARENT 8 12
REMARK Flexibility Score: inf
ROOT
ATOM      1  C   UNL     1       5.449 -15.538  -3.777  1.00  0.00     0.076 C 
ENDROOT
BRANCH   1   2
ATOM      2  C   UNL     1       6.329 -15.393  -4.982  1.00  0.00     0.116 A 
ATOM      3  C   UNL     1       6.907 -15.224  -7.041  1.00  0.00     0.290 A 
ATOM      4  O   UNL     1       5.878 -15.317  -6.222  1.00  0.00    -0.430 OA
ATOM      5  C   UNL     1       8.080 -15.242  -6.317  1.00  0.00     0.066 A 
ATOM      6  C   UNL     1       7.712 -15.351  -5.002  1.00  0.00     0.027 A 
ATOM      7  C   UNL     1       9.418 -15.178  -6.705  1.00  0.00     0.016 A 
ATOM      8  C   UNL     1       8.657 -15.405  -3.977  1.00  0.00     0.012 A 
ATOM      9  C   UNL     1      10.395 -15.229  -5.694  1.00  0.00     0.001 A 
ATOM     10  C   UNL     1      10.016 -15.342  -4.337  1.00  0.00     0.001 A 
BRANCH   3  11
ATOM     11  O   UNL     1       6.790 -15.127  -8.424  1.00  0.00    -0.480 OA
ATOM     12  H   UNL     1       5.951 -14.759  -8.856  1.00  0.00     0.297 HD
ENDBRANCH   3  11
ENDBRANCH   1   2
BRANCH   1  13
ATOM     13  C   UNL     1       4.036 -16.015  -4.149  1.00  0.00     0.008 C 
BRANCH  13  14
ATOM     14  C   UNL     1       2.973 -14.901  -4.150  1.00  0.00    -0.003 C 
ATOM     15  C   UNL     1       2.665 -14.376  -5.550  1.00  0.00     0.004 C 
ENDBRANCH  13  14
ENDBRANCH   1  13
TORSDOF 4
ENDMDL
MODEL 6
REMARK VINA RESULT:    -4.915      2.576      3.995
REMARK INTER + INTRA:          -6.425
REMARK INTER:                  -5.974
REMARK INTRA:                  -0.450
REMARK UNBOUND:                -0.504
REMARK SMILES CCCCc1oc(O)c2ccccc12
REMARK SMILES IDX 4 1 5 2 7 3 6 4 9 5 14 6 10 7 13 8 11 9 12 10 8 11 3 13 2 14
REMARK SMILES IDX 1 15
REMARK H PARENT 8 12
REMARK Flexibility Score: inf
ROOT
ATOM      1  C   UNL     1      10.924 -14.976  -6.510  1.00  0.00     0.076 C 
ENDROOT
BRANCH   1   2
ATOM      2  C   UNL     1      10.098 -14.788  -5.273  1.00  0.00     0.116 A 
ATOM      3  C   UNL     1       9.605 -14.360  -3.230  1.00  0.00     0.290 A 
ATOM      4  O   UNL     1      10.587 -14.398  -4.110  1.00  0.00    -0.430 OA
ATOM      5  C   UNL     1       8.425 -14.741  -3.834  1.00  0.00     0.066 A 
ATOM      6  C   UNL     1       8.739 -15.015  -5.139  1.00  0.00     0.027 A 
ATOM      7  C   UNL     1       7.126 -14.870  -3.345  1.00  0.00     0.016 A 
ATOM      8  C   UNL     1       7.774 -15.442  -6.052  1.00  0.00     0.012 A 
ATOM      9  C   UNL     1       6.130 -15.298  -4.243  1.00  0.00     0.001 A 
ATOM     10  C   UNL     1       6.453 -15.582  -5.589  1.00  0.00     0.001 A 
BRANCH   3  11
ATOM     11  O   UNL     1       9.770 -13.988  -1.899  1.00  0.00    -0.480 OA
ATOM     12  H   UNL     1       8.976 -13.878  -1.282  1.00  0.00     0.297 HD
ENDBRANCH   3  11
ENDBRANCH   1   2
BRANCH   1  13
ATOM     13  C   UNL     1      10.938 -13.716  -7.390  1.00  0.00     0.008 C 
BRANCH  13  14
ATOM     14  C   UNL     1      10.558 -13.969  -8.861  1.00  0.00    -0.003 C 
ATOM     15  C   UNL     1      10.239 -15.435  -9.148  1.00  0.00     0.004 C 
ENDBRANCH  13  14
ENDBRANCH   1  13
TORSDOF 4
ENDMDL
MODEL 7
REMARK VINA RESULT:    -4.887      9.848     11.333
REMARK INTER + INTRA:          -6.392
REMARK INTER:                  -6.228
REMARK INTRA:                  -0.164
REMARK UNBOUND:                -0.504
REMARK SMILES CCCCc1oc(O)c2ccccc12
REMARK SMILES IDX 4 1 5 2 7 3 6 4 9 5 14 6 10 7 13 8 11 9 12 10 8 11 3 13 2 14
REMARK SMILES IDX 1 15
REMARK H PARENT 8 12
REMARK Flexibility Score: inf
ROOT
ATOM      1  C   UNL     1       1.148 -21.991   1.624  1.00  0.00     0.076 C 
ENDROOT
BRANCH   1   2
ATOM      2  C   UNL     1       1.312 -22.049   0.135  1.00  0.00     0.116 A 
ATOM      3  C   UNL     1       1.313 -21.413  -1.914  1.00  0.00     0.290 A 
ATOM      4  O   UNL     1       1.113 -21.021  -0.671  1.00  0.00    -0.430 OA
ATOM      5  C   UNL     1       1.655 -22.749  -1.930  1.00  0.00     0.066 A 
ATOM      6  C   UNL     1       1.653 -23.156  -0.622  1.00  0.00     0.027 A 
ATOM      7  C   UNL     1       1.956 -23.623  -2.973  1.00  0.00     0.016 A 
ATOM      8  C   UNL     1       1.951 -24.471  -0.261  1.00  0.00     0.012 A 
ATOM      9  C   UNL     1       2.262 -24.956  -2.642  1.00  0.00     0.001 A 
ATOM     10  C   UNL     1       2.260 -25.377  -1.292  1.00  0.00     0.001 A 
BRANCH   3  11
ATOM     11  O   UNL     1       1.188 -20.578  -3.020  1.00  0.00    -0.480 OA
ATOM     12  H   UNL     1       1.671 -19.690  -3.065  1.00  0.00     0.297 HD
ENDBRANCH   3  11
ENDBRANCH   1   2
BRANCH   1  13
ATOM     13  C   UNL     1       0.875 -20.561   2.118  1.00  0.00     0.008 C 
BRANCH  13  14
ATOM     14  C   UNL     1       0.932 -20.401   3.649  1.00  0.00    -0.003 C 
ATOM     15  C   UNL     1       0.875 -18.942   4.095  1.00  0.00     0.004 C 
ENDBRANCH  13  14
ENDBRANCH   1  13
TORSDOF 4
ENDMDL
MODEL 8
REMARK VINA RESULT:    -4.804     10.236     12.134
REMARK INTER + INTRA:          -6.291
REMARK INTER:                  -5.878
REMARK INTRA:                  -0.413
REMARK UNBOUND:                -0.504
REMARK SMILES CCCCc1oc(O)c2ccccc12
REMARK SMILES IDX 4 1 5 2 7 3 6 4 9 5 14 6 10 7 13 8 11 9 12 10 8 11 3 13 2 14
REMARK SMILES IDX 1 15
REMARK H PARENT 8 12
REMARK Flexibility Score: inf
ROOT
ATOM      1  C   UNL     1       3.020 -22.207  -1.939  1.00  0.00     0.076 C 
ENDROOT
BRANCH   1   2
ATOM      2  C   UNL     1       3.105 -23.244  -0.859  1.00  0.00     0.116 A 
ATOM      3  C   UNL     1       3.680 -24.193   0.977  1.00  0.00     0.290 A 
ATOM      4  O   UNL     1       3.790 -23.091   0.261  1.00  0.00    -0.430 OA
ATOM      5  C   UNL     1       2.895 -25.107   0.306  1.00  0.00     0.066 A 
ATOM      6  C   UNL     1       2.528 -24.502  -0.867  1.00  0.00     0.027 A 
ATOM      7  C   UNL     1       2.488 -26.401   0.627  1.00  0.00     0.016 A 
ATOM      8  C   UNL     1       1.727 -25.150  -1.808  1.00  0.00     0.012 A 
ATOM      9  C   UNL     1       1.677 -27.080  -0.301  1.00  0.00     0.001 A 
ATOM     10  C   UNL     1       1.299 -26.457  -1.512  1.00  0.00     0.001 A 
BRANCH   3  11
ATOM     11  O   UNL     1       4.280 -24.372   2.220  1.00  0.00    -0.480 OA
ATOM     12  H   UNL     1       4.149 -25.226   2.748  1.00  0.00     0.297 HD
ENDBRANCH   3  11
ENDBRANCH   1   2
BRANCH   1  13
ATOM     13  C   UNL     1       1.639 -21.535  -1.984  1.00  0.00     0.008 C 
BRANCH  13  14
ATOM     14  C   UNL     1       1.039 -21.419  -3.398  1.00  0.00    -0.003 C 
ATOM     15  C   UNL     1       1.935 -22.027  -4.474  1.00  0.00     0.004 C 
ENDBRANCH  13  14
ENDBRANCH   1  13
TORSDOF 4
ENDMDL
MODEL 9
REMARK VINA RESULT:    -4.669     10.129     12.027
REMARK INTER + INTRA:          -6.129
REMARK INTER:                  -5.763
REMARK INTRA:                  -0.366
REMARK UNBOUND:                -0.504
REMARK SMILES CCCCc1oc(O)c2ccccc12
REMARK SMILES IDX 4 1 5 2 7 3 6 4 9 5 14 6 10 7 13 8 11 9 12 10 8 11 3 13 2 14
REMARK SMILES IDX 1 15
REMARK H PARENT 8 12
REMARK Flexibility Score: inf
ROOT
ATOM      1  C   UNL     1       2.995 -24.868   0.732  1.00  0.00     0.076 C 
ENDROOT
BRANCH   1   2
ATOM      2  C   UNL     1       2.391 -23.603   0.202  1.00  0.00     0.116 A 
ATOM      3  C   UNL     1       1.443 -21.679   0.190  1.00  0.00     0.290 A 
ATOM      4  O   UNL     1       1.929 -22.628   0.965  1.00  0.00    -0.430 OA
ATOM      5  C   UNL     1       1.587 -22.040  -1.133  1.00  0.00     0.066 A 
ATOM      6  C   UNL     1       2.191 -23.269  -1.126  1.00  0.00     0.027 A 
ATOM      7  C   UNL     1       1.235 -21.399  -2.320  1.00  0.00     0.016 A 
ATOM      8  C   UNL     1       2.487 -23.949  -2.308  1.00  0.00     0.012 A 
ATOM      9  C   UNL     1       1.521 -22.058  -3.529  1.00  0.00     0.001 A 
ATOM     10  C   UNL     1       2.144 -23.327  -3.523  1.00  0.00     0.001 A 
BRANCH   3  11
ATOM     11  O   UNL     1       0.875 -20.502   0.668  1.00  0.00    -0.480 OA
ATOM     12  H   UNL     1       1.103 -20.144   1.588  1.00  0.00     0.297 HD
ENDBRANCH   3  11
ENDBRANCH   1   2
BRANCH   1  13
ATOM     13  C   UNL     1       1.990 -26.032   0.729  1.00  0.00     0.008 C 
BRANCH  13  14
ATOM     14  C   UNL     1       2.139 -26.991  -0.466  1.00  0.00    -0.003 C 
ATOM     15  C   UNL     1       0.924 -27.896  -0.656  1.00  0.00     0.004 C 
ENDBRANCH  13  14
ENDBRANCH   1  13
TORSDOF 4
ENDMDL
