MODEL 1
REMARK VINA RESULT:     0.389      0.000      0.000
REMARK INTER + INTRA:           0.398
REMARK INTER:                   0.457
REMARK INTRA:                  -0.059
REMARK UNBOUND:                -0.059
REMARK SMILES O=C([O-])CCC(=O)[O-]
REMARK SMILES IDX 4 1 2 2 1 3 3 4 5 5 6 6 7 7 8 8
REMARK H PARENT
REMARK Flexibility Score: inf
ROOT
ATOM      1  C   UNL     1      55.824  56.854  25.221  1.00  0.00     0.059 C 
ENDROOT
BRANCH   1   2
ATOM      2  C   UNL     1      57.130  56.352  25.750  1.00  0.00     0.042 C 
ATOM      3  O   UNL     1      57.894  57.125  26.386  1.00  0.00    -0.550 OA
ATOM      4  O   UNL     1      57.483  55.020  25.583  1.00  0.00    -0.550 OA
ENDBRANCH   1   2
BRANCH   1   5
ATOM      5  C   UNL     1      55.371  56.011  24.029  1.00  0.00     0.059 C 
BRANCH   5   6
ATOM      6  C   UNL     1      53.927  55.644  24.167  1.00  0.00     0.042 C 
ATOM      7  O   UNL     1      53.445  54.700  23.486  1.00  0.00    -0.550 OA
ATOM      8  O   UNL     1      53.102  56.375  25.011  1.00  0.00    -0.550 OA
ENDBRANCH   5   6
ENDBRANCH   1   5
TORSDOF 3
ENDMDL
MODEL 2
REMARK VINA RESULT:     0.453      0.198      3.919
REMARK INTER + INTRA:           0.473
REMARK INTER:                   0.542
REMARK INTRA:                  -0.069
REMARK UNBOUND:                -0.059
REMARK SMILES O=C([O-])CCC(=O)[O-]
REMARK SMILES IDX 4 1 2 2 1 3 3 4 5 5 6 6 7 7 8 8
REMARK H PARENT
REMARK Flexibility Score: inf
ROOT
ATOM      1  C   UNL     1      55.294  56.376  24.050  1.00  0.00     0.059 C 
ENDROOT
BRANCH   1   2
ATOM      2  C   UNL     1      53.923  55.806  24.233  1.00  0.00     0.042 C 
ATOM      3  O   UNL     1      53.108  56.356  25.020  1.00  0.00    -0.550 OA
ATOM      4  O   UNL     1      53.527  54.696  23.499  1.00  0.00    -0.550 OA
ENDBRANCH   1   2
BRANCH   1   5
ATOM      5  C   UNL     1      55.799  56.984  25.359  1.00  0.00     0.059 C 
BRANCH   5   6
ATOM      6  C   UNL     1      57.118  56.387  25.739  1.00  0.00     0.042 C 
ATOM      7  O   UNL     1      57.394  55.202  25.416  1.00  0.00    -0.550 OA
ATOM      8  O   UNL     1      58.023  57.125  26.492  1.00  0.00    -0.550 OA
ENDBRANCH   5   6
ENDBRANCH   1   5
TORSDOF 3
ENDMDL
MODEL 3
REMARK VINA RESULT:     0.473      0.208      1.155
REMARK INTER + INTRA:           0.497
REMARK INTER:                   0.563
REMARK INTRA:                  -0.066
REMARK UNBOUND:                -0.059
REMARK SMILES O=C([O-])CCC(=O)[O-]
REMARK SMILES IDX 4 1 2 2 1 3 3 4 5 5 6 6 7 7 8 8
REMARK H PARENT
REMARK Flexibility Score: inf
ROOT
ATOM      1  C   UNL     1      55.789  56.948  25.377  1.00  0.00     0.059 C 
ENDROOT
BRANCH   1   2
ATOM      2  C   UNL     1      57.116  56.370  25.757  1.00  0.00     0.042 C 
ATOM      3  O   UNL     1      57.436  55.214  25.374  1.00  0.00    -0.550 OA
ATOM      4  O   UNL     1      58.019  57.125  26.493  1.00  0.00    -0.550 OA
ENDBRANCH   1   2
BRANCH   1   5
ATOM      5  C   UNL     1      55.289  56.327  24.073  1.00  0.00     0.059 C 
BRANCH   5   6
ATOM      6  C   UNL     1      53.901  55.795  24.245  1.00  0.00     0.042 C 
ATOM      7  O   UNL     1      53.484  54.862  23.511  1.00  0.00    -0.550 OA
ATOM      8  O   UNL     1      53.051  56.364  25.185  1.00  0.00    -0.550 OA
ENDBRANCH   5   6
ENDBRANCH   1   5
TORSDOF 3
ENDMDL
