MODEL 1
REMARK VINA RESULT:     0.000      0.000      0.000
REMARK INTER + INTRA:          -0.335
REMARK INTER:                   0.000
REMARK INTRA:                  -0.335
REMARK UNBOUND:                -0.335
REMARK SMILES O=c1c(O)c(-c2ccc(O)c(O)c2)oc2cc(O)cc(O)c12
REMARK SMILES IDX 5 1 3 2 2 3 1 4 22 5 20 6 19 7 17 8 16 9 15 10 14 11 6 12
REMARK SMILES IDX 7 13 8 14 9 15 13 16 11 17 10 18 12 20 4 22 21 24 18 26
REMARK H PARENT 10 19 12 21 4 23 21 25 18 27
REMARK Flexibility Score: inf
ROOT
ATOM      1  C   UNL     1     181.615 183.152 215.364  1.00  0.00     0.180 A 
ATOM      2  C   UNL     1     180.538 183.470 214.520  1.00  0.00     0.208 A 
ATOM      3  C   UNL     1     180.764 183.585 213.139  1.00  0.00     0.238 A 
ATOM      4  O   UNL     1     179.784 183.816 212.383  1.00  0.00    -0.285 OA
ATOM      5  C   UNL     1     182.068 183.397 212.621  1.00  0.00     0.111 A 
ATOM      6  C   UNL     1     182.420 183.530 211.244  1.00  0.00     0.134 A 
ATOM      7  C   UNL     1     183.713 183.193 210.827  1.00  0.00     0.093 A 
ATOM      8  C   UNL     1     184.686 182.792 211.746  1.00  0.00     0.123 A 
ATOM      9  C   UNL     1     184.369 182.718 213.100  1.00  0.00     0.094 A 
ATOM     10  C   UNL     1     183.076 183.011 213.543  1.00  0.00     0.146 A 
ATOM     11  O   UNL     1     182.814 182.917 214.840  1.00  0.00    -0.452 OA
ENDROOT
BRANCH   1  12
ATOM     12  C   UNL     1     181.461 183.037 216.832  1.00  0.00     0.025 A 
ATOM     13  C   UNL     1     181.617 184.153 217.673  1.00  0.00     0.016 A 
ATOM     14  C   UNL     1     181.490 184.017 219.058  1.00  0.00     0.051 A 
ATOM     15  C   UNL     1     181.219 182.765 219.624  1.00  0.00     0.157 A 
ATOM     16  C   UNL     1     181.210 181.781 217.405  1.00  0.00     0.062 A 
ATOM     17  C   UNL     1     181.082 181.640 218.792  1.00  0.00     0.158 A 
BRANCH  15  18
ATOM     18  O   UNL     1     181.091 182.632 221.005  1.00  0.00    -0.504 OA
ATOM     19  H   UNL     1     180.183 182.581 221.451  1.00  0.00     0.293 HD
ENDBRANCH  15  18
BRANCH  17  20
ATOM     20  O   UNL     1     180.820 180.378 219.323  1.00  0.00    -0.504 OA
ATOM     21  H   UNL     1     180.674 180.232 220.316  1.00  0.00     0.293 HD
ENDBRANCH  17  20
ENDBRANCH   1  12
BRANCH   2  22
ATOM     22  O   UNL     1     179.254 183.629 215.049  1.00  0.00    -0.502 OA
ATOM     23  H   UNL     1     178.427 183.681 214.466  1.00  0.00     0.293 HD
ENDBRANCH   2  22
BRANCH   6  24
ATOM     24  O   UNL     1     181.551 184.009 210.259  1.00  0.00    -0.507 OA
ATOM     25  H   UNL     1     180.859 184.728 210.405  1.00  0.00     0.293 HD
ENDBRANCH   6  24
BRANCH   8  26
ATOM     26  O   UNL     1     185.975 182.474 211.325  1.00  0.00    -0.508 OA
ATOM     27  H   UNL     1     186.689 183.187 211.218  1.00  0.00     0.293 HD
ENDBRANCH   8  26
TORSDOF 6
ENDMDL
MODEL 2
REMARK VINA RESULT:     0.000      4.285      7.978
REMARK INTER + INTRA:          -0.335
REMARK INTER:                   0.000
REMARK INTRA:                  -0.335
REMARK UNBOUND:                -0.335
REMARK SMILES O=c1c(O)c(-c2ccc(O)c(O)c2)oc2cc(O)cc(O)c12
REMARK SMILES IDX 5 1 3 2 2 3 1 4 22 5 20 6 19 7 17 8 16 9 15 10 14 11 6 12
REMARK SMILES IDX 7 13 8 14 9 15 13 16 11 17 10 18 12 20 4 22 21 24 18 26
REMARK H PARENT 10 19 12 21 4 23 21 25 18 27
REMARK Flexibility Score: inf
ROOT
ATOM      1  C   UNL     1     186.363 182.147 214.456  1.00  0.00     0.180 A 
ATOM      2  C   UNL     1     185.645 181.590 215.528  1.00  0.00     0.208 A 
ATOM      3  C   UNL     1     185.785 182.151 216.807  1.00  0.00     0.238 A 
ATOM      4  O   UNL     1     185.098 181.683 217.752  1.00  0.00    -0.285 OA
ATOM      5  C   UNL     1     186.654 183.252 217.003  1.00  0.00     0.111 A 
ATOM      6  C   UNL     1     186.905 183.874 218.262  1.00  0.00     0.134 A 
ATOM      7  C   UNL     1     187.682 185.037 218.315  1.00  0.00     0.093 A 
ATOM      8  C   UNL     1     188.272 185.563 217.163  1.00  0.00     0.123 A 
ATOM      9  C   UNL     1     188.083 184.928 215.938  1.00  0.00     0.094 A 
ATOM     10  C   UNL     1     187.282 183.787 215.847  1.00  0.00     0.146 A 
ATOM     11  O   UNL     1     187.119 183.220 214.658  1.00  0.00    -0.452 OA
ENDROOT
BRANCH   1  12
ATOM     12  C   UNL     1     186.286 181.595 213.084  1.00  0.00     0.025 A 
ATOM     13  C   UNL     1     187.158 180.581 212.654  1.00  0.00     0.016 A 
ATOM     14  C   UNL     1     187.084 180.092 211.347  1.00  0.00     0.051 A 
ATOM     15  C   UNL     1     186.147 180.617 210.448  1.00  0.00     0.157 A 
ATOM     16  C   UNL     1     185.363 182.133 212.173  1.00  0.00     0.062 A 
ATOM     17  C   UNL     1     185.284 181.645 210.863  1.00  0.00     0.158 A 
BRANCH  15  18
ATOM     18  O   UNL     1     186.073 180.126 209.146  1.00  0.00    -0.504 OA
ATOM     19  H   UNL     1     185.701 179.205 208.946  1.00  0.00     0.293 HD
ENDBRANCH  15  18
BRANCH  17  20
ATOM     20  O   UNL     1     184.346 182.196 209.991  1.00  0.00    -0.504 OA
ATOM     21  H   UNL     1     184.504 182.244 208.991  1.00  0.00     0.293 HD
ENDBRANCH  17  20
ENDBRANCH   1  12
BRANCH   2  22
ATOM     22  O   UNL     1     184.775 180.518 215.310  1.00  0.00    -0.502 OA
ATOM     23  H   UNL     1     184.661 179.764 215.978  1.00  0.00     0.293 HD
ENDBRANCH   2  22
BRANCH   6  24
ATOM     24  O   UNL     1     186.438 183.378 219.484  1.00  0.00    -0.507 OA
ATOM     25  H   UNL     1     185.549 182.921 219.615  1.00  0.00     0.293 HD
ENDBRANCH   6  24
BRANCH   8  26
ATOM     26  O   UNL     1     189.057 186.712 217.227  1.00  0.00    -0.508 OA
ATOM     27  H   UNL     1     189.954 186.767 216.757  1.00  0.00     0.293 HD
ENDBRANCH   8  26
TORSDOF 6
ENDMDL
MODEL 3
REMARK VINA RESULT:     0.000      4.744      6.415
REMARK INTER + INTRA:          -0.335
REMARK INTER:                   0.000
REMARK INTRA:                  -0.335
REMARK UNBOUND:                -0.335
REMARK SMILES O=c1c(O)c(-c2ccc(O)c(O)c2)oc2cc(O)cc(O)c12
REMARK SMILES IDX 5 1 3 2 2 3 1 4 22 5 20 6 19 7 17 8 16 9 15 10 14 11 6 12
REMARK SMILES IDX 7 13 8 14 9 15 13 16 11 17 10 18 12 20 4 22 21 24 18 26
REMARK H PARENT 10 19 12 21 4 23 21 25 18 27
REMARK Flexibility Score: inf
ROOT
ATOM      1  C   UNL     1     180.081 183.574 210.800  1.00  0.00     0.180 A 
ATOM      2  C   UNL     1     181.008 184.048 211.744  1.00  0.00     0.208 A 
ATOM      3  C   UNL     1     181.980 184.976 211.337  1.00  0.00     0.238 A 
ATOM      4  O   UNL     1     182.773 185.438 212.199  1.00  0.00    -0.285 OA
ATOM      5  C   UNL     1     182.023 185.408 209.989  1.00  0.00     0.111 A 
ATOM      6  C   UNL     1     182.989 186.314 209.458  1.00  0.00     0.134 A 
ATOM      7  C   UNL     1     182.856 186.771 208.141  1.00  0.00     0.093 A 
ATOM      8  C   UNL     1     181.830 186.303 207.316  1.00  0.00     0.123 A 
ATOM      9  C   UNL     1     180.917 185.373 207.807  1.00  0.00     0.094 A 
ATOM     10  C   UNL     1     181.001 184.926 209.129  1.00  0.00     0.146 A 
ATOM     11  O   UNL     1     180.105 184.047 209.559  1.00  0.00    -0.452 OA
ENDROOT
BRANCH   1  12
ATOM     12  C   UNL     1     179.043 182.577 211.147  1.00  0.00     0.025 A 
ATOM     13  C   UNL     1     179.290 181.197 211.042  1.00  0.00     0.016 A 
ATOM     14  C   UNL     1     178.288 180.273 211.351  1.00  0.00     0.051 A 
ATOM     15  C   UNL     1     177.023 180.713 211.757  1.00  0.00     0.157 A 
ATOM     16  C   UNL     1     177.766 183.013 211.534  1.00  0.00     0.062 A 
ATOM     17  C   UNL     1     176.759 182.091 211.845  1.00  0.00     0.158 A 
BRANCH  15  18
ATOM     18  O   UNL     1     176.026 179.790 212.067  1.00  0.00    -0.504 OA
ATOM     19  H   UNL     1     175.140 179.781 211.576  1.00  0.00     0.293 HD
ENDBRANCH  15  18
BRANCH  17  20
ATOM     20  O   UNL     1     175.508 182.562 212.239  1.00  0.00    -0.504 OA
ATOM     21  H   UNL     1     174.809 181.954 212.650  1.00  0.00     0.293 HD
ENDBRANCH  17  20
ENDBRANCH   1  12
BRANCH   2  22
ATOM     22  O   UNL     1     180.935 183.627 213.074  1.00  0.00    -0.502 OA
ATOM     23  H   UNL     1     180.077 183.665 213.611  1.00  0.00     0.293 HD
ENDBRANCH   2  22
BRANCH   6  24
ATOM     24  O   UNL     1     184.103 186.771 210.167  1.00  0.00    -0.507 OA
ATOM     25  H   UNL     1     184.279 186.583 211.143  1.00  0.00     0.293 HD
ENDBRANCH   6  24
BRANCH   8  26
ATOM     26  O   UNL     1     181.713 186.751 206.002  1.00  0.00    -0.508 OA
ATOM     27  H   UNL     1     181.578 187.733 205.787  1.00  0.00     0.293 HD
ENDBRANCH   8  26
TORSDOF 6
ENDMDL
MODEL 4
REMARK VINA RESULT:     0.000      6.307      7.860
REMARK INTER + INTRA:          -0.335
REMARK INTER:                   0.000
REMARK INTRA:                  -0.335
REMARK UNBOUND:                -0.335
REMARK SMILES O=c1c(O)c(-c2ccc(O)c(O)c2)oc2cc(O)cc(O)c12
REMARK SMILES IDX 5 1 3 2 2 3 1 4 22 5 20 6 19 7 17 8 16 9 15 10 14 11 6 12
REMARK SMILES IDX 7 13 8 14 9 15 13 16 11 17 10 18 12 20 4 22 21 24 18 26
REMARK H PARENT 10 19 12 21 4 23 21 25 18 27
REMARK Flexibility Score: inf
ROOT
ATOM      1  C   UNL     1     186.521 187.550 214.349  1.00  0.00     0.180 A 
ATOM      2  C   UNL     1     187.334 187.793 213.228  1.00  0.00     0.208 A 
ATOM      3  C   UNL     1     188.485 187.013 213.039  1.00  0.00     0.238 A 
ATOM      4  O   UNL     1     189.178 187.199 212.005  1.00  0.00    -0.285 OA
ATOM      5  C   UNL     1     188.819 186.009 213.981  1.00  0.00     0.111 A 
ATOM      6  C   UNL     1     189.983 185.187 213.911  1.00  0.00     0.134 A 
ATOM      7  C   UNL     1     190.144 184.139 214.825  1.00  0.00     0.093 A 
ATOM      8  C   UNL     1     189.217 183.926 215.848  1.00  0.00     0.123 A 
ATOM      9  C   UNL     1     188.108 184.762 215.961  1.00  0.00     0.094 A 
ATOM     10  C   UNL     1     187.900 185.793 215.041  1.00  0.00     0.146 A 
ATOM     11  O   UNL     1     186.825 186.558 215.179  1.00  0.00    -0.452 OA
ENDROOT
BRANCH   1  12
ATOM     12  C   UNL     1     185.306 188.347 214.629  1.00  0.00     0.025 A 
ATOM     13  C   UNL     1     185.363 189.525 215.394  1.00  0.00     0.016 A 
ATOM     14  C   UNL     1     184.200 190.249 215.667  1.00  0.00     0.051 A 
ATOM     15  C   UNL     1     182.961 189.801 215.192  1.00  0.00     0.157 A 
ATOM     16  C   UNL     1     184.058 187.891 214.173  1.00  0.00     0.062 A 
ATOM     17  C   UNL     1     182.890 188.614 214.444  1.00  0.00     0.158 A 
BRANCH  15  18
ATOM     18  O   UNL     1     181.802 190.526 215.464  1.00  0.00    -0.504 OA
ATOM     19  H   UNL     1     181.115 190.197 216.131  1.00  0.00     0.293 HD
ENDBRANCH  15  18
BRANCH  17  20
ATOM     20  O   UNL     1     181.672 188.136 213.963  1.00  0.00    -0.504 OA
ATOM     21  H   UNL     1     181.499 187.147 213.826  1.00  0.00     0.293 HD
ENDBRANCH  17  20
ENDBRANCH   1  12
BRANCH   2  22
ATOM     22  O   UNL     1     186.974 188.773 212.299  1.00  0.00    -0.502 OA
ATOM     23  H   UNL     1     186.363 188.581 211.513  1.00  0.00     0.293 HD
ENDBRANCH   2  22
BRANCH   6  24
ATOM     24  O   UNL     1     191.015 185.371 212.985  1.00  0.00    -0.507 OA
ATOM     25  H   UNL     1     191.137 186.197 212.419  1.00  0.00     0.293 HD
ENDBRANCH   6  24
BRANCH   8  26
ATOM     26  O   UNL     1     189.392 182.892 216.764  1.00  0.00    -0.508 OA
ATOM     27  H   UNL     1     188.621 182.296 217.046  1.00  0.00     0.293 HD
ENDBRANCH   8  26
TORSDOF 6
ENDMDL
MODEL 5
REMARK VINA RESULT:     0.000      2.513      7.194
REMARK INTER + INTRA:          -0.335
REMARK INTER:                   0.000
REMARK INTRA:                  -0.335
REMARK UNBOUND:                -0.335
REMARK SMILES O=c1c(O)c(-c2ccc(O)c(O)c2)oc2cc(O)cc(O)c12
REMARK SMILES IDX 5 1 3 2 2 3 1 4 22 5 20 6 19 7 17 8 16 9 15 10 14 11 6 12
REMARK SMILES IDX 7 13 8 14 9 15 13 16 11 17 10 18 12 20 4 22 21 24 18 26
REMARK H PARENT 10 19 12 21 4 23 21 25 18 27
REMARK Flexibility Score: inf
ROOT
ATOM      1  C   UNL     1     182.760 184.938 214.329  1.00  0.00     0.180 A 
ATOM      2  C   UNL     1     183.460 185.835 215.153  1.00  0.00     0.208 A 
ATOM      3  C   UNL     1     182.909 186.192 216.394  1.00  0.00     0.238 A 
ATOM      4  O   UNL     1     183.567 186.954 217.150  1.00  0.00    -0.285 OA
ATOM      5  C   UNL     1     181.659 185.660 216.790  1.00  0.00     0.111 A 
ATOM      6  C   UNL     1     180.988 185.983 218.007  1.00  0.00     0.134 A 
ATOM      7  C   UNL     1     179.818 185.297 218.355  1.00  0.00     0.093 A 
ATOM      8  C   UNL     1     179.259 184.346 217.498  1.00  0.00     0.123 A 
ATOM      9  C   UNL     1     179.874 184.066 216.279  1.00  0.00     0.094 A 
ATOM     10  C   UNL     1     181.063 184.708 215.921  1.00  0.00     0.146 A 
ATOM     11  O   UNL     1     181.621 184.404 214.756  1.00  0.00    -0.452 OA
ENDROOT
BRANCH   1  12
ATOM     12  C   UNL     1     183.264 184.533 212.997  1.00  0.00     0.025 A 
ATOM     13  C   UNL     1     182.940 185.263 211.840  1.00  0.00     0.016 A 
ATOM     14  C   UNL     1     183.406 184.849 210.589  1.00  0.00     0.051 A 
ATOM     15  C   UNL     1     184.191 183.695 210.474  1.00  0.00     0.157 A 
ATOM     16  C   UNL     1     184.032 183.365 212.873  1.00  0.00     0.062 A 
ATOM     17  C   UNL     1     184.502 182.947 211.622  1.00  0.00     0.158 A 
BRANCH  15  18
ATOM     18  O   UNL     1     184.656 183.286 209.226  1.00  0.00    -0.504 OA
ATOM     19  H   UNL     1     185.328 182.533 209.131  1.00  0.00     0.293 HD
ENDBRANCH  15  18
BRANCH  17  20
ATOM     20  O   UNL     1     185.274 181.789 211.541  1.00  0.00    -0.504 OA
ATOM     21  H   UNL     1     185.925 181.628 210.781  1.00  0.00     0.293 HD
ENDBRANCH  17  20
ENDBRANCH   1  12
BRANCH   2  22
ATOM     22  O   UNL     1     184.703 186.333 214.753  1.00  0.00    -0.502 OA
ATOM     23  H   UNL     1     185.570 185.839 214.933  1.00  0.00     0.293 HD
ENDBRANCH   2  22
BRANCH   6  24
ATOM     24  O   UNL     1     181.412 186.981 218.890  1.00  0.00    -0.507 OA
ATOM     25  H   UNL     1     180.988 187.893 218.972  1.00  0.00     0.293 HD
ENDBRANCH   6  24
BRANCH   8  26
ATOM     26  O   UNL     1     178.086 183.678 217.844  1.00  0.00    -0.508 OA
ATOM     27  H   UNL     1     178.052 183.041 218.632  1.00  0.00     0.293 HD
ENDBRANCH   8  26
TORSDOF 6
ENDMDL
MODEL 6
REMARK VINA RESULT:     0.000      7.308      8.309
REMARK INTER + INTRA:          -0.335
REMARK INTER:                   0.000
REMARK INTRA:                  -0.335
REMARK UNBOUND:                -0.335
REMARK SMILES O=c1c(O)c(-c2ccc(O)c(O)c2)oc2cc(O)cc(O)c12
REMARK SMILES IDX 5 1 3 2 2 3 1 4 22 5 20 6 19 7 17 8 16 9 15 10 14 11 6 12
REMARK SMILES IDX 7 13 8 14 9 15 13 16 11 17 10 18 12 20 4 22 21 24 18 26
REMARK H PARENT 10 19 12 21 4 23 21 25 18 27
REMARK Flexibility Score: inf
ROOT
ATOM      1  C   UNL     1     188.095 183.201 210.475  1.00  0.00     0.180 A 
ATOM      2  C   UNL     1     187.168 184.231 210.707  1.00  0.00     0.208 A 
ATOM      3  C   UNL     1     186.645 184.936 209.611  1.00  0.00     0.238 A 
ATOM      4  O   UNL     1     185.774 185.820 209.821  1.00  0.00    -0.285 OA
ATOM      5  C   UNL     1     187.067 184.613 208.298  1.00  0.00     0.111 A 
ATOM      6  C   UNL     1     186.633 185.288 207.118  1.00  0.00     0.134 A 
ATOM      7  C   UNL     1     187.016 184.799 205.863  1.00  0.00     0.093 A 
ATOM      8  C   UNL     1     187.870 183.700 205.748  1.00  0.00     0.123 A 
ATOM      9  C   UNL     1     188.347 183.071 206.896  1.00  0.00     0.094 A 
ATOM     10  C   UNL     1     187.953 183.513 208.162  1.00  0.00     0.146 A 
ATOM     11  O   UNL     1     188.422 182.878 209.229  1.00  0.00    -0.452 OA
ENDROOT
BRANCH   1  12
ATOM     12  C   UNL     1     188.710 182.430 211.580  1.00  0.00     0.025 A 
ATOM     13  C   UNL     1     189.900 182.855 212.195  1.00  0.00     0.016 A 
ATOM     14  C   UNL     1     190.475 182.099 213.220  1.00  0.00     0.051 A 
ATOM     15  C   UNL     1     189.879 180.903 213.636  1.00  0.00     0.157 A 
ATOM     16  C   UNL     1     188.127 181.219 211.986  1.00  0.00     0.062 A 
ATOM     17  C   UNL     1     188.700 180.459 213.013  1.00  0.00     0.158 A 
BRANCH  15  18
ATOM     18  O   UNL     1     190.453 180.152 214.660  1.00  0.00    -0.504 OA
ATOM     19  H   UNL     1     191.454 179.998 214.708  1.00  0.00     0.293 HD
ENDBRANCH  15  18
BRANCH  17  20
ATOM     20  O   UNL     1     188.085 179.268 213.397  1.00  0.00    -0.504 OA
ATOM     21  H   UNL     1     187.822 178.557 212.725  1.00  0.00     0.293 HD
ENDBRANCH  17  20
ENDBRANCH   1  12
BRANCH   2  22
ATOM     22  O   UNL     1     186.747 184.519 212.008  1.00  0.00    -0.502 OA
ATOM     23  H   UNL     1     186.062 185.237 212.213  1.00  0.00     0.293 HD
ENDBRANCH   2  22
BRANCH   6  24
ATOM     24  O   UNL     1     185.854 186.449 207.125  1.00  0.00    -0.507 OA
ATOM     25  H   UNL     1     185.402 186.832 207.941  1.00  0.00     0.293 HD
ENDBRANCH   6  24
BRANCH   8  26
ATOM     26  O   UNL     1     188.259 183.229 204.496  1.00  0.00    -0.508 OA
ATOM     27  H   UNL     1     188.437 183.862 203.724  1.00  0.00     0.293 HD
ENDBRANCH   8  26
TORSDOF 6
ENDMDL
MODEL 7
REMARK VINA RESULT:     0.000      5.416      7.569
REMARK INTER + INTRA:          -0.335
REMARK INTER:                   0.000
REMARK INTRA:                  -0.335
REMARK UNBOUND:                -0.335
REMARK SMILES O=c1c(O)c(-c2ccc(O)c(O)c2)oc2cc(O)cc(O)c12
REMARK SMILES IDX 5 1 3 2 2 3 1 4 22 5 20 6 19 7 17 8 16 9 15 10 14 11 6 12
REMARK SMILES IDX 7 13 8 14 9 15 13 16 11 17 10 18 12 20 4 22 21 24 18 26
REMARK H PARENT 10 19 12 21 4 23 21 25 18 27
REMARK Flexibility Score: inf
ROOT
ATOM      1  C   UNL     1     182.025 186.408 210.577  1.00  0.00     0.180 A 
ATOM      2  C   UNL     1     182.838 185.760 211.522  1.00  0.00     0.208 A 
ATOM      3  C   UNL     1     183.308 184.467 211.243  1.00  0.00     0.238 A 
ATOM      4  O   UNL     1     184.080 183.913 212.069  1.00  0.00    -0.285 OA
ATOM      5  C   UNL     1     182.947 183.831 210.030  1.00  0.00     0.111 A 
ATOM      6  C   UNL     1     183.332 182.507 209.662  1.00  0.00     0.134 A 
ATOM      7  C   UNL     1     183.026 182.030 208.382  1.00  0.00     0.093 A 
ATOM      8  C   UNL     1     182.291 182.804 207.481  1.00  0.00     0.123 A 
ATOM      9  C   UNL     1     181.858 184.074 207.853  1.00  0.00     0.094 A 
ATOM     10  C   UNL     1     182.180 184.593 209.110  1.00  0.00     0.146 A 
ATOM     11  O   UNL     1     181.757 185.812 209.420  1.00  0.00    -0.452 OA
ENDROOT
BRANCH   1  12
ATOM     12  C   UNL     1     181.471 187.761 210.809  1.00  0.00     0.025 A 
ATOM     13  C   UNL     1     180.232 187.945 211.447  1.00  0.00     0.016 A 
ATOM     14  C   UNL     1     179.716 189.230 211.634  1.00  0.00     0.051 A 
ATOM     15  C   UNL     1     180.424 190.349 211.177  1.00  0.00     0.157 A 
ATOM     16  C   UNL     1     182.166 188.885 210.334  1.00  0.00     0.062 A 
ATOM     17  C   UNL     1     181.653 190.175 210.520  1.00  0.00     0.158 A 
BRANCH  15  18
ATOM     18  O   UNL     1     179.909 191.630 211.367  1.00  0.00    -0.504 OA
ATOM     19  H   UNL     1     178.917 191.789 211.499  1.00  0.00     0.293 HD
ENDBRANCH  15  18
BRANCH  17  20
ATOM     20  O   UNL     1     182.379 191.266 210.045  1.00  0.00    -0.504 OA
ATOM     21  H   UNL     1     183.376 191.358 210.202  1.00  0.00     0.293 HD
ENDBRANCH  17  20
ENDBRANCH   1  12
BRANCH   2  22
ATOM     22  O   UNL     1     183.201 186.413 212.702  1.00  0.00    -0.502 OA
ATOM     23  H   UNL     1     184.130 186.340 213.102  1.00  0.00     0.293 HD
ENDBRANCH   2  22
BRANCH   6  24
ATOM     24  O   UNL     1     183.989 181.619 210.519  1.00  0.00    -0.507 OA
ATOM     25  H   UNL     1     184.018 180.618 210.395  1.00  0.00     0.293 HD
ENDBRANCH   6  24
BRANCH   8  26
ATOM     26  O   UNL     1     181.977 182.315 206.215  1.00  0.00    -0.508 OA
ATOM     27  H   UNL     1     181.055 182.442 205.812  1.00  0.00     0.293 HD
ENDBRANCH   8  26
TORSDOF 6
ENDMDL
MODEL 8
REMARK VINA RESULT:     0.000      8.149     11.234
REMARK INTER + INTRA:          -0.335
REMARK INTER:                   0.000
REMARK INTRA:                  -0.335
REMARK UNBOUND:                -0.335
REMARK SMILES O=c1c(O)c(-c2ccc(O)c(O)c2)oc2cc(O)cc(O)c12
REMARK SMILES IDX 5 1 3 2 2 3 1 4 22 5 20 6 19 7 17 8 16 9 15 10 14 11 6 12
REMARK SMILES IDX 7 13 8 14 9 15 13 16 11 17 10 18 12 20 4 22 21 24 18 26
REMARK H PARENT 10 19 12 21 4 23 21 25 18 27
REMARK Flexibility Score: inf
ROOT
ATOM      1  C   UNL     1     187.251 184.778 206.823  1.00  0.00     0.180 A 
ATOM      2  C   UNL     1     186.190 184.124 206.174  1.00  0.00     0.208 A 
ATOM      3  C   UNL     1     185.723 182.904 206.689  1.00  0.00     0.238 A 
ATOM      4  O   UNL     1     184.737 182.352 206.135  1.00  0.00    -0.285 OA
ATOM      5  C   UNL     1     186.334 182.344 207.837  1.00  0.00     0.111 A 
ATOM      6  C   UNL     1     185.970 181.094 208.421  1.00  0.00     0.134 A 
ATOM      7  C   UNL     1     186.553 180.701 209.631  1.00  0.00     0.093 A 
ATOM      8  C   UNL     1     187.536 181.482 210.244  1.00  0.00     0.123 A 
ATOM      9  C   UNL     1     187.942 182.675 209.651  1.00  0.00     0.094 A 
ATOM     10  C   UNL     1     187.351 183.112 208.462  1.00  0.00     0.146 A 
ATOM     11  O   UNL     1     187.759 184.260 207.936  1.00  0.00    -0.452 OA
ENDROOT
BRANCH   1  12
ATOM     12  C   UNL     1     187.813 186.054 206.327  1.00  0.00     0.025 A 
ATOM     13  C   UNL     1     188.864 186.076 205.393  1.00  0.00     0.016 A 
ATOM     14  C   UNL     1     189.396 187.292 204.957  1.00  0.00     0.051 A 
ATOM     15  C   UNL     1     188.896 188.502 205.454  1.00  0.00     0.157 A 
ATOM     16  C   UNL     1     187.330 187.269 206.838  1.00  0.00     0.062 A 
ATOM     17  C   UNL     1     187.860 188.490 206.403  1.00  0.00     0.158 A 
BRANCH  15  18
ATOM     18  O   UNL     1     189.427 189.714 205.015  1.00  0.00    -0.504 OA
ATOM     19  H   UNL     1     189.864 190.365 205.657  1.00  0.00     0.293 HD
ENDBRANCH  15  18
BRANCH  17  20
ATOM     20  O   UNL     1     187.344 189.675 206.924  1.00  0.00    -0.504 OA
ATOM     21  H   UNL     1     186.872 189.709 207.820  1.00  0.00     0.293 HD
ENDBRANCH  17  20
ENDBRANCH   1  12
BRANCH   2  22
ATOM     22  O   UNL     1     185.586 184.705 205.055  1.00  0.00    -0.502 OA
ATOM     23  H   UNL     1     184.835 185.382 205.131  1.00  0.00     0.293 HD
ENDBRANCH   2  22
BRANCH   6  24
ATOM     24  O   UNL     1     185.066 180.196 207.843  1.00  0.00    -0.507 OA
ATOM     25  H   UNL     1     184.161 180.449 207.478  1.00  0.00     0.293 HD
ENDBRANCH   6  24
BRANCH   8  26
ATOM     26  O   UNL     1     188.124 181.076 211.440  1.00  0.00    -0.508 OA
ATOM     27  H   UNL     1     187.883 180.192 211.876  1.00  0.00     0.293 HD
ENDBRANCH   8  26
TORSDOF 6
ENDMDL
MODEL 9
REMARK VINA RESULT:     0.000      6.811      7.993
REMARK INTER + INTRA:          -0.335
REMARK INTER:                   0.000
REMARK INTRA:                  -0.335
REMARK UNBOUND:                -0.335
REMARK SMILES O=c1c(O)c(-c2ccc(O)c(O)c2)oc2cc(O)cc(O)c12
REMARK SMILES IDX 5 1 3 2 2 3 1 4 22 5 20 6 19 7 17 8 16 9 15 10 14 11 6 12
REMARK SMILES IDX 7 13 8 14 9 15 13 16 11 17 10 18 12 20 4 22 21 24 18 26
REMARK H PARENT 10 19 12 21 4 23 21 25 18 27
REMARK Flexibility Score: inf
ROOT
ATOM      1  C   UNL     1     187.467 187.141 214.666  1.00  0.00     0.180 A 
ATOM      2  C   UNL     1     188.235 186.041 215.086  1.00  0.00     0.208 A 
ATOM      3  C   UNL     1     189.002 185.345 214.139  1.00  0.00     0.238 A 
ATOM      4  O   UNL     1     189.729 184.395 214.530  1.00  0.00    -0.285 OA
ATOM      5  C   UNL     1     188.981 185.747 212.781  1.00  0.00     0.111 A 
ATOM      6  C   UNL     1     189.687 185.089 211.730  1.00  0.00     0.134 A 
ATOM      7  C   UNL     1     189.697 185.652 210.448  1.00  0.00     0.093 A 
ATOM      8  C   UNL     1     188.972 186.812 210.164  1.00  0.00     0.123 A 
ATOM      9  C   UNL     1     188.230 187.427 211.169  1.00  0.00     0.094 A 
ATOM     10  C   UNL     1     188.231 186.910 212.468  1.00  0.00     0.146 A 
ATOM     11  O   UNL     1     187.519 187.534 213.398  1.00  0.00    -0.452 OA
ENDROOT
BRANCH   1  12
ATOM     12  C   UNL     1     186.614 187.910 215.601  1.00  0.00     0.025 A 
ATOM     13  C   UNL     1     185.278 187.544 215.840  1.00  0.00     0.016 A 
ATOM     14  C   UNL     1     184.483 188.298 216.707  1.00  0.00     0.051 A 
ATOM     15  C   UNL     1     185.006 189.434 217.338  1.00  0.00     0.157 A 
ATOM     16  C   UNL     1     187.127 189.061 216.219  1.00  0.00     0.062 A 
ATOM     17  C   UNL     1     186.334 189.819 217.090  1.00  0.00     0.158 A 
BRANCH  15  18
ATOM     18  O   UNL     1     184.212 190.183 218.204  1.00  0.00    -0.504 OA
ATOM     19  H   UNL     1     183.925 189.822 219.107  1.00  0.00     0.293 HD
ENDBRANCH  15  18
BRANCH  17  20
ATOM     20  O   UNL     1     186.883 190.948 217.695  1.00  0.00    -0.504 OA
ATOM     21  H   UNL     1     186.313 191.626 218.187  1.00  0.00     0.293 HD
ENDBRANCH  17  20
ENDBRANCH   1  12
BRANCH   2  22
ATOM     22  O   UNL     1     188.260 185.675 216.434  1.00  0.00    -0.502 OA
ATOM     23  H   UNL     1     188.361 184.713 216.736  1.00  0.00     0.293 HD
ENDBRANCH   2  22
BRANCH   6  24
ATOM     24  O   UNL     1     190.368 183.878 211.885  1.00  0.00    -0.507 OA
ATOM     25  H   UNL     1     191.325 183.718 211.610  1.00  0.00     0.293 HD
ENDBRANCH   6  24
BRANCH   8  26
ATOM     26  O   UNL     1     188.974 187.356 208.882  1.00  0.00    -0.508 OA
ATOM     27  H   UNL     1     188.237 187.980 208.570  1.00  0.00     0.293 HD
ENDBRANCH   8  26
TORSDOF 6
ENDMDL
