MODEL 1
REMARK VINA RESULT:    -6.399      0.000      0.000
REMARK INTER + INTRA:          -6.571
REMARK INTER:                  -6.586
REMARK INTRA:                   0.015
REMARK UNBOUND:                 0.015
REMARK SMILES CC1=CC[C@@H]2[C@@H]3[C@H](C(C)C)CC[C@@]2(C)[C@@H]13
REMARK SMILES IDX 1 1 2 2 3 3 4 4 5 5 6 6 15 7 13 8 12 9 11 10 7 11 14 12 8 13
REMARK SMILES IDX 9 14 10 15
REMARK H PARENT
REMARK Flexibility Score: inf
ROOT
ATOM      1  C   UNL     1     103.378 108.188 128.921  1.00  0.00     0.039 C 
ATOM      2  C   UNL     1     102.836 107.487 127.715  1.00  0.00    -0.073 C 
ATOM      3  C   UNL     1     103.316 106.427 127.172  1.00  0.00    -0.027 C 
ATOM      4  C   UNL     1     101.729 104.855 126.286  1.00  0.00     0.031 C 
ATOM      5  C   UNL     1     100.738 105.347 126.641  1.00  0.00     0.003 C 
ATOM      6  C   UNL     1     101.460 106.497 125.788  1.00  0.00     0.004 C 
ATOM      7  C   UNL     1     101.591 106.876 127.513  1.00  0.00     0.024 C 
ATOM      8  C   UNL     1     101.574 105.163 127.996  1.00  0.00    -0.022 C 
ATOM      9  C   UNL     1     103.333 104.130 127.750  1.00  0.00     0.008 C 
ATOM     10  C   UNL     1     104.034 104.466 125.946  1.00  0.00     0.005 C 
ATOM     11  C   UNL     1     103.209 105.891 124.872  1.00  0.00    -0.005 C 
ATOM     12  C   UNL     1     100.758 104.856 129.245  1.00  0.00     0.012 C 
ENDROOT
BRANCH  11  13
ATOM     13  C   UNL     1     103.030 105.484 123.384  1.00  0.00    -0.014 C 
ATOM     14  C   UNL     1     104.338 104.912 122.817  1.00  0.00     0.007 C 
ATOM     15  C   UNL     1     102.579 106.685 122.545  1.00  0.00     0.007 C 
ENDBRANCH  11  13
TORSDOF 1
ENDMDL
MODEL 2
REMARK VINA RESULT:    -6.358      3.937      5.619
REMARK INTER + INTRA:          -6.529
REMARK INTER:                  -6.530
REMARK INTRA:                   0.001
REMARK UNBOUND:                 0.015
REMARK SMILES CC1=CC[C@@H]2[C@@H]3[C@H](C(C)C)CC[C@@]2(C)[C@@H]13
REMARK SMILES IDX 1 1 2 2 3 3 4 4 5 5 6 6 15 7 13 8 12 9 11 10 7 11 14 12 8 13
REMARK SMILES IDX 9 14 10 15
REMARK H PARENT
REMARK Flexibility Score: inf
ROOT
ATOM      1  C   UNL     1     108.219 109.134 128.887  1.00  0.00     0.039 C 
ATOM      2  C   UNL     1     107.449 109.602 127.692  1.00  0.00    -0.073 C 
ATOM      3  C   UNL     1     106.353 109.101 127.250  1.00  0.00    -0.027 C 
ATOM      4  C   UNL     1     104.745 110.647 126.353  1.00  0.00     0.031 C 
ATOM      5  C   UNL     1     105.269 111.653 126.607  1.00  0.00     0.003 C 
ATOM      6  C   UNL     1     106.356 110.856 125.737  1.00  0.00     0.004 C 
ATOM      7  C   UNL     1     106.841 110.839 127.441  1.00  0.00     0.024 C 
ATOM      8  C   UNL     1     105.161 110.916 128.026  1.00  0.00    -0.022 C 
ATOM      9  C   UNL     1     104.096 109.160 127.968  1.00  0.00     0.008 C 
ATOM     10  C   UNL     1     104.311 108.330 126.200  1.00  0.00     0.005 C 
ATOM     11  C   UNL     1     105.674 109.057 124.985  1.00  0.00    -0.005 C 
ATOM     12  C   UNL     1     104.943 111.820 129.232  1.00  0.00     0.012 C 
ENDROOT
BRANCH  11  13
ATOM     13  C   UNL     1     105.178 109.138 123.517  1.00  0.00    -0.014 C 
ATOM     14  C   UNL     1     104.671 107.770 123.039  1.00  0.00     0.007 C 
ATOM     15  C   UNL     1     106.297 109.632 122.592  1.00  0.00     0.007 C 
ENDBRANCH  11  13
TORSDOF 1
ENDMDL
MODEL 3
REMARK VINA RESULT:    -6.332      4.380      6.326
REMARK INTER + INTRA:          -6.502
REMARK INTER:                  -6.491
REMARK INTRA:                  -0.011
REMARK UNBOUND:                 0.015
REMARK SMILES CC1=CC[C@@H]2[C@@H]3[C@H](C(C)C)CC[C@@]2(C)[C@@H]13
REMARK SMILES IDX 1 1 2 2 3 3 4 4 5 5 6 6 15 7 13 8 12 9 11 10 7 11 14 12 8 13
REMARK SMILES IDX 9 14 10 15
REMARK H PARENT
REMARK Flexibility Score: inf
ROOT
ATOM      1  C   UNL     1     103.488 108.098 128.487  1.00  0.00     0.039 C 
ATOM      2  C   UNL     1     104.864 108.507 128.063  1.00  0.00    -0.073 C 
ATOM      3  C   UNL     1     105.169 109.158 126.999  1.00  0.00    -0.027 C 
ATOM      4  C   UNL     1     106.955 110.755 127.185  1.00  0.00     0.031 C 
ATOM      5  C   UNL     1     107.152 110.706 128.328  1.00  0.00     0.003 C 
ATOM      6  C   UNL     1     107.328 109.190 127.837  1.00  0.00     0.004 C 
ATOM      7  C   UNL     1     105.787 109.353 128.694  1.00  0.00     0.024 C 
ATOM      8  C   UNL     1     105.592 111.060 128.230  1.00  0.00    -0.022 C 
ATOM      9  C   UNL     1     104.943 111.414 126.313  1.00  0.00     0.008 C 
ATOM     10  C   UNL     1     106.010 110.341 125.059  1.00  0.00     0.005 C 
ATOM     11  C   UNL     1     107.191 108.949 125.790  1.00  0.00    -0.005 C 
ATOM     12  C   UNL     1     105.043 111.964 129.326  1.00  0.00     0.012 C 
ENDROOT
BRANCH  11  13
ATOM     13  C   UNL     1     108.565 108.899 125.070  1.00  0.00    -0.014 C 
ATOM     14  C   UNL     1     108.381 108.639 123.567  1.00  0.00     0.007 C 
ATOM     15  C   UNL     1     109.459 107.815 125.682  1.00  0.00     0.007 C 
ENDBRANCH  11  13
TORSDOF 1
ENDMDL
MODEL 4
REMARK VINA RESULT:    -6.312      6.477      8.090
REMARK INTER + INTRA:          -6.482
REMARK INTER:                  -6.499
REMARK INTRA:                   0.017
REMARK UNBOUND:                 0.015
REMARK SMILES CC1=CC[C@@H]2[C@@H]3[C@H](C(C)C)CC[C@@]2(C)[C@@H]13
REMARK SMILES IDX 1 1 2 2 3 3 4 4 5 5 6 6 15 7 13 8 12 9 11 10 7 11 14 12 8 13
REMARK SMILES IDX 9 14 10 15
REMARK H PARENT
REMARK Flexibility Score: inf
ROOT
ATOM      1  C   UNL     1     109.053 104.203 128.867  1.00  0.00     0.039 C 
ATOM      2  C   UNL     1     109.592 104.918 127.666  1.00  0.00    -0.073 C 
ATOM      3  C   UNL     1     109.135 106.006 127.162  1.00  0.00    -0.027 C 
ATOM      4  C   UNL     1     110.753 107.549 126.279  1.00  0.00     0.031 C 
ATOM      5  C   UNL     1     111.734 107.017 126.599  1.00  0.00     0.003 C 
ATOM      6  C   UNL     1     110.957 105.913 125.734  1.00  0.00     0.004 C 
ATOM      7  C   UNL     1     110.852 105.493 127.452  1.00  0.00     0.024 C 
ATOM      8  C   UNL     1     110.935 107.192 127.978  1.00  0.00    -0.022 C 
ATOM      9  C   UNL     1     109.206 108.287 127.797  1.00  0.00     0.008 C 
ATOM     10  C   UNL     1     108.454 108.021 126.001  1.00  0.00     0.005 C 
ATOM     11  C   UNL     1     109.209 106.599 124.874  1.00  0.00    -0.005 C 
ATOM     12  C   UNL     1     111.787 107.440 129.215  1.00  0.00     0.012 C 
ENDROOT
BRANCH  11  13
ATOM     13  C   UNL     1     109.368 107.037 123.393  1.00  0.00    -0.014 C 
ATOM     14  C   UNL     1     108.077 107.690 122.878  1.00  0.00     0.007 C 
ATOM     15  C   UNL     1     109.736 105.840 122.509  1.00  0.00     0.007 C 
ENDBRANCH  11  13
TORSDOF 1
ENDMDL
MODEL 5
REMARK VINA RESULT:    -6.310      1.575      2.806
REMARK INTER + INTRA:          -6.480
REMARK INTER:                  -6.483
REMARK INTRA:                   0.003
REMARK UNBOUND:                 0.015
REMARK SMILES CC1=CC[C@@H]2[C@@H]3[C@H](C(C)C)CC[C@@]2(C)[C@@H]13
REMARK SMILES IDX 1 1 2 2 3 3 4 4 5 5 6 6 15 7 13 8 12 9 11 10 7 11 14 12 8 13
REMARK SMILES IDX 9 14 10 15
REMARK H PARENT
REMARK Flexibility Score: inf
ROOT
ATOM      1  C   UNL     1     104.365 103.650 128.717  1.00  0.00     0.039 C 
ATOM      2  C   UNL     1     103.925 104.988 128.210  1.00  0.00    -0.073 C 
ATOM      3  C   UNL     1     103.343 105.223 127.090  1.00  0.00    -0.027 C 
ATOM      4  C   UNL     1     101.655 106.934 127.090  1.00  0.00     0.031 C 
ATOM      5  C   UNL     1     101.609 107.173 128.226  1.00  0.00     0.003 C 
ATOM      6  C   UNL     1     103.148 107.406 127.841  1.00  0.00     0.004 C 
ATOM      7  C   UNL     1     102.993 105.889 128.742  1.00  0.00     0.024 C 
ATOM      8  C   UNL     1     101.336 105.594 128.161  1.00  0.00    -0.022 C 
ATOM      9  C   UNL     1     101.158 104.863 126.249  1.00  0.00     0.008 C 
ATOM     10  C   UNL     1     102.272 105.937 125.038  1.00  0.00     0.005 C 
ATOM     11  C   UNL     1     103.548 107.209 125.824  1.00  0.00    -0.005 C 
ATOM     12  C   UNL     1     100.378 105.041 129.208  1.00  0.00     0.012 C 
ENDROOT
BRANCH  11  13
ATOM     13  C   UNL     1     103.588 108.559 125.057  1.00  0.00    -0.014 C 
ATOM     14  C   UNL     1     103.808 108.323 123.555  1.00  0.00     0.007 C 
ATOM     15  C   UNL     1     104.695 109.464 125.610  1.00  0.00     0.007 C 
ENDBRANCH  11  13
TORSDOF 1
ENDMDL
MODEL 6
REMARK VINA RESULT:    -6.303      4.023      5.718
REMARK INTER + INTRA:          -6.473
REMARK INTER:                  -6.488
REMARK INTRA:                   0.015
REMARK UNBOUND:                 0.015
REMARK SMILES CC1=CC[C@@H]2[C@@H]3[C@H](C(C)C)CC[C@@]2(C)[C@@H]13
REMARK SMILES IDX 1 1 2 2 3 3 4 4 5 5 6 6 15 7 13 8 12 9 11 10 7 11 14 12 8 13
REMARK SMILES IDX 9 14 10 15
REMARK H PARENT
REMARK Flexibility Score: inf
ROOT
ATOM      1  C   UNL     1     104.192 103.379 128.797  1.00  0.00     0.039 C 
ATOM      2  C   UNL     1     104.943 102.857 127.612  1.00  0.00    -0.073 C 
ATOM      3  C   UNL     1     106.023 103.348 127.121  1.00  0.00    -0.027 C 
ATOM      4  C   UNL     1     107.634 101.777 126.275  1.00  0.00     0.031 C 
ATOM      5  C   UNL     1     107.130 100.780 126.593  1.00  0.00     0.003 C 
ATOM      6  C   UNL     1     106.014 101.514 125.705  1.00  0.00     0.004 C 
ATOM      7  C   UNL     1     105.564 101.616 127.415  1.00  0.00     0.024 C 
ATOM      8  C   UNL     1     107.257 101.594 127.968  1.00  0.00    -0.022 C 
ATOM      9  C   UNL     1     108.295 103.358 127.793  1.00  0.00     0.008 C 
ATOM     10  C   UNL     1     108.032 104.088 125.988  1.00  0.00     0.005 C 
ATOM     11  C   UNL     1     106.654 103.279 124.843  1.00  0.00    -0.005 C 
ATOM     12  C   UNL     1     107.513 100.758 129.215  1.00  0.00     0.012 C 
ENDROOT
BRANCH  11  13
ATOM     13  C   UNL     1     107.121 103.125 123.371  1.00  0.00    -0.014 C 
ATOM     14  C   UNL     1     107.713 104.443 122.849  1.00  0.00     0.007 C 
ATOM     15  C   UNL     1     105.958 102.684 122.476  1.00  0.00     0.007 C 
ENDBRANCH  11  13
TORSDOF 1
ENDMDL
MODEL 7
REMARK VINA RESULT:    -6.284      6.267      7.775
REMARK INTER + INTRA:          -6.452
REMARK INTER:                  -6.442
REMARK INTRA:                  -0.010
REMARK UNBOUND:                 0.015
REMARK SMILES CC1=CC[C@@H]2[C@@H]3[C@H](C(C)C)CC[C@@]2(C)[C@@H]13
REMARK SMILES IDX 1 1 2 2 3 3 4 4 5 5 6 6 15 7 13 8 12 9 11 10 7 11 14 12 8 13
REMARK SMILES IDX 9 14 10 15
REMARK H PARENT
REMARK Flexibility Score: inf
ROOT
ATOM      1  C   UNL     1     108.145 108.979 128.507  1.00  0.00     0.039 C 
ATOM      2  C   UNL     1     108.556 107.602 128.087  1.00  0.00    -0.073 C 
ATOM      3  C   UNL     1     109.197 107.293 127.018  1.00  0.00    -0.027 C 
ATOM      4  C   UNL     1     110.804 105.514 127.200  1.00  0.00     0.031 C 
ATOM      5  C   UNL     1     110.767 105.325 128.345  1.00  0.00     0.003 C 
ATOM      6  C   UNL     1     109.246 105.139 127.871  1.00  0.00     0.004 C 
ATOM      7  C   UNL     1     109.411 106.687 128.716  1.00  0.00     0.024 C 
ATOM      8  C   UNL     1     111.113 106.886 128.233  1.00  0.00    -0.022 C 
ATOM      9  C   UNL     1     111.445 107.523 126.308  1.00  0.00     0.008 C 
ATOM     10  C   UNL     1     110.363 106.444 125.073  1.00  0.00     0.005 C 
ATOM     11  C   UNL     1     108.984 105.262 125.825  1.00  0.00    -0.005 C 
ATOM     12  C   UNL     1     112.026 107.445 129.316  1.00  0.00     0.012 C 
ENDROOT
BRANCH  11  13
ATOM     13  C   UNL     1     108.932 103.883 125.115  1.00  0.00    -0.014 C 
ATOM     14  C   UNL     1     108.702 104.058 123.607  1.00  0.00     0.007 C 
ATOM     15  C   UNL     1     107.827 103.006 125.714  1.00  0.00     0.007 C 
ENDBRANCH  11  13
TORSDOF 1
ENDMDL
MODEL 8
REMARK VINA RESULT:    -6.272      3.641      5.332
REMARK INTER + INTRA:          -6.440
REMARK INTER:                  -6.434
REMARK INTRA:                  -0.006
REMARK UNBOUND:                 0.015
REMARK SMILES CC1=CC[C@@H]2[C@@H]3[C@H](C(C)C)CC[C@@]2(C)[C@@H]13
REMARK SMILES IDX 1 1 2 2 3 3 4 4 5 5 6 6 15 7 13 8 12 9 11 10 7 11 14 12 8 13
REMARK SMILES IDX 9 14 10 15
REMARK H PARENT
REMARK Flexibility Score: inf
ROOT
ATOM      1  C   UNL     1     108.977 104.285 128.536  1.00  0.00     0.039 C 
ATOM      2  C   UNL     1     107.601 103.880 128.107  1.00  0.00    -0.073 C 
ATOM      3  C   UNL     1     107.295 103.255 127.029  1.00  0.00    -0.027 C 
ATOM      4  C   UNL     1     105.516 101.646 127.183  1.00  0.00     0.031 C 
ATOM      5  C   UNL     1     105.323 101.667 128.328  1.00  0.00     0.003 C 
ATOM      6  C   UNL     1     105.139 103.193 127.875  1.00  0.00     0.004 C 
ATOM      7  C   UNL     1     106.684 103.016 128.721  1.00  0.00     0.024 C 
ATOM      8  C   UNL     1     106.885 101.321 128.214  1.00  0.00    -0.022 C 
ATOM      9  C   UNL     1     107.526 101.018 126.286  1.00  0.00     0.008 C 
ATOM     10  C   UNL     1     106.450 102.117 125.064  1.00  0.00     0.005 C 
ATOM     11  C   UNL     1     105.267 103.485 125.834  1.00  0.00    -0.005 C 
ATOM     12  C   UNL     1     107.441 100.393 129.285  1.00  0.00     0.012 C 
ENDROOT
BRANCH  11  13
ATOM     13  C   UNL     1     103.889 103.547 125.121  1.00  0.00    -0.014 C 
ATOM     14  C   UNL     1     104.069 103.767 123.611  1.00  0.00     0.007 C 
ATOM     15  C   UNL     1     103.023 104.665 125.712  1.00  0.00     0.007 C 
ENDBRANCH  11  13
TORSDOF 1
ENDMDL
MODEL 9
REMARK VINA RESULT:    -5.809      1.910      3.927
REMARK INTER + INTRA:          -5.964
REMARK INTER:                  -5.940
REMARK INTRA:                  -0.024
REMARK UNBOUND:                 0.015
REMARK SMILES CC1=CC[C@@H]2[C@@H]3[C@H](C(C)C)CC[C@@]2(C)[C@@H]13
REMARK SMILES IDX 1 1 2 2 3 3 4 4 5 5 6 6 15 7 13 8 12 9 11 10 7 11 14 12 8 13
REMARK SMILES IDX 9 14 10 15
REMARK H PARENT
REMARK Flexibility Score: inf
ROOT
ATOM      1  C   UNL     1     101.113 106.859 125.154  1.00  0.00     0.039 C 
ATOM      2  C   UNL     1     102.237 106.322 125.984  1.00  0.00    -0.073 C 
ATOM      3  C   UNL     1     102.789 106.907 126.984  1.00  0.00    -0.027 C 
ATOM      4  C   UNL     1     103.463 105.504 128.816  1.00  0.00     0.031 C 
ATOM      5  C   UNL     1     103.028 104.487 128.462  1.00  0.00     0.003 C 
ATOM      6  C   UNL     1     103.985 104.941 127.259  1.00  0.00     0.004 C 
ATOM      7  C   UNL     1     102.295 105.172 126.783  1.00  0.00     0.024 C 
ATOM      8  C   UNL     1     101.757 105.463 128.455  1.00  0.00    -0.022 C 
ATOM      9  C   UNL     1     102.142 107.329 129.224  1.00  0.00     0.008 C 
ATOM     10  C   UNL     1     104.017 107.800 128.872  1.00  0.00     0.005 C 
ATOM     11  C   UNL     1     105.049 106.671 127.639  1.00  0.00    -0.005 C 
ATOM     12  C   UNL     1     100.424 104.823 128.821  1.00  0.00     0.012 C 
ENDROOT
BRANCH  11  13
ATOM     13  C   UNL     1     106.498 106.419 128.137  1.00  0.00    -0.014 C 
ATOM     14  C   UNL     1     107.352 107.687 127.985  1.00  0.00     0.007 C 
ATOM     15  C   UNL     1     107.143 105.261 127.367  1.00  0.00     0.007 C 
ENDBRANCH  11  13
TORSDOF 1
ENDMDL
