MODEL 1
REMARK VINA RESULT:    -3.736      0.000      0.000
REMARK INTER + INTRA:          -4.420
REMARK INTER:                  -4.391
REMARK INTRA:                  -0.030
REMARK UNBOUND:                -0.030
REMARK SMILES O=C([O-])CCC(=O)[O-]
REMARK SMILES IDX 4 1 2 2 1 3 3 4 5 5 6 6 7 7 8 8
REMARK H PARENT
REMARK Flexibility Score: inf
ROOT
ATOM      1  C   UNL     1      38.629  54.825  60.364  1.00  0.00     0.059 C 
ENDROOT
BRANCH   1   2
ATOM      2  C   UNL     1      39.845  54.071  60.808  1.00  0.00     0.042 C 
ATOM      3  O   UNL     1      39.797  53.340  61.833  1.00  0.00    -0.550 OA
ATOM      4  O   UNL     1      41.018  54.142  60.067  1.00  0.00    -0.550 OA
ENDBRANCH   1   2
BRANCH   1   5
ATOM      5  C   UNL     1      37.421  53.897  60.187  1.00  0.00     0.059 C 
BRANCH   5   6
ATOM      6  C   UNL     1      36.307  54.578  59.453  1.00  0.00     0.042 C 
ATOM      7  O   UNL     1      35.540  53.915  58.706  1.00  0.00    -0.550 OA
ATOM      8  O   UNL     1      36.139  55.953  59.563  1.00  0.00    -0.550 OA
ENDBRANCH   5   6
ENDBRANCH   1   5
TORSDOF 3
ENDMDL
MODEL 2
REMARK VINA RESULT:    -3.712      2.810      4.219
REMARK INTER + INTRA:          -4.393
REMARK INTER:                  -4.276
REMARK INTRA:                  -0.117
REMARK UNBOUND:                -0.030
REMARK SMILES O=C([O-])CCC(=O)[O-]
REMARK SMILES IDX 4 1 2 2 1 3 3 4 5 5 6 6 7 7 8 8
REMARK H PARENT
REMARK Flexibility Score: inf
ROOT
ATOM      1  C   UNL     1      42.597  54.831  60.597  1.00  0.00     0.059 C 
ENDROOT
BRANCH   1   2
ATOM      2  C   UNL     1      43.004  56.079  59.875  1.00  0.00     0.042 C 
ATOM      3  O   UNL     1      44.083  56.657  60.171  1.00  0.00    -0.550 OA
ATOM      4  O   UNL     1      42.214  56.579  58.848  1.00  0.00    -0.550 OA
ENDBRANCH   1   2
BRANCH   1   5
ATOM      5  C   UNL     1      41.388  54.161  59.933  1.00  0.00     0.059 C 
BRANCH   5   6
ATOM      6  C   UNL     1      40.147  54.328  60.754  1.00  0.00     0.042 C 
ATOM      7  O   UNL     1      39.821  53.450  61.597  1.00  0.00    -0.550 OA
ATOM      8  O   UNL     1      39.328  55.434  60.562  1.00  0.00    -0.550 OA
ENDBRANCH   5   6
ENDBRANCH   1   5
TORSDOF 3
ENDMDL
MODEL 3
REMARK VINA RESULT:    -3.702      2.863      5.182
REMARK INTER + INTRA:          -4.381
REMARK INTER:                  -4.264
REMARK INTRA:                  -0.117
REMARK UNBOUND:                -0.030
REMARK SMILES O=C([O-])CCC(=O)[O-]
REMARK SMILES IDX 4 1 2 2 1 3 3 4 5 5 6 6 7 7 8 8
REMARK H PARENT
REMARK Flexibility Score: inf
ROOT
ATOM      1  C   UNL     1      41.497  54.164  59.922  1.00  0.00     0.059 C 
ENDROOT
BRANCH   1   2
ATOM      2  C   UNL     1      40.225  54.343  60.691  1.00  0.00     0.042 C 
ATOM      3  O   UNL     1      39.866  53.476  61.532  1.00  0.00    -0.550 OA
ATOM      4  O   UNL     1      39.457  55.487  60.512  1.00  0.00    -0.550 OA
ENDBRANCH   1   2
BRANCH   1   5
ATOM      5  C   UNL     1      42.675  54.871  60.602  1.00  0.00     0.059 C 
BRANCH   5   6
ATOM      6  C   UNL     1      43.114  56.077  59.830  1.00  0.00     0.042 C 
ATOM      7  O   UNL     1      44.140  56.717  60.182  1.00  0.00    -0.550 OA
ATOM      8  O   UNL     1      42.366  56.520  58.746  1.00  0.00    -0.550 OA
ENDBRANCH   5   6
ENDBRANCH   1   5
TORSDOF 3
ENDMDL
MODEL 4
REMARK VINA RESULT:    -3.698      2.893      4.372
REMARK INTER + INTRA:          -4.377
REMARK INTER:                  -4.257
REMARK INTRA:                  -0.119
REMARK UNBOUND:                -0.030
REMARK SMILES O=C([O-])CCC(=O)[O-]
REMARK SMILES IDX 4 1 2 2 1 3 3 4 5 5 6 6 7 7 8 8
REMARK H PARENT
REMARK Flexibility Score: inf
ROOT
ATOM      1  C   UNL     1      42.652  54.863  60.613  1.00  0.00     0.059 C 
ENDROOT
BRANCH   1   2
ATOM      2  C   UNL     1      43.083  56.096  59.879  1.00  0.00     0.042 C 
ATOM      3  O   UNL     1      44.131  56.704  60.225  1.00  0.00    -0.550 OA
ATOM      4  O   UNL     1      42.353  56.548  58.788  1.00  0.00    -0.550 OA
ENDBRANCH   1   2
BRANCH   1   5
ATOM      5  C   UNL     1      41.465  54.180  59.924  1.00  0.00     0.059 C 
BRANCH   5   6
ATOM      6  C   UNL     1      40.202  54.346  60.712  1.00  0.00     0.042 C 
ATOM      7  O   UNL     1      39.531  55.408  60.619  1.00  0.00    -0.550 OA
ATOM      8  O   UNL     1      39.786  53.343  61.579  1.00  0.00    -0.550 OA
ENDBRANCH   5   6
ENDBRANCH   1   5
TORSDOF 3
ENDMDL
MODEL 5
REMARK VINA RESULT:    -3.689      0.457      4.281
REMARK INTER + INTRA:          -4.366
REMARK INTER:                  -4.336
REMARK INTRA:                  -0.029
REMARK UNBOUND:                -0.030
REMARK SMILES O=C([O-])CCC(=O)[O-]
REMARK SMILES IDX 4 1 2 2 1 3 3 4 5 5 6 6 7 7 8 8
REMARK H PARENT
REMARK Flexibility Score: inf
ROOT
ATOM      1  C   UNL     1      37.578  54.213  60.154  1.00  0.00     0.059 C 
ENDROOT
BRANCH   1   2
ATOM      2  C   UNL     1      36.512  55.099  59.587  1.00  0.00     0.042 C 
ATOM      3  O   UNL     1      35.702  54.649  58.734  1.00  0.00    -0.550 OA
ATOM      4  O   UNL     1      36.385  56.409  60.031  1.00  0.00    -0.550 OA
ENDBRANCH   1   2
BRANCH   1   5
ATOM      5  C   UNL     1      38.842  55.004  60.510  1.00  0.00     0.059 C 
BRANCH   5   6
ATOM      6  C   UNL     1      39.981  54.096  60.857  1.00  0.00     0.042 C 
ATOM      7  O   UNL     1      39.876  53.283  61.814  1.00  0.00    -0.550 OA
ATOM      8  O   UNL     1      41.174  54.173  60.149  1.00  0.00    -0.550 OA
ENDBRANCH   5   6
ENDBRANCH   1   5
TORSDOF 3
ENDMDL
MODEL 6
REMARK VINA RESULT:    -3.611      1.880      2.274
REMARK INTER + INTRA:          -4.274
REMARK INTER:                  -4.173
REMARK INTRA:                  -0.101
REMARK UNBOUND:                -0.030
REMARK SMILES O=C([O-])CCC(=O)[O-]
REMARK SMILES IDX 4 1 2 2 1 3 3 4 5 5 6 6 7 7 8 8
REMARK H PARENT
REMARK Flexibility Score: inf
ROOT
ATOM      1  C   UNL     1      38.006  56.277  60.692  1.00  0.00     0.059 C 
ENDROOT
BRANCH   1   2
ATOM      2  C   UNL     1      39.441  56.345  60.268  1.00  0.00     0.042 C 
ATOM      3  O   UNL     1      40.186  55.337  60.395  1.00  0.00    -0.550 OA
ATOM      4  O   UNL     1      39.944  57.506  59.694  1.00  0.00    -0.550 OA
ENDBRANCH   1   2
BRANCH   1   5
ATOM      5  C   UNL     1      37.079  55.975  59.509  1.00  0.00     0.059 C 
BRANCH   5   6
ATOM      6  C   UNL     1      36.608  54.553  59.528  1.00  0.00     0.042 C 
ATOM      7  O   UNL     1      37.224  53.690  60.207  1.00  0.00    -0.550 OA
ATOM      8  O   UNL     1      35.512  54.173  58.764  1.00  0.00    -0.550 OA
ENDBRANCH   5   6
ENDBRANCH   1   5
TORSDOF 3
ENDMDL
MODEL 7
REMARK VINA RESULT:    -3.604      2.336      3.626
REMARK INTER + INTRA:          -4.266
REMARK INTER:                  -4.164
REMARK INTRA:                  -0.102
REMARK UNBOUND:                -0.030
REMARK SMILES O=C([O-])CCC(=O)[O-]
REMARK SMILES IDX 4 1 2 2 1 3 3 4 5 5 6 6 7 7 8 8
REMARK H PARENT
REMARK Flexibility Score: inf
ROOT
ATOM      1  C   UNL     1      37.920  55.697  60.069  1.00  0.00     0.059 C 
ENDROOT
BRANCH   1   2
ATOM      2  C   UNL     1      38.183  54.281  60.482  1.00  0.00     0.042 C 
ATOM      3  O   UNL     1      37.361  53.374  60.188  1.00  0.00    -0.550 OA
ATOM      4  O   UNL     1      39.355  53.957  61.153  1.00  0.00    -0.550 OA
ENDBRANCH   1   2
BRANCH   1   5
ATOM      5  C   UNL     1      38.903  56.671  60.729  1.00  0.00     0.059 C 
BRANCH   5   6
ATOM      6  C   UNL     1      39.950  57.135  59.763  1.00  0.00     0.042 C 
ATOM      7  O   UNL     1      41.157  56.822  59.938  1.00  0.00    -0.550 OA
ATOM      8  O   UNL     1      39.598  57.946  58.691  1.00  0.00    -0.550 OA
ENDBRANCH   5   6
ENDBRANCH   1   5
TORSDOF 3
ENDMDL
MODEL 8
REMARK VINA RESULT:    -3.597      1.832      3.886
REMARK INTER + INTRA:          -4.258
REMARK INTER:                  -4.155
REMARK INTRA:                  -0.103
REMARK UNBOUND:                -0.030
REMARK SMILES O=C([O-])CCC(=O)[O-]
REMARK SMILES IDX 4 1 2 2 1 3 3 4 5 5 6 6 7 7 8 8
REMARK H PARENT
REMARK Flexibility Score: inf
ROOT
ATOM      1  C   UNL     1      37.042  55.926  59.514  1.00  0.00     0.059 C 
ENDROOT
BRANCH   1   2
ATOM      2  C   UNL     1      36.565  54.506  59.503  1.00  0.00     0.042 C 
ATOM      3  O   UNL     1      37.132  53.642  60.223  1.00  0.00    -0.550 OA
ATOM      4  O   UNL     1      35.467  54.146  58.731  1.00  0.00    -0.550 OA
ENDBRANCH   1   2
BRANCH   1   5
ATOM      5  C   UNL     1      37.951  56.208  60.716  1.00  0.00     0.059 C 
BRANCH   5   6
ATOM      6  C   UNL     1      39.393  56.262  60.315  1.00  0.00     0.042 C 
ATOM      7  O   UNL     1      40.104  55.224  60.365  1.00  0.00    -0.550 OA
ATOM      8  O   UNL     1      39.962  57.467  59.924  1.00  0.00    -0.550 OA
ENDBRANCH   5   6
ENDBRANCH   1   5
TORSDOF 3
ENDMDL
MODEL 9
REMARK VINA RESULT:    -3.549      2.213      4.553
REMARK INTER + INTRA:          -4.202
REMARK INTER:                  -4.077
REMARK INTRA:                  -0.124
REMARK UNBOUND:                -0.030
REMARK SMILES O=C([O-])CCC(=O)[O-]
REMARK SMILES IDX 4 1 2 2 1 3 3 4 5 5 6 6 7 7 8 8
REMARK H PARENT
REMARK Flexibility Score: inf
ROOT
ATOM      1  C   UNL     1      40.178  54.114  61.013  1.00  0.00     0.059 C 
ENDROOT
BRANCH   1   2
ATOM      2  C   UNL     1      38.858  54.700  60.614  1.00  0.00     0.042 C 
ATOM      3  O   UNL     1      37.908  53.946  60.274  1.00  0.00    -0.550 OA
ATOM      4  O   UNL     1      38.664  56.074  60.660  1.00  0.00    -0.550 OA
ENDBRANCH   1   2
BRANCH   1   5
ATOM      5  C   UNL     1      41.173  54.116  59.847  1.00  0.00     0.059 C 
BRANCH   5   6
ATOM      6  C   UNL     1      42.062  55.321  59.884  1.00  0.00     0.042 C 
ATOM      7  O   UNL     1      41.740  56.367  59.261  1.00  0.00    -0.550 OA
ATOM      8  O   UNL     1      43.266  55.277  60.576  1.00  0.00    -0.550 OA
ENDBRANCH   5   6
ENDBRANCH   1   5
TORSDOF 3
ENDMDL
