MODEL 1
REMARK VINA RESULT:    -4.375      0.000      0.000
REMARK INTER + INTRA:          -7.108
REMARK INTER:                  -6.421
REMARK INTRA:                  -0.687
REMARK UNBOUND:                -0.687
REMARK SMILES O=C([O-])CCCCCCCC(=O)[O-]
REMARK SMILES IDX 7 1 6 2 5 3 4 4 2 5 1 6 3 7 8 8 9 9 10 10 11 11 12 12 13 13
REMARK H PARENT
REMARK Flexibility Score: inf
ROOT
ATOM      1  C   UNL     1     -36.824  20.057 -30.727  1.00  0.00     0.000 C 
ENDROOT
BRANCH   1   2
ATOM      2  C   UNL     1     -38.123  19.483 -31.307  1.00  0.00     0.000 C 
BRANCH   2   3
ATOM      3  C   UNL     1     -38.472  18.140 -30.653  1.00  0.00     0.006 C 
BRANCH   3   4
ATOM      4  C   UNL     1     -37.534  17.839 -29.482  1.00  0.00     0.053 C 
BRANCH   4   5
ATOM      5  C   UNL     1     -36.795  16.559 -29.719  1.00  0.00     0.041 C 
ATOM      6  O   UNL     1     -37.308  15.460 -29.383  1.00  0.00    -0.550 OA
ATOM      7  O   UNL     1     -35.519  16.585 -30.266  1.00  0.00    -0.550 OA
ENDBRANCH   4   5
ENDBRANCH   3   4
ENDBRANCH   2   3
ENDBRANCH   1   2
BRANCH   1   8
ATOM      8  C   UNL     1     -37.011  21.515 -30.294  1.00  0.00     0.000 C 
BRANCH   8   9
ATOM      9  C   UNL     1     -37.495  21.600 -28.839  1.00  0.00     0.006 C 
BRANCH   9  10
ATOM     10  C   UNL     1     -38.745  22.477 -28.692  1.00  0.00     0.053 C 
BRANCH  10  11
ATOM     11  C   UNL     1     -39.982  21.760 -29.140  1.00  0.00     0.041 C 
ATOM     12  O   UNL     1     -40.186  20.568 -28.789  1.00  0.00    -0.550 OA
ATOM     13  O   UNL     1     -40.894  22.399 -29.971  1.00  0.00    -0.550 OA
ENDBRANCH  10  11
ENDBRANCH   9  10
ENDBRANCH   8   9
ENDBRANCH   1   8
TORSDOF 8
ENDMDL
MODEL 2
REMARK VINA RESULT:    -4.347      1.752      5.363
REMARK INTER + INTRA:          -7.066
REMARK INTER:                  -6.405
REMARK INTRA:                  -0.661
REMARK UNBOUND:                -0.687
REMARK SMILES O=C([O-])CCCCCCCC(=O)[O-]
REMARK SMILES IDX 7 1 6 2 5 3 4 4 2 5 1 6 3 7 8 8 9 9 10 10 11 11 12 12 13 13
REMARK H PARENT
REMARK Flexibility Score: inf
ROOT
ATOM      1  C   UNL     1     -37.068  19.843 -28.174  1.00  0.00     0.000 C 
ENDROOT
BRANCH   1   2
ATOM      2  C   UNL     1     -38.328  19.048 -27.810  1.00  0.00     0.000 C 
BRANCH   2   3
ATOM      3  C   UNL     1     -39.574  19.663 -28.458  1.00  0.00     0.006 C 
BRANCH   3   4
ATOM      4  C   UNL     1     -39.189  20.643 -29.569  1.00  0.00     0.053 C 
BRANCH   4   5
ATOM      5  C   UNL     1     -39.774  21.994 -29.302  1.00  0.00     0.041 C 
ATOM      6  O   UNL     1     -39.220  22.773 -28.482  1.00  0.00    -0.550 OA
ATOM      7  O   UNL     1     -40.957  22.374 -29.921  1.00  0.00    -0.550 OA
ENDBRANCH   4   5
ENDBRANCH   3   4
ENDBRANCH   2   3
ENDBRANCH   1   2
BRANCH   1   8
ATOM      8  C   UNL     1     -35.868  18.912 -28.377  1.00  0.00     0.000 C 
BRANCH   8   9
ATOM      9  C   UNL     1     -35.710  18.532 -29.857  1.00  0.00     0.006 C 
BRANCH   9  10
ATOM     10  C   UNL     1     -35.708  17.013 -30.070  1.00  0.00     0.053 C 
BRANCH  10  11
ATOM     11  C   UNL     1     -37.083  16.432 -29.942  1.00  0.00     0.041 C 
ATOM     12  O   UNL     1     -37.269  15.390 -29.260  1.00  0.00    -0.550 OA
ATOM     13  O   UNL     1     -38.153  17.023 -30.603  1.00  0.00    -0.550 OA
ENDBRANCH  10  11
ENDBRANCH   9  10
ENDBRANCH   8   9
ENDBRANCH   1   8
TORSDOF 8
ENDMDL
MODEL 3
REMARK VINA RESULT:    -4.335      0.168      5.295
REMARK INTER + INTRA:          -7.049
REMARK INTER:                  -6.298
REMARK INTRA:                  -0.752
REMARK UNBOUND:                -0.687
REMARK SMILES O=C([O-])CCCCCCCC(=O)[O-]
REMARK SMILES IDX 7 1 6 2 5 3 4 4 2 5 1 6 3 7 8 8 9 9 10 10 11 11 12 12 13 13
REMARK H PARENT
REMARK Flexibility Score: inf
ROOT
ATOM      1  C   UNL     1     -36.755  20.028 -30.711  1.00  0.00     0.000 C 
ENDROOT
BRANCH   1   2
ATOM      2  C   UNL     1     -36.946  21.491 -30.296  1.00  0.00     0.000 C 
BRANCH   2   3
ATOM      3  C   UNL     1     -37.350  21.599 -28.821  1.00  0.00     0.006 C 
BRANCH   3   4
ATOM      4  C   UNL     1     -38.593  22.477 -28.655  1.00  0.00     0.053 C 
BRANCH   4   5
ATOM      5  C   UNL     1     -39.821  21.730 -29.073  1.00  0.00     0.041 C 
ATOM      6  O   UNL     1     -40.076  20.602 -28.577  1.00  0.00    -0.550 OA
ATOM      7  O   UNL     1     -40.657  22.259 -30.048  1.00  0.00    -0.550 OA
ENDBRANCH   4   5
ENDBRANCH   3   4
ENDBRANCH   2   3
ENDBRANCH   1   2
BRANCH   1   8
ATOM      8  C   UNL     1     -38.055  19.440 -31.272  1.00  0.00     0.000 C 
BRANCH   8   9
ATOM      9  C   UNL     1     -38.444  18.153 -30.529  1.00  0.00     0.006 C 
BRANCH   9  10
ATOM     10  C   UNL     1     -37.432  17.785 -29.437  1.00  0.00     0.053 C 
BRANCH  10  11
ATOM     11  C   UNL     1     -36.755  16.479 -29.722  1.00  0.00     0.041 C 
ATOM     12  O   UNL     1     -35.680  16.454 -30.378  1.00  0.00    -0.550 OA
ATOM     13  O   UNL     1     -37.328  15.289 -29.292  1.00  0.00    -0.550 OA
ENDBRANCH  10  11
ENDBRANCH   9  10
ENDBRANCH   8   9
ENDBRANCH   1   8
TORSDOF 8
ENDMDL
MODEL 4
REMARK VINA RESULT:    -4.251      1.626      2.301
REMARK INTER + INTRA:          -6.926
REMARK INTER:                  -6.232
REMARK INTRA:                  -0.694
REMARK UNBOUND:                -0.687
REMARK SMILES O=C([O-])CCCCCCCC(=O)[O-]
REMARK SMILES IDX 7 1 6 2 5 3 4 4 2 5 1 6 3 7 8 8 9 9 10 10 11 11 12 12 13 13
REMARK H PARENT
REMARK Flexibility Score: inf
ROOT
ATOM      1  C   UNL     1     -36.719  21.391 -29.871  1.00  0.00     0.000 C 
ENDROOT
BRANCH   1   2
ATOM      2  C   UNL     1     -35.874  20.225 -29.346  1.00  0.00     0.000 C 
BRANCH   2   3
ATOM      3  C   UNL     1     -36.035  18.984 -30.232  1.00  0.00     0.006 C 
BRANCH   3   4
ATOM      4  C   UNL     1     -36.056  17.706 -29.388  1.00  0.00     0.053 C 
BRANCH   4   5
ATOM      5  C   UNL     1     -37.196  16.827 -29.797  1.00  0.00     0.041 C 
ATOM      6  O   UNL     1     -38.162  17.304 -30.447  1.00  0.00    -0.550 OA
ATOM      7  O   UNL     1     -37.214  15.491 -29.418  1.00  0.00    -0.550 OA
ENDBRANCH   4   5
ENDBRANCH   3   4
ENDBRANCH   2   3
ENDBRANCH   1   2
BRANCH   1   8
ATOM      8  C   UNL     1     -37.421  22.125 -28.723  1.00  0.00     0.000 C 
BRANCH   8   9
ATOM      9  C   UNL     1     -38.947  22.052 -28.873  1.00  0.00     0.006 C 
BRANCH   9  10
ATOM     10  C   UNL     1     -39.411  20.701 -29.434  1.00  0.00     0.053 C 
BRANCH  10  11
ATOM     11  C   UNL     1     -39.761  19.736 -28.342  1.00  0.00     0.041 C 
ATOM     12  O   UNL     1     -40.966  19.539 -28.034  1.00  0.00    -0.550 OA
ATOM     13  O   UNL     1     -38.755  19.079 -27.645  1.00  0.00    -0.550 OA
ENDBRANCH  10  11
ENDBRANCH   9  10
ENDBRANCH   8   9
ENDBRANCH   1   8
TORSDOF 8
ENDMDL
MODEL 5
REMARK VINA RESULT:    -4.224      1.633      4.543
REMARK INTER + INTRA:          -6.887
REMARK INTER:                  -6.133
REMARK INTRA:                  -0.754
REMARK UNBOUND:                -0.687
REMARK SMILES O=C([O-])CCCCCCCC(=O)[O-]
REMARK SMILES IDX 7 1 6 2 5 3 4 4 2 5 1 6 3 7 8 8 9 9 10 10 11 11 12 12 13 13
REMARK H PARENT
REMARK Flexibility Score: inf
ROOT
ATOM      1  C   UNL     1     -36.022  20.132 -30.381  1.00  0.00     0.000 C 
ENDROOT
BRANCH   1   2
ATOM      2  C   UNL     1     -37.175  21.139 -30.456  1.00  0.00     0.000 C 
BRANCH   2   3
ATOM      3  C   UNL     1     -37.908  21.240 -29.114  1.00  0.00     0.006 C 
BRANCH   3   4
ATOM      4  C   UNL     1     -39.386  20.870 -29.266  1.00  0.00     0.053 C 
BRANCH   4   5
ATOM      5  C   UNL     1     -39.752  19.773 -28.316  1.00  0.00     0.041 C 
ATOM      6  O   UNL     1     -38.853  19.088 -27.763  1.00  0.00    -0.550 OA
ATOM      7  O   UNL     1     -41.088  19.475 -28.080  1.00  0.00    -0.550 OA
ENDBRANCH   4   5
ENDBRANCH   3   4
ENDBRANCH   2   3
ENDBRANCH   1   2
BRANCH   1   8
ATOM      8  C   UNL     1     -35.672  19.802 -28.926  1.00  0.00     0.000 C 
BRANCH   8   9
ATOM      9  C   UNL     1     -35.509  18.287 -28.728  1.00  0.00     0.006 C 
BRANCH   9  10
ATOM     10  C   UNL     1     -35.862  17.496 -29.994  1.00  0.00     0.053 C 
BRANCH  10  11
ATOM     11  C   UNL     1     -37.176  16.787 -29.858  1.00  0.00     0.041 C 
ATOM     12  O   UNL     1     -37.250  15.709 -29.211  1.00  0.00    -0.550 OA
ATOM     13  O   UNL     1     -38.310  17.300 -30.474  1.00  0.00    -0.550 OA
ENDBRANCH  10  11
ENDBRANCH   9  10
ENDBRANCH   8   9
ENDBRANCH   1   8
TORSDOF 8
ENDMDL
MODEL 6
REMARK VINA RESULT:    -4.180      1.692      2.376
REMARK INTER + INTRA:          -6.821
REMARK INTER:                  -6.293
REMARK INTRA:                  -0.529
REMARK UNBOUND:                -0.687
REMARK SMILES O=C([O-])CCCCCCCC(=O)[O-]
REMARK SMILES IDX 7 1 6 2 5 3 4 4 2 5 1 6 3 7 8 8 9 9 10 10 11 11 12 12 13 13
REMARK H PARENT
REMARK Flexibility Score: inf
ROOT
ATOM      1  C   UNL     1     -37.104  19.617 -27.967  1.00  0.00     0.000 C 
ENDROOT
BRANCH   1   2
ATOM      2  C   UNL     1     -36.614  18.176 -28.150  1.00  0.00     0.000 C 
BRANCH   2   3
ATOM      3  C   UNL     1     -36.454  17.832 -29.635  1.00  0.00     0.006 C 
BRANCH   3   4
ATOM      4  C   UNL     1     -37.490  16.794 -30.073  1.00  0.00     0.053 C 
BRANCH   4   5
ATOM      5  C   UNL     1     -38.567  17.440 -30.887  1.00  0.00     0.041 C 
ATOM      6  O   UNL     1     -39.558  16.767 -31.276  1.00  0.00    -0.550 OA
ATOM      7  O   UNL     1     -38.452  18.773 -31.259  1.00  0.00    -0.550 OA
ENDBRANCH   4   5
ENDBRANCH   3   4
ENDBRANCH   2   3
ENDBRANCH   1   2
BRANCH   1   8
ATOM      8  C   UNL     1     -36.385  20.571 -28.929  1.00  0.00     0.000 C 
BRANCH   8   9
ATOM      9  C   UNL     1     -37.388  21.479 -29.656  1.00  0.00     0.006 C 
BRANCH   9  10
ATOM     10  C   UNL     1     -38.523  21.945 -28.735  1.00  0.00     0.053 C 
BRANCH  10  11
ATOM     11  C   UNL     1     -39.857  21.444 -29.199  1.00  0.00     0.041 C 
ATOM     12  O   UNL     1     -40.551  22.134 -29.992  1.00  0.00    -0.550 OA
ATOM     13  O   UNL     1     -40.347  20.232 -28.730  1.00  0.00    -0.550 OA
ENDBRANCH  10  11
ENDBRANCH   9  10
ENDBRANCH   8   9
ENDBRANCH   1   8
TORSDOF 8
ENDMDL
MODEL 7
REMARK VINA RESULT:    -4.166      1.640      4.865
REMARK INTER + INTRA:          -6.801
REMARK INTER:                  -6.121
REMARK INTRA:                  -0.679
REMARK UNBOUND:                -0.687
REMARK SMILES O=C([O-])CCCCCCCC(=O)[O-]
REMARK SMILES IDX 7 1 6 2 5 3 4 4 2 5 1 6 3 7 8 8 9 9 10 10 11 11 12 12 13 13
REMARK H PARENT
REMARK Flexibility Score: inf
ROOT
ATOM      1  C   UNL     1     -35.847  19.830 -28.757  1.00  0.00     0.000 C 
ENDROOT
BRANCH   1   2
ATOM      2  C   UNL     1     -36.237  21.303 -28.588  1.00  0.00     0.000 C 
BRANCH   2   3
ATOM      3  C   UNL     1     -37.389  21.680 -29.527  1.00  0.00     0.006 C 
BRANCH   3   4
ATOM      4  C   UNL     1     -38.550  22.304 -28.748  1.00  0.00     0.053 C 
BRANCH   4   5
ATOM      5  C   UNL     1     -39.849  21.680 -29.154  1.00  0.00     0.041 C 
ATOM      6  O   UNL     1     -40.690  22.341 -29.816  1.00  0.00    -0.550 OA
ATOM      7  O   UNL     1     -40.150  20.383 -28.759  1.00  0.00    -0.550 OA
ENDBRANCH   4   5
ENDBRANCH   3   4
ENDBRANCH   2   3
ENDBRANCH   1   2
BRANCH   1   8
ATOM      8  C   UNL     1     -36.558  18.949 -27.724  1.00  0.00     0.000 C 
BRANCH   8   9
ATOM      9  C   UNL     1     -37.670  18.118 -28.382  1.00  0.00     0.006 C 
BRANCH   9  10
ATOM     10  C   UNL     1     -37.271  17.610 -29.772  1.00  0.00     0.053 C 
BRANCH  10  11
ATOM     11  C   UNL     1     -38.322  17.909 -30.798  1.00  0.00     0.041 C 
ATOM     12  O   UNL     1     -38.408  19.061 -31.298  1.00  0.00    -0.550 OA
ATOM     13  O   UNL     1     -39.225  16.924 -31.176  1.00  0.00    -0.550 OA
ENDBRANCH  10  11
ENDBRANCH   9  10
ENDBRANCH   8   9
ENDBRANCH   1   8
TORSDOF 8
ENDMDL
MODEL 8
REMARK VINA RESULT:    -4.140      2.552      4.018
REMARK INTER + INTRA:          -6.762
REMARK INTER:                  -5.950
REMARK INTRA:                  -0.813
REMARK UNBOUND:                -0.687
REMARK SMILES O=C([O-])CCCCCCCC(=O)[O-]
REMARK SMILES IDX 7 1 6 2 5 3 4 4 2 5 1 6 3 7 8 8 9 9 10 10 11 11 12 12 13 13
REMARK H PARENT
REMARK Flexibility Score: inf
ROOT
ATOM      1  C   UNL     1     -36.655  17.522 -29.288  1.00  0.00     0.000 C 
ENDROOT
BRANCH   1   2
ATOM      2  C   UNL     1     -37.776  17.265 -30.301  1.00  0.00     0.000 C 
BRANCH   2   3
ATOM      3  C   UNL     1     -38.975  18.185 -30.043  1.00  0.00     0.006 C 
BRANCH   3   4
ATOM      4  C   UNL     1     -38.737  19.064 -28.812  1.00  0.00     0.053 C 
BRANCH   4   5
ATOM      5  C   UNL     1     -39.905  19.971 -28.583  1.00  0.00     0.041 C 
ATOM      6  O   UNL     1     -40.975  19.517 -28.101  1.00  0.00    -0.550 OA
ATOM      7  O   UNL     1     -39.828  21.309 -28.949  1.00  0.00    -0.550 OA
ENDBRANCH   4   5
ENDBRANCH   3   4
ENDBRANCH   2   3
ENDBRANCH   1   2
BRANCH   1   8
ATOM      8  C   UNL     1     -35.399  18.066 -29.980  1.00  0.00     0.000 C 
BRANCH   8   9
ATOM      9  C   UNL     1     -35.133  19.522 -29.572  1.00  0.00     0.006 C 
BRANCH   9  10
ATOM     10  C   UNL     1     -35.203  20.483 -30.766  1.00  0.00     0.053 C 
BRANCH  10  11
ATOM     11  C   UNL     1     -36.506  21.222 -30.810  1.00  0.00     0.041 C 
ATOM     12  O   UNL     1     -37.381  20.912 -31.661  1.00  0.00    -0.550 OA
ATOM     13  O   UNL     1     -36.740  22.273 -29.932  1.00  0.00    -0.550 OA
ENDBRANCH  10  11
ENDBRANCH   9  10
ENDBRANCH   8   9
ENDBRANCH   1   8
TORSDOF 8
ENDMDL
MODEL 9
REMARK VINA RESULT:    -4.134      1.480      1.999
REMARK INTER + INTRA:          -6.755
REMARK INTER:                  -6.001
REMARK INTRA:                  -0.753
REMARK UNBOUND:                -0.687
REMARK SMILES O=C([O-])CCCCCCCC(=O)[O-]
REMARK SMILES IDX 7 1 6 2 5 3 4 4 2 5 1 6 3 7 8 8 9 9 10 10 11 11 12 12 13 13
REMARK H PARENT
REMARK Flexibility Score: inf
ROOT
ATOM      1  C   UNL     1     -36.111  20.339 -29.862  1.00  0.00     0.000 C 
ENDROOT
BRANCH   1   2
ATOM      2  C   UNL     1     -35.076  19.313 -30.335  1.00  0.00     0.000 C 
BRANCH   2   3
ATOM      3  C   UNL     1     -35.182  18.011 -29.531  1.00  0.00     0.006 C 
BRANCH   3   4
ATOM      4  C   UNL     1     -36.567  17.869 -28.896  1.00  0.00     0.053 C 
BRANCH   4   5
ATOM      5  C   UNL     1     -37.362  16.816 -29.604  1.00  0.00     0.041 C 
ATOM      6  O   UNL     1     -37.214  15.603 -29.304  1.00  0.00    -0.550 OA
ATOM      7  O   UNL     1     -38.230  17.172 -30.628  1.00  0.00    -0.550 OA
ENDBRANCH   4   5
ENDBRANCH   3   4
ENDBRANCH   2   3
ENDBRANCH   1   2
BRANCH   1   8
ATOM      8  C   UNL     1     -36.800  21.016 -31.053  1.00  0.00     0.000 C 
BRANCH   8   9
ATOM      9  C   UNL     1     -38.290  20.646 -31.111  1.00  0.00     0.006 C 
BRANCH   9  10
ATOM     10  C   UNL     1     -38.927  20.582 -29.718  1.00  0.00     0.053 C 
BRANCH  10  11
ATOM     11  C   UNL     1     -39.521  21.898 -29.317  1.00  0.00     0.041 C 
ATOM     12  O   UNL     1     -38.894  22.665 -28.539  1.00  0.00    -0.550 OA
ATOM     13  O   UNL     1     -40.780  22.263 -29.776  1.00  0.00    -0.550 OA
ENDBRANCH  10  11
ENDBRANCH   9  10
ENDBRANCH   8   9
ENDBRANCH   1   8
TORSDOF 8
ENDMDL
