MODEL 1
REMARK VINA RESULT:    -4.128      0.000      0.000
REMARK INTER + INTRA:          -4.389
REMARK INTER:                  -4.369
REMARK INTRA:                  -0.019
REMARK UNBOUND:                -0.019
REMARK SMILES O=C([O-])c1cccnc1
REMARK SMILES IDX 4 1 5 2 9 3 6 4 8 5 7 6 2 7 1 8 3 9
REMARK H PARENT
REMARK Flexibility Score: inf
ROOT
ATOM      1  C   UNL     1      31.842  12.991  15.534  1.00  0.00     0.016 A 
ATOM      2  C   UNL     1      33.137  12.809  15.024  1.00  0.00     0.013 A 
ATOM      3  C   UNL     1      31.597  14.107  16.354  1.00  0.00     0.120 A 
ATOM      4  C   UNL     1      34.147  13.722  15.332  1.00  0.00     0.021 A 
ATOM      5  N   UNL     1      32.599  14.982  16.639  1.00  0.00    -0.264 NA
ATOM      6  C   UNL     1      33.856  14.815  16.150  1.00  0.00     0.111 A 
ENDROOT
BRANCH   1   7
ATOM      7  C   UNL     1      30.763  12.031  15.215  1.00  0.00     0.073 C 
ATOM      8  O   UNL     1      30.017  11.580  16.124  1.00  0.00    -0.545 OA
ATOM      9  O   UNL     1      30.558  11.613  13.904  1.00  0.00    -0.545 OA
ENDBRANCH   1   7
TORSDOF 1
ENDMDL
MODEL 2
REMARK VINA RESULT:    -4.076      8.754      9.748
REMARK INTER + INTRA:          -4.333
REMARK INTER:                  -4.315
REMARK INTRA:                  -0.018
REMARK UNBOUND:                -0.019
REMARK SMILES O=C([O-])c1cccnc1
REMARK SMILES IDX 4 1 5 2 9 3 6 4 8 5 7 6 2 7 1 8 3 9
REMARK H PARENT
REMARK Flexibility Score: inf
ROOT
ATOM      1  C   UNL     1      38.542  18.237  11.432  1.00  0.00     0.016 A 
ATOM      2  C   UNL     1      39.846  18.134  11.942  1.00  0.00     0.013 A 
ATOM      3  C   UNL     1      38.380  18.506  10.061  1.00  0.00     0.120 A 
ATOM      4  C   UNL     1      40.945  18.299  11.097  1.00  0.00     0.021 A 
ATOM      5  N   UNL     1      39.468  18.663   9.259  1.00  0.00    -0.264 NA
ATOM      6  C   UNL     1      40.734  18.565   9.744  1.00  0.00     0.111 A 
ENDROOT
BRANCH   1   7
ATOM      7  C   UNL     1      37.370  18.064  12.317  1.00  0.00     0.073 C 
ATOM      8  O   UNL     1      36.485  17.208  12.047  1.00  0.00    -0.545 OA
ATOM      9  O   UNL     1      37.230  18.844  13.460  1.00  0.00    -0.545 OA
ENDBRANCH   1   7
TORSDOF 1
ENDMDL
MODEL 3
REMARK VINA RESULT:    -4.062      8.739      9.736
REMARK INTER + INTRA:          -4.319
REMARK INTER:                  -4.300
REMARK INTRA:                  -0.019
REMARK UNBOUND:                -0.019
REMARK SMILES O=C([O-])c1cccnc1
REMARK SMILES IDX 4 1 5 2 9 3 6 4 8 5 7 6 2 7 1 8 3 9
REMARK H PARENT
REMARK Flexibility Score: inf
ROOT
ATOM      1  C   UNL     1      38.541  18.228  11.445  1.00  0.00     0.016 A 
ATOM      2  C   UNL     1      38.417  18.452  10.064  1.00  0.00     0.013 A 
ATOM      3  C   UNL     1      39.832  18.154  11.997  1.00  0.00     0.120 A 
ATOM      4  C   UNL     1      39.558  18.594   9.272  1.00  0.00     0.021 A 
ATOM      5  N   UNL     1      40.927  18.295  11.203  1.00  0.00    -0.264 NA
ATOM      6  C   UNL     1      40.818  18.512   9.866  1.00  0.00     0.111 A 
ENDROOT
BRANCH   1   7
ATOM      7  C   UNL     1      37.340  18.077  12.295  1.00  0.00     0.073 C 
ATOM      8  O   UNL     1      36.454  17.230  12.005  1.00  0.00    -0.545 OA
ATOM      9  O   UNL     1      37.174  18.868  13.427  1.00  0.00    -0.545 OA
ENDBRANCH   1   7
TORSDOF 1
ENDMDL
MODEL 4
REMARK VINA RESULT:    -4.035      7.621      8.666
REMARK INTER + INTRA:          -4.290
REMARK INTER:                  -4.273
REMARK INTRA:                  -0.017
REMARK UNBOUND:                -0.019
REMARK SMILES O=C([O-])c1cccnc1
REMARK SMILES IDX 4 1 5 2 9 3 6 4 8 5 7 6 2 7 1 8 3 9
REMARK H PARENT
REMARK Flexibility Score: inf
ROOT
ATOM      1  C   UNL     1      37.745  17.736  11.729  1.00  0.00     0.016 A 
ATOM      2  C   UNL     1      37.143  16.571  11.227  1.00  0.00     0.013 A 
ATOM      3  C   UNL     1      37.045  18.491  12.687  1.00  0.00     0.120 A 
ATOM      4  C   UNL     1      35.880  16.185  11.677  1.00  0.00     0.021 A 
ATOM      5  N   UNL     1      35.815  18.092  13.109  1.00  0.00    -0.264 NA
ATOM      6  C   UNL     1      35.224  16.967  12.629  1.00  0.00     0.111 A 
ENDROOT
BRANCH   1   7
ATOM      7  C   UNL     1      39.083  18.156  11.260  1.00  0.00     0.073 C 
ATOM      8  O   UNL     1      40.081  18.087  12.026  1.00  0.00    -0.545 OA
ATOM      9  O   UNL     1      39.258  18.632   9.965  1.00  0.00    -0.545 OA
ENDBRANCH   1   7
TORSDOF 1
ENDMDL
MODEL 5
REMARK VINA RESULT:    -4.034      7.643      8.804
REMARK INTER + INTRA:          -4.289
REMARK INTER:                  -4.273
REMARK INTRA:                  -0.017
REMARK UNBOUND:                -0.019
REMARK SMILES O=C([O-])c1cccnc1
REMARK SMILES IDX 4 1 5 2 9 3 6 4 8 5 7 6 2 7 1 8 3 9
REMARK H PARENT
REMARK Flexibility Score: inf
ROOT
ATOM      1  C   UNL     1      37.661  17.723  11.656  1.00  0.00     0.016 A 
ATOM      2  C   UNL     1      36.932  18.504  12.569  1.00  0.00     0.013 A 
ATOM      3  C   UNL     1      37.087  16.526  11.193  1.00  0.00     0.120 A 
ATOM      4  C   UNL     1      35.670  18.088  12.995  1.00  0.00     0.021 A 
ATOM      5  N   UNL     1      35.855  16.144  11.625  1.00  0.00    -0.264 NA
ATOM      6  C   UNL     1      35.141  16.892  12.507  1.00  0.00     0.111 A 
ENDROOT
BRANCH   1   7
ATOM      7  C   UNL     1      38.999  18.153  11.197  1.00  0.00     0.073 C 
ATOM      8  O   UNL     1      39.172  18.552  10.014  1.00  0.00    -0.545 OA
ATOM      9  O   UNL     1      40.085  18.123  12.065  1.00  0.00    -0.545 OA
ENDBRANCH   1   7
TORSDOF 1
ENDMDL
MODEL 6
REMARK VINA RESULT:    -3.982      3.116      3.923
REMARK INTER + INTRA:          -4.234
REMARK INTER:                  -4.216
REMARK INTRA:                  -0.018
REMARK UNBOUND:                -0.019
REMARK SMILES O=C([O-])c1cccnc1
REMARK SMILES IDX 4 1 5 2 9 3 6 4 8 5 7 6 2 7 1 8 3 9
REMARK H PARENT
REMARK Flexibility Score: inf
ROOT
ATOM      1  C   UNL     1      32.770  14.320  15.193  1.00  0.00     0.016 A 
ATOM      2  C   UNL     1      33.130  12.968  15.320  1.00  0.00     0.013 A 
ATOM      3  C   UNL     1      31.510  14.627  14.649  1.00  0.00     0.120 A 
ATOM      4  C   UNL     1      32.248  11.966  14.912  1.00  0.00     0.021 A 
ATOM      5  N   UNL     1      30.670  13.631  14.259  1.00  0.00    -0.264 NA
ATOM      6  C   UNL     1      31.009  12.321  14.379  1.00  0.00     0.111 A 
ENDROOT
BRANCH   1   7
ATOM      7  C   UNL     1      33.696  15.390  15.622  1.00  0.00     0.073 C 
ATOM      8  O   UNL     1      34.052  16.289  14.815  1.00  0.00    -0.545 OA
ATOM      9  O   UNL     1      34.184  15.418  16.923  1.00  0.00    -0.545 OA
ENDBRANCH   1   7
TORSDOF 1
ENDMDL
MODEL 7
REMARK VINA RESULT:    -3.945      7.794      8.560
REMARK INTER + INTRA:          -4.195
REMARK INTER:                  -4.179
REMARK INTRA:                  -0.016
REMARK UNBOUND:                -0.019
REMARK SMILES O=C([O-])c1cccnc1
REMARK SMILES IDX 4 1 5 2 9 3 6 4 8 5 7 6 2 7 1 8 3 9
REMARK H PARENT
REMARK Flexibility Score: inf
ROOT
ATOM      1  C   UNL     1      36.281  18.348  11.429  1.00  0.00     0.016 A 
ATOM      2  C   UNL     1      35.442  18.953  12.379  1.00  0.00     0.013 A 
ATOM      3  C   UNL     1      36.063  18.632  10.069  1.00  0.00     0.120 A 
ATOM      4  C   UNL     1      34.421  19.811  11.968  1.00  0.00     0.021 A 
ATOM      5  N   UNL     1      35.060  19.472   9.695  1.00  0.00    -0.264 NA
ATOM      6  C   UNL     1      34.244  20.062  10.607  1.00  0.00     0.111 A 
ENDROOT
BRANCH   1   7
ATOM      7  C   UNL     1      37.366  17.438  11.851  1.00  0.00     0.073 C 
ATOM      8  O   UNL     1      37.228  16.189  11.756  1.00  0.00    -0.545 OA
ATOM      9  O   UNL     1      38.555  17.948  12.361  1.00  0.00    -0.545 OA
ENDBRANCH   1   7
TORSDOF 1
ENDMDL
MODEL 8
REMARK VINA RESULT:    -3.925      7.323      8.115
REMARK INTER + INTRA:          -4.174
REMARK INTER:                  -4.157
REMARK INTRA:                  -0.016
REMARK UNBOUND:                -0.019
REMARK SMILES O=C([O-])c1cccnc1
REMARK SMILES IDX 4 1 5 2 9 3 6 4 8 5 7 6 2 7 1 8 3 9
REMARK H PARENT
REMARK Flexibility Score: inf
ROOT
ATOM      1  C   UNL     1      35.822  18.667  11.834  1.00  0.00     0.016 A 
ATOM      2  C   UNL     1      36.805  18.582  12.834  1.00  0.00     0.013 A 
ATOM      3  C   UNL     1      36.211  18.470  10.497  1.00  0.00     0.120 A 
ATOM      4  C   UNL     1      38.130  18.308  12.493  1.00  0.00     0.021 A 
ATOM      5  N   UNL     1      37.509  18.204  10.192  1.00  0.00    -0.264 NA
ATOM      6  C   UNL     1      38.467  18.119  11.152  1.00  0.00     0.111 A 
ENDROOT
BRANCH   1   7
ATOM      7  C   UNL     1      34.415  18.956  12.183  1.00  0.00     0.073 C 
ATOM      8  O   UNL     1      33.929  20.102  11.986  1.00  0.00    -0.545 OA
ATOM      9  O   UNL     1      33.608  17.966  12.733  1.00  0.00    -0.545 OA
ENDBRANCH   1   7
TORSDOF 1
ENDMDL
MODEL 9
REMARK VINA RESULT:    -3.896      8.659      9.436
REMARK INTER + INTRA:          -4.143
REMARK INTER:                  -4.121
REMARK INTRA:                  -0.022
REMARK UNBOUND:                -0.019
REMARK SMILES O=C([O-])c1cccnc1
REMARK SMILES IDX 4 1 5 2 9 3 6 4 8 5 7 6 2 7 1 8 3 9
REMARK H PARENT
REMARK Flexibility Score: inf
ROOT
ATOM      1  C   UNL     1      37.477  18.252  10.163  1.00  0.00     0.016 A 
ATOM      2  C   UNL     1      36.199  18.464  10.705  1.00  0.00     0.013 A 
ATOM      3  C   UNL     1      38.569  18.160  11.044  1.00  0.00     0.120 A 
ATOM      4  C   UNL     1      36.033  18.579  12.086  1.00  0.00     0.021 A 
ATOM      5  N   UNL     1      38.380  18.276  12.387  1.00  0.00    -0.264 NA
ATOM      6  C   UNL     1      37.147  18.481  12.920  1.00  0.00     0.111 A 
ENDROOT
BRANCH   1   7
ATOM      7  C   UNL     1      37.666  18.128   8.702  1.00  0.00     0.073 C 
ATOM      8  O   UNL     1      36.871  18.690   7.903  1.00  0.00    -0.545 OA
ATOM      9  O   UNL     1      38.727  17.388   8.190  1.00  0.00    -0.545 OA
ENDBRANCH   1   7
TORSDOF 1
ENDMDL
