MODEL 1
REMARK VINA RESULT:    -4.785      0.000      0.000
REMARK INTER + INTRA:          -5.526
REMARK INTER:                  -5.345
REMARK INTRA:                  -0.181
REMARK UNBOUND:                -0.181
REMARK SMILES O=C([O-])c1ccccc1C(=O)[O-]
REMARK SMILES IDX 4 1 9 2 5 3 8 4 6 5 7 6 2 7 1 8 3 9 10 10 11 11 12 12
REMARK H PARENT
REMARK Flexibility Score: inf
ROOT
ATOM      1  C   UNL     1      35.904  18.926  10.426  1.00  0.00     0.006 A 
ATOM      2  C   UNL     1      35.387  19.052  11.746  1.00  0.00     0.006 A 
ATOM      3  C   UNL     1      35.374  19.736   9.403  1.00  0.00     0.010 A 
ATOM      4  C   UNL     1      34.316  19.935  11.980  1.00  0.00     0.010 A 
ATOM      5  C   UNL     1      34.328  20.621   9.663  1.00  0.00     0.001 A 
ATOM      6  C   UNL     1      33.792  20.711  10.946  1.00  0.00     0.001 A 
ENDROOT
BRANCH   1   7
ATOM      7  C   UNL     1      36.932  17.924  10.062  1.00  0.00     0.072 C 
ATOM      8  O   UNL     1      36.639  16.699  10.028  1.00  0.00    -0.545 OA
ATOM      9  O   UNL     1      38.245  18.311   9.821  1.00  0.00    -0.545 OA
ENDBRANCH   1   7
BRANCH   2  10
ATOM     10  C   UNL     1      35.969  18.346  12.911  1.00  0.00     0.072 C 
ATOM     11  O   UNL     1      35.435  17.298  13.361  1.00  0.00    -0.545 OA
ATOM     12  O   UNL     1      37.154  18.798  13.479  1.00  0.00    -0.545 OA
ENDBRANCH   2  10
TORSDOF 2
ENDMDL
MODEL 2
REMARK VINA RESULT:    -4.773      0.120      3.002
REMARK INTER + INTRA:          -5.512
REMARK INTER:                  -5.327
REMARK INTRA:                  -0.185
REMARK UNBOUND:                -0.181
REMARK SMILES O=C([O-])c1ccccc1C(=O)[O-]
REMARK SMILES IDX 4 1 9 2 5 3 8 4 6 5 7 6 2 7 1 8 3 9 10 10 11 11 12 12
REMARK H PARENT
REMARK Flexibility Score: inf
ROOT
ATOM      1  C   UNL     1      35.386  19.000  11.726  1.00  0.00     0.006 A 
ATOM      2  C   UNL     1      35.907  18.874  10.408  1.00  0.00     0.006 A 
ATOM      3  C   UNL     1      34.270  19.830  11.945  1.00  0.00     0.010 A 
ATOM      4  C   UNL     1      35.334  19.633   9.370  1.00  0.00     0.010 A 
ATOM      5  C   UNL     1      33.704  20.555  10.897  1.00  0.00     0.001 A 
ATOM      6  C   UNL     1      34.242  20.466   9.615  1.00  0.00     0.001 A 
ENDROOT
BRANCH   1   7
ATOM      7  C   UNL     1      36.013  18.348  12.900  1.00  0.00     0.072 C 
ATOM      8  O   UNL     1      35.452  17.364  13.452  1.00  0.00    -0.545 OA
ATOM      9  O   UNL     1      37.187  18.850  13.447  1.00  0.00    -0.545 OA
ENDBRANCH   1   7
BRANCH   2  10
ATOM     10  C   UNL     1      36.987  17.924  10.055  1.00  0.00     0.072 C 
ATOM     11  O   UNL     1      38.145  18.338   9.782  1.00  0.00    -0.545 OA
ATOM     12  O   UNL     1      36.749  16.555  10.087  1.00  0.00    -0.545 OA
ENDBRANCH   2  10
TORSDOF 2
ENDMDL
MODEL 3
REMARK VINA RESULT:    -4.746      1.435      3.169
REMARK INTER + INTRA:          -5.481
REMARK INTER:                  -5.327
REMARK INTRA:                  -0.154
REMARK UNBOUND:                -0.181
REMARK SMILES O=C([O-])c1ccccc1C(=O)[O-]
REMARK SMILES IDX 4 1 9 2 5 3 8 4 6 5 7 6 2 7 1 8 3 9 10 10 11 11 12 12
REMARK H PARENT
REMARK Flexibility Score: inf
ROOT
ATOM      1  C   UNL     1      35.792  18.653  10.665  1.00  0.00     0.006 A 
ATOM      2  C   UNL     1      35.369  19.383   9.519  1.00  0.00     0.006 A 
ATOM      3  C   UNL     1      35.236  18.966  11.920  1.00  0.00     0.010 A 
ATOM      4  C   UNL     1      34.455  20.441   9.681  1.00  0.00     0.010 A 
ATOM      5  C   UNL     1      34.314  20.005  12.053  1.00  0.00     0.001 A 
ATOM      6  C   UNL     1      33.934  20.748  10.937  1.00  0.00     0.001 A 
ENDROOT
BRANCH   1   7
ATOM      7  C   UNL     1      36.851  17.619  10.609  1.00  0.00     0.072 C 
ATOM      8  O   UNL     1      36.544  16.405  10.471  1.00  0.00    -0.545 OA
ATOM      9  O   UNL     1      38.187  17.962  10.774  1.00  0.00    -0.545 OA
ENDBRANCH   1   7
BRANCH   2  10
ATOM     10  C   UNL     1      35.793  19.038   8.142  1.00  0.00     0.072 C 
ATOM     11  O   UNL     1      34.970  18.565   7.315  1.00  0.00    -0.545 OA
ATOM     12  O   UNL     1      37.095  19.296   7.728  1.00  0.00    -0.545 OA
ENDBRANCH   2  10
TORSDOF 2
ENDMDL
MODEL 4
REMARK VINA RESULT:    -4.739      1.468      2.508
REMARK INTER + INTRA:          -5.474
REMARK INTER:                  -5.288
REMARK INTRA:                  -0.186
REMARK UNBOUND:                -0.181
REMARK SMILES O=C([O-])c1ccccc1C(=O)[O-]
REMARK SMILES IDX 4 1 9 2 5 3 8 4 6 5 7 6 2 7 1 8 3 9 10 10 11 11 12 12
REMARK H PARENT
REMARK Flexibility Score: inf
ROOT
ATOM      1  C   UNL     1      35.303  19.547   9.474  1.00  0.00     0.006 A 
ATOM      2  C   UNL     1      35.709  18.787  10.607  1.00  0.00     0.006 A 
ATOM      3  C   UNL     1      34.369  20.586   9.647  1.00  0.00     0.010 A 
ATOM      4  C   UNL     1      35.118  19.051  11.856  1.00  0.00     0.010 A 
ATOM      5  C   UNL     1      33.813  20.846  10.900  1.00  0.00     0.001 A 
ATOM      6  C   UNL     1      34.178  20.072  12.000  1.00  0.00     0.001 A 
ENDROOT
BRANCH   1   7
ATOM      7  C   UNL     1      35.767  19.246   8.100  1.00  0.00     0.072 C 
ATOM      8  O   UNL     1      36.888  19.664   7.705  1.00  0.00    -0.545 OA
ATOM      9  O   UNL     1      34.950  18.562   7.209  1.00  0.00    -0.545 OA
ENDBRANCH   1   7
BRANCH   2  10
ATOM     10  C   UNL     1      36.783  17.768  10.550  1.00  0.00     0.072 C 
ATOM     11  O   UNL     1      36.505  16.546  10.422  1.00  0.00    -0.545 OA
ATOM     12  O   UNL     1      38.117  18.159  10.572  1.00  0.00    -0.545 OA
ENDBRANCH   2  10
TORSDOF 2
ENDMDL
MODEL 5
REMARK VINA RESULT:    -4.696      1.537      1.793
REMARK INTER + INTRA:          -5.426
REMARK INTER:                  -5.196
REMARK INTRA:                  -0.230
REMARK UNBOUND:                -0.181
REMARK SMILES O=C([O-])c1ccccc1C(=O)[O-]
REMARK SMILES IDX 4 1 9 2 5 3 8 4 6 5 7 6 2 7 1 8 3 9 10 10 11 11 12 12
REMARK H PARENT
REMARK Flexibility Score: inf
ROOT
ATOM      1  C   UNL     1      37.086  18.780   9.494  1.00  0.00     0.006 A 
ATOM      2  C   UNL     1      36.571  18.385  10.761  1.00  0.00     0.006 A 
ATOM      3  C   UNL     1      36.292  19.584   8.654  1.00  0.00     0.010 A 
ATOM      4  C   UNL     1      35.259  18.754  11.112  1.00  0.00     0.010 A 
ATOM      5  C   UNL     1      35.002  19.956   9.032  1.00  0.00     0.001 A 
ATOM      6  C   UNL     1      34.483  19.532  10.254  1.00  0.00     0.001 A 
ENDROOT
BRANCH   1   7
ATOM      7  C   UNL     1      38.399  18.322   8.986  1.00  0.00     0.072 C 
ATOM      8  O   UNL     1      38.489  17.236   8.354  1.00  0.00    -0.545 OA
ATOM      9  O   UNL     1      39.555  19.044   9.255  1.00  0.00    -0.545 OA
ENDBRANCH   1   7
BRANCH   2  10
ATOM     10  C   UNL     1      37.379  17.657  11.768  1.00  0.00     0.072 C 
ATOM     11  O   UNL     1      37.392  16.399  11.794  1.00  0.00    -0.545 OA
ATOM     12  O   UNL     1      38.186  18.361  12.655  1.00  0.00    -0.545 OA
ENDBRANCH   2  10
TORSDOF 2
ENDMDL
MODEL 6
REMARK VINA RESULT:    -4.685      1.563      3.334
REMARK INTER + INTRA:          -5.414
REMARK INTER:                  -5.197
REMARK INTRA:                  -0.217
REMARK UNBOUND:                -0.181
REMARK SMILES O=C([O-])c1ccccc1C(=O)[O-]
REMARK SMILES IDX 4 1 9 2 5 3 8 4 6 5 7 6 2 7 1 8 3 9 10 10 11 11 12 12
REMARK H PARENT
REMARK Flexibility Score: inf
ROOT
ATOM      1  C   UNL     1      36.600  18.358  10.700  1.00  0.00     0.006 A 
ATOM      2  C   UNL     1      37.124  18.763   9.440  1.00  0.00     0.006 A 
ATOM      3  C   UNL     1      35.282  18.716  11.039  1.00  0.00     0.010 A 
ATOM      4  C   UNL     1      36.334  19.564   8.596  1.00  0.00     0.010 A 
ATOM      5  C   UNL     1      34.508  19.492  10.177  1.00  0.00     0.001 A 
ATOM      6  C   UNL     1      35.038  19.926   8.962  1.00  0.00     0.001 A 
ENDROOT
BRANCH   1   7
ATOM      7  C   UNL     1      37.408  17.632  11.707  1.00  0.00     0.072 C 
ATOM      8  O   UNL     1      37.370  16.375  11.764  1.00  0.00    -0.545 OA
ATOM      9  O   UNL     1      38.164  18.327  12.644  1.00  0.00    -0.545 OA
ENDBRANCH   1   7
BRANCH   2  10
ATOM     10  C   UNL     1      38.446  18.321   8.938  1.00  0.00     0.072 C 
ATOM     11  O   UNL     1      38.546  17.315   8.186  1.00  0.00    -0.545 OA
ATOM     12  O   UNL     1      39.588  19.055   9.240  1.00  0.00    -0.545 OA
ENDBRANCH   2  10
TORSDOF 2
ENDMDL
MODEL 7
REMARK VINA RESULT:    -4.668      2.538      4.042
REMARK INTER + INTRA:          -5.394
REMARK INTER:                  -5.239
REMARK INTRA:                  -0.155
REMARK UNBOUND:                -0.181
REMARK SMILES O=C([O-])c1ccccc1C(=O)[O-]
REMARK SMILES IDX 4 1 9 2 5 3 8 4 6 5 7 6 2 7 1 8 3 9 10 10 11 11 12 12
REMARK H PARENT
REMARK Flexibility Score: inf
ROOT
ATOM      1  C   UNL     1      38.590  18.563   9.769  1.00  0.00     0.006 A 
ATOM      2  C   UNL     1      38.035  18.153  11.013  1.00  0.00     0.006 A 
ATOM      3  C   UNL     1      39.985  18.723   9.661  1.00  0.00     0.010 A 
ATOM      4  C   UNL     1      38.888  17.982  12.120  1.00  0.00     0.010 A 
ATOM      5  C   UNL     1      40.813  18.526  10.765  1.00  0.00     0.001 A 
ATOM      6  C   UNL     1      40.265  18.167  11.995  1.00  0.00     0.001 A 
ENDROOT
BRANCH   1   7
ATOM      7  C   UNL     1      37.755  18.900   8.593  1.00  0.00     0.072 C 
ATOM      8  O   UNL     1      37.881  18.252   7.520  1.00  0.00    -0.545 OA
ATOM      9  O   UNL     1      36.873  19.973   8.633  1.00  0.00    -0.545 OA
ENDBRANCH   1   7
BRANCH   2  10
ATOM     10  C   UNL     1      36.600  17.827  11.188  1.00  0.00     0.072 C 
ATOM     11  O   UNL     1      36.171  16.667  10.954  1.00  0.00    -0.545 OA
ATOM     12  O   UNL     1      35.722  18.788  11.677  1.00  0.00    -0.545 OA
ENDBRANCH   2  10
TORSDOF 2
ENDMDL
MODEL 8
REMARK VINA RESULT:    -4.647      1.598      2.676
REMARK INTER + INTRA:          -5.371
REMARK INTER:                  -5.165
REMARK INTRA:                  -0.206
REMARK UNBOUND:                -0.181
REMARK SMILES O=C([O-])c1ccccc1C(=O)[O-]
REMARK SMILES IDX 4 1 9 2 5 3 8 4 6 5 7 6 2 7 1 8 3 9 10 10 11 11 12 12
REMARK H PARENT
REMARK Flexibility Score: inf
ROOT
ATOM      1  C   UNL     1      37.020  18.255  10.466  1.00  0.00     0.006 A 
ATOM      2  C   UNL     1      35.709  18.807  10.465  1.00  0.00     0.006 A 
ATOM      3  C   UNL     1      37.809  18.365   9.305  1.00  0.00     0.010 A 
ATOM      4  C   UNL     1      35.211  19.390   9.285  1.00  0.00     0.010 A 
ATOM      5  C   UNL     1      37.304  18.967   8.153  1.00  0.00     0.001 A 
ATOM      6  C   UNL     1      36.003  19.468   8.139  1.00  0.00     0.001 A 
ENDROOT
BRANCH   1   7
ATOM      7  C   UNL     1      37.572  17.502  11.616  1.00  0.00     0.072 C 
ATOM      8  O   UNL     1      37.283  16.286  11.773  1.00  0.00    -0.545 OA
ATOM      9  O   UNL     1      38.355  18.139  12.571  1.00  0.00    -0.545 OA
ENDBRANCH   1   7
BRANCH   2  10
ATOM     10  C   UNL     1      34.857  18.861  11.677  1.00  0.00     0.072 C 
ATOM     11  O   UNL     1      34.744  19.928  12.336  1.00  0.00    -0.545 OA
ATOM     12  O   UNL     1      34.119  17.747  12.060  1.00  0.00    -0.545 OA
ENDBRANCH   2  10
TORSDOF 2
ENDMDL
MODEL 9
REMARK VINA RESULT:    -4.639      1.635      3.192
REMARK INTER + INTRA:          -5.362
REMARK INTER:                  -5.159
REMARK INTRA:                  -0.204
REMARK UNBOUND:                -0.181
REMARK SMILES O=C([O-])c1ccccc1C(=O)[O-]
REMARK SMILES IDX 4 1 9 2 5 3 8 4 6 5 7 6 2 7 1 8 3 9 10 10 11 11 12 12
REMARK H PARENT
REMARK Flexibility Score: inf
ROOT
ATOM      1  C   UNL     1      35.777  18.734  10.451  1.00  0.00     0.006 A 
ATOM      2  C   UNL     1      37.103  18.218  10.499  1.00  0.00     0.006 A 
ATOM      3  C   UNL     1      35.299  19.280   9.245  1.00  0.00     0.010 A 
ATOM      4  C   UNL     1      37.921  18.327   9.359  1.00  0.00     0.010 A 
ATOM      5  C   UNL     1      36.120  19.357   8.121  1.00  0.00     0.001 A 
ATOM      6  C   UNL     1      37.432  18.892   8.181  1.00  0.00     0.001 A 
ENDROOT
BRANCH   1   7
ATOM      7  C   UNL     1      34.897  18.788  11.641  1.00  0.00     0.072 C 
ATOM      8  O   UNL     1      34.820  19.843  12.324  1.00  0.00    -0.545 OA
ATOM      9  O   UNL     1      34.198  17.661  12.057  1.00  0.00    -0.545 OA
ENDBRANCH   1   7
BRANCH   2  10
ATOM     10  C   UNL     1      37.648  17.504  11.677  1.00  0.00     0.072 C 
ATOM     11  O   UNL     1      37.404  16.282  11.858  1.00  0.00    -0.545 OA
ATOM     12  O   UNL     1      38.492  18.163  12.563  1.00  0.00    -0.545 OA
ENDBRANCH   2  10
TORSDOF 2
ENDMDL
