MODEL 1
REMARK VINA RESULT:    -3.688      0.000      0.000
REMARK INTER + INTRA:          -4.405
REMARK INTER:                  -4.335
REMARK INTRA:                  -0.069
REMARK UNBOUND:                -0.069
REMARK SMILES CCCCC(=O)[O-]
REMARK SMILES IDX 4 1 5 2 6 3 7 4 3 5 2 6 1 7
REMARK H PARENT
REMARK Flexibility Score: inf
ROOT
ATOM      1  C   UNL     1       7.420  56.425  20.011  1.00  0.00     0.053 C 
ENDROOT
BRANCH   1   2
ATOM      2  C   UNL     1       6.486  56.211  21.160  1.00  0.00     0.041 C 
ATOM      3  O   UNL     1       5.538  57.013  21.365  1.00  0.00    -0.550 OA
ATOM      4  O   UNL     1       6.633  55.096  21.976  1.00  0.00    -0.550 OA
ENDBRANCH   1   2
BRANCH   1   5
ATOM      5  C   UNL     1       8.041  55.094  19.571  1.00  0.00     0.006 C 
BRANCH   5   6
ATOM      6  C   UNL     1       7.210  54.383  18.491  1.00  0.00    -0.003 C 
ATOM      7  C   UNL     1       7.187  55.144  17.166  1.00  0.00     0.004 C 
ENDBRANCH   5   6
ENDBRANCH   1   5
TORSDOF 3
ENDMDL
MODEL 2
REMARK VINA RESULT:    -3.673      3.511      4.511
REMARK INTER + INTRA:          -4.387
REMARK INTER:                  -4.371
REMARK INTRA:                  -0.016
REMARK UNBOUND:                -0.069
REMARK SMILES CCCCC(=O)[O-]
REMARK SMILES IDX 4 1 5 2 6 3 7 4 3 5 2 6 1 7
REMARK H PARENT
REMARK Flexibility Score: inf
ROOT
ATOM      1  C   UNL     1      10.208  53.642  21.199  1.00  0.00     0.053 C 
ENDROOT
BRANCH   1   2
ATOM      2  C   UNL     1      10.608  53.031  22.506  1.00  0.00     0.041 C 
ATOM      3  O   UNL     1      10.657  51.779  22.631  1.00  0.00    -0.550 OA
ATOM      4  O   UNL     1      10.974  53.845  23.570  1.00  0.00    -0.550 OA
ENDBRANCH   1   2
BRANCH   1   5
ATOM      5  C   UNL     1       9.086  54.666  21.408  1.00  0.00     0.006 C 
BRANCH   5   6
ATOM      6  C   UNL     1       8.284  54.932  20.125  1.00  0.00    -0.003 C 
ATOM      7  C   UNL     1       8.078  56.422  19.854  1.00  0.00     0.004 C 
ENDBRANCH   5   6
ENDBRANCH   1   5
TORSDOF 3
ENDMDL
MODEL 3
REMARK VINA RESULT:    -3.645      2.872      3.765
REMARK INTER + INTRA:          -4.353
REMARK INTER:                  -4.331
REMARK INTRA:                  -0.023
REMARK UNBOUND:                -0.069
REMARK SMILES CCCCC(=O)[O-]
REMARK SMILES IDX 4 1 5 2 6 3 7 4 3 5 2 6 1 7
REMARK H PARENT
REMARK Flexibility Score: inf
ROOT
ATOM      1  C   UNL     1       8.587  54.693  20.484  1.00  0.00     0.053 C 
ENDROOT
BRANCH   1   2
ATOM      2  C   UNL     1       8.033  56.082  20.463  1.00  0.00     0.041 C 
ATOM      3  O   UNL     1       7.791  56.684  21.543  1.00  0.00    -0.550 OA
ATOM      4  O   UNL     1       7.832  56.732  19.253  1.00  0.00    -0.550 OA
ENDBRANCH   1   2
BRANCH   1   5
ATOM      5  C   UNL     1       9.354  54.441  21.788  1.00  0.00     0.006 C 
BRANCH   5   6
ATOM      6  C   UNL     1      10.598  53.563  21.581  1.00  0.00    -0.003 C 
ATOM      7  C   UNL     1      10.516  52.235  22.332  1.00  0.00     0.004 C 
ENDBRANCH   5   6
ENDBRANCH   1   5
TORSDOF 3
ENDMDL
MODEL 4
REMARK VINA RESULT:    -3.624      3.545      4.475
REMARK INTER + INTRA:          -4.328
REMARK INTER:                  -4.295
REMARK INTRA:                  -0.034
REMARK UNBOUND:                -0.069
REMARK SMILES CCCCC(=O)[O-]
REMARK SMILES IDX 4 1 5 2 6 3 7 4 3 5 2 6 1 7
REMARK H PARENT
REMARK Flexibility Score: inf
ROOT
ATOM      1  C   UNL     1       9.976  53.973  21.388  1.00  0.00     0.053 C 
ENDROOT
BRANCH   1   2
ATOM      2  C   UNL     1      10.583  53.222  22.532  1.00  0.00     0.041 C 
ATOM      3  O   UNL     1      10.931  53.833  23.577  1.00  0.00    -0.550 OA
ATOM      4  O   UNL     1      10.718  51.842  22.463  1.00  0.00    -0.550 OA
ENDBRANCH   1   2
BRANCH   1   5
ATOM      5  C   UNL     1       8.510  54.309  21.687  1.00  0.00     0.006 C 
BRANCH   5   6
ATOM      6  C   UNL     1       8.176  55.784  21.413  1.00  0.00    -0.003 C 
ATOM      7  C   UNL     1       8.260  56.144  19.931  1.00  0.00     0.004 C 
ENDBRANCH   5   6
ENDBRANCH   1   5
TORSDOF 3
ENDMDL
MODEL 5
REMARK VINA RESULT:    -3.550      3.311      4.345
REMARK INTER + INTRA:          -4.242
REMARK INTER:                  -4.165
REMARK INTRA:                  -0.076
REMARK UNBOUND:                -0.069
REMARK SMILES CCCCC(=O)[O-]
REMARK SMILES IDX 4 1 5 2 6 3 7 4 3 5 2 6 1 7
REMARK H PARENT
REMARK Flexibility Score: inf
ROOT
ATOM      1  C   UNL     1       8.725  54.036  21.429  1.00  0.00     0.053 C 
ENDROOT
BRANCH   1   2
ATOM      2  C   UNL     1       8.355  55.349  20.815  1.00  0.00     0.041 C 
ATOM      3  O   UNL     1       8.252  55.457  19.565  1.00  0.00    -0.550 OA
ATOM      4  O   UNL     1       8.074  56.441  21.626  1.00  0.00    -0.550 OA
ENDBRANCH   1   2
BRANCH   1   5
ATOM      5  C   UNL     1      10.249  53.914  21.554  1.00  0.00     0.006 C 
BRANCH   5   6
ATOM      6  C   UNL     1      10.693  53.492  22.964  1.00  0.00    -0.003 C 
ATOM      7  C   UNL     1      10.576  54.624  23.984  1.00  0.00     0.004 C 
ENDBRANCH   5   6
ENDBRANCH   1   5
TORSDOF 3
ENDMDL
MODEL 6
REMARK VINA RESULT:    -3.526      2.993      3.881
REMARK INTER + INTRA:          -4.213
REMARK INTER:                  -4.163
REMARK INTRA:                  -0.050
REMARK UNBOUND:                -0.069
REMARK SMILES CCCCC(=O)[O-]
REMARK SMILES IDX 4 1 5 2 6 3 7 4 3 5 2 6 1 7
REMARK H PARENT
REMARK Flexibility Score: inf
ROOT
ATOM      1  C   UNL     1       7.985  54.363  20.646  1.00  0.00     0.053 C 
ENDROOT
BRANCH   1   2
ATOM      2  C   UNL     1       8.035  55.406  19.574  1.00  0.00     0.041 C 
ATOM      3  O   UNL     1       8.431  56.571  19.842  1.00  0.00    -0.550 OA
ATOM      4  O   UNL     1       7.693  55.078  18.269  1.00  0.00    -0.550 OA
ENDBRANCH   1   2
BRANCH   1   5
ATOM      5  C   UNL     1       9.025  54.663  21.733  1.00  0.00     0.006 C 
BRANCH   5   6
ATOM      6  C   UNL     1      10.328  53.872  21.538  1.00  0.00    -0.003 C 
ATOM      7  C   UNL     1      10.389  52.612  22.400  1.00  0.00     0.004 C 
ENDBRANCH   5   6
ENDBRANCH   1   5
TORSDOF 3
ENDMDL
MODEL 7
REMARK VINA RESULT:    -3.491      3.724      4.518
REMARK INTER + INTRA:          -4.173
REMARK INTER:                  -4.062
REMARK INTRA:                  -0.111
REMARK UNBOUND:                -0.069
REMARK SMILES CCCCC(=O)[O-]
REMARK SMILES IDX 4 1 5 2 6 3 7 4 3 5 2 6 1 7
REMARK H PARENT
REMARK Flexibility Score: inf
ROOT
ATOM      1  C   UNL     1      10.509  54.000  22.478  1.00  0.00     0.053 C 
ENDROOT
BRANCH   1   2
ATOM      2  C   UNL     1      10.336  54.377  23.916  1.00  0.00     0.041 C 
ATOM      3  O   UNL     1       9.187  54.408  24.428  1.00  0.00    -0.550 OA
ATOM      4  O   UNL     1      11.449  54.644  24.702  1.00  0.00    -0.550 OA
ENDBRANCH   1   2
BRANCH   1   5
ATOM      5  C   UNL     1       9.148  53.709  21.834  1.00  0.00     0.006 C 
BRANCH   5   6
ATOM      6  C   UNL     1       8.759  54.756  20.778  1.00  0.00    -0.003 C 
ATOM      7  C   UNL     1       8.059  55.972  21.382  1.00  0.00     0.004 C 
ENDBRANCH   5   6
ENDBRANCH   1   5
TORSDOF 3
ENDMDL
MODEL 8
REMARK VINA RESULT:    -3.423      2.395      3.006
REMARK INTER + INTRA:          -4.093
REMARK INTER:                  -3.995
REMARK INTRA:                  -0.097
REMARK UNBOUND:                -0.069
REMARK SMILES CCCCC(=O)[O-]
REMARK SMILES IDX 4 1 5 2 6 3 7 4 3 5 2 6 1 7
REMARK H PARENT
REMARK Flexibility Score: inf
ROOT
ATOM      1  C   UNL     1       7.402  54.870  21.780  1.00  0.00     0.053 C 
ENDROOT
BRANCH   1   2
ATOM      2  C   UNL     1       8.416  54.255  22.692  1.00  0.00     0.041 C 
ATOM      3  O   UNL     1       9.641  54.495  22.531  1.00  0.00    -0.550 OA
ATOM      4  O   UNL     1       8.004  53.456  23.751  1.00  0.00    -0.550 OA
ENDBRANCH   1   2
BRANCH   1   5
ATOM      5  C   UNL     1       7.836  56.283  21.372  1.00  0.00     0.006 C 
BRANCH   5   6
ATOM      6  C   UNL     1       8.090  56.409  19.861  1.00  0.00    -0.003 C 
ATOM      7  C   UNL     1       7.794  55.117  19.102  1.00  0.00     0.004 C 
ENDBRANCH   5   6
ENDBRANCH   1   5
TORSDOF 3
ENDMDL
MODEL 9
REMARK VINA RESULT:    -3.358      4.759      5.973
REMARK INTER + INTRA:          -4.016
REMARK INTER:                  -3.959
REMARK INTRA:                  -0.058
REMARK UNBOUND:                -0.069
REMARK SMILES CCCCC(=O)[O-]
REMARK SMILES IDX 4 1 5 2 6 3 7 4 3 5 2 6 1 7
REMARK H PARENT
REMARK Flexibility Score: inf
ROOT
ATOM      1  C   UNL     1       8.940  53.554  22.419  1.00  0.00     0.053 C 
ENDROOT
BRANCH   1   2
ATOM      2  C   UNL     1      10.252  52.970  21.998  1.00  0.00     0.041 C 
ATOM      3  O   UNL     1      11.061  53.654  21.317  1.00  0.00    -0.550 OA
ATOM      4  O   UNL     1      10.603  51.688  22.401  1.00  0.00    -0.550 OA
ENDBRANCH   1   2
BRANCH   1   5
ATOM      5  C   UNL     1       8.972  53.925  23.907  1.00  0.00     0.006 C 
BRANCH   5   6
ATOM      6  C   UNL     1       9.922  55.097  24.202  1.00  0.00    -0.003 C 
ATOM      7  C   UNL     1      11.167  54.668  24.978  1.00  0.00     0.004 C 
ENDBRANCH   5   6
ENDBRANCH   1   5
TORSDOF 3
ENDMDL
