MODEL 1
REMARK VINA RESULT:    -4.350      0.000      0.000
REMARK INTER + INTRA:          -4.624
REMARK INTER:                  -4.604
REMARK INTRA:                  -0.020
REMARK UNBOUND:                -0.020
REMARK SMILES O=C([O-])c1cccnc1
REMARK SMILES IDX 4 1 5 2 9 3 6 4 8 5 7 6 2 7 1 8 3 9
REMARK H PARENT
REMARK Flexibility Score: inf
ROOT
ATOM      1  C   UNL     1     118.226 -47.864  29.245  1.00  0.00     0.016 A 
ATOM      2  C   UNL     1     118.742 -48.902  28.451  1.00  0.00     0.013 A 
ATOM      3  C   UNL     1     116.878 -47.928  29.635  1.00  0.00     0.120 A 
ATOM      4  C   UNL     1     117.922 -49.965  28.069  1.00  0.00     0.021 A 
ATOM      5  N   UNL     1     116.101 -48.975  29.250  1.00  0.00    -0.264 NA
ATOM      6  C   UNL     1     116.590 -49.985  28.483  1.00  0.00     0.111 A 
ENDROOT
BRANCH   1   7
ATOM      7  C   UNL     1     119.078 -46.728  29.659  1.00  0.00     0.073 C 
ATOM      8  O   UNL     1     118.964 -46.228  30.810  1.00  0.00    -0.545 OA
ATOM      9  O   UNL     1     120.016 -46.195  28.783  1.00  0.00    -0.545 OA
ENDBRANCH   1   7
TORSDOF 1
ENDMDL
MODEL 2
REMARK VINA RESULT:    -4.343      4.045      4.666
REMARK INTER + INTRA:          -4.617
REMARK INTER:                  -4.600
REMARK INTRA:                  -0.017
REMARK UNBOUND:                -0.020
REMARK SMILES O=C([O-])c1cccnc1
REMARK SMILES IDX 4 1 5 2 9 3 6 4 8 5 7 6 2 7 1 8 3 9
REMARK H PARENT
REMARK Flexibility Score: inf
ROOT
ATOM      1  C   UNL     1     114.866 -49.892  28.406  1.00  0.00     0.016 A 
ATOM      2  C   UNL     1     115.111 -50.741  27.314  1.00  0.00     0.013 A 
ATOM      3  C   UNL     1     115.965 -49.412  29.140  1.00  0.00     0.120 A 
ATOM      4  C   UNL     1     116.421 -51.090  26.979  1.00  0.00     0.021 A 
ATOM      5  N   UNL     1     117.230 -49.767  28.791  1.00  0.00    -0.264 NA
ATOM      6  C   UNL     1     117.479 -50.588  27.737  1.00  0.00     0.111 A 
ENDROOT
BRANCH   1   7
ATOM      7  C   UNL     1     113.487 -49.510  28.778  1.00  0.00     0.073 C 
ATOM      8  O   UNL     1     113.008 -49.846  29.893  1.00  0.00    -0.545 OA
ATOM      9  O   UNL     1     112.698 -48.775  27.900  1.00  0.00    -0.545 OA
ENDBRANCH   1   7
TORSDOF 1
ENDMDL
MODEL 3
REMARK VINA RESULT:    -4.317      1.680      2.398
REMARK INTER + INTRA:          -4.589
REMARK INTER:                  -4.567
REMARK INTRA:                  -0.022
REMARK UNBOUND:                -0.020
REMARK SMILES O=C([O-])c1cccnc1
REMARK SMILES IDX 4 1 5 2 9 3 6 4 8 5 7 6 2 7 1 8 3 9
REMARK H PARENT
REMARK Flexibility Score: inf
ROOT
ATOM      1  C   UNL     1     117.179 -49.513  28.601  1.00  0.00     0.016 A 
ATOM      2  C   UNL     1     117.306 -50.434  27.547  1.00  0.00     0.013 A 
ATOM      3  C   UNL     1     115.900 -49.279  29.134  1.00  0.00     0.120 A 
ATOM      4  C   UNL     1     116.178 -51.093  27.054  1.00  0.00     0.021 A 
ATOM      5  N   UNL     1     114.819 -49.935  28.636  1.00  0.00    -0.264 NA
ATOM      6  C   UNL     1     114.929 -50.828  27.618  1.00  0.00     0.111 A 
ENDROOT
BRANCH   1   7
ATOM      7  C   UNL     1     118.361 -48.803  29.136  1.00  0.00     0.073 C 
ATOM      8  O   UNL     1     119.382 -48.626  28.420  1.00  0.00    -0.545 OA
ATOM      9  O   UNL     1     118.362 -48.323  30.441  1.00  0.00    -0.545 OA
ENDBRANCH   1   7
TORSDOF 1
ENDMDL
MODEL 4
REMARK VINA RESULT:    -4.252      3.918      4.748
REMARK INTER + INTRA:          -4.521
REMARK INTER:                  -4.498
REMARK INTRA:                  -0.023
REMARK UNBOUND:                -0.020
REMARK SMILES O=C([O-])c1cccnc1
REMARK SMILES IDX 4 1 5 2 9 3 6 4 8 5 7 6 2 7 1 8 3 9
REMARK H PARENT
REMARK Flexibility Score: inf
ROOT
ATOM      1  C   UNL     1     115.511 -50.045  28.528  1.00  0.00     0.016 A 
ATOM      2  C   UNL     1     116.101 -49.620  29.729  1.00  0.00     0.013 A 
ATOM      3  C   UNL     1     116.348 -50.512  27.500  1.00  0.00     0.120 A 
ATOM      4  C   UNL     1     117.488 -49.667  29.883  1.00  0.00     0.021 A 
ATOM      5  N   UNL     1     117.696 -50.548  27.676  1.00  0.00    -0.264 NA
ATOM      6  C   UNL     1     118.278 -50.139  28.835  1.00  0.00     0.111 A 
ENDROOT
BRANCH   1   7
ATOM      7  C   UNL     1     114.044 -50.003  28.344  1.00  0.00     0.073 C 
ATOM      8  O   UNL     1     113.538 -50.112  27.196  1.00  0.00    -0.545 OA
ATOM      9  O   UNL     1     113.202 -49.841  29.438  1.00  0.00    -0.545 OA
ENDBRANCH   1   7
TORSDOF 1
ENDMDL
MODEL 5
REMARK VINA RESULT:    -4.228      3.537      4.307
REMARK INTER + INTRA:          -4.495
REMARK INTER:                  -4.473
REMARK INTRA:                  -0.022
REMARK UNBOUND:                -0.020
REMARK SMILES O=C([O-])c1cccnc1
REMARK SMILES IDX 4 1 5 2 9 3 6 4 8 5 7 6 2 7 1 8 3 9
REMARK H PARENT
REMARK Flexibility Score: inf
ROOT
ATOM      1  C   UNL     1     116.373 -49.886  28.226  1.00  0.00     0.016 A 
ATOM      2  C   UNL     1     117.747 -49.916  27.934  1.00  0.00     0.013 A 
ATOM      3  C   UNL     1     115.933 -49.082  29.292  1.00  0.00     0.120 A 
ATOM      4  C   UNL     1     118.641 -49.158  28.693  1.00  0.00     0.021 A 
ATOM      5  N   UNL     1     116.825 -48.354  30.014  1.00  0.00    -0.264 NA
ATOM      6  C   UNL     1     118.156 -48.374  29.740  1.00  0.00     0.111 A 
ENDROOT
BRANCH   1   7
ATOM      7  C   UNL     1     115.410 -50.682  27.435  1.00  0.00     0.073 C 
ATOM      8  O   UNL     1     115.769 -51.751  26.875  1.00  0.00    -0.545 OA
ATOM      9  O   UNL     1     114.092 -50.259  27.297  1.00  0.00    -0.545 OA
ENDBRANCH   1   7
TORSDOF 1
ENDMDL
MODEL 6
REMARK VINA RESULT:    -4.126      1.836      2.608
REMARK INTER + INTRA:          -4.388
REMARK INTER:                  -4.365
REMARK INTRA:                  -0.023
REMARK UNBOUND:                -0.020
REMARK SMILES O=C([O-])c1cccnc1
REMARK SMILES IDX 4 1 5 2 9 3 6 4 8 5 7 6 2 7 1 8 3 9
REMARK H PARENT
REMARK Flexibility Score: inf
ROOT
ATOM      1  C   UNL     1     117.157 -49.464  28.742  1.00  0.00     0.016 A 
ATOM      2  C   UNL     1     115.893 -49.321  29.339  1.00  0.00     0.013 A 
ATOM      3  C   UNL     1     117.276 -50.308  27.625  1.00  0.00     0.120 A 
ATOM      4  C   UNL     1     114.793 -50.007  28.822  1.00  0.00     0.021 A 
ATOM      5  N   UNL     1     116.188 -50.964  27.141  1.00  0.00    -0.264 NA
ATOM      6  C   UNL     1     114.961 -50.833  27.711  1.00  0.00     0.111 A 
ENDROOT
BRANCH   1   7
ATOM      7  C   UNL     1     118.335 -48.747  29.274  1.00  0.00     0.073 C 
ATOM      8  O   UNL     1     118.338 -48.303  30.453  1.00  0.00    -0.545 OA
ATOM      9  O   UNL     1     119.459 -48.550  28.478  1.00  0.00    -0.545 OA
ENDBRANCH   1   7
TORSDOF 1
ENDMDL
MODEL 7
REMARK VINA RESULT:    -4.115      3.015      3.959
REMARK INTER + INTRA:          -4.376
REMARK INTER:                  -4.353
REMARK INTRA:                  -0.022
REMARK UNBOUND:                -0.020
REMARK SMILES O=C([O-])c1cccnc1
REMARK SMILES IDX 4 1 5 2 9 3 6 4 8 5 7 6 2 7 1 8 3 9
REMARK H PARENT
REMARK Flexibility Score: inf
ROOT
ATOM      1  C   UNL     1     116.267 -50.156  28.216  1.00  0.00     0.016 A 
ATOM      2  C   UNL     1     115.879 -49.367  29.312  1.00  0.00     0.013 A 
ATOM      3  C   UNL     1     115.277 -50.576  27.312  1.00  0.00     0.120 A 
ATOM      4  C   UNL     1     114.539 -49.017  29.484  1.00  0.00     0.021 A 
ATOM      5  N   UNL     1     113.979 -50.221  27.502  1.00  0.00    -0.264 NA
ATOM      6  C   UNL     1     113.592 -49.457  28.558  1.00  0.00     0.111 A 
ENDROOT
BRANCH   1   7
ATOM      7  C   UNL     1     117.681 -50.539  28.017  1.00  0.00     0.073 C 
ATOM      8  O   UNL     1     118.610 -49.828  28.483  1.00  0.00    -0.545 OA
ATOM      9  O   UNL     1     118.006 -51.691  27.309  1.00  0.00    -0.545 OA
ENDBRANCH   1   7
TORSDOF 1
ENDMDL
MODEL 8
REMARK VINA RESULT:    -3.980      9.102     10.177
REMARK INTER + INTRA:          -4.233
REMARK INTER:                  -4.216
REMARK INTRA:                  -0.017
REMARK UNBOUND:                -0.020
REMARK SMILES O=C([O-])c1cccnc1
REMARK SMILES IDX 4 1 5 2 9 3 6 4 8 5 7 6 2 7 1 8 3 9
REMARK H PARENT
REMARK Flexibility Score: inf
ROOT
ATOM      1  C   UNL     1     109.587 -50.363  33.735  1.00  0.00     0.016 A 
ATOM      2  C   UNL     1     109.816 -49.060  33.263  1.00  0.00     0.013 A 
ATOM      3  C   UNL     1     110.392 -51.404  33.241  1.00  0.00     0.120 A 
ATOM      4  C   UNL     1     110.824 -48.821  32.327  1.00  0.00     0.021 A 
ATOM      5  N   UNL     1     111.367 -51.144  32.330  1.00  0.00    -0.264 NA
ATOM      6  C   UNL     1     111.598 -49.887  31.867  1.00  0.00     0.111 A 
ENDROOT
BRANCH   1   7
ATOM      7  C   UNL     1     108.524 -50.637  34.726  1.00  0.00     0.073 C 
ATOM      8  O   UNL     1     108.683 -50.334  35.938  1.00  0.00    -0.545 OA
ATOM      9  O   UNL     1     107.332 -51.235  34.332  1.00  0.00    -0.545 OA
ENDBRANCH   1   7
TORSDOF 1
ENDMDL
MODEL 9
REMARK VINA RESULT:    -3.958      2.823      3.499
REMARK INTER + INTRA:          -4.210
REMARK INTER:                  -4.193
REMARK INTRA:                  -0.017
REMARK UNBOUND:                -0.020
REMARK SMILES O=C([O-])c1cccnc1
REMARK SMILES IDX 4 1 5 2 9 3 6 4 8 5 7 6 2 7 1 8 3 9
REMARK H PARENT
REMARK Flexibility Score: inf
ROOT
ATOM      1  C   UNL     1     117.511 -48.534  29.322  1.00  0.00     0.016 A 
ATOM      2  C   UNL     1     118.569 -48.885  28.467  1.00  0.00     0.013 A 
ATOM      3  C   UNL     1     117.493 -47.238  29.864  1.00  0.00     0.120 A 
ATOM      4  C   UNL     1     119.570 -47.957  28.173  1.00  0.00     0.021 A 
ATOM      5  N   UNL     1     118.480 -46.353  29.562  1.00  0.00    -0.264 NA
ATOM      6  C   UNL     1     119.508 -46.682  28.736  1.00  0.00     0.111 A 
ENDROOT
BRANCH   1   7
ATOM      7  C   UNL     1     116.442 -49.502  29.646  1.00  0.00     0.073 C 
ATOM      8  O   UNL     1     116.320 -49.955  30.815  1.00  0.00    -0.545 OA
ATOM      9  O   UNL     1     115.555 -49.927  28.663  1.00  0.00    -0.545 OA
ENDBRANCH   1   7
TORSDOF 1
ENDMDL
