MODEL 1
REMARK VINA RESULT:     3.501      0.000      0.000
REMARK INTER + INTRA:           3.501
REMARK INTER:                   3.501
REMARK INTRA:                   0.000
REMARK UNBOUND:                 0.000
REMARK SMILES c1ccc2ccccc2c1
REMARK SMILES IDX 2 1 1 2 10 3 9 4 8 5 7 6 6 7 5 8 4 9 3 10
REMARK H PARENT
REMARK Flexibility Score: inf
ROOT
ATOM      1  C   UNL     1       3.659  79.277  10.124  1.00  0.00     0.001 A 
ATOM      2  C   UNL     1       4.297  80.516  10.024  1.00  0.00     0.001 A 
ATOM      3  C   UNL     1       4.466  81.124   8.776  1.00  0.00     0.009 A 
ATOM      4  C   UNL     1       3.994  80.491   7.616  1.00  0.00    -0.018 A 
ATOM      5  C   UNL     1       4.157  81.089   6.357  1.00  0.00     0.009 A 
ATOM      6  C   UNL     1       3.682  80.448   5.209  1.00  0.00     0.001 A 
ATOM      7  C   UNL     1       3.044  79.209   5.308  1.00  0.00     0.001 A 
ATOM      8  C   UNL     1       2.875  78.601   6.556  1.00  0.00     0.009 A 
ATOM      9  C   UNL     1       3.346  79.234   7.716  1.00  0.00    -0.018 A 
ATOM     10  C   UNL     1       3.184  78.636   8.976  1.00  0.00     0.009 A 
ENDROOT
TORSDOF 0
ENDMDL
MODEL 2
REMARK VINA RESULT:     3.878     17.319     18.361
REMARK INTER + INTRA:           3.878
REMARK INTER:                   3.878
REMARK INTRA:                   0.000
REMARK UNBOUND:                 0.000
REMARK SMILES c1ccc2ccccc2c1
REMARK SMILES IDX 2 1 1 2 10 3 9 4 8 5 7 6 6 7 5 8 4 9 3 10
REMARK H PARENT
REMARK Flexibility Score: inf
ROOT
ATOM      1  C   UNL     1      22.133  79.809   5.347  1.00  0.00     0.001 A 
ATOM      2  C   UNL     1      20.767  80.099   5.386  1.00  0.00     0.001 A 
ATOM      3  C   UNL     1      20.164  80.500   6.582  1.00  0.00     0.009 A 
ATOM      4  C   UNL     1      20.931  80.614   7.752  1.00  0.00    -0.018 A 
ATOM      5  C   UNL     1      20.340  81.015   8.961  1.00  0.00     0.009 A 
ATOM      6  C   UNL     1      21.116  81.124  10.119  1.00  0.00     0.001 A 
ATOM      7  C   UNL     1      22.482  80.835  10.080  1.00  0.00     0.001 A 
ATOM      8  C   UNL     1      23.084  80.433   8.884  1.00  0.00     0.009 A 
ATOM      9  C   UNL     1      22.318  80.320   7.714  1.00  0.00    -0.018 A 
ATOM     10  C   UNL     1      22.909  79.918   6.505  1.00  0.00     0.009 A 
ENDROOT
TORSDOF 0
ENDMDL
