MODEL 1
REMARK VINA RESULT:    -4.193      0.000      0.000
REMARK INTER + INTRA:          -6.374
REMARK INTER:                  -6.399
REMARK INTRA:                   0.025
REMARK UNBOUND:                 0.025
REMARK SMILES CC1=CCC[C@@H](C)C(=O)C[C@@H](C(C)C)C(=O)C1
REMARK SMILES IDX 8 1 9 2 6 3 7 4 5 5 4 6 3 7 2 8 1 9 10 11 11 12 15 13 16 14
REMARK SMILES IDX 17 15 12 17 13 18 14 19
REMARK H PARENT
REMARK Flexibility Score: 70.00
ROOT
ATOM      1  C   UNL     1      -9.167   1.500 -19.288  1.00  0.00     0.136 C 
ATOM      2  O   UNL     1      -8.806   0.345 -19.122  1.00  0.00    -0.299 OA
ENDROOT
BRANCH   1   3
ATOM      3  C   UNL     1      -8.307   2.649 -18.782  1.00  0.00     0.053 C 
ATOM      4  C   UNL     1      -6.825   2.479 -19.156  1.00  0.00     0.016 C 
BRANCH   3   5
ATOM      5  C   UNL     1      -8.488   2.868 -17.263  1.00  0.00     0.015 C 
BRANCH   5   6
ATOM      6  C   UNL     1      -9.177   4.204 -16.926  1.00  0.00     0.028 C 
BRANCH   6   7
ATOM      7  C   UNL     1     -10.088   4.716 -18.016  1.00  0.00    -0.028 C 
ATOM      8  C   UNL     1     -11.409   4.437 -18.168  1.00  0.00    -0.070 CG0
ATOM      9  C   UNL     1     -12.149   5.201 -19.242  1.00  0.00     0.039 C 
ATOM     10  G   UNL     1     -12.166   3.339 -17.425  1.00  0.00     0.000 G0
ENDBRANCH   6   7
ENDBRANCH   5   6
ENDBRANCH   3   5
ENDBRANCH   1   3
BRANCH   1  11
ATOM     11  C   UNL     1     -10.476   1.778 -19.992  1.00  0.00     0.087 C 
BRANCH  11  12
ATOM     12  C   UNL     1     -11.762   1.416 -19.192  1.00  0.00     0.066 C 
BRANCH  12  13
ATOM     13  C   UNL     1     -11.745   1.909 -17.748  1.00  0.00     0.140 C 
ATOM     14  O   UNL     1     -11.490   1.144 -16.830  1.00  0.00    -0.299 OA
BRANCH  13  15
ATOM     15  C   UNL     1     -12.175   3.325 -17.447  1.00  0.00     0.106 CG0
ATOM     16  G   UNL     1     -11.397   4.424 -18.167  1.00  0.00     0.000 G0
ENDBRANCH  13  15
ENDBRANCH  12  13
BRANCH  12  17
ATOM     17  C   UNL     1     -12.229  -0.064 -19.379  1.00  0.00    -0.006 C 
ATOM     18  C   UNL     1     -11.708  -0.664 -20.696  1.00  0.00     0.008 C 
ATOM     19  C   UNL     1     -13.745  -0.281 -19.255  1.00  0.00     0.008 C 
ENDBRANCH  12  17
ENDBRANCH  11  12
ENDBRANCH   1  11
TORSDOF 1
ENDMDL
MODEL 2
REMARK VINA RESULT:    -3.582      1.888      4.506
REMARK INTER + INTRA:          -5.441
REMARK INTER:                  -5.617
REMARK INTRA:                   0.176
REMARK UNBOUND:                 0.025
REMARK SMILES CC1=CCC[C@@H](C)C(=O)C[C@@H](C(C)C)C(=O)C1
REMARK SMILES IDX 8 1 9 2 6 3 7 4 5 5 4 6 3 7 2 8 1 9 10 11 11 12 15 13 16 14
REMARK SMILES IDX 17 15 12 17 13 18 14 19
REMARK H PARENT
REMARK Flexibility Score: 70.00
ROOT
ATOM      1  C   UNL     1     -11.770   1.564 -18.146  1.00  0.00     0.136 C 
ATOM      2  O   UNL     1     -11.409   0.979 -17.136  1.00  0.00    -0.299 OA
ENDROOT
BRANCH   1   3
ATOM      3  C   UNL     1     -12.052   0.783 -19.422  1.00  0.00     0.053 C 
ATOM      4  C   UNL     1     -13.310  -0.092 -19.305  1.00  0.00     0.016 C 
BRANCH   3   5
ATOM      5  C   UNL     1     -10.824  -0.043 -19.866  1.00  0.00     0.015 C 
BRANCH   5   6
ATOM      6  C   UNL     1      -9.660   0.831 -20.370  1.00  0.00     0.028 C 
BRANCH   6   7
ATOM      7  C   UNL     1      -8.675   1.219 -19.293  1.00  0.00    -0.028 C 
ATOM      8  C   UNL     1      -8.369   2.480 -18.889  1.00  0.00    -0.070 CG0
ATOM      9  C   UNL     1      -7.474   2.610 -17.678  1.00  0.00     0.039 C 
ATOM     10  G   UNL     1      -8.758   3.758 -19.628  1.00  0.00     0.000 G0
ENDBRANCH   6   7
ENDBRANCH   5   6
ENDBRANCH   3   5
ENDBRANCH   1   3
BRANCH   1  11
ATOM     11  C   UNL     1     -11.926   3.068 -18.122  1.00  0.00     0.087 C 
BRANCH  11  12
ATOM     12  C   UNL     1     -11.351   3.826 -19.355  1.00  0.00     0.066 C 
BRANCH  12  13
ATOM     13  C   UNL     1      -9.981   4.452 -19.107  1.00  0.00     0.140 C 
ATOM     14  O   UNL     1      -9.885   5.558 -18.595  1.00  0.00    -0.299 OA
BRANCH  13  15
ATOM     15  C   UNL     1      -8.746   3.751 -19.617  1.00  0.00     0.106 CG0
ATOM     16  G   UNL     1      -8.361   2.465 -18.889  1.00  0.00     0.000 G0
ENDBRANCH  13  15
ENDBRANCH  12  13
BRANCH  12  17
ATOM     17  C   UNL     1     -12.385   4.759 -20.065  1.00  0.00    -0.006 C 
ATOM     18  C   UNL     1     -12.020   4.995 -21.540  1.00  0.00     0.008 C 
ATOM     19  C   UNL     1     -12.637   6.097 -19.354  1.00  0.00     0.008 C 
ENDBRANCH  12  17
ENDBRANCH  11  12
ENDBRANCH   1  11
TORSDOF 1
ENDMDL
MODEL 3
REMARK VINA RESULT:    -3.336      1.787      3.926
REMARK INTER + INTRA:          -5.066
REMARK INTER:                  -5.429
REMARK INTRA:                   0.363
REMARK UNBOUND:                 0.025
REMARK SMILES CC1=CCC[C@@H](C)C(=O)C[C@@H](C(C)C)C(=O)C1
REMARK SMILES IDX 8 1 9 2 6 3 7 4 5 5 4 6 3 7 2 8 1 9 10 11 11 12 15 13 16 14
REMARK SMILES IDX 17 15 12 17 13 18 14 19
REMARK H PARENT
REMARK Flexibility Score: 70.00
ROOT
ATOM      1  C   UNL     1      -9.289   4.594 -17.966  1.00  0.00     0.136 C 
ATOM      2  O   UNL     1      -9.438   4.545 -16.754  1.00  0.00    -0.299 OA
ENDROOT
BRANCH   1   3
ATOM      3  C   UNL     1      -8.128   3.860 -18.621  1.00  0.00     0.053 C 
ATOM      4  C   UNL     1      -8.150   3.980 -20.154  1.00  0.00     0.016 C 
BRANCH   3   5
ATOM      5  C   UNL     1      -8.059   2.384 -18.167  1.00  0.00     0.015 C 
BRANCH   5   6
ATOM      6  C   UNL     1      -8.386   1.391 -19.298  1.00  0.00     0.028 C 
BRANCH   6   7
ATOM      7  C   UNL     1      -9.647   0.593 -19.068  1.00  0.00    -0.028 C 
ATOM      8  C   UNL     1     -10.914   0.968 -19.384  1.00  0.00    -0.070 CG0
ATOM      9  C   UNL     1     -11.997  -0.071 -19.208  1.00  0.00     0.039 C 
ATOM     10  G   UNL     1     -11.338   2.379 -19.785  1.00  0.00     0.000 G0
ENDBRANCH   6   7
ENDBRANCH   5   6
ENDBRANCH   3   5
ENDBRANCH   1   3
BRANCH   1  11
ATOM     11  C   UNL     1     -10.260   5.393 -18.806  1.00  0.00     0.087 C 
BRANCH  11  12
ATOM     12  C   UNL     1     -11.702   4.812 -18.903  1.00  0.00     0.066 C 
BRANCH  12  13
ATOM     13  C   UNL     1     -11.772   3.303 -18.687  1.00  0.00     0.140 C 
ATOM     14  O   UNL     1     -12.071   2.842 -17.595  1.00  0.00    -0.299 OA
BRANCH  13  15
ATOM     15  C   UNL     1     -11.341   2.378 -19.800  1.00  0.00     0.106 CG0
ATOM     16  G   UNL     1     -10.918   0.974 -19.372  1.00  0.00     0.000 G0
ENDBRANCH  13  15
ENDBRANCH  12  13
BRANCH  12  17
ATOM     17  C   UNL     1     -12.518   5.343 -20.127  1.00  0.00    -0.006 C 
ATOM     18  C   UNL     1     -11.748   5.162 -21.446  1.00  0.00     0.008 C 
ATOM     19  C   UNL     1     -13.014   6.791 -19.990  1.00  0.00     0.008 C 
ENDBRANCH  12  17
ENDBRANCH  11  12
ENDBRANCH   1  11
TORSDOF 1
ENDMDL
MODEL 4
REMARK VINA RESULT:    -3.130      1.539      3.552
REMARK INTER + INTRA:          -4.752
REMARK INTER:                  -5.361
REMARK INTRA:                   0.609
REMARK UNBOUND:                 0.025
REMARK SMILES CC1=CCC[C@@H](C)C(=O)C[C@@H](C(C)C)C(=O)C1
REMARK SMILES IDX 8 1 9 2 6 3 7 4 5 5 4 6 3 7 2 8 1 9 10 11 11 12 15 13 16 14
REMARK SMILES IDX 17 15 12 17 13 18 14 19
REMARK H PARENT
REMARK Flexibility Score: 70.00
ROOT
ATOM      1  C   UNL     1     -11.702   2.454 -17.462  1.00  0.00     0.136 C 
ATOM      2  O   UNL     1     -11.523   1.552 -16.657  1.00  0.00    -0.299 OA
ENDROOT
BRANCH   1   3
ATOM      3  C   UNL     1     -11.611   3.906 -17.014  1.00  0.00     0.053 C 
ATOM      4  C   UNL     1     -12.156   4.879 -18.071  1.00  0.00     0.016 C 
BRANCH   3   5
ATOM      5  C   UNL     1     -10.175   4.280 -16.583  1.00  0.00     0.015 C 
BRANCH   5   6
ATOM      6  C   UNL     1      -9.177   4.283 -17.757  1.00  0.00     0.028 C 
BRANCH   6   7
ATOM      7  C   UNL     1      -8.325   3.039 -17.839  1.00  0.00    -0.028 C 
ATOM      8  C   UNL     1      -8.300   2.138 -18.856  1.00  0.00    -0.070 CG0
ATOM      9  C   UNL     1      -7.242   1.062 -18.788  1.00  0.00     0.039 C 
ATOM     10  G   UNL     1      -9.323   2.062 -19.987  1.00  0.00     0.000 G0
ENDBRANCH   6   7
ENDBRANCH   5   6
ENDBRANCH   3   5
ENDBRANCH   1   3
BRANCH   1  11
ATOM     11  C   UNL     1     -12.020   2.118 -18.901  1.00  0.00     0.087 C 
BRANCH  11  12
ATOM     12  C   UNL     1     -11.507   0.733 -19.399  1.00  0.00     0.066 C 
BRANCH  12  13
ATOM     13  C   UNL     1     -10.140   0.793 -20.075  1.00  0.00     0.140 C 
ATOM     14  O   UNL     1      -9.655  -0.203 -20.591  1.00  0.00    -0.299 OA
BRANCH  13  15
ATOM     15  C   UNL     1      -9.329   2.063 -19.989  1.00  0.00     0.106 CG0
ATOM     16  G   UNL     1      -8.304   2.124 -18.858  1.00  0.00     0.000 G0
ENDBRANCH  13  15
ENDBRANCH  12  13
BRANCH  12  17
ATOM     17  C   UNL     1     -12.584  -0.106 -20.159  1.00  0.00    -0.006 C 
ATOM     18  C   UNL     1     -13.807  -0.399 -19.275  1.00  0.00     0.008 C 
ATOM     19  C   UNL     1     -12.059  -1.403 -20.794  1.00  0.00     0.008 C 
ENDBRANCH  12  17
ENDBRANCH  11  12
ENDBRANCH   1  11
TORSDOF 1
ENDMDL
MODEL 5
REMARK VINA RESULT:    -3.128      1.741      4.091
REMARK INTER + INTRA:          -4.749
REMARK INTER:                  -5.445
REMARK INTRA:                   0.696
REMARK UNBOUND:                 0.025
REMARK SMILES CC1=CCC[C@@H](C)C(=O)C[C@@H](C(C)C)C(=O)C1
REMARK SMILES IDX 8 1 9 2 6 3 7 4 5 5 4 6 3 7 2 8 1 9 10 11 11 12 15 13 16 14
REMARK SMILES IDX 17 15 12 17 13 18 14 19
REMARK H PARENT
REMARK Flexibility Score: 70.00
ROOT
ATOM      1  C   UNL     1     -11.635   0.417 -18.107  1.00  0.00     0.136 C 
ATOM      2  O   UNL     1     -11.491  -0.684 -17.596  1.00  0.00    -0.299 OA
ENDROOT
BRANCH   1   3
ATOM      3  C   UNL     1     -11.702   0.552 -19.622  1.00  0.00     0.053 C 
ATOM      4  C   UNL     1     -12.899  -0.202 -20.223  1.00  0.00     0.016 C 
BRANCH   3   5
ATOM      5  C   UNL     1     -10.373   0.133 -20.289  1.00  0.00     0.015 C 
BRANCH   5   6
ATOM      6  C   UNL     1      -9.138   0.772 -19.625  1.00  0.00     0.028 C 
BRANCH   6   7
ATOM      7  C   UNL     1      -8.889   2.201 -20.043  1.00  0.00    -0.028 C 
ATOM      8  C   UNL     1      -8.486   3.223 -19.243  1.00  0.00    -0.070 CG0
ATOM      9  C   UNL     1      -8.142   4.527 -19.923  1.00  0.00     0.039 C 
ATOM     10  G   UNL     1      -8.469   3.189 -17.717  1.00  0.00     0.000 G0
ENDBRANCH   6   7
ENDBRANCH   5   6
ENDBRANCH   3   5
ENDBRANCH   1   3
BRANCH   1  11
ATOM     11  C   UNL     1     -11.738   1.641 -17.225  1.00  0.00     0.087 C 
BRANCH  11  12
ATOM     12  C   UNL     1     -11.081   2.935 -17.791  1.00  0.00     0.066 C 
BRANCH  12  13
ATOM     13  C   UNL     1      -9.819   3.359 -17.045  1.00  0.00     0.140 C 
ATOM     14  O   UNL     1      -9.893   3.923 -15.963  1.00  0.00    -0.299 OA
BRANCH  13  15
ATOM     15  C   UNL     1      -8.476   3.192 -17.713  1.00  0.00     0.106 CG0
ATOM     16  G   UNL     1      -8.482   3.230 -19.240  1.00  0.00     0.000 G0
ENDBRANCH  13  15
ENDBRANCH  12  13
BRANCH  12  17
ATOM     17  C   UNL     1     -12.097   4.088 -18.078  1.00  0.00    -0.006 C 
ATOM     18  C   UNL     1     -11.628   4.986 -19.235  1.00  0.00     0.008 C 
ATOM     19  C   UNL     1     -12.464   4.941 -16.853  1.00  0.00     0.008 C 
ENDBRANCH  12  17
ENDBRANCH  11  12
ENDBRANCH   1  11
TORSDOF 1
ENDMDL
MODEL 6
REMARK VINA RESULT:    -3.022      1.699      3.845
REMARK INTER + INTRA:          -4.587
REMARK INTER:                  -5.543
REMARK INTRA:                   0.956
REMARK UNBOUND:                 0.025
REMARK SMILES CC1=CCC[C@@H](C)C(=O)C[C@@H](C(C)C)C(=O)C1
REMARK SMILES IDX 8 1 9 2 6 3 7 4 5 5 4 6 3 7 2 8 1 9 10 11 11 12 15 13 16 14
REMARK SMILES IDX 17 15 12 17 13 18 14 19
REMARK H PARENT
REMARK Flexibility Score: 70.00
ROOT
ATOM      1  C   UNL     1     -10.689   0.938 -19.785  1.00  0.00     0.136 C 
ATOM      2  O   UNL     1     -11.134   0.332 -20.749  1.00  0.00    -0.299 OA
ENDROOT
BRANCH   1   3
ATOM      3  C   UNL     1     -11.368   0.817 -18.428  1.00  0.00     0.053 C 
ATOM      4  C   UNL     1     -12.059  -0.544 -18.240  1.00  0.00     0.016 C 
BRANCH   3   5
ATOM      5  C   UNL     1     -12.341   1.989 -18.173  1.00  0.00     0.015 C 
BRANCH   5   6
ATOM      6  C   UNL     1     -11.714   3.121 -17.337  1.00  0.00     0.028 C 
BRANCH   6   7
ATOM      7  C   UNL     1     -12.211   4.500 -17.703  1.00  0.00    -0.028 C 
ATOM      8  C   UNL     1     -12.113   5.102 -18.916  1.00  0.00    -0.070 CG0
ATOM      9  C   UNL     1     -12.834   6.420 -19.084  1.00  0.00     0.039 C 
ATOM     10  G   UNL     1     -11.243   4.614 -20.072  1.00  0.00     0.000 G0
ENDBRANCH   6   7
ENDBRANCH   5   6
ENDBRANCH   3   5
ENDBRANCH   1   3
BRANCH   1  11
ATOM     11  C   UNL     1      -9.467   1.813 -19.953  1.00  0.00     0.087 C 
BRANCH  11  12
ATOM     12  C   UNL     1      -9.419   3.082 -19.051  1.00  0.00     0.066 C 
BRANCH  12  13
ATOM     13  C   UNL     1      -9.800   4.368 -19.780  1.00  0.00     0.140 C 
ATOM     14  O   UNL     1      -8.959   5.222 -20.021  1.00  0.00    -0.299 OA
BRANCH  13  15
ATOM     15  C   UNL     1     -11.252   4.638 -20.090  1.00  0.00     0.106 CG0
ATOM     16  G   UNL     1     -12.109   5.102 -18.915  1.00  0.00     0.000 G0
ENDBRANCH  13  15
ENDBRANCH  12  13
BRANCH  12  17
ATOM     17  C   UNL     1      -8.135   3.182 -18.165  1.00  0.00    -0.006 C 
ATOM     18  C   UNL     1      -7.220   1.960 -18.349  1.00  0.00     0.008 C 
ATOM     19  C   UNL     1      -8.402   3.430 -16.672  1.00  0.00     0.008 C 
ENDBRANCH  12  17
ENDBRANCH  11  12
ENDBRANCH   1  11
TORSDOF 1
ENDMDL
MODEL 7
REMARK VINA RESULT:    -2.966      1.756      3.898
REMARK INTER + INTRA:          -4.501
REMARK INTER:                  -4.708
REMARK INTRA:                   0.206
REMARK UNBOUND:                 0.025
REMARK SMILES CC1=CCC[C@@H](C)C(=O)C[C@@H](C(C)C)C(=O)C1
REMARK SMILES IDX 8 1 9 2 6 3 7 4 5 5 4 6 3 7 2 8 1 9 10 11 11 12 15 13 16 14
REMARK SMILES IDX 17 15 12 17 13 18 14 19
REMARK H PARENT
REMARK Flexibility Score: 70.00
ROOT
ATOM      1  C   UNL     1     -11.442   1.825 -19.611  1.00  0.00     0.136 C 
ATOM      2  O   UNL     1     -11.748   1.655 -18.441  1.00  0.00    -0.299 OA
ENDROOT
BRANCH   1   3
ATOM      3  C   UNL     1     -10.380   0.947 -20.258  1.00  0.00     0.053 C 
ATOM      4  C   UNL     1     -10.876  -0.487 -20.502  1.00  0.00     0.016 C 
BRANCH   3   5
ATOM      5  C   UNL     1      -9.062   0.964 -19.453  1.00  0.00     0.015 C 
BRANCH   5   6
ATOM      6  C   UNL     1      -8.468   2.377 -19.298  1.00  0.00     0.028 C 
BRANCH   6   7
ATOM      7  C   UNL     1      -8.539   2.921 -17.892  1.00  0.00    -0.028 C 
ATOM      8  C   UNL     1      -9.230   4.015 -17.478  1.00  0.00    -0.070 CG0
ATOM      9  C   UNL     1      -9.283   4.266 -15.989  1.00  0.00     0.039 C 
ATOM     10  G   UNL     1      -9.849   5.063 -18.400  1.00  0.00     0.000 G0
ENDBRANCH   6   7
ENDBRANCH   5   6
ENDBRANCH   3   5
ENDBRANCH   1   3
BRANCH   1  11
ATOM     11  C   UNL     1     -12.120   2.917 -20.409  1.00  0.00     0.087 C 
BRANCH  11  12
ATOM     12  C   UNL     1     -11.471   4.329 -20.307  1.00  0.00     0.066 C 
BRANCH  12  13
ATOM     13  C   UNL     1     -11.250   4.799 -18.872  1.00  0.00     0.140 C 
ATOM     14  O   UNL     1     -12.200   5.050 -18.144  1.00  0.00    -0.299 OA
BRANCH  13  15
ATOM     15  C   UNL     1      -9.846   5.079 -18.395  1.00  0.00     0.106 CG0
ATOM     16  G   UNL     1      -9.234   4.029 -17.470  1.00  0.00     0.000 G0
ENDBRANCH  13  15
ENDBRANCH  12  13
BRANCH  12  17
ATOM     17  C   UNL     1     -12.109   5.391 -21.259  1.00  0.00    -0.006 C 
ATOM     18  C   UNL     1     -12.880   6.467 -20.478  1.00  0.00     0.008 C 
ATOM     19  C   UNL     1     -12.988   4.807 -22.376  1.00  0.00     0.008 C 
ENDBRANCH  12  17
ENDBRANCH  11  12
ENDBRANCH   1  11
TORSDOF 1
ENDMDL
MODEL 8
REMARK VINA RESULT:    -2.504     14.313     16.913
REMARK INTER + INTRA:          -3.796
REMARK INTER:                  -3.972
REMARK INTRA:                   0.177
REMARK UNBOUND:                 0.025
REMARK SMILES CC1=CCC[C@@H](C)C(=O)C[C@@H](C(C)C)C(=O)C1
REMARK SMILES IDX 8 1 9 2 6 3 7 4 5 5 4 6 3 7 2 8 1 9 10 11 11 12 15 13 16 14
REMARK SMILES IDX 17 15 12 17 13 18 14 19
REMARK H PARENT
REMARK Flexibility Score: 70.00
ROOT
ATOM      1  C   UNL     1       1.255  10.018 -15.140  1.00  0.00     0.136 C 
ATOM      2  O   UNL     1       0.855   9.025 -15.729  1.00  0.00    -0.299 OA
ENDROOT
BRANCH   1   3
ATOM      3  C   UNL     1       0.420  10.631 -14.024  1.00  0.00     0.053 C 
ATOM      4  C   UNL     1      -1.024  10.919 -14.464  1.00  0.00     0.016 C 
BRANCH   3   5
ATOM      5  C   UNL     1       1.096  11.889 -13.434  1.00  0.00     0.015 C 
BRANCH   5   6
ATOM      6  C   UNL     1       1.754  11.634 -12.065  1.00  0.00     0.028 C 
BRANCH   6   7
ATOM      7  C   UNL     1       2.168  10.198 -11.843  1.00  0.00    -0.028 C 
ATOM      8  C   UNL     1       3.431   9.700 -11.890  1.00  0.00    -0.070 CG0
ATOM      9  C   UNL     1       3.614   8.261 -11.468  1.00  0.00     0.039 C 
ATOM     10  G   UNL     1       4.647  10.441 -12.443  1.00  0.00     0.000 G0
ENDBRANCH   6   7
ENDBRANCH   5   6
ENDBRANCH   3   5
ENDBRANCH   1   3
BRANCH   1  11
ATOM     11  C   UNL     1       2.578  10.637 -15.532  1.00  0.00     0.087 C 
BRANCH  11  12
ATOM     12  C   UNL     1       3.841   9.983 -14.898  1.00  0.00     0.066 C 
BRANCH  12  13
ATOM     13  C   UNL     1       4.551  10.877 -13.884  1.00  0.00     0.140 C 
ATOM     14  O   UNL     1       5.121  11.897 -14.242  1.00  0.00    -0.299 OA
BRANCH  13  15
ATOM     15  C   UNL     1       4.655  10.425 -12.447  1.00  0.00     0.106 CG0
ATOM     16  G   UNL     1       3.433   9.701 -11.886  1.00  0.00     0.000 G0
ENDBRANCH  13  15
ENDBRANCH  12  13
BRANCH  12  17
ATOM     17  C   UNL     1       4.781   9.284 -15.932  1.00  0.00    -0.006 C 
ATOM     18  C   UNL     1       4.293   9.491 -17.376  1.00  0.00     0.008 C 
ATOM     19  C   UNL     1       5.038   7.793 -15.663  1.00  0.00     0.008 C 
ENDBRANCH  12  17
ENDBRANCH  11  12
ENDBRANCH   1  11
TORSDOF 1
ENDMDL
MODEL 9
REMARK VINA RESULT:    -2.470      1.861      4.009
REMARK INTER + INTRA:          -3.743
REMARK INTER:                  -4.774
REMARK INTRA:                   1.030
REMARK UNBOUND:                 0.025
REMARK SMILES CC1=CCC[C@@H](C)C(=O)C[C@@H](C(C)C)C(=O)C1
REMARK SMILES IDX 8 1 9 2 6 3 7 4 5 5 4 6 3 7 2 8 1 9 10 11 11 12 15 13 16 14
REMARK SMILES IDX 17 15 12 17 13 18 14 19
REMARK H PARENT
REMARK Flexibility Score: 70.00
ROOT
ATOM      1  C   UNL     1     -11.025   1.519 -20.031  1.00  0.00     0.136 C 
ATOM      2  O   UNL     1      -9.846   1.751 -20.257  1.00  0.00    -0.299 OA
ENDROOT
BRANCH   1   3
ATOM      3  C   UNL     1     -11.453   0.139 -19.555  1.00  0.00     0.053 C 
ATOM      4  C   UNL     1     -12.653  -0.406 -20.347  1.00  0.00     0.016 C 
BRANCH   3   5
ATOM      5  C   UNL     1     -11.721   0.120 -18.033  1.00  0.00     0.015 C 
BRANCH   5   6
ATOM      6  C   UNL     1     -11.974   1.523 -17.449  1.00  0.00     0.028 C 
BRANCH   6   7
ATOM      7  C   UNL     1     -10.727   2.212 -16.948  1.00  0.00    -0.028 C 
ATOM      8  C   UNL     1     -10.417   3.528 -17.082  1.00  0.00    -0.070 CG0
ATOM      9  C   UNL     1      -9.189   4.018 -16.351  1.00  0.00     0.039 C 
ATOM     10  G   UNL     1     -11.139   4.511 -18.001  1.00  0.00     0.000 G0
ENDBRANCH   6   7
ENDBRANCH   5   6
ENDBRANCH   3   5
ENDBRANCH   1   3
BRANCH   1  11
ATOM     11  C   UNL     1     -12.052   2.611 -20.234  1.00  0.00     0.087 C 
BRANCH  11  12
ATOM     12  C   UNL     1     -11.479   4.024 -20.553  1.00  0.00     0.066 C 
BRANCH  12  13
ATOM     13  C   UNL     1     -10.643   4.616 -19.422  1.00  0.00     0.140 C 
ATOM     14  O   UNL     1      -9.531   5.073 -19.642  1.00  0.00    -0.299 OA
BRANCH  13  15
ATOM     15  C   UNL     1     -11.145   4.516 -18.002  1.00  0.00     0.106 CG0
ATOM     16  G   UNL     1     -10.403   3.532 -17.100  1.00  0.00     0.000 G0
ENDBRANCH  13  15
ENDBRANCH  12  13
BRANCH  12  17
ATOM     17  C   UNL     1     -12.522   5.002 -21.185  1.00  0.00    -0.006 C 
ATOM     18  C   UNL     1     -12.126   5.410 -22.614  1.00  0.00     0.008 C 
ATOM     19  C   UNL     1     -12.832   6.247 -20.339  1.00  0.00     0.008 C 
ENDBRANCH  12  17
ENDBRANCH  11  12
ENDBRANCH   1  11
TORSDOF 1
ENDMDL
