MODEL 1
REMARK VINA RESULT:    -5.654      0.000      0.000
REMARK INTER + INTRA:          -6.235
REMARK INTER:                  -6.150
REMARK INTRA:                  -0.085
REMARK UNBOUND:                -0.085
REMARK SMILES C=C(C)[C@@H]1CC=C(C)[C@@H](O)C1
REMARK SMILES IDX 8 1 7 2 6 3 5 4 4 5 11 6 9 7 10 8 2 10 1 11 3 12
REMARK H PARENT 10 9
REMARK Flexibility Score: inf
ROOT
ATOM      1  C   UNL     1      14.419 -13.752  28.907  1.00  0.00     0.042 C 
ATOM      2  C   UNL     1      13.483 -14.581  29.744  1.00  0.00    -0.049 C 
ATOM      3  C   UNL     1      13.999 -15.391  30.693  1.00  0.00    -0.025 C 
ATOM      4  C   UNL     1      13.147 -16.206  31.631  1.00  0.00     0.035 C 
ATOM      5  C   UNL     1      11.768 -16.518  31.029  1.00  0.00     0.021 C 
ATOM      6  C   UNL     1      11.119 -15.225  30.508  1.00  0.00     0.044 C 
ATOM      7  C   UNL     1      11.993 -14.552  29.428  1.00  0.00     0.140 C 
ENDROOT
BRANCH   7   8
ATOM      8  O   UNL     1      11.746 -15.121  28.165  1.00  0.00    -0.389 OA
ATOM      9  H   UNL     1      12.599 -15.116  27.657  1.00  0.00     0.211 HD
ENDBRANCH   7   8
BRANCH   5  10
ATOM     10  C   UNL     1      10.870 -17.223  32.038  1.00  0.00    -0.077 C 
ATOM     11  C   UNL     1      10.946 -18.555  32.191  1.00  0.00     0.008 C 
ATOM     12  C   UNL     1       9.884 -16.458  32.887  1.00  0.00     0.039 C 
ENDBRANCH   5  10
TORSDOF 2
ENDMDL
MODEL 2
REMARK VINA RESULT:    -5.639      0.122      1.049
REMARK INTER + INTRA:          -6.219
REMARK INTER:                  -6.125
REMARK INTRA:                  -0.094
REMARK UNBOUND:                -0.085
REMARK SMILES C=C(C)[C@@H]1CC=C(C)[C@@H](O)C1
REMARK SMILES IDX 8 1 7 2 6 3 5 4 4 5 11 6 9 7 10 8 2 10 1 11 3 12
REMARK H PARENT 10 9
REMARK Flexibility Score: inf
ROOT
ATOM      1  C   UNL     1      14.383 -13.695  28.870  1.00  0.00     0.042 C 
ATOM      2  C   UNL     1      13.440 -14.502  29.721  1.00  0.00    -0.049 C 
ATOM      3  C   UNL     1      13.946 -15.269  30.710  1.00  0.00    -0.025 C 
ATOM      4  C   UNL     1      13.085 -16.057  31.663  1.00  0.00     0.035 C 
ATOM      5  C   UNL     1      11.720 -16.406  31.049  1.00  0.00     0.021 C 
ATOM      6  C   UNL     1      11.068 -15.141  30.466  1.00  0.00     0.044 C 
ATOM      7  C   UNL     1      11.955 -14.501  29.377  1.00  0.00     0.140 C 
ENDROOT
BRANCH   7   8
ATOM      8  O   UNL     1      11.737 -15.120  28.133  1.00  0.00    -0.389 OA
ATOM      9  H   UNL     1      11.239 -15.963  28.295  1.00  0.00     0.211 HD
ENDBRANCH   7   8
BRANCH   5  10
ATOM     10  C   UNL     1      10.811 -17.082  32.068  1.00  0.00    -0.077 C 
ATOM     11  C   UNL     1       9.948 -16.349  32.790  1.00  0.00     0.008 C 
ATOM     12  C   UNL     1      10.849 -18.574  32.291  1.00  0.00     0.039 C 
ENDBRANCH   5  10
TORSDOF 2
ENDMDL
MODEL 3
REMARK VINA RESULT:    -5.447      1.909      4.759
REMARK INTER + INTRA:          -6.009
REMARK INTER:                  -5.916
REMARK INTRA:                  -0.094
REMARK UNBOUND:                -0.085
REMARK SMILES C=C(C)[C@@H]1CC=C(C)[C@@H](O)C1
REMARK SMILES IDX 8 1 7 2 6 3 5 4 4 5 11 6 9 7 10 8 2 10 1 11 3 12
REMARK H PARENT 10 9
REMARK Flexibility Score: inf
ROOT
ATOM      1  C   UNL     1       9.147 -18.973  33.651  1.00  0.00     0.042 C 
ATOM      2  C   UNL     1      10.040 -18.044  32.875  1.00  0.00    -0.049 C 
ATOM      3  C   UNL     1       9.878 -16.711  33.017  1.00  0.00    -0.025 C 
ATOM      4  C   UNL     1      10.766 -15.698  32.343  1.00  0.00     0.035 C 
ATOM      5  C   UNL     1      11.405 -16.256  31.062  1.00  0.00     0.021 C 
ATOM      6  C   UNL     1      12.063 -17.615  31.354  1.00  0.00     0.044 C 
ATOM      7  C   UNL     1      11.034 -18.636  31.883  1.00  0.00     0.140 C 
ENDROOT
BRANCH   7   8
ATOM      8  O   UNL     1      10.356 -19.255  30.817  1.00  0.00    -0.389 OA
ATOM      9  H   UNL     1      11.025 -19.747  30.275  1.00  0.00     0.211 HD
ENDBRANCH   7   8
BRANCH   5  10
ATOM     10  C   UNL     1      12.404 -15.271  30.467  1.00  0.00    -0.077 C 
ATOM     11  C   UNL     1      13.671 -15.246  30.911  1.00  0.00     0.008 C 
ATOM     12  C   UNL     1      12.007 -14.310  29.373  1.00  0.00     0.039 C 
ENDBRANCH   5  10
TORSDOF 2
ENDMDL
MODEL 4
REMARK VINA RESULT:    -5.105      1.764      4.525
REMARK INTER + INTRA:          -5.637
REMARK INTER:                  -5.545
REMARK INTRA:                  -0.093
REMARK UNBOUND:                -0.085
REMARK SMILES C=C(C)[C@@H]1CC=C(C)[C@@H](O)C1
REMARK SMILES IDX 8 1 7 2 6 3 5 4 4 5 11 6 9 7 10 8 2 10 1 11 3 12
REMARK H PARENT 10 9
REMARK Flexibility Score: inf
ROOT
ATOM      1  C   UNL     1       9.967 -16.542  32.749  1.00  0.00     0.042 C 
ATOM      2  C   UNL     1      11.102 -16.160  31.838  1.00  0.00    -0.049 C 
ATOM      3  C   UNL     1      10.882 -15.245  30.869  1.00  0.00    -0.025 C 
ATOM      4  C   UNL     1      11.967 -14.741  29.953  1.00  0.00     0.035 C 
ATOM      5  C   UNL     1      13.107 -15.761  29.797  1.00  0.00     0.021 C 
ATOM      6  C   UNL     1      13.581 -16.232  31.181  1.00  0.00     0.044 C 
ATOM      7  C   UNL     1      12.433 -16.887  31.978  1.00  0.00     0.140 C 
ENDROOT
BRANCH   7   8
ATOM      8  O   UNL     1      12.294 -18.241  31.625  1.00  0.00    -0.389 OA
ATOM      9  H   UNL     1      13.194 -18.659  31.660  1.00  0.00     0.211 HD
ENDBRANCH   7   8
BRANCH   5  10
ATOM     10  C   UNL     1      14.257 -15.184  28.980  1.00  0.00    -0.077 C 
ATOM     11  C   UNL     1      15.259 -15.980  28.575  1.00  0.00     0.008 C 
ATOM     12  C   UNL     1      14.301 -13.724  28.603  1.00  0.00     0.039 C 
ENDBRANCH   5  10
TORSDOF 2
ENDMDL
MODEL 5
REMARK VINA RESULT:    -4.922      4.140      6.454
REMARK INTER + INTRA:          -5.438
REMARK INTER:                  -5.343
REMARK INTRA:                  -0.095
REMARK UNBOUND:                -0.085
REMARK SMILES C=C(C)[C@@H]1CC=C(C)[C@@H](O)C1
REMARK SMILES IDX 8 1 7 2 6 3 5 4 4 5 11 6 9 7 10 8 2 10 1 11 3 12
REMARK H PARENT 10 9
REMARK Flexibility Score: inf
ROOT
ATOM      1  C   UNL     1       9.903 -17.566  32.511  1.00  0.00     0.042 C 
ATOM      2  C   UNL     1       9.712 -19.058  32.536  1.00  0.00    -0.049 C 
ATOM      3  C   UNL     1      10.218 -19.764  33.569  1.00  0.00    -0.025 C 
ATOM      4  C   UNL     1      10.020 -21.250  33.725  1.00  0.00     0.035 C 
ATOM      5  C   UNL     1       9.775 -21.942  32.375  1.00  0.00     0.021 C 
ATOM      6  C   UNL     1       8.665 -21.208  31.604  1.00  0.00     0.044 C 
ATOM      7  C   UNL     1       9.038 -19.733  31.347  1.00  0.00     0.140 C 
ENDROOT
BRANCH   7   8
ATOM      8  O   UNL     1       9.839 -19.617  30.196  1.00  0.00    -0.389 OA
ATOM      9  H   UNL     1       9.740 -18.692  29.849  1.00  0.00     0.211 HD
ENDBRANCH   7   8
BRANCH   5  10
ATOM     10  C   UNL     1       9.441 -23.417  32.560  1.00  0.00    -0.077 C 
ATOM     11  C   UNL     1       8.532 -23.791  33.474  1.00  0.00     0.008 C 
ATOM     12  C   UNL     1      10.111 -24.486  31.733  1.00  0.00     0.039 C 
ENDBRANCH   5  10
TORSDOF 2
ENDMDL
MODEL 6
REMARK VINA RESULT:    -4.921      2.882      5.644
REMARK INTER + INTRA:          -5.438
REMARK INTER:                  -5.345
REMARK INTRA:                  -0.094
REMARK UNBOUND:                -0.085
REMARK SMILES C=C(C)[C@@H]1CC=C(C)[C@@H](O)C1
REMARK SMILES IDX 8 1 7 2 6 3 5 4 4 5 11 6 9 7 10 8 2 10 1 11 3 12
REMARK H PARENT 10 9
REMARK Flexibility Score: inf
ROOT
ATOM      1  C   UNL     1      12.687 -16.205  30.171  1.00  0.00     0.042 C 
ATOM      2  C   UNL     1      12.684 -15.218  29.036  1.00  0.00    -0.049 C 
ATOM      3  C   UNL     1      12.072 -14.027  29.208  1.00  0.00    -0.025 C 
ATOM      4  C   UNL     1      12.075 -12.943  28.161  1.00  0.00     0.035 C 
ATOM      5  C   UNL     1      12.255 -13.511  26.745  1.00  0.00     0.021 C 
ATOM      6  C   UNL     1      13.464 -14.461  26.711  1.00  0.00     0.044 C 
ATOM      7  C   UNL     1      13.288 -15.633  27.700  1.00  0.00     0.140 C 
ENDROOT
BRANCH   7   8
ATOM      8  O   UNL     1      12.531 -16.664  27.116  1.00  0.00    -0.389 OA
ATOM      9  H   UNL     1      11.583 -16.532  27.378  1.00  0.00     0.211 HD
ENDBRANCH   7   8
BRANCH   5  10
ATOM     10  C   UNL     1      12.393 -12.398  25.714  1.00  0.00    -0.077 C 
ATOM     11  C   UNL     1      13.593 -11.843  25.480  1.00  0.00     0.008 C 
ATOM     12  C   UNL     1      11.203 -11.894  24.934  1.00  0.00     0.039 C 
ENDBRANCH   5  10
TORSDOF 2
ENDMDL
MODEL 7
REMARK VINA RESULT:    -4.878      2.001      4.821
REMARK INTER + INTRA:          -5.391
REMARK INTER:                  -5.296
REMARK INTRA:                  -0.095
REMARK UNBOUND:                -0.085
REMARK SMILES C=C(C)[C@@H]1CC=C(C)[C@@H](O)C1
REMARK SMILES IDX 8 1 7 2 6 3 5 4 4 5 11 6 9 7 10 8 2 10 1 11 3 12
REMARK H PARENT 10 9
REMARK Flexibility Score: inf
ROOT
ATOM      1  C   UNL     1      13.194 -17.128  31.623  1.00  0.00     0.042 C 
ATOM      2  C   UNL     1      13.105 -16.061  30.567  1.00  0.00    -0.049 C 
ATOM      3  C   UNL     1      11.889 -15.603  30.202  1.00  0.00    -0.025 C 
ATOM      4  C   UNL     1      11.695 -14.487  29.208  1.00  0.00     0.035 C 
ATOM      5  C   UNL     1      12.878 -14.373  28.233  1.00  0.00     0.021 C 
ATOM      6  C   UNL     1      14.200 -14.333  29.017  1.00  0.00     0.044 C 
ATOM      7  C   UNL     1      14.384 -15.601  29.877  1.00  0.00     0.140 C 
ENDROOT
BRANCH   7   8
ATOM      8  O   UNL     1      14.933 -16.645  29.111  1.00  0.00    -0.389 OA
ATOM      9  H   UNL     1      15.237 -16.261  28.248  1.00  0.00     0.211 HD
ENDBRANCH   7   8
BRANCH   5  10
ATOM     10  C   UNL     1      12.732 -13.158  27.325  1.00  0.00    -0.077 C 
ATOM     11  C   UNL     1      13.694 -12.222  27.294  1.00  0.00     0.008 C 
ATOM     12  C   UNL     1      11.522 -12.975  26.442  1.00  0.00     0.039 C 
ENDBRANCH   5  10
TORSDOF 2
ENDMDL
MODEL 8
REMARK VINA RESULT:    -4.848      3.592      6.396
REMARK INTER + INTRA:          -5.358
REMARK INTER:                  -5.264
REMARK INTRA:                  -0.094
REMARK UNBOUND:                -0.085
REMARK SMILES C=C(C)[C@@H]1CC=C(C)[C@@H](O)C1
REMARK SMILES IDX 8 1 7 2 6 3 5 4 4 5 11 6 9 7 10 8 2 10 1 11 3 12
REMARK H PARENT 10 9
REMARK Flexibility Score: inf
ROOT
ATOM      1  C   UNL     1       8.635 -23.154  32.824  1.00  0.00     0.042 C 
ATOM      2  C   UNL     1       9.168 -21.758  32.649  1.00  0.00    -0.049 C 
ATOM      3  C   UNL     1       9.563 -21.068  33.740  1.00  0.00    -0.025 C 
ATOM      4  C   UNL     1      10.177 -19.694  33.666  1.00  0.00     0.035 C 
ATOM      5  C   UNL     1       9.743 -18.938  32.400  1.00  0.00     0.021 C 
ATOM      6  C   UNL     1       9.960 -19.822  31.161  1.00  0.00     0.044 C 
ATOM      7  C   UNL     1       9.154 -21.135  31.258  1.00  0.00     0.140 C 
ENDROOT
BRANCH   7   8
ATOM      8  O   UNL     1       7.832 -20.939  30.820  1.00  0.00    -0.389 OA
ATOM      9  H   UNL     1       7.299 -20.618  31.593  1.00  0.00     0.211 HD
ENDBRANCH   7   8
BRANCH   5  10
ATOM     10  C   UNL     1      10.477 -17.608  32.270  1.00  0.00    -0.077 C 
ATOM     11  C   UNL     1      11.701 -17.566  31.721  1.00  0.00     0.008 C 
ATOM     12  C   UNL     1       9.857 -16.317  32.745  1.00  0.00     0.039 C 
ENDBRANCH   5  10
TORSDOF 2
ENDMDL
MODEL 9
REMARK VINA RESULT:    -4.827      8.798     10.153
REMARK INTER + INTRA:          -5.335
REMARK INTER:                  -5.239
REMARK INTRA:                  -0.096
REMARK UNBOUND:                -0.085
REMARK SMILES C=C(C)[C@@H]1CC=C(C)[C@@H](O)C1
REMARK SMILES IDX 8 1 7 2 6 3 5 4 4 5 11 6 9 7 10 8 2 10 1 11 3 12
REMARK H PARENT 10 9
REMARK Flexibility Score: inf
ROOT
ATOM      1  C   UNL     1       6.078 -18.968  26.976  1.00  0.00     0.042 C 
ATOM      2  C   UNL     1       6.138 -18.415  25.578  1.00  0.00    -0.049 C 
ATOM      3  C   UNL     1       7.332 -18.353  24.950  1.00  0.00    -0.025 C 
ATOM      4  C   UNL     1       7.490 -17.885  23.527  1.00  0.00     0.035 C 
ATOM      5  C   UNL     1       6.355 -16.939  23.104  1.00  0.00     0.021 C 
ATOM      6  C   UNL     1       4.994 -17.569  23.442  1.00  0.00     0.044 C 
ATOM      7  C   UNL     1       4.866 -17.856  24.953  1.00  0.00     0.140 C 
ENDROOT
BRANCH   7   8
ATOM      8  O   UNL     1       4.443 -16.706  25.642  1.00  0.00    -0.389 OA
ATOM      9  H   UNL     1       4.918 -16.681  26.513  1.00  0.00     0.211 HD
ENDBRANCH   7   8
BRANCH   5  10
ATOM     10  C   UNL     1       6.453 -16.583  21.626  1.00  0.00    -0.077 C 
ATOM     11  C   UNL     1       6.820 -17.516  20.732  1.00  0.00     0.008 C 
ATOM     12  C   UNL     1       6.141 -15.193  21.127  1.00  0.00     0.039 C 
ENDBRANCH   5  10
TORSDOF 2
ENDMDL
