MODEL 1
REMARK VINA RESULT:    -4.220      0.000      0.000
REMARK INTER + INTRA:          -6.466
REMARK INTER:                  -6.194
REMARK INTRA:                  -0.272
REMARK UNBOUND:                -0.272
REMARK SMILES O=C([O-])CCCCCCCC(=O)[O-]
REMARK SMILES IDX 7 1 6 2 5 3 4 4 2 5 1 6 3 7 8 8 9 9 10 10 11 11 12 12 13 13
REMARK H PARENT
REMARK Flexibility Score: inf
ROOT
ATOM      1  C   UNL     1       2.893   3.236  10.066  1.00  0.00     0.000 C 
ENDROOT
BRANCH   1   2
ATOM      2  C   UNL     1       4.341   3.630   9.732  1.00  0.00     0.000 C 
BRANCH   2   3
ATOM      3  C   UNL     1       5.254   2.410   9.522  1.00  0.00     0.006 C 
BRANCH   3   4
ATOM      4  C   UNL     1       4.528   1.259   8.814  1.00  0.00     0.053 C 
BRANCH   4   5
ATOM      5  C   UNL     1       4.532   1.435   7.326  1.00  0.00     0.041 C 
ATOM      6  O   UNL     1       5.369   0.817   6.616  1.00  0.00    -0.550 OA
ATOM      7  O   UNL     1       3.632   2.306   6.726  1.00  0.00    -0.550 OA
ENDBRANCH   4   5
ENDBRANCH   3   4
ENDBRANCH   2   3
ENDBRANCH   1   2
BRANCH   1   8
ATOM      8  C   UNL     1       1.895   4.372   9.802  1.00  0.00     0.000 C 
BRANCH   8   9
ATOM      9  C   UNL     1       0.502   3.816   9.482  1.00  0.00     0.006 C 
BRANCH   9  10
ATOM     10  C   UNL     1      -0.591   4.819   9.862  1.00  0.00     0.053 C 
BRANCH  10  11
ATOM     11  C   UNL     1      -1.732   4.740   8.899  1.00  0.00     0.041 C 
ATOM     12  O   UNL     1      -2.277   3.632   8.650  1.00  0.00    -0.550 OA
ATOM     13  O   UNL     1      -2.227   5.898   8.311  1.00  0.00    -0.550 OA
ENDBRANCH  10  11
ENDBRANCH   9  10
ENDBRANCH   8   9
ENDBRANCH   1   8
TORSDOF 8
ENDMDL
MODEL 2
REMARK VINA RESULT:    -4.116      1.012      1.676
REMARK INTER + INTRA:          -6.314
REMARK INTER:                  -6.110
REMARK INTRA:                  -0.203
REMARK UNBOUND:                -0.272
REMARK SMILES O=C([O-])CCCCCCCC(=O)[O-]
REMARK SMILES IDX 7 1 6 2 5 3 4 4 2 5 1 6 3 7 8 8 9 9 10 10 11 11 12 12 13 13
REMARK H PARENT
REMARK Flexibility Score: inf
ROOT
ATOM      1  C   UNL     1       1.881   3.985   9.552  1.00  0.00     0.000 C 
ENDROOT
BRANCH   1   2
ATOM      2  C   UNL     1       3.177   3.198   9.804  1.00  0.00     0.000 C 
BRANCH   2   3
ATOM      3  C   UNL     1       4.275   3.518   8.775  1.00  0.00     0.006 C 
BRANCH   3   4
ATOM      4  C   UNL     1       5.173   2.307   8.491  1.00  0.00     0.053 C 
BRANCH   4   5
ATOM      5  C   UNL     1       4.674   1.511   7.323  1.00  0.00     0.041 C 
ATOM      6  O   UNL     1       3.681   1.911   6.661  1.00  0.00    -0.550 OA
ATOM      7  O   UNL     1       5.288   0.311   6.987  1.00  0.00    -0.550 OA
ENDBRANCH   4   5
ENDBRANCH   3   4
ENDBRANCH   2   3
ENDBRANCH   1   2
BRANCH   1   8
ATOM      8  C   UNL     1       0.628   3.103   9.637  1.00  0.00     0.000 C 
BRANCH   8   9
ATOM      9  C   UNL     1      -0.598   3.929  10.049  1.00  0.00     0.006 C 
BRANCH   9  10
ATOM     10  C   UNL     1      -1.627   3.989   8.916  1.00  0.00     0.053 C 
BRANCH  10  11
ATOM     11  C   UNL     1      -2.270   5.338   8.864  1.00  0.00     0.041 C 
ATOM     12  O   UNL     1      -2.175   6.045   7.826  1.00  0.00    -0.550 OA
ATOM     13  O   UNL     1      -3.017   5.795   9.943  1.00  0.00    -0.550 OA
ENDBRANCH  10  11
ENDBRANCH   9  10
ENDBRANCH   8   9
ENDBRANCH   1   8
TORSDOF 8
ENDMDL
MODEL 3
REMARK VINA RESULT:    -4.048      4.730      7.325
REMARK INTER + INTRA:          -6.213
REMARK INTER:                  -5.923
REMARK INTRA:                  -0.290
REMARK UNBOUND:                -0.272
REMARK SMILES O=C([O-])CCCCCCCC(=O)[O-]
REMARK SMILES IDX 7 1 6 2 5 3 4 4 2 5 1 6 3 7 8 8 9 9 10 10 11 11 12 12 13 13
REMARK H PARENT
REMARK Flexibility Score: inf
ROOT
ATOM      1  C   UNL     1       7.924   4.675   9.906  1.00  0.00     0.000 C 
ENDROOT
BRANCH   1   2
ATOM      2  C   UNL     1       7.356   3.259   9.716  1.00  0.00     0.000 C 
BRANCH   2   3
ATOM      3  C   UNL     1       6.198   3.215   8.703  1.00  0.00     0.006 C 
BRANCH   3   4
ATOM      4  C   UNL     1       5.500   1.849   8.682  1.00  0.00     0.053 C 
BRANCH   4   5
ATOM      5  C   UNL     1       4.804   1.604   7.378  1.00  0.00     0.041 C 
ATOM      6  O   UNL     1       3.731   2.204   7.109  1.00  0.00    -0.550 OA
ATOM      7  O   UNL     1       5.325   0.687   6.475  1.00  0.00    -0.550 OA
ENDBRANCH   4   5
ENDBRANCH   3   4
ENDBRANCH   2   3
ENDBRANCH   1   2
BRANCH   1   8
ATOM      8  C   UNL     1       9.450   4.726   9.747  1.00  0.00     0.000 C 
BRANCH   8   9
ATOM      9  C   UNL     1       9.891   6.048   9.107  1.00  0.00     0.006 C 
BRANCH   9  10
ATOM     10  C   UNL     1       8.818   7.127   9.277  1.00  0.00     0.053 C 
BRANCH  10  11
ATOM     11  C   UNL     1       8.864   8.096   8.138  1.00  0.00     0.041 C 
ATOM     12  O   UNL     1       9.564   7.846   7.121  1.00  0.00    -0.550 OA
ATOM     13  O   UNL     1       8.096   9.253   8.177  1.00  0.00    -0.550 OA
ENDBRANCH  10  11
ENDBRANCH   9  10
ENDBRANCH   8   9
ENDBRANCH   1   8
TORSDOF 8
ENDMDL
MODEL 4
REMARK VINA RESULT:    -3.940      4.516      6.805
REMARK INTER + INTRA:          -6.055
REMARK INTER:                  -5.738
REMARK INTRA:                  -0.317
REMARK UNBOUND:                -0.272
REMARK SMILES O=C([O-])CCCCCCCC(=O)[O-]
REMARK SMILES IDX 7 1 6 2 5 3 4 4 2 5 1 6 3 7 8 8 9 9 10 10 11 11 12 12 13 13
REMARK H PARENT
REMARK Flexibility Score: inf
ROOT
ATOM      1  C   UNL     1       7.825   3.288   9.926  1.00  0.00     0.000 C 
ENDROOT
BRANCH   1   2
ATOM      2  C   UNL     1       8.875   4.410   9.932  1.00  0.00     0.000 C 
BRANCH   2   3
ATOM      3  C   UNL     1       8.483   5.594   9.030  1.00  0.00     0.006 C 
BRANCH   3   4
ATOM      4  C   UNL     1       9.662   6.543   8.777  1.00  0.00     0.053 C 
BRANCH   4   5
ATOM      5  C   UNL     1       9.256   7.719   7.942  1.00  0.00     0.041 C 
ATOM      6  O   UNL     1       8.444   8.568   8.394  1.00  0.00    -0.550 OA
ATOM      7  O   UNL     1       9.751   7.858   6.651  1.00  0.00    -0.550 OA
ENDBRANCH   4   5
ENDBRANCH   3   4
ENDBRANCH   2   3
ENDBRANCH   1   2
BRANCH   1   8
ATOM      8  C   UNL     1       6.602   3.628   9.062  1.00  0.00     0.000 C 
BRANCH   8   9
ATOM      9  C   UNL     1       5.407   2.739   9.428  1.00  0.00     0.006 C 
BRANCH   9  10
ATOM     10  C   UNL     1       5.504   1.375   8.739  1.00  0.00     0.053 C 
BRANCH  10  11
ATOM     11  C   UNL     1       4.891   1.432   7.376  1.00  0.00     0.041 C 
ATOM     12  O   UNL     1       5.342   0.710   6.448  1.00  0.00    -0.550 OA
ATOM     13  O   UNL     1       3.789   2.246   7.142  1.00  0.00    -0.550 OA
ENDBRANCH  10  11
ENDBRANCH   9  10
ENDBRANCH   8   9
ENDBRANCH   1   8
TORSDOF 8
ENDMDL
MODEL 5
REMARK VINA RESULT:    -3.856      4.915      7.162
REMARK INTER + INTRA:          -5.932
REMARK INTER:                  -5.627
REMARK INTRA:                  -0.305
REMARK UNBOUND:                -0.272
REMARK SMILES O=C([O-])CCCCCCCC(=O)[O-]
REMARK SMILES IDX 7 1 6 2 5 3 4 4 2 5 1 6 3 7 8 8 9 9 10 10 11 11 12 12 13 13
REMARK H PARENT
REMARK Flexibility Score: inf
ROOT
ATOM      1  C   UNL     1       8.487   3.777   9.743  1.00  0.00     0.000 C 
ENDROOT
BRANCH   1   2
ATOM      2  C   UNL     1       7.977   5.226   9.745  1.00  0.00     0.000 C 
BRANCH   2   3
ATOM      3  C   UNL     1       9.106   6.252   9.952  1.00  0.00     0.006 C 
BRANCH   3   4
ATOM      4  C   UNL     1       9.745   6.684   8.625  1.00  0.00     0.053 C 
BRANCH   4   5
ATOM      5  C   UNL     1      11.221   6.427   8.613  1.00  0.00     0.041 C 
ATOM      6  O   UNL     1      11.660   5.248   8.670  1.00  0.00    -0.550 OA
ATOM      7  O   UNL     1      12.112   7.492   8.572  1.00  0.00    -0.550 OA
ENDBRANCH   4   5
ENDBRANCH   3   4
ENDBRANCH   2   3
ENDBRANCH   1   2
BRANCH   1   8
ATOM      8  C   UNL     1       7.357   2.752   9.915  1.00  0.00     0.000 C 
BRANCH   8   9
ATOM      9  C   UNL     1       6.282   2.934   8.836  1.00  0.00     0.006 C 
BRANCH   9  10
ATOM     10  C   UNL     1       5.359   1.714   8.767  1.00  0.00     0.053 C 
BRANCH  10  11
ATOM     11  C   UNL     1       4.766   1.581   7.401  1.00  0.00     0.041 C 
ATOM     12  O   UNL     1       3.763   2.271   7.075  1.00  0.00    -0.550 OA
ATOM     13  O   UNL     1       5.349   0.732   6.468  1.00  0.00    -0.550 OA
ENDBRANCH  10  11
ENDBRANCH   9  10
ENDBRANCH   8   9
ENDBRANCH   1   8
TORSDOF 8
ENDMDL
MODEL 6
REMARK VINA RESULT:    -3.825      5.049      8.337
REMARK INTER + INTRA:          -5.886
REMARK INTER:                  -5.657
REMARK INTRA:                  -0.229
REMARK UNBOUND:                -0.272
REMARK SMILES O=C([O-])CCCCCCCC(=O)[O-]
REMARK SMILES IDX 7 1 6 2 5 3 4 4 2 5 1 6 3 7 8 8 9 9 10 10 11 11 12 12 13 13
REMARK H PARENT
REMARK Flexibility Score: inf
ROOT
ATOM      1  C   UNL     1       8.434   3.848   9.599  1.00  0.00     0.000 C 
ENDROOT
BRANCH   1   2
ATOM      2  C   UNL     1       7.198   2.993   9.920  1.00  0.00     0.000 C 
BRANCH   2   3
ATOM      3  C   UNL     1       6.146   3.027   8.798  1.00  0.00     0.006 C 
BRANCH   3   4
ATOM      4  C   UNL     1       5.351   1.717   8.711  1.00  0.00     0.053 C 
BRANCH   4   5
ATOM      5  C   UNL     1       4.794   1.498   7.337  1.00  0.00     0.041 C 
ATOM      6  O   UNL     1       5.370   0.715   6.537  1.00  0.00    -0.550 OA
ATOM      7  O   UNL     1       3.657   2.184   6.931  1.00  0.00    -0.550 OA
ENDBRANCH   4   5
ENDBRANCH   3   4
ENDBRANCH   2   3
ENDBRANCH   1   2
BRANCH   1   8
ATOM      8  C   UNL     1       8.292   5.298  10.082  1.00  0.00     0.000 C 
BRANCH   8   9
ATOM      9  C   UNL     1       9.364   6.195   9.452  1.00  0.00     0.006 C 
BRANCH   9  10
ATOM     10  C   UNL     1      10.712   5.472   9.376  1.00  0.00     0.053 C 
BRANCH  10  11
ATOM     11  C   UNL     1      11.703   6.288   8.610  1.00  0.00     0.041 C 
ATOM     12  O   UNL     1      12.879   6.424   9.038  1.00  0.00    -0.550 OA
ATOM     13  O   UNL     1      11.342   6.860   7.396  1.00  0.00    -0.550 OA
ENDBRANCH  10  11
ENDBRANCH   9  10
ENDBRANCH   8   9
ENDBRANCH   1   8
TORSDOF 8
ENDMDL
MODEL 7
REMARK VINA RESULT:    -3.705      2.047      3.236
REMARK INTER + INTRA:          -5.711
REMARK INTER:                  -5.164
REMARK INTRA:                  -0.546
REMARK UNBOUND:                -0.272
REMARK SMILES O=C([O-])CCCCCCCC(=O)[O-]
REMARK SMILES IDX 7 1 6 2 5 3 4 4 2 5 1 6 3 7 8 8 9 9 10 10 11 11 12 12 13 13
REMARK H PARENT
REMARK Flexibility Score: inf
ROOT
ATOM      1  C   UNL     1      -0.776   3.599  10.026  1.00  0.00     0.000 C 
ENDROOT
BRANCH   1   2
ATOM      2  C   UNL     1       0.698   3.164   9.992  1.00  0.00     0.000 C 
BRANCH   2   3
ATOM      3  C   UNL     1       1.651   4.323   9.651  1.00  0.00     0.006 C 
BRANCH   3   4
ATOM      4  C   UNL     1       3.123   3.895   9.702  1.00  0.00     0.053 C 
BRANCH   4   5
ATOM      5  C   UNL     1       3.395   2.740   8.787  1.00  0.00     0.041 C 
ATOM      6  O   UNL     1       3.349   2.896   7.538  1.00  0.00    -0.550 OA
ATOM      7  O   UNL     1       3.668   1.485   9.314  1.00  0.00    -0.550 OA
ENDBRANCH   4   5
ENDBRANCH   3   4
ENDBRANCH   2   3
ENDBRANCH   1   2
BRANCH   1   8
ATOM      8  C   UNL     1      -1.297   4.030   8.648  1.00  0.00     0.000 C 
BRANCH   8   9
ATOM      9  C   UNL     1      -2.280   5.200   8.775  1.00  0.00     0.006 C 
BRANCH   9  10
ATOM     10  C   UNL     1      -2.125   5.907  10.124  1.00  0.00     0.053 C 
BRANCH  10  11
ATOM     11  C   UNL     1      -1.480   7.245   9.944  1.00  0.00     0.041 C 
ATOM     12  O   UNL     1      -0.261   7.325   9.640  1.00  0.00    -0.550 OA
ATOM     13  O   UNL     1      -2.237   8.404  10.064  1.00  0.00    -0.550 OA
ENDBRANCH  10  11
ENDBRANCH   9  10
ENDBRANCH   8   9
ENDBRANCH   1   8
TORSDOF 8
ENDMDL
MODEL 8
REMARK VINA RESULT:    -3.379      8.327      8.843
REMARK INTER + INTRA:          -5.231
REMARK INTER:                  -5.075
REMARK INTRA:                  -0.156
REMARK UNBOUND:                -0.272
REMARK SMILES O=C([O-])CCCCCCCC(=O)[O-]
REMARK SMILES IDX 7 1 6 2 5 3 4 4 2 5 1 6 3 7 8 8 9 9 10 10 11 11 12 12 13 13
REMARK H PARENT
REMARK Flexibility Score: inf
ROOT
ATOM      1  C   UNL     1       7.940   9.538   8.228  1.00  0.00     0.000 C 
ENDROOT
BRANCH   1   2
ATOM      2  C   UNL     1       8.308   8.400   9.193  1.00  0.00     0.000 C 
BRANCH   2   3
ATOM      3  C   UNL     1       9.816   8.094   9.201  1.00  0.00     0.006 C 
BRANCH   3   4
ATOM      4  C   UNL     1      10.241   7.246   7.994  1.00  0.00     0.053 C 
BRANCH   4   5
ATOM      5  C   UNL     1      11.584   6.616   8.207  1.00  0.00     0.041 C 
ATOM      6  O   UNL     1      12.635   7.267   7.966  1.00  0.00    -0.550 OA
ATOM      7  O   UNL     1      11.673   5.299   8.638  1.00  0.00    -0.550 OA
ENDBRANCH   4   5
ENDBRANCH   3   4
ENDBRANCH   2   3
ENDBRANCH   1   2
BRANCH   1   8
ATOM      8  C   UNL     1       7.004  10.574   8.866  1.00  0.00     0.000 C 
BRANCH   8   9
ATOM      9  C   UNL     1       6.369  11.473   7.798  1.00  0.00     0.006 C 
BRANCH   9  10
ATOM     10  C   UNL     1       4.903  11.768   8.127  1.00  0.00     0.053 C 
BRANCH  10  11
ATOM     11  C   UNL     1       4.131  12.048   6.878  1.00  0.00     0.041 C 
ATOM     12  O   UNL     1       3.606  13.178   6.696  1.00  0.00    -0.550 OA
ATOM     13  O   UNL     1       4.031  11.076   5.890  1.00  0.00    -0.550 OA
ENDBRANCH  10  11
ENDBRANCH   9  10
ENDBRANCH   8   9
ENDBRANCH   1   8
TORSDOF 8
ENDMDL
