MODEL 1
REMARK VINA RESULT:    -7.187      0.000      0.000
REMARK INTER + INTRA:         -10.239
REMARK INTER:                  -9.707
REMARK INTRA:                  -0.532
REMARK UNBOUND:                -0.532
REMARK SMILES COc1ccc(-c2cc(=O)c3c(OC)c(OC)c(OC)c(OC)c3o2)cc1
REMARK SMILES IDX 7 1 8 2 9 3 10 4 11 5 24 6 25 7 21 8 18 9 15 10 12 11 6 12
REMARK SMILES IDX 3 13 4 14 27 15 5 16 26 17 2 18 1 19 22 20 23 21 13 22 14 23
REMARK SMILES IDX 19 24 20 25 16 26 17 27
REMARK H PARENT
REMARK Flexibility Score: inf
ROOT
ATOM      1  C   UNL     1     165.250 152.087 150.213  1.00  0.00     0.138 A 
ATOM      2  C   UNL     1     164.454 150.953 150.434  1.00  0.00     0.100 A 
ATOM      3  C   UNL     1     164.739 149.772 149.749  1.00  0.00     0.197 A 
ATOM      4  O   UNL     1     164.016 148.760 149.956  1.00  0.00    -0.289 OA
ATOM      5  C   UNL     1     165.816 149.735 148.839  1.00  0.00     0.115 A 
ATOM      6  C   UNL     1     166.564 150.922 148.660  1.00  0.00     0.188 A 
ATOM      7  O   UNL     1     166.253 152.022 149.341  1.00  0.00    -0.452 OA
ATOM      8  C   UNL     1     167.658 150.953 147.785  1.00  0.00     0.209 A 
ATOM      9  C   UNL     1     167.957 149.814 147.011  1.00  0.00     0.211 A 
ATOM     10  C   UNL     1     167.218 148.635 147.170  1.00  0.00     0.208 A 
ATOM     11  C   UNL     1     166.187 148.567 148.131  1.00  0.00     0.179 A 
ENDROOT
BRANCH   1  12
ATOM     12  C   UNL     1     165.003 153.368 150.921  1.00  0.00     0.018 A 
ATOM     13  C   UNL     1     164.621 155.803 152.301  1.00  0.00     0.118 A 
ATOM     14  C   UNL     1     163.818 154.694 152.585  1.00  0.00     0.047 A 
ATOM     15  C   UNL     1     165.619 155.692 151.315  1.00  0.00     0.047 A 
ATOM     16  C   UNL     1     164.005 153.486 151.908  1.00  0.00     0.016 A 
ATOM     17  C   UNL     1     165.810 154.483 150.638  1.00  0.00     0.016 A 
BRANCH  13  18
ATOM     18  O   UNL     1     164.405 156.986 153.022  1.00  0.00    -0.497 OA
ATOM     19  C   UNL     1     165.429 157.907 153.387  1.00  0.00     0.278 C 
ENDBRANCH  13  18
ENDBRANCH   1  12
BRANCH   8  20
ATOM     20  O   UNL     1     168.407 152.139 147.715  1.00  0.00    -0.490 OA
ATOM     21  C   UNL     1     169.533 152.431 148.541  1.00  0.00     0.278 C 
ENDBRANCH   8  20
BRANCH  11  22
ATOM     22  O   UNL     1     165.542 147.355 148.402  1.00  0.00    -0.492 OA
ATOM     23  C   UNL     1     164.635 146.755 147.482  1.00  0.00     0.278 C 
ENDBRANCH  11  22
BRANCH   9  24
ATOM     24  O   UNL     1     168.951 149.851 146.033  1.00  0.00    -0.490 OA
ATOM     25  C   UNL     1     170.303 149.525 146.350  1.00  0.00     0.279 C 
ENDBRANCH   9  24
BRANCH  10  26
ATOM     26  O   UNL     1     167.516 147.552 146.335  1.00  0.00    -0.490 OA
ATOM     27  C   UNL     1     168.341 146.468 146.748  1.00  0.00     0.278 C 
ENDBRANCH  10  26
TORSDOF 6
ENDMDL
MODEL 2
REMARK VINA RESULT:    -7.113      1.302      1.882
REMARK INTER + INTRA:         -10.141
REMARK INTER:                  -9.459
REMARK INTRA:                  -0.681
REMARK UNBOUND:                -0.532
REMARK SMILES COc1ccc(-c2cc(=O)c3c(OC)c(OC)c(OC)c(OC)c3o2)cc1
REMARK SMILES IDX 7 1 8 2 9 3 10 4 11 5 24 6 25 7 21 8 18 9 15 10 12 11 6 12
REMARK SMILES IDX 3 13 4 14 27 15 5 16 26 17 2 18 1 19 22 20 23 21 13 22 14 23
REMARK SMILES IDX 19 24 20 25 16 26 17 27
REMARK H PARENT
REMARK Flexibility Score: inf
ROOT
ATOM      1  C   UNL     1     165.148 153.537 150.659  1.00  0.00     0.138 A 
ATOM      2  C   UNL     1     164.256 152.512 151.004  1.00  0.00     0.100 A 
ATOM      3  C   UNL     1     164.409 151.250 150.430  1.00  0.00     0.197 A 
ATOM      4  O   UNL     1     163.599 150.336 150.748  1.00  0.00    -0.289 OA
ATOM      5  C   UNL     1     165.451 151.023 149.507  1.00  0.00     0.115 A 
ATOM      6  C   UNL     1     166.302 152.109 149.200  1.00  0.00     0.188 A 
ATOM      7  O   UNL     1     166.115 153.294 149.778  1.00  0.00    -0.452 OA
ATOM      8  C   UNL     1     167.368 151.953 148.305  1.00  0.00     0.209 A 
ATOM      9  C   UNL     1     167.536 150.722 147.639  1.00  0.00     0.211 A 
ATOM     10  C   UNL     1     166.695 149.640 147.926  1.00  0.00     0.208 A 
ATOM     11  C   UNL     1     165.689 149.763 148.908  1.00  0.00     0.179 A 
ENDROOT
BRANCH   1  12
ATOM     12  C   UNL     1     165.044 154.897 151.245  1.00  0.00     0.018 A 
ATOM     13  C   UNL     1     164.755 157.475 152.363  1.00  0.00     0.118 A 
ATOM     14  C   UNL     1     165.376 157.307 151.121  1.00  0.00     0.047 A 
ATOM     15  C   UNL     1     164.280 156.342 153.051  1.00  0.00     0.047 A 
ATOM     16  C   UNL     1     165.518 156.034 150.562  1.00  0.00     0.016 A 
ATOM     17  C   UNL     1     164.420 155.068 152.492  1.00  0.00     0.016 A 
BRANCH  13  18
ATOM     18  O   UNL     1     164.619 158.775 152.871  1.00  0.00    -0.497 OA
ATOM     19  C   UNL     1     165.159 159.941 152.256  1.00  0.00     0.278 C 
ENDBRANCH  13  18
ENDBRANCH   1  12
BRANCH   8  20
ATOM     20  O   UNL     1     168.224 153.048 148.106  1.00  0.00    -0.490 OA
ATOM     21  C   UNL     1     169.462 153.237 148.788  1.00  0.00     0.278 C 
ENDBRANCH   8  20
BRANCH  11  22
ATOM     22  O   UNL     1     164.941 148.650 149.307  1.00  0.00    -0.492 OA
ATOM     23  C   UNL     1     165.525 147.546 149.991  1.00  0.00     0.278 C 
ENDBRANCH  11  22
BRANCH   9  24
ATOM     24  O   UNL     1     168.501 150.571 146.643  1.00  0.00    -0.490 OA
ATOM     25  C   UNL     1     169.816 150.119 146.959  1.00  0.00     0.279 C 
ENDBRANCH   9  24
BRANCH  10  26
ATOM     26  O   UNL     1     166.865 148.460 147.193  1.00  0.00    -0.490 OA
ATOM     27  C   UNL     1     166.070 148.142 146.055  1.00  0.00     0.278 C 
ENDBRANCH  10  26
TORSDOF 6
ENDMDL
MODEL 3
REMARK VINA RESULT:    -7.048      1.365      3.509
REMARK INTER + INTRA:         -10.052
REMARK INTER:                  -9.716
REMARK INTRA:                  -0.336
REMARK UNBOUND:                -0.532
REMARK SMILES COc1ccc(-c2cc(=O)c3c(OC)c(OC)c(OC)c(OC)c3o2)cc1
REMARK SMILES IDX 7 1 8 2 9 3 10 4 11 5 24 6 25 7 21 8 18 9 15 10 12 11 6 12
REMARK SMILES IDX 3 13 4 14 27 15 5 16 26 17 2 18 1 19 22 20 23 21 13 22 14 23
REMARK SMILES IDX 19 24 20 25 16 26 17 27
REMARK H PARENT
REMARK Flexibility Score: inf
ROOT
ATOM      1  C   UNL     1     166.407 153.583 149.971  1.00  0.00     0.138 A 
ATOM      2  C   UNL     1     167.762 153.750 149.651  1.00  0.00     0.100 A 
ATOM      3  C   UNL     1     168.374 152.852 148.777  1.00  0.00     0.197 A 
ATOM      4  O   UNL     1     169.593 153.011 148.497  1.00  0.00    -0.289 OA
ATOM      5  C   UNL     1     167.627 151.785 148.234  1.00  0.00     0.115 A 
ATOM      6  C   UNL     1     166.269 151.676 148.614  1.00  0.00     0.188 A 
ATOM      7  O   UNL     1     165.732 152.562 149.449  1.00  0.00    -0.452 OA
ATOM      8  C   UNL     1     165.462 150.653 148.101  1.00  0.00     0.209 A 
ATOM      9  C   UNL     1     166.036 149.672 147.267  1.00  0.00     0.211 A 
ATOM     10  C   UNL     1     167.382 149.762 146.889  1.00  0.00     0.208 A 
ATOM     11  C   UNL     1     168.168 150.854 147.316  1.00  0.00     0.179 A 
ENDROOT
BRANCH   1  12
ATOM     12  C   UNL     1     165.697 154.514 150.885  1.00  0.00     0.018 A 
ATOM     13  C   UNL     1     164.429 156.307 152.660  1.00  0.00     0.118 A 
ATOM     14  C   UNL     1     164.103 154.947 152.675  1.00  0.00     0.047 A 
ATOM     15  C   UNL     1     165.393 156.772 151.746  1.00  0.00     0.047 A 
ATOM     16  C   UNL     1     164.731 154.055 151.801  1.00  0.00     0.016 A 
ATOM     17  C   UNL     1     166.023 155.880 150.873  1.00  0.00     0.016 A 
BRANCH  13  18
ATOM     18  O   UNL     1     163.785 157.158 153.571  1.00  0.00    -0.497 OA
ATOM     19  C   UNL     1     164.160 158.510 153.816  1.00  0.00     0.278 C 
ENDBRANCH  13  18
ENDBRANCH   1  12
BRANCH   8  20
ATOM     20  O   UNL     1     164.103 150.649 148.455  1.00  0.00    -0.490 OA
ATOM     21  C   UNL     1     163.090 151.383 147.769  1.00  0.00     0.278 C 
ENDBRANCH   8  20
BRANCH  11  22
ATOM     22  O   UNL     1     169.467 151.031 146.829  1.00  0.00    -0.492 OA
ATOM     23  C   UNL     1     170.568 150.259 147.298  1.00  0.00     0.278 C 
ENDBRANCH  11  22
BRANCH   9  24
ATOM     24  O   UNL     1     165.298 148.566 146.847  1.00  0.00    -0.490 OA
ATOM     25  C   UNL     1     165.019 147.489 147.739  1.00  0.00     0.279 C 
ENDBRANCH   9  24
BRANCH  10  26
ATOM     26  O   UNL     1     167.919 148.731 146.111  1.00  0.00    -0.490 OA
ATOM     27  C   UNL     1     168.524 147.575 146.680  1.00  0.00     0.278 C 
ENDBRANCH  10  26
TORSDOF 6
ENDMDL
MODEL 4
REMARK VINA RESULT:    -6.701      3.583      7.450
REMARK INTER + INTRA:          -9.583
REMARK INTER:                  -8.970
REMARK INTRA:                  -0.613
REMARK UNBOUND:                -0.532
REMARK SMILES COc1ccc(-c2cc(=O)c3c(OC)c(OC)c(OC)c(OC)c3o2)cc1
REMARK SMILES IDX 7 1 8 2 9 3 10 4 11 5 24 6 25 7 21 8 18 9 15 10 12 11 6 12
REMARK SMILES IDX 3 13 4 14 27 15 5 16 26 17 2 18 1 19 22 20 23 21 13 22 14 23
REMARK SMILES IDX 19 24 20 25 16 26 17 27
REMARK H PARENT
REMARK Flexibility Score: inf
ROOT
ATOM      1  C   UNL     1     167.320 147.412 150.390  1.00  0.00     0.138 A 
ATOM      2  C   UNL     1     165.952 147.635 150.181  1.00  0.00     0.100 A 
ATOM      3  C   UNL     1     165.525 148.876 149.710  1.00  0.00     0.197 A 
ATOM      4  O   UNL     1     164.291 149.064 149.527  1.00  0.00    -0.289 OA
ATOM      5  C   UNL     1     166.471 149.891 149.458  1.00  0.00     0.115 A 
ATOM      6  C   UNL     1     167.831 149.595 149.705  1.00  0.00     0.188 A 
ATOM      7  O   UNL     1     168.187 148.393 150.151  1.00  0.00    -0.452 OA
ATOM      8  C   UNL     1     168.827 150.549 149.462  1.00  0.00     0.209 A 
ATOM      9  C   UNL     1     168.457 151.846 149.051  1.00  0.00     0.211 A 
ATOM     10  C   UNL     1     167.112 152.156 148.812  1.00  0.00     0.208 A 
ATOM     11  C   UNL     1     166.119 151.164 148.950  1.00  0.00     0.179 A 
ENDROOT
BRANCH   1  12
ATOM     12  C   UNL     1     167.836 146.108 150.877  1.00  0.00     0.018 A 
ATOM     13  C   UNL     1     168.878 143.672 151.859  1.00  0.00     0.118 A 
ATOM     14  C   UNL     1     168.924 143.963 150.491  1.00  0.00     0.047 A 
ATOM     15  C   UNL     1     168.301 144.607 152.739  1.00  0.00     0.047 A 
ATOM     16  C   UNL     1     168.413 145.168 150.001  1.00  0.00     0.016 A 
ATOM     17  C   UNL     1     167.792 145.814 152.251  1.00  0.00     0.016 A 
BRANCH  13  18
ATOM     18  O   UNL     1     169.421 142.458 152.301  1.00  0.00    -0.497 OA
ATOM     19  C   UNL     1     168.855 141.647 153.327  1.00  0.00     0.278 C 
ENDBRANCH  13  18
ENDBRANCH   1  12
BRANCH   8  20
ATOM     20  O   UNL     1     170.164 150.164 149.651  1.00  0.00    -0.490 OA
ATOM     21  C   UNL     1     170.952 149.484 148.675  1.00  0.00     0.278 C 
ENDBRANCH   8  20
BRANCH  11  22
ATOM     22  O   UNL     1     164.796 151.422 148.574  1.00  0.00    -0.492 OA
ATOM     23  C   UNL     1     164.393 151.494 147.209  1.00  0.00     0.278 C 
ENDBRANCH  11  22
BRANCH   9  24
ATOM     24  O   UNL     1     169.408 152.859 148.930  1.00  0.00    -0.490 OA
ATOM     25  C   UNL     1     170.042 153.123 147.680  1.00  0.00     0.279 C 
ENDBRANCH   9  24
BRANCH  10  26
ATOM     26  O   UNL     1     166.791 153.473 148.465  1.00  0.00    -0.490 OA
ATOM     27  C   UNL     1     166.427 154.454 149.430  1.00  0.00     0.278 C 
ENDBRANCH  10  26
TORSDOF 6
ENDMDL
MODEL 5
REMARK VINA RESULT:    -6.494      3.707      8.202
REMARK INTER + INTRA:          -9.304
REMARK INTER:                  -8.814
REMARK INTRA:                  -0.490
REMARK UNBOUND:                -0.532
REMARK SMILES COc1ccc(-c2cc(=O)c3c(OC)c(OC)c(OC)c(OC)c3o2)cc1
REMARK SMILES IDX 7 1 8 2 9 3 10 4 11 5 24 6 25 7 21 8 18 9 15 10 12 11 6 12
REMARK SMILES IDX 3 13 4 14 27 15 5 16 26 17 2 18 1 19 22 20 23 21 13 22 14 23
REMARK SMILES IDX 19 24 20 25 16 26 17 27
REMARK H PARENT
REMARK Flexibility Score: inf
ROOT
ATOM      1  C   UNL     1     168.335 147.266 150.361  1.00  0.00     0.138 A 
ATOM      2  C   UNL     1     169.527 147.966 150.122  1.00  0.00     0.100 A 
ATOM      3  C   UNL     1     169.467 149.281 149.661  1.00  0.00     0.197 A 
ATOM      4  O   UNL     1     170.546 149.900 149.449  1.00  0.00    -0.289 OA
ATOM      5  C   UNL     1     168.213 149.886 149.435  1.00  0.00     0.115 A 
ATOM      6  C   UNL     1     167.057 149.113 149.687  1.00  0.00     0.188 A 
ATOM      7  O   UNL     1     167.168 147.862 150.130  1.00  0.00    -0.452 OA
ATOM      8  C   UNL     1     165.779 149.654 149.501  1.00  0.00     0.209 A 
ATOM      9  C   UNL     1     165.649 150.954 148.972  1.00  0.00     0.211 A 
ATOM     10  C   UNL     1     166.785 151.729 148.708  1.00  0.00     0.208 A 
ATOM     11  C   UNL     1     168.071 151.225 149.000  1.00  0.00     0.179 A 
ENDROOT
BRANCH   1  12
ATOM     12  C   UNL     1     168.334 145.869 150.864  1.00  0.00     0.018 A 
ATOM     13  C   UNL     1     168.398 143.235 151.881  1.00  0.00     0.118 A 
ATOM     14  C   UNL     1     168.676 143.481 150.532  1.00  0.00     0.047 A 
ATOM     15  C   UNL     1     168.081 144.316 152.724  1.00  0.00     0.047 A 
ATOM     16  C   UNL     1     168.649 144.783 150.025  1.00  0.00     0.016 A 
ATOM     17  C   UNL     1     168.057 145.620 152.219  1.00  0.00     0.016 A 
BRANCH  13  18
ATOM     18  O   UNL     1     168.457 141.913 152.344  1.00  0.00    -0.497 OA
ATOM     19  C   UNL     1     168.983 141.524 153.610  1.00  0.00     0.278 C 
ENDBRANCH  13  18
ENDBRANCH   1  12
BRANCH   8  20
ATOM     20  O   UNL     1     164.674 148.860 149.847  1.00  0.00    -0.490 OA
ATOM     21  C   UNL     1     164.007 147.972 148.952  1.00  0.00     0.278 C 
ENDBRANCH   8  20
BRANCH  11  22
ATOM     22  O   UNL     1     169.201 152.041 148.878  1.00  0.00    -0.492 OA
ATOM     23  C   UNL     1     169.687 152.485 147.615  1.00  0.00     0.278 C 
ENDBRANCH  11  22
BRANCH   9  24
ATOM     24  O   UNL     1     164.396 151.475 148.647  1.00  0.00    -0.490 OA
ATOM     25  C   UNL     1     163.568 152.067 149.645  1.00  0.00     0.279 C 
ENDBRANCH   9  24
BRANCH  10  26
ATOM     26  O   UNL     1     166.604 152.988 148.127  1.00  0.00    -0.490 OA
ATOM     27  C   UNL     1     166.569 154.188 148.892  1.00  0.00     0.278 C 
ENDBRANCH  10  26
TORSDOF 6
ENDMDL
MODEL 6
REMARK VINA RESULT:    -6.479      5.478      7.385
REMARK INTER + INTRA:          -9.284
REMARK INTER:                  -8.568
REMARK INTRA:                  -0.717
REMARK UNBOUND:                -0.532
REMARK SMILES COc1ccc(-c2cc(=O)c3c(OC)c(OC)c(OC)c(OC)c3o2)cc1
REMARK SMILES IDX 7 1 8 2 9 3 10 4 11 5 24 6 25 7 21 8 18 9 15 10 12 11 6 12
REMARK SMILES IDX 3 13 4 14 27 15 5 16 26 17 2 18 1 19 22 20 23 21 13 22 14 23
REMARK SMILES IDX 19 24 20 25 16 26 17 27
REMARK H PARENT
REMARK Flexibility Score: inf
ROOT
ATOM      1  C   UNL     1     168.292 147.169 150.383  1.00  0.00     0.138 A 
ATOM      2  C   UNL     1     168.260 146.277 149.301  1.00  0.00     0.100 A 
ATOM      3  C   UNL     1     168.486 144.919 149.527  1.00  0.00     0.197 A 
ATOM      4  O   UNL     1     168.455 144.127 148.546  1.00  0.00    -0.289 OA
ATOM      5  C   UNL     1     168.751 144.463 150.835  1.00  0.00     0.115 A 
ATOM      6  C   UNL     1     168.779 145.424 151.871  1.00  0.00     0.188 A 
ATOM      7  O   UNL     1     168.553 146.708 151.603  1.00  0.00    -0.452 OA
ATOM      8  C   UNL     1     169.019 145.041 153.197  1.00  0.00     0.209 A 
ATOM      9  C   UNL     1     169.323 143.695 153.483  1.00  0.00     0.211 A 
ATOM     10  C   UNL     1     169.308 142.733 152.465  1.00  0.00     0.208 A 
ATOM     11  C   UNL     1     168.958 143.098 151.148  1.00  0.00     0.179 A 
ENDROOT
BRANCH   1  12
ATOM     12  C   UNL     1     168.047 148.622 150.207  1.00  0.00     0.018 A 
ATOM     13  C   UNL     1     167.508 151.368 149.819  1.00  0.00     0.118 A 
ATOM     14  C   UNL     1     168.741 150.828 149.440  1.00  0.00     0.047 A 
ATOM     15  C   UNL     1     166.540 150.527 150.401  1.00  0.00     0.047 A 
ATOM     16  C   UNL     1     169.011 149.469 149.627  1.00  0.00     0.016 A 
ATOM     17  C   UNL     1     166.808 149.167 150.586  1.00  0.00     0.016 A 
BRANCH  13  18
ATOM     18  O   UNL     1     167.280 152.733 149.593  1.00  0.00    -0.497 OA
ATOM     19  C   UNL     1     168.129 153.780 150.052  1.00  0.00     0.278 C 
ENDBRANCH  13  18
ENDBRANCH   1  12
BRANCH   8  20
ATOM     20  O   UNL     1     168.954 146.033 154.188  1.00  0.00    -0.490 OA
ATOM     21  C   UNL     1     167.847 146.221 155.069  1.00  0.00     0.278 C 
ENDBRANCH   8  20
BRANCH  11  22
ATOM     22  O   UNL     1     168.797 142.125 150.156  1.00  0.00    -0.492 OA
ATOM     23  C   UNL     1     167.686 141.234 150.137  1.00  0.00     0.278 C 
ENDBRANCH  11  22
BRANCH   9  24
ATOM     24  O   UNL     1     169.700 143.301 154.767  1.00  0.00    -0.490 OA
ATOM     25  C   UNL     1     171.026 143.523 155.243  1.00  0.00     0.279 C 
ENDBRANCH   9  24
BRANCH  10  26
ATOM     26  O   UNL     1     169.676 141.423 152.791  1.00  0.00    -0.490 OA
ATOM     27  C   UNL     1     170.975 140.903 152.526  1.00  0.00     0.278 C 
ENDBRANCH  10  26
TORSDOF 6
ENDMDL
MODEL 7
REMARK VINA RESULT:    -6.420      4.186      5.961
REMARK INTER + INTRA:          -9.204
REMARK INTER:                  -8.714
REMARK INTRA:                  -0.490
REMARK UNBOUND:                -0.532
REMARK SMILES COc1ccc(-c2cc(=O)c3c(OC)c(OC)c(OC)c(OC)c3o2)cc1
REMARK SMILES IDX 7 1 8 2 9 3 10 4 11 5 24 6 25 7 21 8 18 9 15 10 12 11 6 12
REMARK SMILES IDX 3 13 4 14 27 15 5 16 26 17 2 18 1 19 22 20 23 21 13 22 14 23
REMARK SMILES IDX 19 24 20 25 16 26 17 27
REMARK H PARENT
REMARK Flexibility Score: inf
ROOT
ATOM      1  C   UNL     1     167.656 148.616 149.990  1.00  0.00     0.138 A 
ATOM      2  C   UNL     1     168.113 148.119 148.761  1.00  0.00     0.100 A 
ATOM      3  C   UNL     1     168.479 146.777 148.659  1.00  0.00     0.197 A 
ATOM      4  O   UNL     1     168.889 146.342 147.549  1.00  0.00    -0.289 OA
ATOM      5  C   UNL     1     168.394 145.941 149.793  1.00  0.00     0.115 A 
ATOM      6  C   UNL     1     167.936 146.518 150.999  1.00  0.00     0.188 A 
ATOM      7  O   UNL     1     167.595 147.804 151.043  1.00  0.00    -0.452 OA
ATOM      8  C   UNL     1     167.810 145.744 152.160  1.00  0.00     0.209 A 
ATOM      9  C   UNL     1     168.228 144.399 152.143  1.00  0.00     0.211 A 
ATOM     10  C   UNL     1     168.693 143.816 150.957  1.00  0.00     0.208 A 
ATOM     11  C   UNL     1     168.716 144.564 149.760  1.00  0.00     0.179 A 
ENDROOT
BRANCH   1  12
ATOM     12  C   UNL     1     167.239 150.031 150.157  1.00  0.00     0.018 A 
ATOM     13  C   UNL     1     166.377 152.708 150.417  1.00  0.00     0.118 A 
ATOM     14  C   UNL     1     167.658 152.420 149.936  1.00  0.00     0.047 A 
ATOM     15  C   UNL     1     165.524 151.647 150.775  1.00  0.00     0.047 A 
ATOM     16  C   UNL     1     168.088 151.097 149.802  1.00  0.00     0.016 A 
ATOM     17  C   UNL     1     165.952 150.323 150.639  1.00  0.00     0.016 A 
BRANCH  13  18
ATOM     18  O   UNL     1     165.987 154.052 150.514  1.00  0.00    -0.497 OA
ATOM     19  C   UNL     1     164.840 154.510 151.224  1.00  0.00     0.278 C 
ENDBRANCH  13  18
ENDBRANCH   1  12
BRANCH   8  20
ATOM     20  O   UNL     1     167.273 146.359 153.303  1.00  0.00    -0.490 OA
ATOM     21  C   UNL     1     168.049 146.838 154.400  1.00  0.00     0.278 C 
ENDBRANCH   8  20
BRANCH  11  22
ATOM     22  O   UNL     1     169.039 143.953 148.544  1.00  0.00    -0.492 OA
ATOM     23  C   UNL     1     168.100 143.167 147.814  1.00  0.00     0.278 C 
ENDBRANCH  11  22
BRANCH   9  24
ATOM     24  O   UNL     1     168.244 143.637 153.311  1.00  0.00    -0.490 OA
ATOM     25  C   UNL     1     169.420 143.550 154.113  1.00  0.00     0.279 C 
ENDBRANCH   9  24
BRANCH  10  26
ATOM     26  O   UNL     1     169.154 142.496 151.007  1.00  0.00    -0.490 OA
ATOM     27  C   UNL     1     168.278 141.375 150.941  1.00  0.00     0.278 C 
ENDBRANCH  10  26
TORSDOF 6
ENDMDL
MODEL 8
REMARK VINA RESULT:    -6.377      6.114      8.113
REMARK INTER + INTRA:          -9.145
REMARK INTER:                  -8.555
REMARK INTRA:                  -0.591
REMARK UNBOUND:                -0.532
REMARK SMILES COc1ccc(-c2cc(=O)c3c(OC)c(OC)c(OC)c(OC)c3o2)cc1
REMARK SMILES IDX 7 1 8 2 9 3 10 4 11 5 24 6 25 7 21 8 18 9 15 10 12 11 6 12
REMARK SMILES IDX 3 13 4 14 27 15 5 16 26 17 2 18 1 19 22 20 23 21 13 22 14 23
REMARK SMILES IDX 19 24 20 25 16 26 17 27
REMARK H PARENT
REMARK Flexibility Score: inf
ROOT
ATOM      1  C   UNL     1     167.822 146.533 150.932  1.00  0.00     0.138 A 
ATOM      2  C   UNL     1     168.574 145.855 149.961  1.00  0.00     0.100 A 
ATOM      3  C   UNL     1     169.452 144.846 150.357  1.00  0.00     0.197 A 
ATOM      4  O   UNL     1     170.123 144.245 149.475  1.00  0.00    -0.289 OA
ATOM      5  C   UNL     1     169.578 144.526 151.725  1.00  0.00     0.115 A 
ATOM      6  C   UNL     1     168.796 145.262 152.645  1.00  0.00     0.188 A 
ATOM      7  O   UNL     1     167.970 146.213 152.215  1.00  0.00    -0.452 OA
ATOM      8  C   UNL     1     168.857 144.987 154.017  1.00  0.00     0.209 A 
ATOM      9  C   UNL     1     169.774 144.027 154.490  1.00  0.00     0.211 A 
ATOM     10  C   UNL     1     170.563 143.297 153.591  1.00  0.00     0.208 A 
ATOM     11  C   UNL     1     170.422 143.494 152.200  1.00  0.00     0.179 A 
ENDROOT
BRANCH   1  12
ATOM     12  C   UNL     1     166.863 147.606 150.571  1.00  0.00     0.018 A 
ATOM     13  C   UNL     1     165.038 149.619 149.798  1.00  0.00     0.118 A 
ATOM     14  C   UNL     1     166.271 149.960 150.363  1.00  0.00     0.047 A 
ATOM     15  C   UNL     1     164.716 148.260 149.624  1.00  0.00     0.047 A 
ATOM     16  C   UNL     1     167.179 148.968 150.744  1.00  0.00     0.016 A 
ATOM     17  C   UNL     1     165.624 147.267 150.002  1.00  0.00     0.016 A 
BRANCH  13  18
ATOM     18  O   UNL     1     164.172 150.653 149.415  1.00  0.00    -0.497 OA
ATOM     19  C   UNL     1     163.839 151.771 150.232  1.00  0.00     0.278 C 
ENDBRANCH  13  18
ENDBRANCH   1  12
BRANCH   8  20
ATOM     20  O   UNL     1     167.995 145.698 154.867  1.00  0.00    -0.490 OA
ATOM     21  C   UNL     1     168.369 146.862 155.602  1.00  0.00     0.278 C 
ENDBRANCH   8  20
BRANCH  11  22
ATOM     22  O   UNL     1     171.095 142.671 151.291  1.00  0.00    -0.492 OA
ATOM     23  C   UNL     1     170.762 141.297 151.117  1.00  0.00     0.278 C 
ENDBRANCH  11  22
BRANCH   9  24
ATOM     24  O   UNL     1     169.960 143.822 155.857  1.00  0.00    -0.490 OA
ATOM     25  C   UNL     1     170.888 144.613 156.597  1.00  0.00     0.279 C 
ENDBRANCH   9  24
BRANCH  10  26
ATOM     26  O   UNL     1     171.500 142.400 154.114  1.00  0.00    -0.490 OA
ATOM     27  C   UNL     1     172.895 142.683 154.152  1.00  0.00     0.278 C 
ENDBRANCH  10  26
TORSDOF 6
ENDMDL
