MODEL 1
REMARK VINA RESULT:    -4.656      0.000      0.000
REMARK INTER + INTRA:         -16.930
REMARK INTER:                 -11.734
REMARK INTRA:                  -5.196
REMARK UNBOUND:                -5.196
REMARK SMILES CCCCCCCCCCCCCCCCCCCCCCCCCCCC(=O)[O-]
REMARK SMILES IDX 15 1 16 2 17 3 18 4 19 5 20 6 21 7 22 8 23 9 24 10 25 11
REMARK SMILES IDX 26 12 27 13 28 14 29 15 30 16 14 17 13 18 12 19 11 20 10 21
REMARK SMILES IDX 9 22 8 23 7 24 6 25 5 26 4 27 3 28 2 29 1 30
REMARK H PARENT
REMARK Flexibility Score: inf
ROOT
ATOM      1  C   UNL     1     191.660 196.330 192.625  1.00  0.00     0.000 C 
ENDROOT
BRANCH   1   2
ATOM      2  C   UNL     1     191.517 195.493 191.341  1.00  0.00     0.000 C 
BRANCH   2   3
ATOM      3  C   UNL     1     192.648 194.468 191.165  1.00  0.00     0.000 C 
BRANCH   3   4
ATOM      4  C   UNL     1     192.088 193.094 190.768  1.00  0.00     0.000 C 
BRANCH   4   5
ATOM      5  C   UNL     1     191.884 192.169 191.979  1.00  0.00     0.000 C 
BRANCH   5   6
ATOM      6  C   UNL     1     190.463 191.584 192.041  1.00  0.00     0.000 C 
BRANCH   6   7
ATOM      7  C   UNL     1     189.771 191.553 190.662  1.00  0.00     0.000 C 
BRANCH   7   8
ATOM      8  C   UNL     1     188.641 192.589 190.506  1.00  0.00     0.000 C 
BRANCH   8   9
ATOM      9  C   UNL     1     187.307 192.027 189.980  1.00  0.00     0.000 C 
BRANCH   9  10
ATOM     10  C   UNL     1     187.012 190.563 190.368  1.00  0.00     0.000 C 
BRANCH  10  11
ATOM     11  C   UNL     1     185.676 190.341 191.100  1.00  0.00     0.000 C 
BRANCH  11  12
ATOM     12  C   UNL     1     185.836 189.556 192.413  1.00  0.00     0.006 C 
BRANCH  12  13
ATOM     13  C   UNL     1     187.303 189.204 192.698  1.00  0.00     0.053 C 
BRANCH  13  14
ATOM     14  C   UNL     1     187.449 187.802 193.206  1.00  0.00     0.041 C 
ATOM     15  O   UNL     1     187.914 186.904 192.458  1.00  0.00    -0.550 OA
ATOM     16  O   UNL     1     187.037 187.481 194.494  1.00  0.00    -0.550 OA
ENDBRANCH  13  14
ENDBRANCH  12  13
ENDBRANCH  11  12
ENDBRANCH  10  11
ENDBRANCH   9  10
ENDBRANCH   8   9
ENDBRANCH   7   8
ENDBRANCH   6   7
ENDBRANCH   5   6
ENDBRANCH   4   5
ENDBRANCH   3   4
ENDBRANCH   2   3
ENDBRANCH   1   2
BRANCH   1  17
ATOM     17  C   UNL     1     190.449 196.281 193.575  1.00  0.00     0.000 C 
BRANCH  17  18
ATOM     18  C   UNL     1     189.988 194.865 193.970  1.00  0.00     0.000 C 
BRANCH  18  19
ATOM     19  C   UNL     1     188.550 194.532 193.518  1.00  0.00     0.000 C 
BRANCH  19  20
ATOM     20  C   UNL     1     188.052 193.187 194.075  1.00  0.00     0.000 C 
BRANCH  20  21
ATOM     21  C   UNL     1     186.613 192.855 193.636  1.00  0.00     0.000 C 
BRANCH  21  22
ATOM     22  C   UNL     1     185.819 194.049 193.075  1.00  0.00    -0.000 C 
BRANCH  22  23
ATOM     23  C   UNL     1     184.486 194.278 193.808  1.00  0.00    -0.000 C 
BRANCH  23  24
ATOM     24  C   UNL     1     184.413 195.663 194.482  1.00  0.00    -0.000 C 
BRANCH  24  25
ATOM     25  C   UNL     1     185.663 196.034 195.304  1.00  0.00    -0.000 C 
BRANCH  25  26
ATOM     26  C   UNL     1     185.911 195.121 196.522  1.00  0.00    -0.000 C 
BRANCH  26  27
ATOM     27  C   UNL     1     187.334 195.276 197.088  1.00  0.00    -0.000 C 
BRANCH  27  28
ATOM     28  C   UNL     1     188.050 196.537 196.572  1.00  0.00    -0.000 C 
BRANCH  28  29
ATOM     29  C   UNL     1     189.436 196.790 197.191  1.00  0.00    -0.003 C 
ATOM     30  C   UNL     1     189.944 195.610 198.018  1.00  0.00     0.004 C 
ENDBRANCH  28  29
ENDBRANCH  27  28
ENDBRANCH  26  27
ENDBRANCH  25  26
ENDBRANCH  24  25
ENDBRANCH  23  24
ENDBRANCH  22  23
ENDBRANCH  21  22
ENDBRANCH  20  21
ENDBRANCH  19  20
ENDBRANCH  18  19
ENDBRANCH  17  18
ENDBRANCH   1  17
TORSDOF 26
ENDMDL
MODEL 2
REMARK VINA RESULT:    -4.594      3.900      6.816
REMARK INTER + INTRA:         -16.773
REMARK INTER:                 -13.215
REMARK INTRA:                  -3.557
REMARK UNBOUND:                -5.196
REMARK SMILES CCCCCCCCCCCCCCCCCCCCCCCCCCCC(=O)[O-]
REMARK SMILES IDX 15 1 16 2 17 3 18 4 19 5 20 6 21 7 22 8 23 9 24 10 25 11
REMARK SMILES IDX 26 12 27 13 28 14 29 15 30 16 14 17 13 18 12 19 11 20 10 21
REMARK SMILES IDX 9 22 8 23 7 24 6 25 5 26 4 27 3 28 2 29 1 30
REMARK H PARENT
REMARK Flexibility Score: inf
ROOT
ATOM      1  C   UNL     1     185.803 192.387 194.010  1.00  0.00     0.000 C 
ENDROOT
BRANCH   1   2
ATOM      2  C   UNL     1     185.977 192.100 192.507  1.00  0.00     0.000 C 
BRANCH   2   3
ATOM      3  C   UNL     1     187.132 192.893 191.876  1.00  0.00     0.000 C 
BRANCH   3   4
ATOM      4  C   UNL     1     187.614 192.223 190.580  1.00  0.00     0.000 C 
BRANCH   4   5
ATOM      5  C   UNL     1     189.142 192.063 190.534  1.00  0.00     0.000 C 
BRANCH   5   6
ATOM      6  C   UNL     1     189.749 191.802 191.923  1.00  0.00     0.000 C 
BRANCH   6   7
ATOM      7  C   UNL     1     190.722 192.916 192.366  1.00  0.00     0.000 C 
BRANCH   7   8
ATOM      8  C   UNL     1     191.970 193.047 191.472  1.00  0.00     0.000 C 
BRANCH   8   9
ATOM      9  C   UNL     1     192.415 194.492 191.178  1.00  0.00     0.000 C 
BRANCH   9  10
ATOM     10  C   UNL     1     191.419 195.588 191.614  1.00  0.00     0.000 C 
BRANCH  10  11
ATOM     11  C   UNL     1     191.531 196.914 190.841  1.00  0.00     0.000 C 
BRANCH  11  12
ATOM     12  C   UNL     1     191.217 198.142 191.713  1.00  0.00     0.006 C 
BRANCH  12  13
ATOM     13  C   UNL     1     192.202 199.293 191.462  1.00  0.00     0.053 C 
BRANCH  13  14
ATOM     14  C   UNL     1     193.091 199.531 192.644  1.00  0.00     0.041 C 
ATOM     15  O   UNL     1     193.616 200.661 192.822  1.00  0.00    -0.550 OA
ATOM     16  O   UNL     1     193.370 198.496 193.527  1.00  0.00    -0.550 OA
ENDBRANCH  13  14
ENDBRANCH  12  13
ENDBRANCH  11  12
ENDBRANCH  10  11
ENDBRANCH   9  10
ENDBRANCH   8   9
ENDBRANCH   7   8
ENDBRANCH   6   7
ENDBRANCH   5   6
ENDBRANCH   4   5
ENDBRANCH   3   4
ENDBRANCH   2   3
ENDBRANCH   1   2
BRANCH   1  17
ATOM     17  C   UNL     1     184.343 192.482 194.492  1.00  0.00     0.000 C 
BRANCH  17  18
ATOM     18  C   UNL     1     183.474 193.504 193.735  1.00  0.00     0.000 C 
BRANCH  18  19
ATOM     19  C   UNL     1     184.163 194.869 193.525  1.00  0.00     0.000 C 
BRANCH  19  20
ATOM     20  C   UNL     1     184.355 195.644 194.841  1.00  0.00     0.000 C 
BRANCH  20  21
ATOM     21  C   UNL     1     185.838 195.899 195.172  1.00  0.00     0.000 C 
BRANCH  21  22
ATOM     22  C   UNL     1     186.226 195.638 196.638  1.00  0.00    -0.000 C 
BRANCH  22  23
ATOM     23  C   UNL     1     187.447 194.713 196.778  1.00  0.00    -0.000 C 
BRANCH  23  24
ATOM     24  C   UNL     1     188.123 194.418 195.423  1.00  0.00    -0.000 C 
BRANCH  24  25
ATOM     25  C   UNL     1     189.495 195.097 195.239  1.00  0.00    -0.000 C 
BRANCH  25  26
ATOM     26  C   UNL     1     189.430 196.476 194.552  1.00  0.00    -0.000 C 
BRANCH  26  27
ATOM     27  C   UNL     1     190.162 197.564 195.358  1.00  0.00    -0.000 C 
BRANCH  27  28
ATOM     28  C   UNL     1     189.804 197.545 196.854  1.00  0.00    -0.000 C 
BRANCH  28  29
ATOM     29  C   UNL     1     190.537 198.596 197.706  1.00  0.00    -0.003 C 
ATOM     30  C   UNL     1     189.635 199.754 198.132  1.00  0.00     0.004 C 
ENDBRANCH  28  29
ENDBRANCH  27  28
ENDBRANCH  26  27
ENDBRANCH  25  26
ENDBRANCH  24  25
ENDBRANCH  23  24
ENDBRANCH  22  23
ENDBRANCH  21  22
ENDBRANCH  20  21
ENDBRANCH  19  20
ENDBRANCH  18  19
ENDBRANCH  17  18
ENDBRANCH   1  17
TORSDOF 26
ENDMDL
MODEL 3
REMARK VINA RESULT:    -4.587      3.306      5.959
REMARK INTER + INTRA:         -16.756
REMARK INTER:                 -13.650
REMARK INTRA:                  -3.106
REMARK UNBOUND:                -5.196
REMARK SMILES CCCCCCCCCCCCCCCCCCCCCCCCCCCC(=O)[O-]
REMARK SMILES IDX 15 1 16 2 17 3 18 4 19 5 20 6 21 7 22 8 23 9 24 10 25 11
REMARK SMILES IDX 26 12 27 13 28 14 29 15 30 16 14 17 13 18 12 19 11 20 10 21
REMARK SMILES IDX 9 22 8 23 7 24 6 25 5 26 4 27 3 28 2 29 1 30
REMARK H PARENT
REMARK Flexibility Score: inf
ROOT
ATOM      1  C   UNL     1     193.385 199.051 194.178  1.00  0.00     0.000 C 
ENDROOT
BRANCH   1   2
ATOM      2  C   UNL     1     193.375 200.071 193.024  1.00  0.00     0.000 C 
BRANCH   2   3
ATOM      3  C   UNL     1     192.794 199.499 191.723  1.00  0.00     0.000 C 
BRANCH   3   4
ATOM      4  C   UNL     1     191.525 198.679 192.002  1.00  0.00     0.000 C 
BRANCH   4   5
ATOM      5  C   UNL     1     191.174 197.725 190.849  1.00  0.00     0.000 C 
BRANCH   5   6
ATOM      6  C   UNL     1     191.594 196.273 191.137  1.00  0.00     0.000 C 
BRANCH   6   7
ATOM      7  C   UNL     1     191.156 195.794 192.538  1.00  0.00     0.000 C 
BRANCH   7   8
ATOM      8  C   UNL     1     190.821 194.291 192.608  1.00  0.00     0.000 C 
BRANCH   8   9
ATOM      9  C   UNL     1     191.483 193.424 191.520  1.00  0.00     0.000 C 
BRANCH   9  10
ATOM     10  C   UNL     1     191.757 191.960 191.923  1.00  0.00     0.000 C 
BRANCH  10  11
ATOM     11  C   UNL     1     190.786 191.380 192.969  1.00  0.00     0.000 C 
BRANCH  11  12
ATOM     12  C   UNL     1     189.523 190.771 192.338  1.00  0.00     0.006 C 
BRANCH  12  13
ATOM     13  C   UNL     1     188.311 191.705 192.458  1.00  0.00     0.053 C 
BRANCH  13  14
ATOM     14  C   UNL     1     187.833 192.170 191.116  1.00  0.00     0.041 C 
ATOM     15  O   UNL     1     188.440 191.819 190.073  1.00  0.00    -0.550 OA
ATOM     16  O   UNL     1     186.739 193.022 191.022  1.00  0.00    -0.550 OA
ENDBRANCH  13  14
ENDBRANCH  12  13
ENDBRANCH  11  12
ENDBRANCH  10  11
ENDBRANCH   9  10
ENDBRANCH   8   9
ENDBRANCH   7   8
ENDBRANCH   6   7
ENDBRANCH   5   6
ENDBRANCH   4   5
ENDBRANCH   3   4
ENDBRANCH   2   3
ENDBRANCH   1   2
BRANCH   1  17
ATOM     17  C   UNL     1     193.733 199.632 195.561  1.00  0.00     0.000 C 
BRANCH  17  18
ATOM     18  C   UNL     1     193.782 201.171 195.627  1.00  0.00     0.000 C 
BRANCH  18  19
ATOM     19  C   UNL     1     193.590 201.737 197.049  1.00  0.00     0.000 C 
BRANCH  19  20
ATOM     20  C   UNL     1     192.112 202.005 197.385  1.00  0.00     0.000 C 
BRANCH  20  21
ATOM     21  C   UNL     1     191.515 200.950 198.336  1.00  0.00     0.000 C 
BRANCH  21  22
ATOM     22  C   UNL     1     190.391 200.094 197.725  1.00  0.00    -0.000 C 
BRANCH  22  23
ATOM     23  C   UNL     1     190.790 198.619 197.553  1.00  0.00    -0.000 C 
BRANCH  23  24
ATOM     24  C   UNL     1     189.636 197.756 197.001  1.00  0.00    -0.000 C 
BRANCH  24  25
ATOM     25  C   UNL     1     189.598 197.658 195.463  1.00  0.00    -0.000 C 
BRANCH  25  26
ATOM     26  C   UNL     1     188.242 197.195 194.894  1.00  0.00    -0.000 C 
BRANCH  26  27
ATOM     27  C   UNL     1     187.863 195.779 195.367  1.00  0.00    -0.000 C 
BRANCH  27  28
ATOM     28  C   UNL     1     186.518 195.736 196.113  1.00  0.00    -0.000 C 
BRANCH  28  29
ATOM     29  C   UNL     1     185.276 195.804 195.208  1.00  0.00    -0.003 C 
ATOM     30  C   UNL     1     185.409 194.949 193.949  1.00  0.00     0.004 C 
ENDBRANCH  28  29
ENDBRANCH  27  28
ENDBRANCH  26  27
ENDBRANCH  25  26
ENDBRANCH  24  25
ENDBRANCH  23  24
ENDBRANCH  22  23
ENDBRANCH  21  22
ENDBRANCH  20  21
ENDBRANCH  19  20
ENDBRANCH  18  19
ENDBRANCH  17  18
ENDBRANCH   1  17
TORSDOF 26
ENDMDL
MODEL 4
REMARK VINA RESULT:    -4.532      2.733      7.705
REMARK INTER + INTRA:         -16.616
REMARK INTER:                 -12.230
REMARK INTRA:                  -4.386
REMARK UNBOUND:                -5.196
REMARK SMILES CCCCCCCCCCCCCCCCCCCCCCCCCCCC(=O)[O-]
REMARK SMILES IDX 15 1 16 2 17 3 18 4 19 5 20 6 21 7 22 8 23 9 24 10 25 11
REMARK SMILES IDX 26 12 27 13 28 14 29 15 30 16 14 17 13 18 12 19 11 20 10 21
REMARK SMILES IDX 9 22 8 23 7 24 6 25 5 26 4 27 3 28 2 29 1 30
REMARK H PARENT
REMARK Flexibility Score: inf
ROOT
ATOM      1  C   UNL     1     186.516 196.191 195.160  1.00  0.00     0.000 C 
ENDROOT
BRANCH   1   2
ATOM      2  C   UNL     1     187.481 197.008 196.039  1.00  0.00     0.000 C 
BRANCH   2   3
ATOM      3  C   UNL     1     188.633 197.636 195.240  1.00  0.00     0.000 C 
BRANCH   3   4
ATOM      4  C   UNL     1     189.919 197.688 196.078  1.00  0.00     0.000 C 
BRANCH   4   5
ATOM      5  C   UNL     1     189.664 197.390 197.565  1.00  0.00     0.000 C 
BRANCH   5   6
ATOM      6  C   UNL     1     190.351 196.095 198.032  1.00  0.00     0.000 C 
BRANCH   6   7
ATOM      7  C   UNL     1     189.436 195.225 198.920  1.00  0.00     0.000 C 
BRANCH   7   8
ATOM      8  C   UNL     1     190.025 194.917 200.311  1.00  0.00     0.000 C 
BRANCH   8   9
ATOM      9  C   UNL     1     189.163 193.996 201.195  1.00  0.00     0.000 C 
BRANCH   9  10
ATOM     10  C   UNL     1     187.694 194.435 201.367  1.00  0.00     0.000 C 
BRANCH  10  11
ATOM     11  C   UNL     1     186.654 193.486 200.744  1.00  0.00     0.000 C 
BRANCH  11  12
ATOM     12  C   UNL     1     185.546 194.231 199.981  1.00  0.00     0.006 C 
BRANCH  12  13
ATOM     13  C   UNL     1     185.908 194.449 198.506  1.00  0.00     0.053 C 
BRANCH  13  14
ATOM     14  C   UNL     1     184.754 194.147 197.599  1.00  0.00     0.041 C 
ATOM     15  O   UNL     1     184.756 193.101 196.901  1.00  0.00    -0.550 OA
ATOM     16  O   UNL     1     183.693 195.039 197.499  1.00  0.00    -0.550 OA
ENDBRANCH  13  14
ENDBRANCH  12  13
ENDBRANCH  11  12
ENDBRANCH  10  11
ENDBRANCH   9  10
ENDBRANCH   8   9
ENDBRANCH   7   8
ENDBRANCH   6   7
ENDBRANCH   5   6
ENDBRANCH   4   5
ENDBRANCH   3   4
ENDBRANCH   2   3
ENDBRANCH   1   2
BRANCH   1  17
ATOM     17  C   UNL     1     187.094 194.878 194.601  1.00  0.00     0.000 C 
BRANCH  17  18
ATOM     18  C   UNL     1     188.149 194.199 195.495  1.00  0.00     0.000 C 
BRANCH  18  19
ATOM     19  C   UNL     1     189.550 194.122 194.851  1.00  0.00     0.000 C 
BRANCH  19  20
ATOM     20  C   UNL     1     189.555 194.596 193.387  1.00  0.00     0.000 C 
BRANCH  20  21
ATOM     21  C   UNL     1     190.842 195.355 193.010  1.00  0.00     0.000 C 
BRANCH  21  22
ATOM     22  C   UNL     1     191.324 195.130 191.566  1.00  0.00    -0.000 C 
BRANCH  22  23
ATOM     23  C   UNL     1     192.299 193.948 191.438  1.00  0.00    -0.000 C 
BRANCH  23  24
ATOM     24  C   UNL     1     191.581 192.623 191.109  1.00  0.00    -0.000 C 
BRANCH  24  25
ATOM     25  C   UNL     1     191.771 191.519 192.169  1.00  0.00    -0.000 C 
BRANCH  25  26
ATOM     26  C   UNL     1     190.454 190.996 192.777  1.00  0.00    -0.000 C 
BRANCH  26  27
ATOM     27  C   UNL     1     189.243 191.263 191.865  1.00  0.00    -0.000 C 
BRANCH  27  28
ATOM     28  C   UNL     1     187.943 191.507 192.651  1.00  0.00    -0.000 C 
BRANCH  28  29
ATOM     29  C   UNL     1     186.856 190.436 192.450  1.00  0.00    -0.003 C 
ATOM     30  C   UNL     1     187.300 189.045 192.902  1.00  0.00     0.004 C 
ENDBRANCH  28  29
ENDBRANCH  27  28
ENDBRANCH  26  27
ENDBRANCH  25  26
ENDBRANCH  24  25
ENDBRANCH  23  24
ENDBRANCH  22  23
ENDBRANCH  21  22
ENDBRANCH  20  21
ENDBRANCH  19  20
ENDBRANCH  18  19
ENDBRANCH  17  18
ENDBRANCH   1  17
TORSDOF 26
ENDMDL
MODEL 5
REMARK VINA RESULT:    -4.471      1.093      5.955
REMARK INTER + INTRA:         -16.464
REMARK INTER:                 -11.875
REMARK INTRA:                  -4.589
REMARK UNBOUND:                -5.196
REMARK SMILES CCCCCCCCCCCCCCCCCCCCCCCCCCCC(=O)[O-]
REMARK SMILES IDX 15 1 16 2 17 3 18 4 19 5 20 6 21 7 22 8 23 9 24 10 25 11
REMARK SMILES IDX 26 12 27 13 28 14 29 15 30 16 14 17 13 18 12 19 11 20 10 21
REMARK SMILES IDX 9 22 8 23 7 24 6 25 5 26 4 27 3 28 2 29 1 30
REMARK H PARENT
REMARK Flexibility Score: inf
ROOT
ATOM      1  C   UNL     1     188.384 195.251 197.424  1.00  0.00     0.000 C 
ENDROOT
BRANCH   1   2
ATOM      2  C   UNL     1     187.393 196.212 196.742  1.00  0.00     0.000 C 
BRANCH   2   3
ATOM      3  C   UNL     1     186.028 195.565 196.461  1.00  0.00     0.000 C 
BRANCH   3   4
ATOM      4  C   UNL     1     185.475 196.018 195.101  1.00  0.00     0.000 C 
BRANCH   4   5
ATOM      5  C   UNL     1     184.193 195.267 194.708  1.00  0.00     0.000 C 
BRANCH   5   6
ATOM      6  C   UNL     1     184.323 194.548 193.354  1.00  0.00     0.000 C 
BRANCH   6   7
ATOM      7  C   UNL     1     185.710 193.901 193.154  1.00  0.00     0.000 C 
BRANCH   7   8
ATOM      8  C   UNL     1     185.893 192.569 193.908  1.00  0.00     0.000 C 
BRANCH   8   9
ATOM      9  C   UNL     1     184.619 191.713 194.039  1.00  0.00     0.000 C 
BRANCH   9  10
ATOM     10  C   UNL     1     184.205 190.952 192.763  1.00  0.00     0.000 C 
BRANCH  10  11
ATOM     11  C   UNL     1     185.314 190.094 192.127  1.00  0.00     0.000 C 
BRANCH  11  12
ATOM     12  C   UNL     1     185.201 188.604 192.494  1.00  0.00     0.006 C 
BRANCH  12  13
ATOM     13  C   UNL     1     186.129 188.225 193.656  1.00  0.00     0.053 C 
BRANCH  13  14
ATOM     14  C   UNL     1     187.504 187.872 193.178  1.00  0.00     0.041 C 
ATOM     15  O   UNL     1     187.655 187.222 192.112  1.00  0.00    -0.550 OA
ATOM     16  O   UNL     1     188.617 188.228 193.930  1.00  0.00    -0.550 OA
ENDBRANCH  13  14
ENDBRANCH  12  13
ENDBRANCH  11  12
ENDBRANCH  10  11
ENDBRANCH   9  10
ENDBRANCH   8   9
ENDBRANCH   7   8
ENDBRANCH   6   7
ENDBRANCH   5   6
ENDBRANCH   4   5
ENDBRANCH   3   4
ENDBRANCH   2   3
ENDBRANCH   1   2
BRANCH   1  17
ATOM     17  C   UNL     1     189.539 194.761 196.531  1.00  0.00     0.000 C 
BRANCH  17  18
ATOM     18  C   UNL     1     189.111 193.888 195.335  1.00  0.00     0.000 C 
BRANCH  18  19
ATOM     19  C   UNL     1     189.357 194.552 193.963  1.00  0.00     0.000 C 
BRANCH  19  20
ATOM     20  C   UNL     1     190.041 195.925 194.085  1.00  0.00     0.000 C 
BRANCH  20  21
ATOM     21  C   UNL     1     190.994 196.223 192.913  1.00  0.00     0.000 C 
BRANCH  21  22
ATOM     22  C   UNL     1     191.038 195.136 191.824  1.00  0.00    -0.000 C 
BRANCH  22  23
ATOM     23  C   UNL     1     192.450 194.915 191.256  1.00  0.00    -0.000 C 
BRANCH  23  24
ATOM     24  C   UNL     1     192.682 193.461 190.798  1.00  0.00    -0.000 C 
BRANCH  24  25
ATOM     25  C   UNL     1     192.275 192.397 191.838  1.00  0.00    -0.000 C 
BRANCH  25  26
ATOM     26  C   UNL     1     191.162 191.442 191.361  1.00  0.00    -0.000 C 
BRANCH  26  27
ATOM     27  C   UNL     1     190.187 191.071 192.493  1.00  0.00    -0.000 C 
BRANCH  27  28
ATOM     28  C   UNL     1     188.715 191.333 192.125  1.00  0.00    -0.000 C 
BRANCH  28  29
ATOM     29  C   UNL     1     188.500 192.428 191.066  1.00  0.00    -0.003 C 
ATOM     30  C   UNL     1     187.666 191.952 189.878  1.00  0.00     0.004 C 
ENDBRANCH  28  29
ENDBRANCH  27  28
ENDBRANCH  26  27
ENDBRANCH  25  26
ENDBRANCH  24  25
ENDBRANCH  23  24
ENDBRANCH  22  23
ENDBRANCH  21  22
ENDBRANCH  20  21
ENDBRANCH  19  20
ENDBRANCH  18  19
ENDBRANCH  17  18
ENDBRANCH   1  17
TORSDOF 26
ENDMDL
MODEL 6
REMARK VINA RESULT:    -4.464      2.963      7.135
REMARK INTER + INTRA:         -16.445
REMARK INTER:                 -11.784
REMARK INTRA:                  -4.661
REMARK UNBOUND:                -5.196
REMARK SMILES CCCCCCCCCCCCCCCCCCCCCCCCCCCC(=O)[O-]
REMARK SMILES IDX 15 1 16 2 17 3 18 4 19 5 20 6 21 7 22 8 23 9 24 10 25 11
REMARK SMILES IDX 26 12 27 13 28 14 29 15 30 16 14 17 13 18 12 19 11 20 10 21
REMARK SMILES IDX 9 22 8 23 7 24 6 25 5 26 4 27 3 28 2 29 1 30
REMARK H PARENT
REMARK Flexibility Score: inf
ROOT
ATOM      1  C   UNL     1     192.339 194.862 191.723  1.00  0.00     0.000 C 
ENDROOT
BRANCH   1   2
ATOM      2  C   UNL     1     190.827 195.052 191.946  1.00  0.00     0.000 C 
BRANCH   2   3
ATOM      3  C   UNL     1     190.463 195.275 193.422  1.00  0.00     0.000 C 
BRANCH   3   4
ATOM      4  C   UNL     1     189.576 194.136 193.947  1.00  0.00     0.000 C 
BRANCH   4   5
ATOM      5  C   UNL     1     188.167 194.156 193.333  1.00  0.00     0.000 C 
BRANCH   5   6
ATOM      6  C   UNL     1     187.288 192.999 193.838  1.00  0.00     0.000 C 
BRANCH   6   7
ATOM      7  C   UNL     1     185.821 193.120 193.374  1.00  0.00     0.000 C 
BRANCH   7   8
ATOM      8  C   UNL     1     184.881 193.739 194.428  1.00  0.00     0.000 C 
BRANCH   8   9
ATOM      9  C   UNL     1     184.766 195.274 194.379  1.00  0.00     0.000 C 
BRANCH   9  10
ATOM     10  C   UNL     1     185.642 196.032 195.398  1.00  0.00     0.000 C 
BRANCH  10  11
ATOM     11  C   UNL     1     186.163 195.180 196.570  1.00  0.00     0.000 C 
BRANCH  11  12
ATOM     12  C   UNL     1     187.638 195.459 196.902  1.00  0.00     0.006 C 
BRANCH  12  13
ATOM     13  C   UNL     1     188.139 196.759 196.257  1.00  0.00     0.053 C 
BRANCH  13  14
ATOM     14  C   UNL     1     189.498 197.141 196.758  1.00  0.00     0.041 C 
ATOM     15  O   UNL     1     190.278 197.804 196.027  1.00  0.00    -0.550 OA
ATOM     16  O   UNL     1     189.917 196.733 198.018  1.00  0.00    -0.550 OA
ENDBRANCH  13  14
ENDBRANCH  12  13
ENDBRANCH  11  12
ENDBRANCH  10  11
ENDBRANCH   9  10
ENDBRANCH   8   9
ENDBRANCH   7   8
ENDBRANCH   6   7
ENDBRANCH   5   6
ENDBRANCH   4   5
ENDBRANCH   3   4
ENDBRANCH   2   3
ENDBRANCH   1   2
BRANCH   1  17
ATOM     17  C   UNL     1     192.773 193.425 191.378  1.00  0.00     0.000 C 
BRANCH  17  18
ATOM     18  C   UNL     1     191.689 192.563 190.704  1.00  0.00     0.000 C 
BRANCH  18  19
ATOM     19  C   UNL     1     191.181 191.402 191.586  1.00  0.00     0.000 C 
BRANCH  19  20
ATOM     20  C   UNL     1     189.645 191.307 191.612  1.00  0.00     0.000 C 
BRANCH  20  21
ATOM     21  C   UNL     1     188.982 192.042 190.432  1.00  0.00     0.000 C 
BRANCH  21  22
ATOM     22  C   UNL     1     187.482 191.749 190.250  1.00  0.00    -0.000 C 
BRANCH  22  23
ATOM     23  C   UNL     1     187.024 190.488 191.002  1.00  0.00    -0.000 C 
BRANCH  23  24
ATOM     24  C   UNL     1     185.560 190.114 190.691  1.00  0.00    -0.000 C 
BRANCH  24  25
ATOM     25  C   UNL     1     185.260 188.604 190.777  1.00  0.00    -0.000 C 
BRANCH  25  26
ATOM     26  C   UNL     1     186.199 187.725 189.927  1.00  0.00    -0.000 C 
BRANCH  26  27
ATOM     27  C   UNL     1     186.984 186.714 190.782  1.00  0.00    -0.000 C 
BRANCH  27  28
ATOM     28  C   UNL     1     186.509 186.669 192.245  1.00  0.00    -0.000 C 
BRANCH  28  29
ATOM     29  C   UNL     1     187.632 186.771 193.291  1.00  0.00    -0.003 C 
ATOM     30  C   UNL     1     188.051 188.212 193.577  1.00  0.00     0.004 C 
ENDBRANCH  28  29
ENDBRANCH  27  28
ENDBRANCH  26  27
ENDBRANCH  25  26
ENDBRANCH  24  25
ENDBRANCH  23  24
ENDBRANCH  22  23
ENDBRANCH  21  22
ENDBRANCH  20  21
ENDBRANCH  19  20
ENDBRANCH  18  19
ENDBRANCH  17  18
ENDBRANCH   1  17
TORSDOF 26
ENDMDL
MODEL 7
REMARK VINA RESULT:    -4.399      3.227      7.972
REMARK INTER + INTRA:         -16.282
REMARK INTER:                 -13.182
REMARK INTRA:                  -3.100
REMARK UNBOUND:                -5.196
REMARK SMILES CCCCCCCCCCCCCCCCCCCCCCCCCCCC(=O)[O-]
REMARK SMILES IDX 15 1 16 2 17 3 18 4 19 5 20 6 21 7 22 8 23 9 24 10 25 11
REMARK SMILES IDX 26 12 27 13 28 14 29 15 30 16 14 17 13 18 12 19 11 20 10 21
REMARK SMILES IDX 9 22 8 23 7 24 6 25 5 26 4 27 3 28 2 29 1 30
REMARK H PARENT
REMARK Flexibility Score: inf
ROOT
ATOM      1  C   UNL     1     193.741 199.623 195.630  1.00  0.00     0.000 C 
ENDROOT
BRANCH   1   2
ATOM      2  C   UNL     1     193.376 201.119 195.665  1.00  0.00     0.000 C 
BRANCH   2   3
ATOM      3  C   UNL     1     193.152 201.647 197.090  1.00  0.00     0.000 C 
BRANCH   3   4
ATOM      4  C   UNL     1     191.669 201.565 197.480  1.00  0.00     0.000 C 
BRANCH   4   5
ATOM      5  C   UNL     1     191.257 200.155 197.933  1.00  0.00     0.000 C 
BRANCH   5   6
ATOM      6  C   UNL     1     189.734 199.940 197.880  1.00  0.00     0.000 C 
BRANCH   6   7
ATOM      7  C   UNL     1     189.345 198.600 197.221  1.00  0.00     0.000 C 
BRANCH   7   8
ATOM      8  C   UNL     1     190.420 197.503 197.355  1.00  0.00     0.000 C 
BRANCH   8   9
ATOM      9  C   UNL     1     189.982 196.250 198.135  1.00  0.00     0.000 C 
BRANCH   9  10
ATOM     10  C   UNL     1     189.027 195.305 197.377  1.00  0.00     0.000 C 
BRANCH  10  11
ATOM     11  C   UNL     1     189.326 195.144 195.875  1.00  0.00     0.000 C 
BRANCH  11  12
ATOM     12  C   UNL     1     188.169 195.622 194.981  1.00  0.00     0.006 C 
BRANCH  12  13
ATOM     13  C   UNL     1     186.968 196.109 195.803  1.00  0.00     0.053 C 
BRANCH  13  14
ATOM     14  C   UNL     1     185.855 195.107 195.809  1.00  0.00     0.041 C 
ATOM     15  O   UNL     1     184.673 195.476 196.033  1.00  0.00    -0.550 OA
ATOM     16  O   UNL     1     186.127 193.760 195.605  1.00  0.00    -0.550 OA
ENDBRANCH  13  14
ENDBRANCH  12  13
ENDBRANCH  11  12
ENDBRANCH  10  11
ENDBRANCH   9  10
ENDBRANCH   8   9
ENDBRANCH   7   8
ENDBRANCH   6   7
ENDBRANCH   5   6
ENDBRANCH   4   5
ENDBRANCH   3   4
ENDBRANCH   2   3
ENDBRANCH   1   2
BRANCH   1  17
ATOM     17  C   UNL     1     192.852 198.755 194.721  1.00  0.00     0.000 C 
BRANCH  17  18
ATOM     18  C   UNL     1     193.041 198.989 193.210  1.00  0.00     0.000 C 
BRANCH  18  19
ATOM     19  C   UNL     1     192.014 198.240 192.333  1.00  0.00     0.000 C 
BRANCH  19  20
ATOM     20  C   UNL     1     191.122 197.288 193.150  1.00  0.00     0.000 C 
BRANCH  20  21
ATOM     21  C   UNL     1     191.290 195.813 192.738  1.00  0.00     0.000 C 
BRANCH  21  22
ATOM     22  C   UNL     1     191.566 195.588 191.241  1.00  0.00    -0.000 C 
BRANCH  22  23
ATOM     23  C   UNL     1     192.634 194.512 190.984  1.00  0.00    -0.000 C 
BRANCH  23  24
ATOM     24  C   UNL     1     192.314 193.182 191.697  1.00  0.00    -0.000 C 
BRANCH  24  25
ATOM     25  C   UNL     1     191.136 192.401 191.081  1.00  0.00    -0.000 C 
BRANCH  25  26
ATOM     26  C   UNL     1     190.058 191.978 192.100  1.00  0.00    -0.000 C 
BRANCH  26  27
ATOM     27  C   UNL     1     188.642 192.007 191.498  1.00  0.00    -0.000 C 
BRANCH  27  28
ATOM     28  C   UNL     1     188.636 192.342 189.995  1.00  0.00    -0.000 C 
BRANCH  28  29
ATOM     29  C   UNL     1     187.292 192.100 189.286  1.00  0.00    -0.003 C 
ATOM     30  C   UNL     1     186.621 190.795 189.711  1.00  0.00     0.004 C 
ENDBRANCH  28  29
ENDBRANCH  27  28
ENDBRANCH  26  27
ENDBRANCH  25  26
ENDBRANCH  24  25
ENDBRANCH  23  24
ENDBRANCH  22  23
ENDBRANCH  21  22
ENDBRANCH  20  21
ENDBRANCH  19  20
ENDBRANCH  18  19
ENDBRANCH  17  18
ENDBRANCH   1  17
TORSDOF 26
ENDMDL
MODEL 8
REMARK VINA RESULT:    -4.376      1.620      5.949
REMARK INTER + INTRA:         -16.223
REMARK INTER:                 -11.728
REMARK INTRA:                  -4.495
REMARK UNBOUND:                -5.196
REMARK SMILES CCCCCCCCCCCCCCCCCCCCCCCCCCCC(=O)[O-]
REMARK SMILES IDX 15 1 16 2 17 3 18 4 19 5 20 6 21 7 22 8 23 9 24 10 25 11
REMARK SMILES IDX 26 12 27 13 28 14 29 15 30 16 14 17 13 18 12 19 11 20 10 21
REMARK SMILES IDX 9 22 8 23 7 24 6 25 5 26 4 27 3 28 2 29 1 30
REMARK H PARENT
REMARK Flexibility Score: inf
ROOT
ATOM      1  C   UNL     1     188.174 195.008 196.444  1.00  0.00     0.000 C 
ENDROOT
BRANCH   1   2
ATOM      2  C   UNL     1     187.313 194.167 195.484  1.00  0.00     0.000 C 
BRANCH   2   3
ATOM      3  C   UNL     1     186.583 195.018 194.433  1.00  0.00     0.000 C 
BRANCH   3   4
ATOM      4  C   UNL     1     185.603 195.994 195.100  1.00  0.00     0.000 C 
BRANCH   4   5
ATOM      5  C   UNL     1     184.135 195.585 194.898  1.00  0.00     0.000 C 
BRANCH   5   6
ATOM      6  C   UNL     1     183.894 194.908 193.538  1.00  0.00     0.000 C 
BRANCH   6   7
ATOM      7  C   UNL     1     183.191 193.540 193.670  1.00  0.00     0.000 C 
BRANCH   7   8
ATOM      8  C   UNL     1     184.160 192.344 193.751  1.00  0.00     0.000 C 
BRANCH   8   9
ATOM      9  C   UNL     1     183.866 191.199 192.764  1.00  0.00     0.000 C 
BRANCH   9  10
ATOM     10  C   UNL     1     185.031 190.213 192.535  1.00  0.00     0.000 C 
BRANCH  10  11
ATOM     11  C   UNL     1     185.007 189.481 191.181  1.00  0.00     0.000 C 
BRANCH  11  12
ATOM     12  C   UNL     1     186.320 188.737 190.880  1.00  0.00     0.006 C 
BRANCH  12  13
ATOM     13  C   UNL     1     186.073 187.287 190.444  1.00  0.00     0.053 C 
BRANCH  13  14
ATOM     14  C   UNL     1     185.881 186.377 191.619  1.00  0.00     0.041 C 
ATOM     15  O   UNL     1     184.722 186.061 191.990  1.00  0.00    -0.550 OA
ATOM     16  O   UNL     1     186.982 185.910 192.327  1.00  0.00    -0.550 OA
ENDBRANCH  13  14
ENDBRANCH  12  13
ENDBRANCH  11  12
ENDBRANCH  10  11
ENDBRANCH   9  10
ENDBRANCH   8   9
ENDBRANCH   7   8
ENDBRANCH   6   7
ENDBRANCH   5   6
ENDBRANCH   4   5
ENDBRANCH   3   4
ENDBRANCH   2   3
ENDBRANCH   1   2
BRANCH   1  17
ATOM     17  C   UNL     1     189.573 195.376 195.915  1.00  0.00     0.000 C 
BRANCH  17  18
ATOM     18  C   UNL     1     189.613 196.598 194.979  1.00  0.00     0.000 C 
BRANCH  18  19
ATOM     19  C   UNL     1     190.409 196.357 193.679  1.00  0.00     0.000 C 
BRANCH  19  20
ATOM     20  C   UNL     1     190.353 194.891 193.214  1.00  0.00     0.000 C 
BRANCH  20  21
ATOM     21  C   UNL     1     190.878 194.699 191.778  1.00  0.00     0.000 C 
BRANCH  21  22
ATOM     22  C   UNL     1     191.965 193.620 191.628  1.00  0.00    -0.000 C 
BRANCH  22  23
ATOM     23  C   UNL     1     191.429 192.312 191.022  1.00  0.00    -0.000 C 
BRANCH  23  24
ATOM     24  C   UNL     1     191.519 191.126 192.003  1.00  0.00    -0.000 C 
BRANCH  24  25
ATOM     25  C   UNL     1     190.333 191.023 192.983  1.00  0.00    -0.000 C 
BRANCH  25  26
ATOM     26  C   UNL     1     188.958 190.887 192.297  1.00  0.00    -0.000 C 
BRANCH  26  27
ATOM     27  C   UNL     1     188.064 192.117 192.533  1.00  0.00    -0.000 C 
BRANCH  27  28
ATOM     28  C   UNL     1     187.425 192.651 191.238  1.00  0.00    -0.000 C 
BRANCH  28  29
ATOM     29  C   UNL     1     187.930 191.982 189.947  1.00  0.00    -0.003 C 
ATOM     30  C   UNL     1     186.846 191.858 188.877  1.00  0.00     0.004 C 
ENDBRANCH  28  29
ENDBRANCH  27  28
ENDBRANCH  26  27
ENDBRANCH  25  26
ENDBRANCH  24  25
ENDBRANCH  23  24
ENDBRANCH  22  23
ENDBRANCH  21  22
ENDBRANCH  20  21
ENDBRANCH  19  20
ENDBRANCH  18  19
ENDBRANCH  17  18
ENDBRANCH   1  17
TORSDOF 26
ENDMDL
MODEL 9
REMARK VINA RESULT:    -4.340      3.481      6.604
REMARK INTER + INTRA:         -16.133
REMARK INTER:                 -11.547
REMARK INTRA:                  -4.586
REMARK UNBOUND:                -5.196
REMARK SMILES CCCCCCCCCCCCCCCCCCCCCCCCCCCC(=O)[O-]
REMARK SMILES IDX 15 1 16 2 17 3 18 4 19 5 20 6 21 7 22 8 23 9 24 10 25 11
REMARK SMILES IDX 26 12 27 13 28 14 29 15 30 16 14 17 13 18 12 19 11 20 10 21
REMARK SMILES IDX 9 22 8 23 7 24 6 25 5 26 4 27 3 28 2 29 1 30
REMARK H PARENT
REMARK Flexibility Score: inf
ROOT
ATOM      1  C   UNL     1     189.233 194.969 196.166  1.00  0.00     0.000 C 
ENDROOT
BRANCH   1   2
ATOM      2  C   UNL     1     189.633 194.058 194.991  1.00  0.00     0.000 C 
BRANCH   2   3
ATOM      3  C   UNL     1     188.801 194.313 193.725  1.00  0.00     0.000 C 
BRANCH   3   4
ATOM      4  C   UNL     1     187.993 193.065 193.338  1.00  0.00     0.000 C 
BRANCH   4   5
ATOM      5  C   UNL     1     187.742 192.972 191.825  1.00  0.00     0.000 C 
BRANCH   5   6
ATOM      6  C   UNL     1     188.755 192.058 191.114  1.00  0.00     0.000 C 
BRANCH   6   7
ATOM      7  C   UNL     1     189.596 191.221 192.102  1.00  0.00     0.000 C 
BRANCH   7   8
ATOM      8  C   UNL     1     191.117 191.413 191.945  1.00  0.00     0.000 C 
BRANCH   8   9
ATOM      9  C   UNL     1     191.538 192.509 190.948  1.00  0.00     0.000 C 
BRANCH   9  10
ATOM     10  C   UNL     1     192.364 193.664 191.551  1.00  0.00     0.000 C 
BRANCH  10  11
ATOM     11  C   UNL     1     191.771 195.069 191.338  1.00  0.00     0.000 C 
BRANCH  11  12
ATOM     12  C   UNL     1     191.814 195.935 192.608  1.00  0.00     0.006 C 
BRANCH  12  13
ATOM     13  C   UNL     1     191.013 197.235 192.447  1.00  0.00     0.053 C 
BRANCH  13  14
ATOM     14  C   UNL     1     191.834 198.319 191.818  1.00  0.00     0.041 C 
ATOM     15  O   UNL     1     191.766 198.526 190.579  1.00  0.00    -0.550 OA
ATOM     16  O   UNL     1     192.703 199.076 192.595  1.00  0.00    -0.550 OA
ENDBRANCH  13  14
ENDBRANCH  12  13
ENDBRANCH  11  12
ENDBRANCH  10  11
ENDBRANCH   9  10
ENDBRANCH   8   9
ENDBRANCH   7   8
ENDBRANCH   6   7
ENDBRANCH   5   6
ENDBRANCH   4   5
ENDBRANCH   3   4
ENDBRANCH   2   3
ENDBRANCH   1   2
BRANCH   1  17
ATOM     17  C   UNL     1     188.623 196.324 195.764  1.00  0.00     0.000 C 
BRANCH  17  18
ATOM     18  C   UNL     1     187.156 196.530 196.189  1.00  0.00     0.000 C 
BRANCH  18  19
ATOM     19  C   UNL     1     186.474 195.244 196.704  1.00  0.00     0.000 C 
BRANCH  19  20
ATOM     20  C   UNL     1     185.164 194.931 195.959  1.00  0.00     0.000 C 
BRANCH  20  21
ATOM     21  C   UNL     1     185.134 195.514 194.533  1.00  0.00     0.000 C 
BRANCH  21  22
ATOM     22  C   UNL     1     184.698 194.522 193.440  1.00  0.00    -0.000 C 
BRANCH  22  23
ATOM     23  C   UNL     1     183.280 193.971 193.664  1.00  0.00    -0.000 C 
BRANCH  23  24
ATOM     24  C   UNL     1     183.263 192.439 193.843  1.00  0.00    -0.000 C 
BRANCH  24  25
ATOM     25  C   UNL     1     184.661 191.791 193.883  1.00  0.00    -0.000 C 
BRANCH  25  26
ATOM     26  C   UNL     1     184.920 190.778 192.750  1.00  0.00    -0.000 C 
BRANCH  26  27
ATOM     27  C   UNL     1     186.230 189.996 192.953  1.00  0.00    -0.000 C 
BRANCH  27  28
ATOM     28  C   UNL     1     186.373 188.805 191.989  1.00  0.00    -0.000 C 
BRANCH  28  29
ATOM     29  C   UNL     1     187.463 187.789 192.375  1.00  0.00    -0.003 C 
ATOM     30  C   UNL     1     187.451 187.439 193.863  1.00  0.00     0.004 C 
ENDBRANCH  28  29
ENDBRANCH  27  28
ENDBRANCH  26  27
ENDBRANCH  25  26
ENDBRANCH  24  25
ENDBRANCH  23  24
ENDBRANCH  22  23
ENDBRANCH  21  22
ENDBRANCH  20  21
ENDBRANCH  19  20
ENDBRANCH  18  19
ENDBRANCH  17  18
ENDBRANCH   1  17
TORSDOF 26
ENDMDL
