MODEL 1
REMARK VINA RESULT:    -6.380      0.000      0.000
REMARK INTER + INTRA:          -8.162
REMARK INTER:                  -7.872
REMARK INTRA:                  -0.291
REMARK UNBOUND:                -0.291
REMARK SMILES Oc1cc(O)c2cc(O)c(-c3cc(O)c(O)c(O)c3)[o+]c2c1
REMARK SMILES IDX 10 1 20 2 21 3 22 4 2 5 3 6 4 7 6 8 7 9 8 10 11 11 12 12
REMARK SMILES IDX 13 13 19 14 15 15 17 16 14 17 16 19 18 21 9 23 1 25 5 27
REMARK H PARENT 14 18 16 20 18 22 9 24 1 26 5 28
REMARK Flexibility Score: inf
ROOT
ATOM      1  C   UNL     1      20.883  33.300  31.242  1.00  0.00     0.402 A 
ATOM      2  O   UNL     1      21.636  34.080  32.014  1.00  0.00    -0.202 OA
ATOM      3  C   UNL     1      21.798  33.878  33.318  1.00  0.00     0.368 A 
ATOM      4  C   UNL     1      22.608  34.754  34.046  1.00  0.00     0.162 A 
ATOM      5  C   UNL     1      22.793  34.569  35.417  1.00  0.00     0.128 A 
ATOM      6  C   UNL     1      22.164  33.500  36.066  1.00  0.00     0.093 A 
ATOM      7  C   UNL     1      21.349  32.609  35.359  1.00  0.00     0.136 A 
ATOM      8  C   UNL     1      21.160  32.793  33.965  1.00  0.00     0.125 A 
ATOM      9  C   UNL     1      20.370  31.942  33.173  1.00  0.00     0.078 A 
ATOM     10  C   UNL     1      20.236  32.185  31.804  1.00  0.00     0.223 A 
ENDROOT
BRANCH   1  11
ATOM     11  C   UNL     1      20.774  33.635  29.804  1.00  0.00     0.091 A 
ATOM     12  C   UNL     1      19.564  34.083  29.247  1.00  0.00     0.068 A 
ATOM     13  C   UNL     1      19.486  34.417  27.888  1.00  0.00     0.162 A 
ATOM     14  C   UNL     1      21.914  33.558  28.989  1.00  0.00     0.068 A 
ATOM     15  C   UNL     1      20.628  34.315  27.074  1.00  0.00     0.200 A 
ATOM     16  C   UNL     1      21.844  33.887  27.631  1.00  0.00     0.162 A 
BRANCH  13  17
ATOM     17  O   UNL     1      18.279  34.855  27.345  1.00  0.00    -0.504 OA
ATOM     18  H   UNL     1      18.169  35.796  26.986  1.00  0.00     0.293 HD
ENDBRANCH  13  17
BRANCH  15  19
ATOM     19  O   UNL     1      20.567  34.638  25.718  1.00  0.00    -0.502 OA
ATOM     20  H   UNL     1      21.035  35.451  25.336  1.00  0.00     0.293 HD
ENDBRANCH  15  19
BRANCH  16  21
ATOM     21  O   UNL     1      22.996  33.782  26.852  1.00  0.00    -0.504 OA
ATOM     22  H   UNL     1      22.981  33.392  25.918  1.00  0.00     0.293 HD
ENDBRANCH  16  21
ENDBRANCH   1  11
BRANCH  10  23
ATOM     23  O   UNL     1      19.491  31.312  31.009  1.00  0.00    -0.500 OA
ATOM     24  H   UNL     1      19.874  30.903  30.164  1.00  0.00     0.294 HD
ENDBRANCH  10  23
BRANCH   5  25
ATOM     25  O   UNL     1      23.604  35.453  36.125  1.00  0.00    -0.507 OA
ATOM     26  H   UNL     1      24.584  35.573  35.894  1.00  0.00     0.293 HD
ENDBRANCH   5  25
BRANCH   7  27
ATOM     27  O   UNL     1      20.754  31.570  36.081  1.00  0.00    -0.507 OA
ATOM     28  H   UNL     1      20.195  30.836  35.670  1.00  0.00     0.293 HD
ENDBRANCH   7  27
TORSDOF 7
ENDMDL
MODEL 2
REMARK VINA RESULT:    -6.272     10.337     14.284
REMARK INTER + INTRA:          -8.030
REMARK INTER:                  -7.785
REMARK INTRA:                  -0.244
REMARK UNBOUND:                -0.291
REMARK SMILES Oc1cc(O)c2cc(O)c(-c3cc(O)c(O)c(O)c3)[o+]c2c1
REMARK SMILES IDX 10 1 20 2 21 3 22 4 2 5 3 6 4 7 6 8 7 9 8 10 11 11 12 12
REMARK SMILES IDX 13 13 19 14 15 15 17 16 14 17 16 19 18 21 9 23 1 25 5 27
REMARK H PARENT 14 18 16 20 18 22 9 24 1 26 5 28
REMARK Flexibility Score: inf
ROOT
ATOM      1  C   UNL     1      23.419  30.351  18.155  1.00  0.00     0.402 A 
ATOM      2  O   UNL     1      23.380  30.875  19.378  1.00  0.00    -0.202 OA
ATOM      3  C   UNL     1      22.600  31.900  19.708  1.00  0.00     0.368 A 
ATOM      4  C   UNL     1      22.631  32.383  21.019  1.00  0.00     0.162 A 
ATOM      5  C   UNL     1      21.825  33.459  21.393  1.00  0.00     0.128 A 
ATOM      6  C   UNL     1      20.983  34.059  20.450  1.00  0.00     0.093 A 
ATOM      7  C   UNL     1      20.934  33.594  19.131  1.00  0.00     0.136 A 
ATOM      8  C   UNL     1      21.749  32.498  18.747  1.00  0.00     0.125 A 
ATOM      9  C   UNL     1      21.757  31.957  17.451  1.00  0.00     0.078 A 
ATOM     10  C   UNL     1      22.584  30.872  17.149  1.00  0.00     0.223 A 
ENDROOT
BRANCH   1  11
ATOM     11  C   UNL     1      24.338  29.216  17.909  1.00  0.00     0.091 A 
ATOM     12  C   UNL     1      24.127  27.961  18.505  1.00  0.00     0.068 A 
ATOM     13  C   UNL     1      24.995  26.893  18.242  1.00  0.00     0.162 A 
ATOM     14  C   UNL     1      25.411  29.378  17.020  1.00  0.00     0.068 A 
ATOM     15  C   UNL     1      26.081  27.070  17.367  1.00  0.00     0.200 A 
ATOM     16  C   UNL     1      26.283  28.318  16.753  1.00  0.00     0.162 A 
BRANCH  13  17
ATOM     17  O   UNL     1      24.779  25.653  18.843  1.00  0.00    -0.504 OA
ATOM     18  H   UNL     1      24.292  25.569  19.727  1.00  0.00     0.293 HD
ENDBRANCH  13  17
BRANCH  15  19
ATOM     19  O   UNL     1      26.958  26.019  17.098  1.00  0.00    -0.502 OA
ATOM     20  H   UNL     1      27.665  25.724  17.761  1.00  0.00     0.293 HD
ENDBRANCH  15  19
BRANCH  16  21
ATOM     21  O   UNL     1      27.347  28.524  15.875  1.00  0.00    -0.504 OA
ATOM     22  H   UNL     1      28.146  29.094  16.121  1.00  0.00     0.293 HD
ENDBRANCH  16  21
ENDBRANCH   1  11
BRANCH  10  23
ATOM     23  O   UNL     1      22.555  30.303  15.875  1.00  0.00    -0.500 OA
ATOM     24  H   UNL     1      22.488  30.871  15.039  1.00  0.00     0.294 HD
ENDBRANCH  10  23
BRANCH   5  25
ATOM     25  O   UNL     1      21.870  33.926  22.705  1.00  0.00    -0.507 OA
ATOM     26  H   UNL     1      22.613  33.654  23.339  1.00  0.00     0.293 HD
ENDBRANCH   5  25
BRANCH   7  27
ATOM     27  O   UNL     1      20.070  34.249  18.249  1.00  0.00    -0.507 OA
ATOM     28  H   UNL     1      19.615  35.130  18.442  1.00  0.00     0.293 HD
ENDBRANCH   7  27
TORSDOF 7
ENDMDL
MODEL 3
REMARK VINA RESULT:    -6.073      0.332      1.817
REMARK INTER + INTRA:          -7.784
REMARK INTER:                  -7.467
REMARK INTRA:                  -0.317
REMARK UNBOUND:                -0.291
REMARK SMILES Oc1cc(O)c2cc(O)c(-c3cc(O)c(O)c(O)c3)[o+]c2c1
REMARK SMILES IDX 10 1 20 2 21 3 22 4 2 5 3 6 4 7 6 8 7 9 8 10 11 11 12 12
REMARK SMILES IDX 13 13 19 14 15 15 17 16 14 17 16 19 18 21 9 23 1 25 5 27
REMARK H PARENT 14 18 16 20 18 22 9 24 1 26 5 28
REMARK Flexibility Score: inf
ROOT
ATOM      1  C   UNL     1      20.756  33.434  31.170  1.00  0.00     0.402 A 
ATOM      2  O   UNL     1      21.501  34.189  31.975  1.00  0.00    -0.202 OA
ATOM      3  C   UNL     1      21.698  33.910  33.260  1.00  0.00     0.368 A 
ATOM      4  C   UNL     1      22.495  34.766  34.026  1.00  0.00     0.162 A 
ATOM      5  C   UNL     1      22.716  34.501  35.378  1.00  0.00     0.128 A 
ATOM      6  C   UNL     1      22.136  33.373  35.970  1.00  0.00     0.093 A 
ATOM      7  C   UNL     1      21.335  32.501  35.225  1.00  0.00     0.136 A 
ATOM      8  C   UNL     1      21.109  32.766  33.849  1.00  0.00     0.125 A 
ATOM      9  C   UNL     1      20.330  31.941  33.021  1.00  0.00     0.078 A 
ATOM     10  C   UNL     1      20.157  32.265  31.673  1.00  0.00     0.223 A 
ENDROOT
BRANCH   1  11
ATOM     11  C   UNL     1      20.604  33.855  29.759  1.00  0.00     0.091 A 
ATOM     12  C   UNL     1      21.643  33.684  28.828  1.00  0.00     0.068 A 
ATOM     13  C   UNL     1      21.472  34.069  27.491  1.00  0.00     0.162 A 
ATOM     14  C   UNL     1      19.379  34.386  29.325  1.00  0.00     0.068 A 
ATOM     15  C   UNL     1      20.249  34.620  27.071  1.00  0.00     0.200 A 
ATOM     16  C   UNL     1      19.201  34.773  27.993  1.00  0.00     0.162 A 
BRANCH  13  17
ATOM     17  O   UNL     1      22.511  33.899  26.577  1.00  0.00    -0.504 OA
ATOM     18  H   UNL     1      22.370  33.423  25.695  1.00  0.00     0.293 HD
ENDBRANCH  13  17
BRANCH  15  19
ATOM     19  O   UNL     1      20.063  35.012  25.745  1.00  0.00    -0.502 OA
ATOM     20  H   UNL     1      19.241  34.750  25.215  1.00  0.00     0.293 HD
ENDBRANCH  15  19
BRANCH  16  21
ATOM     21  O   UNL     1      17.973  35.310  27.606  1.00  0.00    -0.504 OA
ATOM     22  H   UNL     1      17.106  35.057  28.063  1.00  0.00     0.293 HD
ENDBRANCH  16  21
ENDBRANCH   1  11
BRANCH  10  23
ATOM     23  O   UNL     1      19.424  31.419  30.839  1.00  0.00    -0.500 OA
ATOM     24  H   UNL     1      19.518  31.452  29.831  1.00  0.00     0.294 HD
ENDBRANCH  10  23
BRANCH   5  25
ATOM     25  O   UNL     1      23.514  35.365  36.124  1.00  0.00    -0.507 OA
ATOM     26  H   UNL     1      23.559  36.357  35.918  1.00  0.00     0.293 HD
ENDBRANCH   5  25
BRANCH   7  27
ATOM     27  O   UNL     1      20.789  31.400  35.891  1.00  0.00    -0.507 OA
ATOM     28  H   UNL     1      20.262  30.665  35.442  1.00  0.00     0.293 HD
ENDBRANCH   7  27
TORSDOF 7
ENDMDL
MODEL 4
REMARK VINA RESULT:    -6.001     10.299     14.197
REMARK INTER + INTRA:          -7.695
REMARK INTER:                  -7.420
REMARK INTRA:                  -0.275
REMARK UNBOUND:                -0.291
REMARK SMILES Oc1cc(O)c2cc(O)c(-c3cc(O)c(O)c(O)c3)[o+]c2c1
REMARK SMILES IDX 10 1 20 2 21 3 22 4 2 5 3 6 4 7 6 8 7 9 8 10 11 11 12 12
REMARK SMILES IDX 13 13 19 14 15 15 17 16 14 17 16 19 18 21 9 23 1 25 5 27
REMARK H PARENT 14 18 16 20 18 22 9 24 1 26 5 28
REMARK Flexibility Score: inf
ROOT
ATOM      1  C   UNL     1      23.126  30.658  18.142  1.00  0.00     0.402 A 
ATOM      2  O   UNL     1      23.118  31.178  19.367  1.00  0.00    -0.202 OA
ATOM      3  C   UNL     1      22.354  32.207  19.719  1.00  0.00     0.368 A 
ATOM      4  C   UNL     1      22.419  32.684  21.030  1.00  0.00     0.162 A 
ATOM      5  C   UNL     1      21.631  33.765  21.427  1.00  0.00     0.128 A 
ATOM      6  C   UNL     1      20.772  34.376  20.506  1.00  0.00     0.093 A 
ATOM      7  C   UNL     1      20.690  33.918  19.186  1.00  0.00     0.136 A 
ATOM      8  C   UNL     1      21.488  32.816  18.780  1.00  0.00     0.125 A 
ATOM      9  C   UNL     1      21.462  32.281  17.482  1.00  0.00     0.078 A 
ATOM     10  C   UNL     1      22.273  31.191  17.157  1.00  0.00     0.223 A 
ENDROOT
BRANCH   1  11
ATOM     11  C   UNL     1      24.029  29.517  17.870  1.00  0.00     0.091 A 
ATOM     12  C   UNL     1      25.115  29.637  16.986  1.00  0.00     0.068 A 
ATOM     13  C   UNL     1      25.972  28.552  16.759  1.00  0.00     0.162 A 
ATOM     14  C   UNL     1      23.834  28.306  18.550  1.00  0.00     0.068 A 
ATOM     15  C   UNL     1      25.755  27.335  17.428  1.00  0.00     0.200 A 
ATOM     16  C   UNL     1      24.683  27.217  18.329  1.00  0.00     0.162 A 
BRANCH  13  17
ATOM     17  O   UNL     1      27.043  28.681  15.875  1.00  0.00    -0.504 OA
ATOM     18  H   UNL     1      26.929  29.100  14.960  1.00  0.00     0.293 HD
ENDBRANCH  13  17
BRANCH  15  19
ATOM     19  O   UNL     1      26.596  26.243  17.210  1.00  0.00    -0.502 OA
ATOM     20  H   UNL     1      27.475  26.330  16.714  1.00  0.00     0.293 HD
ENDBRANCH  15  19
BRANCH  16  21
ATOM     21  O   UNL     1      24.446  26.026  19.013  1.00  0.00    -0.504 OA
ATOM     22  H   UNL     1      24.860  25.148  18.727  1.00  0.00     0.293 HD
ENDBRANCH  16  21
ENDBRANCH   1  11
BRANCH  10  23
ATOM     23  O   UNL     1      22.211  30.628  15.881  1.00  0.00    -0.500 OA
ATOM     24  H   UNL     1      22.329  31.188  15.045  1.00  0.00     0.294 HD
ENDBRANCH  10  23
BRANCH   5  25
ATOM     25  O   UNL     1      21.708  34.225  22.740  1.00  0.00    -0.507 OA
ATOM     26  H   UNL     1      21.833  33.588  23.519  1.00  0.00     0.293 HD
ENDBRANCH   5  25
BRANCH   7  27
ATOM     27  O   UNL     1      19.812  34.584  18.327  1.00  0.00    -0.507 OA
ATOM     28  H   UNL     1      18.843  34.775  18.536  1.00  0.00     0.293 HD
ENDBRANCH   7  27
TORSDOF 7
ENDMDL
MODEL 5
REMARK VINA RESULT:    -5.801     15.127     18.310
REMARK INTER + INTRA:          -7.448
REMARK INTER:                  -7.618
REMARK INTRA:                   0.169
REMARK UNBOUND:                -0.291
REMARK SMILES Oc1cc(O)c2cc(O)c(-c3cc(O)c(O)c(O)c3)[o+]c2c1
REMARK SMILES IDX 10 1 20 2 21 3 22 4 2 5 3 6 4 7 6 8 7 9 8 10 11 11 12 12
REMARK SMILES IDX 13 13 19 14 15 15 17 16 14 17 16 19 18 21 9 23 1 25 5 27
REMARK H PARENT 14 18 16 20 18 22 9 24 1 26 5 28
REMARK Flexibility Score: inf
ROOT
ATOM      1  C   UNL     1      18.082  21.222  20.890  1.00  0.00     0.402 A 
ATOM      2  O   UNL     1      18.482  20.159  20.196  1.00  0.00    -0.202 OA
ATOM      3  C   UNL     1      18.593  20.153  18.871  1.00  0.00     0.368 A 
ATOM      4  C   UNL     1      19.019  18.986  18.231  1.00  0.00     0.162 A 
ATOM      5  C   UNL     1      19.141  18.949  16.841  1.00  0.00     0.128 A 
ATOM      6  C   UNL     1      18.833  20.085  16.085  1.00  0.00     0.093 A 
ATOM      7  C   UNL     1      18.404  21.265  16.702  1.00  0.00     0.136 A 
ATOM      8  C   UNL     1      18.282  21.308  18.115  1.00  0.00     0.125 A 
ATOM      9  C   UNL     1      17.871  22.451  18.821  1.00  0.00     0.078 A 
ATOM     10  C   UNL     1      17.779  22.418  20.215  1.00  0.00     0.223 A 
ENDROOT
BRANCH   1  11
ATOM     11  C   UNL     1      17.990  21.102  22.363  1.00  0.00     0.091 A 
ATOM     12  C   UNL     1      18.917  20.340  23.095  1.00  0.00     0.068 A 
ATOM     13  C   UNL     1      18.826  20.256  24.491  1.00  0.00     0.162 A 
ATOM     14  C   UNL     1      16.990  21.806  23.052  1.00  0.00     0.068 A 
ATOM     15  C   UNL     1      17.808  20.948  25.170  1.00  0.00     0.200 A 
ATOM     16  C   UNL     1      16.892  21.727  24.444  1.00  0.00     0.162 A 
BRANCH  13  17
ATOM     17  O   UNL     1      19.748  19.493  25.206  1.00  0.00    -0.504 OA
ATOM     18  H   UNL     1      19.720  19.437  26.217  1.00  0.00     0.293 HD
ENDBRANCH  13  17
BRANCH  15  19
ATOM     19  O   UNL     1      17.700  20.872  26.559  1.00  0.00    -0.502 OA
ATOM     20  H   UNL     1      17.632  21.698  27.141  1.00  0.00     0.293 HD
ENDBRANCH  15  19
BRANCH  16  21
ATOM     21  O   UNL     1      15.875  22.431  25.090  1.00  0.00    -0.504 OA
ATOM     22  H   UNL     1      14.896  22.243  24.916  1.00  0.00     0.293 HD
ENDBRANCH  16  21
ENDBRANCH   1  11
BRANCH  10  23
ATOM     23  O   UNL     1      17.419  23.568  20.920  1.00  0.00    -0.500 OA
ATOM     24  H   UNL     1      16.680  23.559  21.613  1.00  0.00     0.294 HD
ENDBRANCH  10  23
BRANCH   5  25
ATOM     25  O   UNL     1      19.568  17.776  16.222  1.00  0.00    -0.507 OA
ATOM     26  H   UNL     1      19.408  16.867  16.640  1.00  0.00     0.293 HD
ENDBRANCH   5  25
BRANCH   7  27
ATOM     27  O   UNL     1      18.113  22.355  15.877  1.00  0.00    -0.507 OA
ATOM     28  H   UNL     1      18.359  23.312  16.085  1.00  0.00     0.293 HD
ENDBRANCH   7  27
TORSDOF 7
ENDMDL
MODEL 6
REMARK VINA RESULT:    -5.567      1.889      3.027
REMARK INTER + INTRA:          -7.159
REMARK INTER:                  -7.459
REMARK INTRA:                   0.300
REMARK UNBOUND:                -0.291
REMARK SMILES Oc1cc(O)c2cc(O)c(-c3cc(O)c(O)c(O)c3)[o+]c2c1
REMARK SMILES IDX 10 1 20 2 21 3 22 4 2 5 3 6 4 7 6 8 7 9 8 10 11 11 12 12
REMARK SMILES IDX 13 13 19 14 15 15 17 16 14 17 16 19 18 21 9 23 1 25 5 27
REMARK H PARENT 14 18 16 20 18 22 9 24 1 26 5 28
REMARK Flexibility Score: inf
ROOT
ATOM      1  C   UNL     1      20.398  33.394  31.298  1.00  0.00     0.402 A 
ATOM      2  O   UNL     1      19.402  33.922  32.004  1.00  0.00    -0.202 OA
ATOM      3  C   UNL     1      19.197  33.654  33.291  1.00  0.00     0.368 A 
ATOM      4  C   UNL     1      18.121  34.257  33.947  1.00  0.00     0.162 A 
ATOM      5  C   UNL     1      17.879  33.992  35.296  1.00  0.00     0.128 A 
ATOM      6  C   UNL     1      18.719  33.117  35.994  1.00  0.00     0.093 A 
ATOM      7  C   UNL     1      19.803  32.501  35.359  1.00  0.00     0.136 A 
ATOM      8  C   UNL     1      20.054  32.770  33.989  1.00  0.00     0.125 A 
ATOM      9  C   UNL     1      21.124  32.208  33.273  1.00  0.00     0.078 A 
ATOM     10  C   UNL     1      21.309  32.525  31.925  1.00  0.00     0.223 A 
ENDROOT
BRANCH   1  11
ATOM     11  C   UNL     1      20.515  33.763  29.869  1.00  0.00     0.091 A 
ATOM     12  C   UNL     1      21.728  33.625  29.174  1.00  0.00     0.068 A 
ATOM     13  C   UNL     1      21.814  33.959  27.816  1.00  0.00     0.162 A 
ATOM     14  C   UNL     1      19.378  34.207  29.176  1.00  0.00     0.068 A 
ATOM     15  C   UNL     1      20.675  34.424  27.135  1.00  0.00     0.200 A 
ATOM     16  C   UNL     1      19.455  34.544  27.820  1.00  0.00     0.162 A 
BRANCH  13  17
ATOM     17  O   UNL     1      23.024  33.823  27.138  1.00  0.00    -0.504 OA
ATOM     18  H   UNL     1      23.879  34.240  27.488  1.00  0.00     0.293 HD
ENDBRANCH  13  17
BRANCH  15  19
ATOM     19  O   UNL     1      20.743  34.765  25.784  1.00  0.00    -0.502 OA
ATOM     20  H   UNL     1      20.746  34.066  25.051  1.00  0.00     0.293 HD
ENDBRANCH  15  19
BRANCH  16  21
ATOM     21  O   UNL     1      18.306  34.996  27.172  1.00  0.00    -0.504 OA
ATOM     22  H   UNL     1      18.348  35.580  26.346  1.00  0.00     0.293 HD
ENDBRANCH  16  21
ENDBRANCH   1  11
BRANCH  10  23
ATOM     23  O   UNL     1      22.401  32.005  31.228  1.00  0.00    -0.500 OA
ATOM     24  H   UNL     1      23.038  32.602  30.713  1.00  0.00     0.294 HD
ENDBRANCH  10  23
BRANCH   5  25
ATOM     25  O   UNL     1      16.801  34.603  35.933  1.00  0.00    -0.507 OA
ATOM     26  H   UNL     1      16.462  34.276  36.831  1.00  0.00     0.293 HD
ENDBRANCH   5  25
BRANCH   7  27
ATOM     27  O   UNL     1      20.593  31.637  36.125  1.00  0.00    -0.507 OA
ATOM     28  H   UNL     1      21.450  31.905  36.585  1.00  0.00     0.293 HD
ENDBRANCH   7  27
TORSDOF 7
ENDMDL
MODEL 7
REMARK VINA RESULT:    -5.560     14.579     17.817
REMARK INTER + INTRA:          -7.150
REMARK INTER:                  -7.297
REMARK INTRA:                   0.146
REMARK UNBOUND:                -0.291
REMARK SMILES Oc1cc(O)c2cc(O)c(-c3cc(O)c(O)c(O)c3)[o+]c2c1
REMARK SMILES IDX 10 1 20 2 21 3 22 4 2 5 3 6 4 7 6 8 7 9 8 10 11 11 12 12
REMARK SMILES IDX 13 13 19 14 15 15 17 16 14 17 16 19 18 21 9 23 1 25 5 27
REMARK H PARENT 14 18 16 20 18 22 9 24 1 26 5 28
REMARK Flexibility Score: inf
ROOT
ATOM      1  C   UNL     1      17.751  21.910  20.993  1.00  0.00     0.402 A 
ATOM      2  O   UNL     1      18.165  20.961  20.157  1.00  0.00    -0.202 OA
ATOM      3  C   UNL     1      18.194  21.113  18.837  1.00  0.00     0.368 A 
ATOM      4  C   UNL     1      18.643  20.056  18.041  1.00  0.00     0.162 A 
ATOM      5  C   UNL     1      18.681  20.185  16.652  1.00  0.00     0.128 A 
ATOM      6  C   UNL     1      18.267  21.381  16.053  1.00  0.00     0.093 A 
ATOM      7  C   UNL     1      17.813  22.454  16.828  1.00  0.00     0.136 A 
ATOM      8  C   UNL     1      17.775  22.326  18.241  1.00  0.00     0.125 A 
ATOM      9  C   UNL     1      17.347  23.354  19.098  1.00  0.00     0.078 A 
ATOM     10  C   UNL     1      17.343  23.156  20.481  1.00  0.00     0.223 A 
ENDROOT
BRANCH   1  11
ATOM     11  C   UNL     1      17.756  21.616  22.444  1.00  0.00     0.091 A 
ATOM     12  C   UNL     1      16.812  22.192  23.311  1.00  0.00     0.068 A 
ATOM     13  C   UNL     1      16.819  21.884  24.678  1.00  0.00     0.162 A 
ATOM     14  C   UNL     1      18.688  20.702  22.959  1.00  0.00     0.068 A 
ATOM     15  C   UNL     1      17.770  20.984  25.189  1.00  0.00     0.200 A 
ATOM     16  C   UNL     1      18.703  20.390  24.323  1.00  0.00     0.162 A 
BRANCH  13  17
ATOM     17  O   UNL     1      15.880  22.465  25.529  1.00  0.00    -0.504 OA
ATOM     18  H   UNL     1      15.203  21.906  26.034  1.00  0.00     0.293 HD
ENDBRANCH  13  17
BRANCH  15  19
ATOM     19  O   UNL     1      17.794  20.669  26.548  1.00  0.00    -0.502 OA
ATOM     20  H   UNL     1      18.279  19.855  26.905  1.00  0.00     0.293 HD
ENDBRANCH  15  19
BRANCH  16  21
ATOM     21  O   UNL     1      19.654  19.487  24.798  1.00  0.00    -0.504 OA
ATOM     22  H   UNL     1      20.559  19.787  25.136  1.00  0.00     0.293 HD
ENDBRANCH  16  21
ENDBRANCH   1  11
BRANCH  10  23
ATOM     23  O   UNL     1      16.965  24.193  21.335  1.00  0.00    -0.500 OA
ATOM     24  H   UNL     1      16.248  24.068  22.040  1.00  0.00     0.294 HD
ENDBRANCH  10  23
BRANCH   5  25
ATOM     25  O   UNL     1      19.132  19.120  15.875  1.00  0.00    -0.507 OA
ATOM     26  H   UNL     1      20.061  19.117  15.468  1.00  0.00     0.293 HD
ENDBRANCH   5  25
BRANCH   7  27
ATOM     27  O   UNL     1      17.414  23.612  16.154  1.00  0.00    -0.507 OA
ATOM     28  H   UNL     1      17.743  24.541  16.371  1.00  0.00     0.293 HD
ENDBRANCH   7  27
TORSDOF 7
ENDMDL
MODEL 8
REMARK VINA RESULT:    -4.770     14.807     17.923
REMARK INTER + INTRA:          -6.176
REMARK INTER:                  -6.219
REMARK INTRA:                   0.043
REMARK UNBOUND:                -0.291
REMARK SMILES Oc1cc(O)c2cc(O)c(-c3cc(O)c(O)c(O)c3)[o+]c2c1
REMARK SMILES IDX 10 1 20 2 21 3 22 4 2 5 3 6 4 7 6 8 7 9 8 10 11 11 12 12
REMARK SMILES IDX 13 13 19 14 15 15 17 16 14 17 16 19 18 21 9 23 1 25 5 27
REMARK H PARENT 14 18 16 20 18 22 9 24 1 26 5 28
REMARK Flexibility Score: inf
ROOT
ATOM      1  C   UNL     1      17.797  20.969  20.902  1.00  0.00     0.402 A 
ATOM      2  O   UNL     1      17.666  22.095  20.204  1.00  0.00    -0.202 OA
ATOM      3  C   UNL     1      17.675  22.135  18.875  1.00  0.00     0.368 A 
ATOM      4  C   UNL     1      17.534  23.367  18.232  1.00  0.00     0.162 A 
ATOM      5  C   UNL     1      17.542  23.441  16.839  1.00  0.00     0.128 A 
ATOM      6  C   UNL     1      17.695  22.274  16.081  1.00  0.00     0.093 A 
ATOM      7  C   UNL     1      17.839  21.028  16.701  1.00  0.00     0.136 A 
ATOM      8  C   UNL     1      17.827  20.949  18.118  1.00  0.00     0.125 A 
ATOM      9  C   UNL     1      17.952  19.742  18.826  1.00  0.00     0.078 A 
ATOM     10  C   UNL     1      17.927  19.743  20.223  1.00  0.00     0.223 A 
ENDROOT
BRANCH   1  11
ATOM     11  C   UNL     1      17.781  21.055  22.380  1.00  0.00     0.091 A 
ATOM     12  C   UNL     1      16.831  21.838  23.057  1.00  0.00     0.068 A 
ATOM     13  C   UNL     1      16.819  21.889  24.458  1.00  0.00     0.162 A 
ATOM     14  C   UNL     1      18.698  20.297  23.124  1.00  0.00     0.068 A 
ATOM     15  C   UNL     1      17.756  21.144  25.195  1.00  0.00     0.200 A 
ATOM     16  C   UNL     1      18.694  20.344  24.522  1.00  0.00     0.162 A 
BRANCH  13  17
ATOM     17  O   UNL     1      15.875  22.674  25.119  1.00  0.00    -0.504 OA
ATOM     18  H   UNL     1      15.122  23.132  24.621  1.00  0.00     0.293 HD
ENDBRANCH  13  17
BRANCH  15  19
ATOM     19  O   UNL     1      17.760  21.187  26.590  1.00  0.00    -0.502 OA
ATOM     20  H   UNL     1      18.618  21.268  27.124  1.00  0.00     0.293 HD
ENDBRANCH  15  19
BRANCH  16  21
ATOM     21  O   UNL     1      19.631  19.587  25.225  1.00  0.00    -0.504 OA
ATOM     22  H   UNL     1      20.624  19.648  25.036  1.00  0.00     0.293 HD
ENDBRANCH  16  21
ENDBRANCH   1  11
BRANCH  10  23
ATOM     23  O   UNL     1      18.001  18.539  20.925  1.00  0.00    -0.500 OA
ATOM     24  H   UNL     1      17.209  18.173  21.440  1.00  0.00     0.294 HD
ENDBRANCH  10  23
BRANCH   5  25
ATOM     25  O   UNL     1      17.400  24.679  16.216  1.00  0.00    -0.507 OA
ATOM     26  H   UNL     1      17.898  25.498  16.545  1.00  0.00     0.293 HD
ENDBRANCH   5  25
BRANCH   7  27
ATOM     27  O   UNL     1      17.989  19.910  15.875  1.00  0.00    -0.507 OA
ATOM     28  H   UNL     1      17.788  18.961  16.155  1.00  0.00     0.293 HD
ENDBRANCH   7  27
TORSDOF 7
ENDMDL
