MODEL 1
REMARK VINA RESULT:    -6.391      0.000      0.000
REMARK INTER + INTRA:          -7.948
REMARK INTER:                  -7.698
REMARK INTRA:                  -0.249
REMARK UNBOUND:                -0.249
REMARK SMILES O=c1c(O)c(-c2ccc(O)c(O)c2)oc2cc(O)cc(O)c12
REMARK SMILES IDX 5 1 3 2 2 3 1 4 22 5 20 6 19 7 17 8 16 9 15 10 14 11 6 12
REMARK SMILES IDX 7 13 8 14 9 15 13 16 11 17 10 18 12 20 4 22 21 24 18 26
REMARK H PARENT 10 19 12 21 4 23 21 25 18 27
REMARK Flexibility Score: inf
ROOT
ATOM      1  C   UNL     1     -22.088  -6.144  -7.339  1.00  0.00     0.180 A 
ATOM      2  C   UNL     1     -23.097  -5.861  -6.402  1.00  0.00     0.208 A 
ATOM      3  C   UNL     1     -23.426  -6.832  -5.443  1.00  0.00     0.238 A 
ATOM      4  O   UNL     1     -24.367  -6.593  -4.640  1.00  0.00    -0.285 OA
ATOM      5  C   UNL     1     -22.731  -8.065  -5.420  1.00  0.00     0.111 A 
ATOM      6  C   UNL     1     -22.955  -9.104  -4.467  1.00  0.00     0.134 A 
ATOM      7  C   UNL     1     -22.302 -10.333  -4.620  1.00  0.00     0.093 A 
ATOM      8  C   UNL     1     -21.387 -10.539  -5.652  1.00  0.00     0.123 A 
ATOM      9  C   UNL     1     -21.116  -9.510  -6.555  1.00  0.00     0.094 A 
ATOM     10  C   UNL     1     -21.779  -8.284  -6.449  1.00  0.00     0.146 A 
ATOM     11  O   UNL     1     -21.501  -7.335  -7.335  1.00  0.00    -0.452 OA
ENDROOT
BRANCH   1  12
ATOM     12  C   UNL     1     -21.668  -5.162  -8.366  1.00  0.00     0.025 A 
ATOM     13  C   UNL     1     -20.434  -4.495  -8.278  1.00  0.00     0.016 A 
ATOM     14  C   UNL     1     -20.049  -3.590  -9.270  1.00  0.00     0.051 A 
ATOM     15  C   UNL     1     -20.882  -3.350 -10.371  1.00  0.00     0.157 A 
ATOM     16  C   UNL     1     -22.491  -4.933  -9.481  1.00  0.00     0.062 A 
ATOM     17  C   UNL     1     -22.107  -4.028 -10.478  1.00  0.00     0.158 A 
BRANCH  15  18
ATOM     18  O   UNL     1     -20.495  -2.446 -11.359  1.00  0.00    -0.504 OA
ATOM     19  H   UNL     1     -21.045  -2.309 -12.198  1.00  0.00     0.293 HD
ENDBRANCH  15  18
BRANCH  17  20
ATOM     20  O   UNL     1     -22.957  -3.817 -11.564  1.00  0.00    -0.504 OA
ATOM     21  H   UNL     1     -22.751  -4.182 -12.485  1.00  0.00     0.293 HD
ENDBRANCH  17  20
ENDBRANCH   1  12
BRANCH   2  22
ATOM     22  O   UNL     1     -23.785  -4.646  -6.455  1.00  0.00    -0.502 OA
ATOM     23  H   UNL     1     -24.614  -4.465  -5.902  1.00  0.00     0.293 HD
ENDBRANCH   2  22
BRANCH   6  24
ATOM     24  O   UNL     1     -23.779  -8.970  -3.346  1.00  0.00    -0.507 OA
ATOM     25  H   UNL     1     -24.778  -9.101  -3.348  1.00  0.00     0.293 HD
ENDBRANCH   6  24
BRANCH   8  26
ATOM     26  O   UNL     1     -20.744 -11.770  -5.764  1.00  0.00    -0.508 OA
ATOM     27  H   UNL     1     -19.874 -11.960  -5.279  1.00  0.00     0.293 HD
ENDBRANCH   8  26
TORSDOF 6
ENDMDL
MODEL 2
REMARK VINA RESULT:    -6.290      1.499      6.574
REMARK INTER + INTRA:          -7.826
REMARK INTER:                  -7.517
REMARK INTRA:                  -0.309
REMARK UNBOUND:                -0.249
REMARK SMILES O=c1c(O)c(-c2ccc(O)c(O)c2)oc2cc(O)cc(O)c12
REMARK SMILES IDX 5 1 3 2 2 3 1 4 22 5 20 6 19 7 17 8 16 9 15 10 14 11 6 12
REMARK SMILES IDX 7 13 8 14 9 15 13 16 11 17 10 18 12 20 4 22 21 24 18 26
REMARK H PARENT 10 19 12 21 4 23 21 25 18 27
REMARK Flexibility Score: inf
ROOT
ATOM      1  C   UNL     1     -21.520  -7.843  -6.740  1.00  0.00     0.180 A 
ATOM      2  C   UNL     1     -22.197  -7.049  -5.799  1.00  0.00     0.208 A 
ATOM      3  C   UNL     1     -22.631  -5.768  -6.176  1.00  0.00     0.238 A 
ATOM      4  O   UNL     1     -23.190  -5.041  -5.313  1.00  0.00    -0.285 OA
ATOM      5  C   UNL     1     -22.398  -5.304  -7.493  1.00  0.00     0.111 A 
ATOM      6  C   UNL     1     -22.829  -4.039  -7.995  1.00  0.00     0.134 A 
ATOM      7  C   UNL     1     -22.429  -3.630  -9.272  1.00  0.00     0.093 A 
ATOM      8  C   UNL     1     -21.669  -4.465 -10.091  1.00  0.00     0.123 A 
ATOM      9  C   UNL     1     -21.291  -5.729  -9.632  1.00  0.00     0.094 A 
ATOM     10  C   UNL     1     -21.646  -6.150  -8.348  1.00  0.00     0.146 A 
ATOM     11  O   UNL     1     -21.257  -7.354  -7.946  1.00  0.00    -0.452 OA
ENDROOT
BRANCH   1  12
ATOM     12  C   UNL     1     -21.054  -9.214  -6.425  1.00  0.00     0.025 A 
ATOM     13  C   UNL     1     -19.738  -9.458  -5.997  1.00  0.00     0.016 A 
ATOM     14  C   UNL     1     -19.326 -10.755  -5.683  1.00  0.00     0.051 A 
ATOM     15  C   UNL     1     -20.227 -11.825  -5.778  1.00  0.00     0.157 A 
ATOM     16  C   UNL     1     -21.958 -10.286  -6.499  1.00  0.00     0.062 A 
ATOM     17  C   UNL     1     -21.550 -11.587  -6.185  1.00  0.00     0.158 A 
BRANCH  15  18
ATOM     18  O   UNL     1     -19.813 -13.119  -5.465  1.00  0.00    -0.504 OA
ATOM     19  H   UNL     1     -19.016 -13.291  -4.865  1.00  0.00     0.293 HD
ENDBRANCH  15  18
BRANCH  17  20
ATOM     20  O   UNL     1     -22.473 -12.629  -6.283  1.00  0.00    -0.504 OA
ATOM     21  H   UNL     1     -23.470 -12.461  -6.307  1.00  0.00     0.293 HD
ENDBRANCH  17  20
ENDBRANCH   1  12
BRANCH   2  22
ATOM     22  O   UNL     1     -22.399  -7.518  -4.498  1.00  0.00    -0.502 OA
ATOM     23  H   UNL     1     -22.949  -8.344  -4.296  1.00  0.00     0.293 HD
ENDBRANCH   2  22
BRANCH   6  24
ATOM     24  O   UNL     1     -23.668  -3.167  -7.295  1.00  0.00    -0.507 OA
ATOM     25  H   UNL     1     -23.351  -2.411  -6.708  1.00  0.00     0.293 HD
ENDBRANCH   6  24
BRANCH   8  26
ATOM     26  O   UNL     1     -21.302  -4.032 -11.363  1.00  0.00    -0.508 OA
ATOM     27  H   UNL     1     -21.922  -3.466 -11.930  1.00  0.00     0.293 HD
ENDBRANCH   8  26
TORSDOF 6
ENDMDL
MODEL 3
REMARK VINA RESULT:    -5.925      1.305      2.893
REMARK INTER + INTRA:          -7.387
REMARK INTER:                  -7.064
REMARK INTRA:                  -0.323
REMARK UNBOUND:                -0.249
REMARK SMILES O=c1c(O)c(-c2ccc(O)c(O)c2)oc2cc(O)cc(O)c12
REMARK SMILES IDX 5 1 3 2 2 3 1 4 22 5 20 6 19 7 17 8 16 9 15 10 14 11 6 12
REMARK SMILES IDX 7 13 8 14 9 15 13 16 11 17 10 18 12 20 4 22 21 24 18 26
REMARK H PARENT 10 19 12 21 4 23 21 25 18 27
REMARK Flexibility Score: inf
ROOT
ATOM      1  C   UNL     1     -21.657  -6.281  -7.351  1.00  0.00     0.180 A 
ATOM      2  C   UNL     1     -21.275  -7.624  -7.514  1.00  0.00     0.208 A 
ATOM      3  C   UNL     1     -21.599  -8.550  -6.510  1.00  0.00     0.238 A 
ATOM      4  O   UNL     1     -21.208  -9.740  -6.638  1.00  0.00    -0.285 OA
ATOM      5  C   UNL     1     -22.315  -8.127  -5.364  1.00  0.00     0.111 A 
ATOM      6  C   UNL     1     -22.731  -8.989  -4.305  1.00  0.00     0.134 A 
ATOM      7  C   UNL     1     -23.318  -8.439  -3.159  1.00  0.00     0.093 A 
ATOM      8  C   UNL     1     -23.564  -7.070  -3.061  1.00  0.00     0.123 A 
ATOM      9  C   UNL     1     -23.215  -6.225  -4.117  1.00  0.00     0.094 A 
ATOM     10  C   UNL     1     -22.595  -6.740  -5.258  1.00  0.00     0.146 A 
ATOM     11  O   UNL     1     -22.269  -5.902  -6.235  1.00  0.00    -0.452 OA
ENDROOT
BRANCH   1  12
ATOM     12  C   UNL     1     -21.373  -5.250  -8.376  1.00  0.00     0.025 A 
ATOM     13  C   UNL     1     -20.177  -4.513  -8.360  1.00  0.00     0.016 A 
ATOM     14  C   UNL     1     -19.920  -3.563  -9.351  1.00  0.00     0.051 A 
ATOM     15  C   UNL     1     -20.847  -3.344 -10.379  1.00  0.00     0.157 A 
ATOM     16  C   UNL     1     -22.290  -5.043  -9.420  1.00  0.00     0.062 A 
ATOM     17  C   UNL     1     -22.035  -4.091 -10.415  1.00  0.00     0.158 A 
BRANCH  15  18
ATOM     18  O   UNL     1     -20.588  -2.394 -11.366  1.00  0.00    -0.504 OA
ATOM     19  H   UNL     1     -20.148  -1.508 -11.147  1.00  0.00     0.293 HD
ENDBRANCH  15  18
BRANCH  17  20
ATOM     20  O   UNL     1     -22.975  -3.904 -11.428  1.00  0.00    -0.504 OA
ATOM     21  H   UNL     1     -23.964  -3.811 -11.233  1.00  0.00     0.293 HD
ENDBRANCH  17  20
ENDBRANCH   1  12
BRANCH   2  22
ATOM     22  O   UNL     1     -20.551  -8.016  -8.643  1.00  0.00    -0.502 OA
ATOM     23  H   UNL     1     -19.584  -7.754  -8.787  1.00  0.00     0.293 HD
ENDBRANCH   2  22
BRANCH   6  24
ATOM     24  O   UNL     1     -22.617 -10.381  -4.341  1.00  0.00    -0.507 OA
ATOM     25  H   UNL     1     -21.825 -10.884  -4.709  1.00  0.00     0.293 HD
ENDBRANCH   6  24
BRANCH   8  26
ATOM     26  O   UNL     1     -24.165  -6.560  -1.912  1.00  0.00    -0.508 OA
ATOM     27  H   UNL     1     -23.949  -5.630  -1.569  1.00  0.00     0.293 HD
ENDBRANCH   8  26
TORSDOF 6
ENDMDL
MODEL 4
REMARK VINA RESULT:    -5.748      1.747      7.051
REMARK INTER + INTRA:          -7.174
REMARK INTER:                  -6.875
REMARK INTRA:                  -0.298
REMARK UNBOUND:                -0.249
REMARK SMILES O=c1c(O)c(-c2ccc(O)c(O)c2)oc2cc(O)cc(O)c12
REMARK SMILES IDX 5 1 3 2 2 3 1 4 22 5 20 6 19 7 17 8 16 9 15 10 14 11 6 12
REMARK SMILES IDX 7 13 8 14 9 15 13 16 11 17 10 18 12 20 4 22 21 24 18 26
REMARK H PARENT 10 19 12 21 4 23 21 25 18 27
REMARK Flexibility Score: inf
ROOT
ATOM      1  C   UNL     1     -22.084  -5.919  -6.139  1.00  0.00     0.180 A 
ATOM      2  C   UNL     1     -20.731  -5.562  -6.001  1.00  0.00     0.208 A 
ATOM      3  C   UNL     1     -20.101  -4.867  -7.046  1.00  0.00     0.238 A 
ATOM      4  O   UNL     1     -18.876  -4.597  -6.939  1.00  0.00    -0.285 OA
ATOM      5  C   UNL     1     -20.834  -4.523  -8.207  1.00  0.00     0.111 A 
ATOM      6  C   UNL     1     -20.307  -3.784  -9.309  1.00  0.00     0.134 A 
ATOM      7  C   UNL     1     -21.083  -3.615 -10.462  1.00  0.00     0.093 A 
ATOM      8  C   UNL     1     -22.389  -4.100 -10.528  1.00  0.00     0.123 A 
ATOM      9  C   UNL     1     -22.936  -4.772  -9.433  1.00  0.00     0.094 A 
ATOM     10  C   UNL     1     -22.172  -4.988  -8.283  1.00  0.00     0.146 A 
ATOM     11  O   UNL     1     -22.726  -5.641  -7.268  1.00  0.00    -0.452 OA
ENDROOT
BRANCH   1  12
ATOM     12  C   UNL     1     -22.824  -6.631  -5.072  1.00  0.00     0.025 A 
ATOM     13  C   UNL     1     -23.690  -5.946  -4.202  1.00  0.00     0.016 A 
ATOM     14  C   UNL     1     -24.396  -6.642  -3.217  1.00  0.00     0.051 A 
ATOM     15  C   UNL     1     -24.259  -8.031  -3.096  1.00  0.00     0.157 A 
ATOM     16  C   UNL     1     -22.706  -8.026  -4.961  1.00  0.00     0.062 A 
ATOM     17  C   UNL     1     -23.412  -8.726  -3.975  1.00  0.00     0.158 A 
BRANCH  15  18
ATOM     18  O   UNL     1     -24.964  -8.722  -2.112  1.00  0.00    -0.504 OA
ATOM     19  H   UNL     1     -24.690  -8.684  -1.138  1.00  0.00     0.293 HD
ENDBRANCH  15  18
BRANCH  17  20
ATOM     20  O   UNL     1     -23.258 -10.110  -3.887  1.00  0.00    -0.504 OA
ATOM     21  H   UNL     1     -23.520 -10.627  -3.057  1.00  0.00     0.293 HD
ENDBRANCH  17  20
ENDBRANCH   1  12
BRANCH   2  22
ATOM     22  O   UNL     1     -20.020  -5.930  -4.856  1.00  0.00    -0.502 OA
ATOM     23  H   UNL     1     -20.210  -5.528  -3.946  1.00  0.00     0.293 HD
ENDBRANCH   2  22
BRANCH   6  24
ATOM     24  O   UNL     1     -19.047  -3.178  -9.311  1.00  0.00    -0.507 OA
ATOM     25  H   UNL     1     -18.170  -3.674  -9.309  1.00  0.00     0.293 HD
ENDBRANCH   6  24
BRANCH   8  26
ATOM     26  O   UNL     1     -23.139  -3.899 -11.685  1.00  0.00    -0.508 OA
ATOM     27  H   UNL     1     -23.911  -3.243 -11.709  1.00  0.00     0.293 HD
ENDBRANCH   8  26
TORSDOF 6
ENDMDL
MODEL 5
REMARK VINA RESULT:    -5.617      4.463      7.770
REMARK INTER + INTRA:          -7.016
REMARK INTER:                  -6.822
REMARK INTRA:                  -0.194
REMARK UNBOUND:                -0.249
REMARK SMILES O=c1c(O)c(-c2ccc(O)c(O)c2)oc2cc(O)cc(O)c12
REMARK SMILES IDX 5 1 3 2 2 3 1 4 22 5 20 6 19 7 17 8 16 9 15 10 14 11 6 12
REMARK SMILES IDX 7 13 8 14 9 15 13 16 11 17 10 18 12 20 4 22 21 24 18 26
REMARK H PARENT 10 19 12 21 4 23 21 25 18 27
REMARK Flexibility Score: inf
ROOT
ATOM      1  C   UNL     1     -21.573 -13.151  -6.028  1.00  0.00     0.180 A 
ATOM      2  C   UNL     1     -21.292 -14.074  -5.007  1.00  0.00     0.208 A 
ATOM      3  C   UNL     1     -21.706 -15.406  -5.160  1.00  0.00     0.238 A 
ATOM      4  O   UNL     1     -21.498 -16.216  -4.218  1.00  0.00    -0.285 OA
ATOM      5  C   UNL     1     -22.382 -15.804  -6.339  1.00  0.00     0.111 A 
ATOM      6  C   UNL     1     -22.811 -17.136  -6.617  1.00  0.00     0.134 A 
ATOM      7  C   UNL     1     -23.586 -17.388  -7.756  1.00  0.00     0.093 A 
ATOM      8  C   UNL     1     -23.891 -16.371  -8.659  1.00  0.00     0.123 A 
ATOM      9  C   UNL     1     -23.426 -15.075  -8.428  1.00  0.00     0.094 A 
ATOM     10  C   UNL     1     -22.681 -14.786  -7.281  1.00  0.00     0.146 A 
ATOM     11  O   UNL     1     -22.267 -13.539  -7.092  1.00  0.00    -0.452 OA
ENDROOT
BRANCH   1  12
ATOM     12  C   UNL     1     -21.147 -11.734  -5.951  1.00  0.00     0.025 A 
ATOM     13  C   UNL     1     -19.787 -11.379  -5.944  1.00  0.00     0.016 A 
ATOM     14  C   UNL     1     -19.409 -10.036  -5.894  1.00  0.00     0.051 A 
ATOM     15  C   UNL     1     -20.381  -9.027  -5.865  1.00  0.00     0.157 A 
ATOM     16  C   UNL     1     -22.118 -10.720  -5.942  1.00  0.00     0.062 A 
ATOM     17  C   UNL     1     -21.742  -9.372  -5.892  1.00  0.00     0.158 A 
BRANCH  15  18
ATOM     18  O   UNL     1     -20.000  -7.687  -5.813  1.00  0.00    -0.504 OA
ATOM     19  H   UNL     1     -20.067  -7.085  -6.625  1.00  0.00     0.293 HD
ENDBRANCH  15  18
BRANCH  17  20
ATOM     20  O   UNL     1     -22.735  -8.392  -5.871  1.00  0.00    -0.504 OA
ATOM     21  H   UNL     1     -23.359  -8.278  -5.083  1.00  0.00     0.293 HD
ENDBRANCH  17  20
ENDBRANCH   1  12
BRANCH   2  22
ATOM     22  O   UNL     1     -20.642 -13.656  -3.842  1.00  0.00    -0.502 OA
ATOM     23  H   UNL     1     -19.724 -13.994  -3.580  1.00  0.00     0.293 HD
ENDBRANCH   2  22
BRANCH   6  24
ATOM     24  O   UNL     1     -22.482 -18.242  -5.829  1.00  0.00    -0.507 OA
ATOM     25  H   UNL     1     -22.355 -18.219  -4.829  1.00  0.00     0.293 HD
ENDBRANCH   6  24
BRANCH   8  26
ATOM     26  O   UNL     1     -24.651 -16.661  -9.790  1.00  0.00    -0.508 OA
ATOM     27  H   UNL     1     -24.277 -17.214 -10.553  1.00  0.00     0.293 HD
ENDBRANCH   8  26
TORSDOF 6
ENDMDL
MODEL 6
REMARK VINA RESULT:    -5.589      2.271      6.975
REMARK INTER + INTRA:          -6.982
REMARK INTER:                  -6.667
REMARK INTRA:                  -0.315
REMARK UNBOUND:                -0.249
REMARK SMILES O=c1c(O)c(-c2ccc(O)c(O)c2)oc2cc(O)cc(O)c12
REMARK SMILES IDX 5 1 3 2 2 3 1 4 22 5 20 6 19 7 17 8 16 9 15 10 14 11 6 12
REMARK SMILES IDX 7 13 8 14 9 15 13 16 11 17 10 18 12 20 4 22 21 24 18 26
REMARK H PARENT 10 19 12 21 4 23 21 25 18 27
REMARK Flexibility Score: inf
ROOT
ATOM      1  C   UNL     1     -21.821  -9.998  -6.346  1.00  0.00     0.180 A 
ATOM      2  C   UNL     1     -22.535  -9.453  -5.264  1.00  0.00     0.208 A 
ATOM      3  C   UNL     1     -22.746  -8.066  -5.219  1.00  0.00     0.238 A 
ATOM      4  O   UNL     1     -23.339  -7.578  -4.221  1.00  0.00    -0.285 OA
ATOM      5  C   UNL     1     -22.257  -7.243  -6.262  1.00  0.00     0.111 A 
ATOM      6  C   UNL     1     -22.448  -5.831  -6.338  1.00  0.00     0.134 A 
ATOM      7  C   UNL     1     -21.808  -5.100  -7.346  1.00  0.00     0.093 A 
ATOM      8  C   UNL     1     -21.038  -5.737  -8.318  1.00  0.00     0.123 A 
ATOM      9  C   UNL     1     -20.892  -7.126  -8.288  1.00  0.00     0.094 A 
ATOM     10  C   UNL     1     -21.490  -7.877  -7.273  1.00  0.00     0.146 A 
ATOM     11  O   UNL     1     -21.318  -9.194  -7.274  1.00  0.00    -0.452 OA
ENDROOT
BRANCH   1  12
ATOM     12  C   UNL     1     -21.579 -11.454  -6.477  1.00  0.00     0.025 A 
ATOM     13  C   UNL     1     -20.495 -12.075  -5.835  1.00  0.00     0.016 A 
ATOM     14  C   UNL     1     -20.299 -13.454  -5.954  1.00  0.00     0.051 A 
ATOM     15  C   UNL     1     -21.192 -14.233  -6.703  1.00  0.00     0.157 A 
ATOM     16  C   UNL     1     -22.483 -12.242  -7.210  1.00  0.00     0.062 A 
ATOM     17  C   UNL     1     -22.290 -13.623  -7.331  1.00  0.00     0.158 A 
BRANCH  15  18
ATOM     18  O   UNL     1     -20.993 -15.608  -6.821  1.00  0.00    -0.504 OA
ATOM     19  H   UNL     1     -21.764 -16.262  -6.756  1.00  0.00     0.293 HD
ENDBRANCH  15  18
BRANCH  17  20
ATOM     20  O   UNL     1     -23.201 -14.371  -8.078  1.00  0.00    -0.504 OA
ATOM     21  H   UNL     1     -23.186 -14.378  -9.090  1.00  0.00     0.293 HD
ENDBRANCH  17  20
ENDBRANCH   1  12
BRANCH   2  22
ATOM     22  O   UNL     1     -22.991 -10.280  -4.235  1.00  0.00    -0.502 OA
ATOM     23  H   UNL     1     -23.245 -11.249  -4.386  1.00  0.00     0.293 HD
ENDBRANCH   2  22
BRANCH   6  24
ATOM     24  O   UNL     1     -23.273  -5.108  -5.471  1.00  0.00    -0.507 OA
ATOM     25  H   UNL     1     -24.243  -4.896  -5.644  1.00  0.00     0.293 HD
ENDBRANCH   6  24
BRANCH   8  26
ATOM     26  O   UNL     1     -20.428  -4.981  -9.317  1.00  0.00    -0.508 OA
ATOM     27  H   UNL     1     -19.510  -5.218  -9.675  1.00  0.00     0.293 HD
ENDBRANCH   8  26
TORSDOF 6
ENDMDL
MODEL 7
REMARK VINA RESULT:    -5.434      2.875      5.507
REMARK INTER + INTRA:          -6.796
REMARK INTER:                  -6.470
REMARK INTRA:                  -0.326
REMARK UNBOUND:                -0.249
REMARK SMILES O=c1c(O)c(-c2ccc(O)c(O)c2)oc2cc(O)cc(O)c12
REMARK SMILES IDX 5 1 3 2 2 3 1 4 22 5 20 6 19 7 17 8 16 9 15 10 14 11 6 12
REMARK SMILES IDX 7 13 8 14 9 15 13 16 11 17 10 18 12 20 4 22 21 24 18 26
REMARK H PARENT 10 19 12 21 4 23 21 25 18 27
REMARK Flexibility Score: inf
ROOT
ATOM      1  C   UNL     1     -21.708 -10.193  -5.827  1.00  0.00     0.180 A 
ATOM      2  C   UNL     1     -20.760 -10.580  -4.864  1.00  0.00     0.208 A 
ATOM      3  C   UNL     1     -20.361 -11.925  -4.803  1.00  0.00     0.238 A 
ATOM      4  O   UNL     1     -19.552 -12.275  -3.904  1.00  0.00    -0.285 OA
ATOM      5  C   UNL     1     -20.901 -12.862  -5.716  1.00  0.00     0.111 A 
ATOM      6  C   UNL     1     -20.538 -14.242  -5.771  1.00  0.00     0.134 A 
ATOM      7  C   UNL     1     -21.232 -15.105  -6.628  1.00  0.00     0.093 A 
ATOM      8  C   UNL     1     -22.230 -14.628  -7.477  1.00  0.00     0.123 A 
ATOM      9  C   UNL     1     -22.553 -13.270  -7.474  1.00  0.00     0.094 A 
ATOM     10  C   UNL     1     -21.902 -12.391  -6.605  1.00  0.00     0.146 A 
ATOM     11  O   UNL     1     -22.246 -11.108  -6.625  1.00  0.00    -0.452 OA
ENDROOT
BRANCH   1  12
ATOM     12  C   UNL     1     -22.161  -8.790  -5.969  1.00  0.00     0.025 A 
ATOM     13  C   UNL     1     -21.428  -7.859  -6.725  1.00  0.00     0.016 A 
ATOM     14  C   UNL     1     -21.886  -6.547  -6.865  1.00  0.00     0.051 A 
ATOM     15  C   UNL     1     -23.088  -6.149  -6.264  1.00  0.00     0.157 A 
ATOM     16  C   UNL     1     -23.375  -8.393  -5.385  1.00  0.00     0.062 A 
ATOM     17  C   UNL     1     -23.837  -7.078  -5.523  1.00  0.00     0.158 A 
BRANCH  15  18
ATOM     18  O   UNL     1     -23.542  -4.838  -6.404  1.00  0.00    -0.504 OA
ATOM     19  H   UNL     1     -22.967  -4.047  -6.141  1.00  0.00     0.293 HD
ENDBRANCH  15  18
BRANCH  17  20
ATOM     20  O   UNL     1     -25.041  -6.717  -4.918  1.00  0.00    -0.504 OA
ATOM     21  H   UNL     1     -25.645  -7.398  -4.476  1.00  0.00     0.293 HD
ENDBRANCH  17  20
ENDBRANCH   1  12
BRANCH   2  22
ATOM     22  O   UNL     1     -20.256  -9.643  -3.958  1.00  0.00    -0.502 OA
ATOM     23  H   UNL     1     -19.285  -9.634  -3.669  1.00  0.00     0.293 HD
ENDBRANCH   2  22
BRANCH   6  24
ATOM     24  O   UNL     1     -19.493 -14.803  -5.032  1.00  0.00    -0.507 OA
ATOM     25  H   UNL     1     -19.162 -15.750  -5.132  1.00  0.00     0.293 HD
ENDBRANCH   6  24
BRANCH   8  26
ATOM     26  O   UNL     1     -22.889 -15.513  -8.328  1.00  0.00    -0.508 OA
ATOM     27  H   UNL     1     -22.851 -15.407  -9.335  1.00  0.00     0.293 HD
ENDBRANCH   8  26
TORSDOF 6
ENDMDL
MODEL 8
REMARK VINA RESULT:    -5.397      6.897      9.270
REMARK INTER + INTRA:          -6.751
REMARK INTER:                  -6.458
REMARK INTRA:                  -0.292
REMARK UNBOUND:                -0.249
REMARK SMILES O=c1c(O)c(-c2ccc(O)c(O)c2)oc2cc(O)cc(O)c12
REMARK SMILES IDX 5 1 3 2 2 3 1 4 22 5 20 6 19 7 17 8 16 9 15 10 14 11 6 12
REMARK SMILES IDX 7 13 8 14 9 15 13 16 11 17 10 18 12 20 4 22 21 24 18 26
REMARK H PARENT 10 19 12 21 4 23 21 25 18 27
REMARK Flexibility Score: inf
ROOT
ATOM      1  C   UNL     1     -22.884 -13.538  -3.971  1.00  0.00     0.180 A 
ATOM      2  C   UNL     1     -22.617 -12.160  -4.056  1.00  0.00     0.208 A 
ATOM      3  C   UNL     1     -23.385 -11.270  -3.290  1.00  0.00     0.238 A 
ATOM      4  O   UNL     1     -23.177 -10.034  -3.411  1.00  0.00    -0.285 OA
ATOM      5  C   UNL     1     -24.398 -11.767  -2.435  1.00  0.00     0.111 A 
ATOM      6  C   UNL     1     -25.209 -10.958  -1.583  1.00  0.00     0.134 A 
ATOM      7  C   UNL     1     -26.268 -11.544  -0.879  1.00  0.00     0.093 A 
ATOM      8  C   UNL     1     -26.505 -12.916  -0.943  1.00  0.00     0.123 A 
ATOM      9  C   UNL     1     -25.680 -13.726  -1.727  1.00  0.00     0.094 A 
ATOM     10  C   UNL     1     -24.638 -13.165  -2.469  1.00  0.00     0.146 A 
ATOM     11  O   UNL     1     -23.884 -13.968  -3.211  1.00  0.00    -0.452 OA
ENDROOT
BRANCH   1  12
ATOM     12  C   UNL     1     -22.101 -14.541  -4.729  1.00  0.00     0.025 A 
ATOM     13  C   UNL     1     -20.813 -14.926  -4.318  1.00  0.00     0.016 A 
ATOM     14  C   UNL     1     -20.103 -15.891  -5.036  1.00  0.00     0.051 A 
ATOM     15  C   UNL     1     -20.673 -16.496  -6.164  1.00  0.00     0.157 A 
ATOM     16  C   UNL     1     -22.677 -15.165  -5.848  1.00  0.00     0.062 A 
ATOM     17  C   UNL     1     -21.968 -16.133  -6.569  1.00  0.00     0.158 A 
BRANCH  15  18
ATOM     18  O   UNL     1     -19.961 -17.459  -6.879  1.00  0.00    -0.504 OA
ATOM     19  H   UNL     1     -18.957 -17.396  -6.997  1.00  0.00     0.293 HD
ENDBRANCH  15  18
BRANCH  17  20
ATOM     20  O   UNL     1     -22.567 -16.721  -7.683  1.00  0.00    -0.504 OA
ATOM     21  H   UNL     1     -22.202 -17.565  -8.106  1.00  0.00     0.293 HD
ENDBRANCH  17  20
ENDBRANCH   1  12
BRANCH   2  22
ATOM     22  O   UNL     1     -21.627 -11.689  -4.922  1.00  0.00    -0.502 OA
ATOM     23  H   UNL     1     -20.653 -11.953  -4.831  1.00  0.00     0.293 HD
ENDBRANCH   2  22
BRANCH   6  24
ATOM     24  O   UNL     1     -25.000  -9.592  -1.374  1.00  0.00    -0.507 OA
ATOM     25  H   UNL     1     -25.732  -8.913  -1.235  1.00  0.00     0.293 HD
ENDBRANCH   6  24
BRANCH   8  26
ATOM     26  O   UNL     1     -27.558 -13.467  -0.217  1.00  0.00    -0.508 OA
ATOM     27  H   UNL     1     -28.520 -13.207  -0.398  1.00  0.00     0.293 HD
ENDBRANCH   8  26
TORSDOF 6
ENDMDL
MODEL 9
REMARK VINA RESULT:    -5.392      8.588     12.727
REMARK INTER + INTRA:          -6.745
REMARK INTER:                  -6.446
REMARK INTRA:                  -0.299
REMARK UNBOUND:                -0.249
REMARK SMILES O=c1c(O)c(-c2ccc(O)c(O)c2)oc2cc(O)cc(O)c12
REMARK SMILES IDX 5 1 3 2 2 3 1 4 22 5 20 6 19 7 17 8 16 9 15 10 14 11 6 12
REMARK SMILES IDX 7 13 8 14 9 15 13 16 11 17 10 18 12 20 4 22 21 24 18 26
REMARK H PARENT 10 19 12 21 4 23 21 25 18 27
REMARK Flexibility Score: inf
ROOT
ATOM      1  C   UNL     1     -21.500 -17.387  -4.908  1.00  0.00     0.180 A 
ATOM      2  C   UNL     1     -21.107 -16.039  -4.856  1.00  0.00     0.208 A 
ATOM      3  C   UNL     1     -21.565 -15.157  -5.848  1.00  0.00     0.238 A 
ATOM      4  O   UNL     1     -21.166 -13.963  -5.826  1.00  0.00    -0.285 OA
ATOM      5  C   UNL     1     -22.424 -15.630  -6.869  1.00  0.00     0.111 A 
ATOM      6  C   UNL     1     -22.980 -14.816  -7.901  1.00  0.00     0.134 A 
ATOM      7  C   UNL     1     -23.711 -15.415  -8.935  1.00  0.00     0.093 A 
ATOM      8  C   UNL     1     -23.961 -16.787  -8.939  1.00  0.00     0.123 A 
ATOM      9  C   UNL     1     -23.472 -17.584  -7.902  1.00  0.00     0.094 A 
ATOM     10  C   UNL     1     -22.709 -17.020  -6.876  1.00  0.00     0.146 A 
ATOM     11  O   UNL     1     -22.252 -17.814  -5.916  1.00  0.00    -0.452 OA
ENDROOT
BRANCH   1  12
ATOM     12  C   UNL     1     -21.079 -18.372  -3.885  1.00  0.00     0.025 A 
ATOM     13  C   UNL     1     -19.813 -18.980  -3.934  1.00  0.00     0.016 A 
ATOM     14  C   UNL     1     -19.427 -19.889  -2.945  1.00  0.00     0.051 A 
ATOM     15  C   UNL     1     -20.294 -20.191  -1.886  1.00  0.00     0.157 A 
ATOM     16  C   UNL     1     -21.935 -18.662  -2.810  1.00  0.00     0.062 A 
ATOM     17  C   UNL     1     -21.552 -19.571  -1.817  1.00  0.00     0.158 A 
BRANCH  15  18
ATOM     18  O   UNL     1     -19.907 -21.099  -0.901  1.00  0.00    -0.504 OA
ATOM     19  H   UNL     1     -20.575 -21.489  -0.247  1.00  0.00     0.293 HD
ENDBRANCH  15  18
BRANCH  17  20
ATOM     20  O   UNL     1     -22.435 -19.845  -0.773  1.00  0.00    -0.504 OA
ATOM     21  H   UNL     1     -22.114 -20.159   0.134  1.00  0.00     0.293 HD
ENDBRANCH  17  20
ENDBRANCH   1  12
BRANCH   2  22
ATOM     22  O   UNL     1     -20.241 -15.597  -3.852  1.00  0.00    -0.502 OA
ATOM     23  H   UNL     1     -20.317 -14.678  -3.433  1.00  0.00     0.293 HD
ENDBRANCH   2  22
BRANCH   6  24
ATOM     24  O   UNL     1     -22.869 -13.423  -7.942  1.00  0.00    -0.507 OA
ATOM     25  H   UNL     1     -22.708 -12.835  -7.139  1.00  0.00     0.293 HD
ENDBRANCH   6  24
BRANCH   8  26
ATOM     26  O   UNL     1     -24.706 -17.347  -9.974  1.00  0.00    -0.508 OA
ATOM     27  H   UNL     1     -24.274 -17.927 -10.684  1.00  0.00     0.293 HD
ENDBRANCH   8  26
TORSDOF 6
ENDMDL
