MODEL 1
REMARK VINA RESULT:    -6.883      0.000      0.000
REMARK INTER + INTRA:          -8.729
REMARK INTER:                  -8.090
REMARK INTRA:                  -0.639
REMARK UNBOUND:                -0.639
REMARK SMILES CCCC[C@@H]1OC(=O)C2=C1CCC=C2
REMARK SMILES IDX 3 1 2 2 1 3 4 4 5 5 10 6 6 7 9 8 11 9 7 10 14 11 12 12 8 13
REMARK SMILES IDX 13 14
REMARK H PARENT
REMARK Flexibility Score: inf
ROOT
ATOM      1  C   UNL     1      30.689  39.538  28.097  1.00  0.00     0.004 C 
ENDROOT
BRANCH   1   2
ATOM      2  C   UNL     1      30.023  38.981  29.367  1.00  0.00    -0.003 C 
ATOM      3  C   UNL     1      28.506  38.854  29.240  1.00  0.00     0.004 C 
ENDBRANCH   1   2
BRANCH   1   4
ATOM      4  C   UNL     1      31.674  38.579  27.396  1.00  0.00     0.050 C 
BRANCH   4   5
ATOM      5  C   UNL     1      31.132  37.882  26.133  1.00  0.00     0.204 C 
ATOM      6  C   UNL     1      30.045  36.868  26.423  1.00  0.00    -0.015 C 
ATOM      7  O   UNL     1      30.454  38.849  25.324  1.00  0.00    -0.454 OA
ATOM      8  C   UNL     1      28.902  37.233  25.864  1.00  0.00     0.062 C 
ATOM      9  C   UNL     1      30.153  35.580  27.196  1.00  0.00     0.040 C 
ATOM     10  C   UNL     1      29.130  38.474  25.173  1.00  0.00     0.338 C 
ATOM     11  C   UNL     1      27.695  36.397  25.897  1.00  0.00     0.011 C 
ATOM     12  C   UNL     1      29.145  34.534  26.670  1.00  0.00     0.032 C 
ATOM     13  O   UNL     1      28.280  39.122  24.511  1.00  0.00    -0.246 OA
ATOM     14  C   UNL     1      27.793  35.141  26.349  1.00  0.00    -0.026 C 
ENDBRANCH   4   5
ENDBRANCH   1   4
TORSDOF 3
ENDMDL
MODEL 2
REMARK VINA RESULT:    -6.836      1.875      3.682
REMARK INTER + INTRA:          -8.674
REMARK INTER:                  -8.031
REMARK INTRA:                  -0.643
REMARK UNBOUND:                -0.639
REMARK SMILES CCCC[C@@H]1OC(=O)C2=C1CCC=C2
REMARK SMILES IDX 3 1 2 2 1 3 4 4 5 5 10 6 6 7 9 8 11 9 7 10 14 11 12 12 8 13
REMARK SMILES IDX 13 14
REMARK H PARENT
REMARK Flexibility Score: inf
ROOT
ATOM      1  C   UNL     1      30.426  37.829  24.464  1.00  0.00     0.004 C 
ENDROOT
BRANCH   1   2
ATOM      2  C   UNL     1      29.762  39.215  24.388  1.00  0.00    -0.003 C 
ATOM      3  C   UNL     1      28.264  39.177  24.684  1.00  0.00     0.004 C 
ENDBRANCH   1   2
BRANCH   1   4
ATOM      4  C   UNL     1      31.464  37.657  25.592  1.00  0.00     0.050 C 
BRANCH   4   5
ATOM      5  C   UNL     1      30.967  36.901  26.839  1.00  0.00     0.204 C 
ATOM      6  C   UNL     1      30.058  37.729  27.724  1.00  0.00    -0.015 C 
ATOM      7  O   UNL     1      30.111  35.831  26.423  1.00  0.00    -0.454 OA
ATOM      8  C   UNL     1      28.846  37.199  27.778  1.00  0.00     0.062 C 
ATOM      9  C   UNL     1      30.397  38.973  28.503  1.00  0.00     0.040 C 
ATOM     10  C   UNL     1      28.852  36.011  26.967  1.00  0.00     0.338 C 
ATOM     11  C   UNL     1      27.780  37.734  28.635  1.00  0.00     0.011 C 
ATOM     12  C   UNL     1      29.528  39.080  29.777  1.00  0.00     0.032 C 
ATOM     13  O   UNL     1      27.881  35.232  26.785  1.00  0.00    -0.246 OA
ATOM     14  C   UNL     1      28.086  38.679  29.532  1.00  0.00    -0.026 C 
ENDBRANCH   4   5
ENDBRANCH   1   4
TORSDOF 3
ENDMDL
MODEL 3
REMARK VINA RESULT:    -6.612      1.899      3.661
REMARK INTER + INTRA:          -8.411
REMARK INTER:                  -7.769
REMARK INTRA:                  -0.642
REMARK UNBOUND:                -0.639
REMARK SMILES CCCC[C@@H]1OC(=O)C2=C1CCC=C2
REMARK SMILES IDX 3 1 2 2 1 3 4 4 5 5 10 6 6 7 9 8 11 9 7 10 14 11 12 12 8 13
REMARK SMILES IDX 13 14
REMARK H PARENT
REMARK Flexibility Score: inf
ROOT
ATOM      1  C   UNL     1      30.478  35.530  27.761  1.00  0.00     0.004 C 
ENDROOT
BRANCH   1   2
ATOM      2  C   UNL     1      29.742  34.790  26.630  1.00  0.00    -0.003 C 
ATOM      3  C   UNL     1      28.234  35.028  26.643  1.00  0.00     0.004 C 
ENDBRANCH   1   2
BRANCH   1   4
ATOM      4  C   UNL     1      31.473  36.615  27.298  1.00  0.00     0.050 C 
BRANCH   4   5
ATOM      5  C   UNL     1      30.945  38.062  27.348  1.00  0.00     0.204 C 
ATOM      6  C   UNL     1      29.990  38.394  26.220  1.00  0.00    -0.015 C 
ATOM      7  O   UNL     1      30.123  38.216  28.511  1.00  0.00    -0.454 OA
ATOM      8  C   UNL     1      28.787  38.678  26.692  1.00  0.00     0.062 C 
ATOM      9  C   UNL     1      30.279  38.456  24.743  1.00  0.00     0.040 C 
ATOM     10  C   UNL     1      28.842  38.570  28.125  1.00  0.00     0.338 C 
ATOM     11  C   UNL     1      27.681  39.130  25.837  1.00  0.00     0.011 C 
ATOM     12  C   UNL     1      29.363  39.487  24.044  1.00  0.00     0.032 C 
ATOM     13  O   UNL     1      27.893  38.779  28.923  1.00  0.00    -0.246 OA
ATOM     14  C   UNL     1      27.938  39.442  24.561  1.00  0.00    -0.026 C 
ENDBRANCH   4   5
ENDBRANCH   1   4
TORSDOF 3
ENDMDL
MODEL 4
REMARK VINA RESULT:    -6.500      1.954      3.810
REMARK INTER + INTRA:          -8.279
REMARK INTER:                  -7.648
REMARK INTRA:                  -0.630
REMARK UNBOUND:                -0.639
REMARK SMILES CCCC[C@@H]1OC(=O)C2=C1CCC=C2
REMARK SMILES IDX 3 1 2 2 1 3 4 4 5 5 10 6 6 7 9 8 11 9 7 10 14 11 12 12 8 13
REMARK SMILES IDX 13 14
REMARK H PARENT
REMARK Flexibility Score: inf
ROOT
ATOM      1  C   UNL     1      27.753  37.580  29.292  1.00  0.00     0.004 C 
ENDROOT
BRANCH   1   2
ATOM      2  C   UNL     1      28.366  38.985  29.427  1.00  0.00    -0.003 C 
ATOM      3  C   UNL     1      29.876  39.002  29.196  1.00  0.00     0.004 C 
ENDBRANCH   1   2
BRANCH   1   4
ATOM      4  C   UNL     1      26.720  37.418  28.157  1.00  0.00     0.050 C 
BRANCH   4   5
ATOM      5  C   UNL     1      27.273  36.850  26.835  1.00  0.00     0.204 C 
ATOM      6  C   UNL     1      28.118  37.840  26.060  1.00  0.00    -0.015 C 
ATOM      7  O   UNL     1      28.205  35.806  27.133  1.00  0.00    -0.454 OA
ATOM      8  C   UNL     1      29.365  37.412  25.957  1.00  0.00     0.062 C 
ATOM      9  C   UNL     1      27.687  39.138  25.427  1.00  0.00     0.040 C 
ATOM     10  C   UNL     1      29.448  36.141  26.624  1.00  0.00     0.338 C 
ATOM     11  C   UNL     1      30.389  38.119  25.177  1.00  0.00     0.011 C 
ATOM     12  C   UNL     1      28.546  39.455  24.182  1.00  0.00     0.032 C 
ATOM     13  O   UNL     1      30.474  35.420  26.724  1.00  0.00    -0.246 OA
ATOM     14  C   UNL     1      30.014  39.137  24.392  1.00  0.00    -0.026 C 
ENDBRANCH   4   5
ENDBRANCH   1   4
TORSDOF 3
ENDMDL
MODEL 5
REMARK VINA RESULT:    -6.381      1.094      4.155
REMARK INTER + INTRA:          -8.139
REMARK INTER:                  -7.498
REMARK INTRA:                  -0.641
REMARK UNBOUND:                -0.639
REMARK SMILES CCCC[C@@H]1OC(=O)C2=C1CCC=C2
REMARK SMILES IDX 3 1 2 2 1 3 4 4 5 5 10 6 6 7 9 8 11 9 7 10 14 11 12 12 8 13
REMARK SMILES IDX 13 14
REMARK H PARENT
REMARK Flexibility Score: inf
ROOT
ATOM      1  C   UNL     1      27.499  35.633  25.585  1.00  0.00     0.004 C 
ENDROOT
BRANCH   1   2
ATOM      2  C   UNL     1      28.171  34.752  26.653  1.00  0.00    -0.003 C 
ATOM      3  C   UNL     1      29.690  34.901  26.682  1.00  0.00     0.004 C 
ENDBRANCH   1   2
BRANCH   1   4
ATOM      4  C   UNL     1      26.638  36.791  26.132  1.00  0.00     0.050 C 
BRANCH   4   5
ATOM      5  C   UNL     1      27.329  38.168  26.171  1.00  0.00     0.204 C 
ATOM      6  C   UNL     1      28.288  38.328  27.332  1.00  0.00    -0.015 C 
ATOM      7  O   UNL     1      28.189  38.287  25.034  1.00  0.00    -0.454 OA
ATOM      8  C   UNL     1      29.527  38.496  26.898  1.00  0.00     0.062 C 
ATOM      9  C   UNL     1      27.974  38.344  28.805  1.00  0.00     0.040 C 
ATOM     10  C   UNL     1      29.493  38.471  25.460  1.00  0.00     0.338 C 
ATOM     11  C   UNL     1      30.656  38.773  27.795  1.00  0.00     0.011 C 
ATOM     12  C   UNL     1      28.984  39.225  29.575  1.00  0.00     0.032 C 
ATOM     13  O   UNL     1      30.478  38.611  24.691  1.00  0.00    -0.246 OA
ATOM     14  C   UNL     1      30.406  39.045  29.082  1.00  0.00    -0.026 C 
ENDBRANCH   4   5
ENDBRANCH   1   4
TORSDOF 3
ENDMDL
MODEL 6
REMARK VINA RESULT:    -6.275      1.813      3.603
REMARK INTER + INTRA:          -8.015
REMARK INTER:                  -7.624
REMARK INTRA:                  -0.390
REMARK UNBOUND:                -0.639
REMARK SMILES CCCC[C@@H]1OC(=O)C2=C1CCC=C2
REMARK SMILES IDX 3 1 2 2 1 3 4 4 5 5 10 6 6 7 9 8 11 9 7 10 14 11 12 12 8 13
REMARK SMILES IDX 13 14
REMARK H PARENT
REMARK Flexibility Score: inf
ROOT
ATOM      1  C   UNL     1      27.893  38.843  24.760  1.00  0.00     0.004 C 
ENDROOT
BRANCH   1   2
ATOM      2  C   UNL     1      29.259  39.439  24.376  1.00  0.00    -0.003 C 
ATOM      3  C   UNL     1      30.384  38.405  24.375  1.00  0.00     0.004 C 
ENDBRANCH   1   2
BRANCH   1   4
ATOM      4  C   UNL     1      27.314  39.334  26.103  1.00  0.00     0.050 C 
BRANCH   4   5
ATOM      5  C   UNL     1      27.627  38.447  27.323  1.00  0.00     0.204 C 
ATOM      6  C   UNL     1      28.263  37.122  26.957  1.00  0.00    -0.015 C 
ATOM      7  O   UNL     1      28.645  39.078  28.106  1.00  0.00    -0.454 OA
ATOM      8  C   UNL     1      29.485  37.034  27.456  1.00  0.00     0.062 C 
ATOM      9  C   UNL     1      27.662  35.985  26.172  1.00  0.00     0.040 C 
ATOM     10  C   UNL     1      29.751  38.249  28.178  1.00  0.00     0.338 C 
ATOM     11  C   UNL     1      30.307  35.823  27.344  1.00  0.00     0.011 C 
ATOM     12  C   UNL     1      28.250  34.630  26.626  1.00  0.00     0.032 C 
ATOM     13  O   UNL     1      30.808  38.527  28.801  1.00  0.00    -0.246 OA
ATOM     14  C   UNL     1      29.743  34.700  26.879  1.00  0.00    -0.026 C 
ENDBRANCH   4   5
ENDBRANCH   1   4
TORSDOF 3
ENDMDL
MODEL 7
REMARK VINA RESULT:    -6.060      1.421      2.047
REMARK INTER + INTRA:          -7.762
REMARK INTER:                  -7.279
REMARK INTRA:                  -0.484
REMARK UNBOUND:                -0.639
REMARK SMILES CCCC[C@@H]1OC(=O)C2=C1CCC=C2
REMARK SMILES IDX 3 1 2 2 1 3 4 4 5 5 10 6 6 7 9 8 11 9 7 10 14 11 12 12 8 13
REMARK SMILES IDX 13 14
REMARK H PARENT
REMARK Flexibility Score: inf
ROOT
ATOM      1  C   UNL     1      31.986  38.716  27.339  1.00  0.00     0.004 C 
ENDROOT
BRANCH   1   2
ATOM      2  C   UNL     1      31.191  39.812  28.073  1.00  0.00    -0.003 C 
ATOM      3  C   UNL     1      30.316  39.263  29.198  1.00  0.00     0.004 C 
ENDBRANCH   1   2
BRANCH   1   4
ATOM      4  C   UNL     1      31.356  37.308  27.379  1.00  0.00     0.050 C 
BRANCH   4   5
ATOM      5  C   UNL     1      30.320  37.016  26.276  1.00  0.00     0.204 C 
ATOM      6  C   UNL     1      28.911  37.433  26.647  1.00  0.00    -0.015 C 
ATOM      7  O   UNL     1      30.604  37.842  25.142  1.00  0.00    -0.454 OA
ATOM      8  C   UNL     1      28.474  38.382  25.835  1.00  0.00     0.062 C 
ATOM      9  C   UNL     1      28.034  36.883  27.741  1.00  0.00     0.040 C 
ATOM     10  C   UNL     1      29.518  38.660  24.885  1.00  0.00     0.338 C 
ATOM     11  C   UNL     1      27.107  38.915  25.895  1.00  0.00     0.011 C 
ATOM     12  C   UNL     1      26.541  36.988  27.357  1.00  0.00     0.032 C 
ATOM     13  O   UNL     1      29.465  39.497  23.947  1.00  0.00    -0.246 OA
ATOM     14  C   UNL     1      26.208  38.300  26.674  1.00  0.00    -0.026 C 
ENDBRANCH   4   5
ENDBRANCH   1   4
TORSDOF 3
ENDMDL
MODEL 8
REMARK VINA RESULT:    -5.902      2.187      4.240
REMARK INTER + INTRA:          -7.576
REMARK INTER:                  -7.268
REMARK INTRA:                  -0.308
REMARK UNBOUND:                -0.639
REMARK SMILES CCCC[C@@H]1OC(=O)C2=C1CCC=C2
REMARK SMILES IDX 3 1 2 2 1 3 4 4 5 5 10 6 6 7 9 8 11 9 7 10 14 11 12 12 8 13
REMARK SMILES IDX 13 14
REMARK H PARENT
REMARK Flexibility Score: inf
ROOT
ATOM      1  C   UNL     1      26.343  37.781  26.360  1.00  0.00     0.004 C 
ENDROOT
BRANCH   1   2
ATOM      2  C   UNL     1      26.929  39.153  25.983  1.00  0.00    -0.003 C 
ATOM      3  C   UNL     1      27.872  39.091  24.783  1.00  0.00     0.004 C 
ENDBRANCH   1   2
BRANCH   1   4
ATOM      4  C   UNL     1      27.345  36.608  26.333  1.00  0.00     0.050 C 
BRANCH   4   5
ATOM      5  C   UNL     1      28.358  36.576  27.493  1.00  0.00     0.204 C 
ATOM      6  C   UNL     1      29.616  37.374  27.219  1.00  0.00    -0.015 C 
ATOM      7  O   UNL     1      27.794  37.255  28.620  1.00  0.00    -0.454 OA
ATOM      8  C   UNL     1      29.728  38.381  28.070  1.00  0.00     0.062 C 
ATOM      9  C   UNL     1      30.670  37.122  26.173  1.00  0.00     0.040 C 
ATOM     10  C   UNL     1      28.596  38.331  28.957  1.00  0.00     0.338 C 
ATOM     11  C   UNL     1      30.896  39.270  28.105  1.00  0.00     0.011 C 
ATOM     12  C   UNL     1      32.053  37.620  26.652  1.00  0.00     0.032 C 
ATOM     13  O   UNL     1      28.364  39.120  29.909  1.00  0.00    -0.246 OA
ATOM     14  C   UNL     1      31.972  38.951  27.375  1.00  0.00    -0.026 C 
ENDBRANCH   4   5
ENDBRANCH   1   4
TORSDOF 3
ENDMDL
MODEL 9
REMARK VINA RESULT:    -5.828      1.537      3.730
REMARK INTER + INTRA:          -7.489
REMARK INTER:                  -7.080
REMARK INTRA:                  -0.409
REMARK UNBOUND:                -0.639
REMARK SMILES CCCC[C@@H]1OC(=O)C2=C1CCC=C2
REMARK SMILES IDX 3 1 2 2 1 3 4 4 5 5 10 6 6 7 9 8 11 9 7 10 14 11 12 12 8 13
REMARK SMILES IDX 13 14
REMARK H PARENT
REMARK Flexibility Score: inf
ROOT
ATOM      1  C   UNL     1      26.242  36.930  26.322  1.00  0.00     0.004 C 
ENDROOT
BRANCH   1   2
ATOM      2  C   UNL     1      27.126  35.870  25.641  1.00  0.00    -0.003 C 
ATOM      3  C   UNL     1      27.881  34.992  26.637  1.00  0.00     0.004 C 
ENDBRANCH   1   2
BRANCH   1   4
ATOM      4  C   UNL     1      26.876  37.631  27.542  1.00  0.00     0.050 C 
BRANCH   4   5
ATOM      5  C   UNL     1      27.920  38.716  27.212  1.00  0.00     0.204 C 
ATOM      6  C   UNL     1      29.312  38.164  26.986  1.00  0.00    -0.015 C 
ATOM      7  O   UNL     1      27.601  39.295  25.943  1.00  0.00    -0.454 OA
ATOM      8  C   UNL     1      29.711  38.390  25.745  1.00  0.00     0.062 C 
ATOM      9  C   UNL     1      30.212  37.472  27.977  1.00  0.00     0.040 C 
ATOM     10  C   UNL     1      28.655  39.094  25.068  1.00  0.00     0.338 C 
ATOM     11  C   UNL     1      31.057  38.052  25.266  1.00  0.00     0.011 C 
ATOM     12  C   UNL     1      31.700  37.729  27.644  1.00  0.00     0.032 C 
ATOM     13  O   UNL     1      28.674  39.492  23.875  1.00  0.00    -0.246 OA
ATOM     14  C   UNL     1      31.981  37.665  26.155  1.00  0.00    -0.026 C 
ENDBRANCH   4   5
ENDBRANCH   1   4
TORSDOF 3
ENDMDL
