MODEL 1
REMARK VINA RESULT:    -4.163      0.000      0.000
REMARK INTER + INTRA:         -11.929
REMARK INTER:                  -8.788
REMARK INTRA:                  -3.142
REMARK UNBOUND:                -3.142
REMARK SMILES CCC(=O)CCCCC[C@@H]1NC(=O)[C@H]2CCCCN2C(=O)[C@@H]([C@@H](C)CC)NC(=O)[C@H](Cc2cn(OC)c3ccccc23)NC1=O
REMARK SMILES IDX 9 1 10 2 44 3 43 4 45 6 30 7 28 8 27 9 29 11 22 12 23 14
REMARK SMILES IDX 24 15 25 16 26 17 31 18 32 19 33 20 42 21 34 22 37 23 41 24
REMARK SMILES IDX 38 25 40 26 39 27 35 28 36 29 11 30 12 31 13 33 14 34 19 35
REMARK SMILES IDX 15 36 18 37 16 38 17 39 20 40 21 41 8 43 7 44 6 45 5 46 3 47
REMARK SMILES IDX 4 48 2 49 1 50
REMARK H PARENT 43 5 27 10 11 32
REMARK Flexibility Score: 80.00
ROOT
ATOM      1  C   UNL     1      59.316  28.551  49.362  1.00  0.00     0.035 C 
ENDROOT
BRANCH   1   2
ATOM      2  C   UNL     1      59.920  29.212  50.617  1.00  0.00     0.171 C 
BRANCH   2   3
ATOM      3  C   UNL     1      61.286  29.785  50.331  1.00  0.00     0.243 C 
ATOM      4  N   UNL     1      61.423  31.096  49.776  1.00  0.00    -0.342 N 
ATOM      5  H   UNL     1      60.614  31.478  49.230  1.00  0.00     0.164 HD
ATOM      6  O   UNL     1      62.314  29.112  50.611  1.00  0.00    -0.273 OA
BRANCH   4   7
ATOM      7  C   UNL     1      62.485  32.016  50.206  1.00  0.00     0.175 C 
BRANCH   7   8
ATOM      8  C   UNL     1      61.874  33.106  51.043  1.00  0.00     0.243 C 
ATOM      9  N   UNL     1      61.518  32.873  52.418  1.00  0.00    -0.342 N 
ATOM     10  H   UNL     1      61.756  31.947  52.837  1.00  0.00     0.164 HD
ATOM     11  O   UNL     1      61.673  34.237  50.522  1.00  0.00    -0.273 OA
BRANCH   9  12
ATOM     12  C   UNL     1      60.547  33.729  53.111  1.00  0.00     0.174 CG0
ATOM     13  G   UNL     1      59.522  32.850  53.789  1.00  0.00     0.000 G0
BRANCH  12  14
ATOM     14  C   UNL     1      61.234  34.777  54.044  1.00  0.00     0.018 C 
ATOM     15  C   UNL     1      62.774  34.799  53.936  1.00  0.00     0.010 C 
BRANCH  14  16
ATOM     16  C   UNL     1      60.690  36.210  53.804  1.00  0.00     0.002 C 
ATOM     17  C   UNL     1      61.144  36.826  52.478  1.00  0.00     0.004 C 
ENDBRANCH  14  16
ENDBRANCH  12  14
ENDBRANCH   9  12
ENDBRANCH   7   8
BRANCH   7  18
ATOM     18  C   UNL     1      63.182  32.627  48.980  1.00  0.00     0.073 C 
BRANCH  18  19
ATOM     19  C   UNL     1      64.673  32.425  49.003  1.00  0.00    -0.016 A 
ATOM     20  C   UNL     1      65.351  31.217  49.181  1.00  0.00     0.134 A 
ATOM     21  C   UNL     1      65.647  33.413  49.061  1.00  0.00     0.006 A 
ATOM     22  N   UNL     1      66.681  31.450  49.303  1.00  0.00    -0.191 N 
ATOM     23  C   UNL     1      66.854  32.780  49.242  1.00  0.00     0.087 A 
ATOM     24  C   UNL     1      65.555  34.808  48.997  1.00  0.00     0.011 A 
ATOM     25  C   UNL     1      68.051  33.493  49.353  1.00  0.00     0.030 A 
ATOM     26  C   UNL     1      66.746  35.549  49.102  1.00  0.00     0.001 A 
ATOM     27  C   UNL     1      67.986  34.897  49.280  1.00  0.00     0.002 A 
BRANCH  22  28
ATOM     28  O   UNL     1      67.676  30.519  49.528  1.00  0.00    -0.417 OA
ATOM     29  C   UNL     1      68.441  29.956  48.470  1.00  0.00     0.313 C 
ENDBRANCH  22  28
ENDBRANCH  18  19
ENDBRANCH   7  18
ENDBRANCH   4   7
ENDBRANCH   2   3
BRANCH   2  30
ATOM     30  N   UNL     1      59.023  30.262  51.129  1.00  0.00    -0.343 N 
ATOM     31  C   UNL     1      58.661  30.320  52.524  1.00  0.00     0.243 C 
ATOM     32  H   UNL     1      58.429  30.790  50.447  1.00  0.00     0.164 HD
ATOM     33  O   UNL     1      59.176  29.505  53.333  1.00  0.00    -0.273 OA
BRANCH  31  34
ATOM     34  C   UNL     1      57.636  31.328  53.010  1.00  0.00     0.174 C 
ATOM     35  N   UNL     1      58.192  32.670  53.277  1.00  0.00    -0.329 N 
ATOM     36  C   UNL     1      56.886  30.819  54.261  1.00  0.00     0.035 C 
ATOM     37  C   UNL     1      57.201  33.741  53.504  1.00  0.00     0.120 C 
ATOM     38  C   UNL     1      56.337  31.972  55.131  1.00  0.00     0.004 C 
ATOM     39  C   UNL     1      55.971  33.208  54.286  1.00  0.00     0.022 C 
BRANCH  35  40
ATOM     40  C   UNL     1      59.508  32.859  53.828  1.00  0.00     0.246 CG0
ATOM     41  O   UNL     1      59.846  32.213  54.859  1.00  0.00    -0.272 OA
ATOM     42  G   UNL     1      60.518  33.698  53.082  1.00  0.00     0.000 G0
ENDBRANCH  35  40
ENDBRANCH  31  34
ENDBRANCH   2  30
ENDBRANCH   1   2
BRANCH   1  43
ATOM     43  C   UNL     1      59.442  27.010  49.376  1.00  0.00     0.003 C 
BRANCH  43  44
ATOM     44  C   UNL     1      59.251  26.424  50.786  1.00  0.00     0.001 C 
BRANCH  44  45
ATOM     45  C   UNL     1      57.862  25.805  50.945  1.00  0.00     0.008 C 
BRANCH  45  46
ATOM     46  C   UNL     1      56.977  26.658  51.865  1.00  0.00     0.075 C 
BRANCH  46  47
ATOM     47  C   UNL     1      56.037  27.499  51.043  1.00  0.00     0.132 C 
ATOM     48  O   UNL     1      56.204  28.710  50.985  1.00  0.00    -0.300 OA
BRANCH  47  49
ATOM     49  C   UNL     1      54.850  26.879  50.354  1.00  0.00     0.072 C 
ATOM     50  C   UNL     1      53.951  27.953  49.750  1.00  0.00     0.012 C 
ENDBRANCH  47  49
ENDBRANCH  46  47
ENDBRANCH  45  46
ENDBRANCH  44  45
ENDBRANCH  43  44
ENDBRANCH   1  43
TORSDOF 12
ENDMDL
MODEL 2
REMARK VINA RESULT:    -3.985      3.346      7.998
REMARK INTER + INTRA:         -11.554
REMARK INTER:                  -9.231
REMARK INTRA:                  -2.323
REMARK UNBOUND:                -3.142
REMARK SMILES CCC(=O)CCCCC[C@@H]1NC(=O)[C@H]2CCCCN2C(=O)[C@@H]([C@@H](C)CC)NC(=O)[C@H](Cc2cn(OC)c3ccccc23)NC1=O
REMARK SMILES IDX 9 1 10 2 44 3 43 4 45 6 30 7 28 8 27 9 29 11 22 12 23 14
REMARK SMILES IDX 24 15 25 16 26 17 31 18 32 19 33 20 42 21 34 22 37 23 41 24
REMARK SMILES IDX 38 25 40 26 39 27 35 28 36 29 11 30 12 31 13 33 14 34 19 35
REMARK SMILES IDX 15 36 18 37 16 38 17 39 20 40 21 41 8 43 7 44 6 45 5 46 3 47
REMARK SMILES IDX 4 48 2 49 1 50
REMARK H PARENT 43 5 27 10 11 32
REMARK Flexibility Score: 80.00
ROOT
ATOM      1  C   UNL     1      59.109  29.213  49.461  1.00  0.00     0.035 C 
ENDROOT
BRANCH   1   2
ATOM      2  C   UNL     1      60.205  29.647  50.455  1.00  0.00     0.171 C 
BRANCH   2   3
ATOM      3  C   UNL     1      60.867  28.452  51.097  1.00  0.00     0.243 C 
ATOM      4  N   UNL     1      61.492  27.448  50.293  1.00  0.00    -0.342 N 
ATOM      5  H   UNL     1      61.162  27.345  49.303  1.00  0.00     0.164 HD
ATOM      6  O   UNL     1      60.893  28.356  52.353  1.00  0.00    -0.273 OA
BRANCH   4   7
ATOM      7  C   UNL     1      62.753  26.807  50.689  1.00  0.00     0.175 C 
BRANCH   7   8
ATOM      8  C   UNL     1      63.897  27.554  50.059  1.00  0.00     0.243 C 
ATOM      9  N   UNL     1      64.553  28.628  50.756  1.00  0.00    -0.342 N 
ATOM     10  H   UNL     1      64.258  28.831  51.737  1.00  0.00     0.164 HD
ATOM     11  O   UNL     1      64.277  27.228  48.902  1.00  0.00    -0.273 OA
BRANCH   9  12
ATOM     12  C   UNL     1      65.339  29.638  50.037  1.00  0.00     0.174 CG0
ATOM     13  G   UNL     1      64.869  31.010  50.458  1.00  0.00     0.000 G0
BRANCH  12  14
ATOM     14  C   UNL     1      66.878  29.402  50.168  1.00  0.00     0.018 C 
ATOM     15  C   UNL     1      67.262  27.947  50.514  1.00  0.00     0.010 C 
BRANCH  14  16
ATOM     16  C   UNL     1      67.642  29.835  48.889  1.00  0.00     0.002 C 
ATOM     17  C   UNL     1      68.584  31.021  49.108  1.00  0.00     0.004 C 
ENDBRANCH  14  16
ENDBRANCH  12  14
ENDBRANCH   9  12
ENDBRANCH   7   8
BRANCH   7  18
ATOM     18  C   UNL     1      62.769  25.341  50.226  1.00  0.00     0.073 C 
BRANCH  18  19
ATOM     19  C   UNL     1      61.907  24.456  51.084  1.00  0.00    -0.016 A 
ATOM     20  C   UNL     1      61.765  24.516  52.473  1.00  0.00     0.134 A 
ATOM     21  C   UNL     1      61.260  23.290  50.693  1.00  0.00     0.006 A 
ATOM     22  N   UNL     1      61.034  23.461  52.907  1.00  0.00    -0.191 N 
ATOM     23  C   UNL     1      60.740  22.716  51.829  1.00  0.00     0.087 A 
ATOM     24  C   UNL     1      61.118  22.688  49.439  1.00  0.00     0.011 A 
ATOM     25  C   UNL     1      60.030  21.513  51.788  1.00  0.00     0.030 A 
ATOM     26  C   UNL     1      60.403  21.479  49.369  1.00  0.00     0.001 A 
ATOM     27  C   UNL     1      59.863  20.894  50.535  1.00  0.00     0.002 A 
BRANCH  22  28
ATOM     28  O   UNL     1      60.708  23.149  54.213  1.00  0.00    -0.417 OA
ATOM     29  C   UNL     1      60.868  24.079  55.276  1.00  0.00     0.313 C 
ENDBRANCH  22  28
ENDBRANCH  18  19
ENDBRANCH   7  18
ENDBRANCH   4   7
ENDBRANCH   2   3
BRANCH   2  30
ATOM     30  N   UNL     1      61.210  30.486  49.781  1.00  0.00    -0.343 N 
ATOM     31  C   UNL     1      61.930  31.510  50.498  1.00  0.00     0.243 C 
ATOM     32  H   UNL     1      61.203  30.535  48.736  1.00  0.00     0.164 HD
ATOM     33  O   UNL     1      61.751  31.642  51.738  1.00  0.00    -0.273 OA
BRANCH  31  34
ATOM     34  C   UNL     1      62.865  32.450  49.761  1.00  0.00     0.174 C 
ATOM     35  N   UNL     1      64.210  31.890  49.517  1.00  0.00    -0.329 N 
ATOM     36  C   UNL     1      62.994  33.809  50.486  1.00  0.00     0.035 C 
ATOM     37  C   UNL     1      65.065  32.658  48.590  1.00  0.00     0.120 C 
ATOM     38  C   UNL     1      64.330  34.520  50.176  1.00  0.00     0.004 C 
ATOM     39  C   UNL     1      64.848  34.184  48.763  1.00  0.00     0.022 C 
BRANCH  35  40
ATOM     40  C   UNL     1      64.868  31.032  50.466  1.00  0.00     0.246 CG0
ATOM     41  O   UNL     1      64.956  31.396  51.672  1.00  0.00    -0.272 OA
ATOM     42  G   UNL     1      65.299  29.646  50.050  1.00  0.00     0.000 G0
ENDBRANCH  35  40
ENDBRANCH  31  34
ENDBRANCH   2  30
ENDBRANCH   1   2
BRANCH   1  43
ATOM     43  C   UNL     1      57.765  28.892  50.152  1.00  0.00     0.003 C 
BRANCH  43  44
ATOM     44  C   UNL     1      57.463  27.382  50.163  1.00  0.00     0.001 C 
BRANCH  44  45
ATOM     45  C   UNL     1      56.491  27.020  51.287  1.00  0.00     0.008 C 
BRANCH  45  46
ATOM     46  C   UNL     1      55.262  27.940  51.275  1.00  0.00     0.075 C 
BRANCH  46  47
ATOM     47  C   UNL     1      54.279  27.475  50.234  1.00  0.00     0.132 C 
ATOM     48  O   UNL     1      53.434  28.252  49.811  1.00  0.00    -0.300 OA
BRANCH  47  49
ATOM     49  C   UNL     1      54.274  26.043  49.764  1.00  0.00     0.072 C 
ATOM     50  C   UNL     1      53.278  25.849  48.626  1.00  0.00     0.012 C 
ENDBRANCH  47  49
ENDBRANCH  46  47
ENDBRANCH  45  46
ENDBRANCH  44  45
ENDBRANCH  43  44
ENDBRANCH   1  43
TORSDOF 12
ENDMDL
MODEL 3
REMARK VINA RESULT:    -3.954      3.210      5.700
REMARK INTER + INTRA:         -11.487
REMARK INTER:                  -9.074
REMARK INTRA:                  -2.413
REMARK UNBOUND:                -3.142
REMARK SMILES CCC(=O)CCCCC[C@@H]1NC(=O)[C@H]2CCCCN2C(=O)[C@@H]([C@@H](C)CC)NC(=O)[C@H](Cc2cn(OC)c3ccccc23)NC1=O
REMARK SMILES IDX 9 1 10 2 44 3 43 4 45 6 30 7 28 8 27 9 29 11 22 12 23 14
REMARK SMILES IDX 24 15 25 16 26 17 31 18 32 19 33 20 42 21 34 22 37 23 41 24
REMARK SMILES IDX 38 25 40 26 39 27 35 28 36 29 11 30 12 31 13 33 14 34 19 35
REMARK SMILES IDX 15 36 18 37 16 38 17 39 20 40 21 41 8 43 7 44 6 45 5 46 3 47
REMARK SMILES IDX 4 48 2 49 1 50
REMARK H PARENT 43 5 27 10 11 32
REMARK Flexibility Score: 80.00
ROOT
ATOM      1  C   UNL     1      60.777  27.396  49.222  1.00  0.00     0.035 C 
ENDROOT
BRANCH   1   2
ATOM      2  C   UNL     1      62.031  28.063  49.822  1.00  0.00     0.171 C 
BRANCH   2   3
ATOM      3  C   UNL     1      63.291  27.540  49.176  1.00  0.00     0.243 C 
ATOM      4  N   UNL     1      63.830  28.175  48.013  1.00  0.00    -0.342 N 
ATOM      5  H   UNL     1      63.170  28.725  47.412  1.00  0.00     0.164 HD
ATOM      6  O   UNL     1      63.888  26.554  49.686  1.00  0.00    -0.273 OA
BRANCH   4   7
ATOM      7  C   UNL     1      65.276  28.350  47.821  1.00  0.00     0.175 C 
BRANCH   7   8
ATOM      8  C   UNL     1      65.617  29.804  47.999  1.00  0.00     0.243 C 
ATOM      9  N   UNL     1      65.532  30.432  49.291  1.00  0.00    -0.342 N 
ATOM     10  H   UNL     1      65.290  29.835  50.113  1.00  0.00     0.164 HD
ATOM     11  O   UNL     1      65.981  30.474  46.995  1.00  0.00    -0.273 OA
BRANCH   9  12
ATOM     12  C   UNL     1      65.423  31.890  49.427  1.00  0.00     0.174 CG0
ATOM     13  G   UNL     1      64.411  32.204  50.503  1.00  0.00     0.000 G0
BRANCH  12  14
ATOM     14  C   UNL     1      66.813  32.578  49.610  1.00  0.00     0.018 C 
ATOM     15  C   UNL     1      67.966  31.595  49.907  1.00  0.00     0.010 C 
BRANCH  14  16
ATOM     16  C   UNL     1      67.195  33.449  48.384  1.00  0.00     0.002 C 
ATOM     17  C   UNL     1      66.649  34.877  48.450  1.00  0.00     0.004 C 
ENDBRANCH  14  16
ENDBRANCH  12  14
ENDBRANCH   9  12
ENDBRANCH   7   8
BRANCH   7  18
ATOM     18  C   UNL     1      65.681  27.887  46.413  1.00  0.00     0.073 C 
BRANCH  18  19
ATOM     19  C   UNL     1      66.905  27.013  46.422  1.00  0.00    -0.016 A 
ATOM     20  C   UNL     1      66.986  25.688  46.859  1.00  0.00     0.134 A 
ATOM     21  C   UNL     1      68.217  27.413  46.199  1.00  0.00     0.006 A 
ATOM     22  N   UNL     1      68.279  25.284  46.866  1.00  0.00    -0.191 N 
ATOM     23  C   UNL     1      69.021  26.334  46.477  1.00  0.00     0.087 A 
ATOM     24  C   UNL     1      68.754  28.643  45.803  1.00  0.00     0.011 A 
ATOM     25  C   UNL     1      70.413  26.402  46.363  1.00  0.00     0.030 A 
ATOM     26  C   UNL     1      70.152  28.737  45.676  1.00  0.00     0.001 A 
ATOM     27  C   UNL     1      70.976  27.626  45.954  1.00  0.00     0.002 A 
BRANCH  22  28
ATOM     28  O   UNL     1      68.770  24.057  47.268  1.00  0.00    -0.417 OA
ATOM     29  C   UNL     1      68.116  22.837  46.947  1.00  0.00     0.313 C 
ENDBRANCH  22  28
ENDBRANCH  18  19
ENDBRANCH   7  18
ENDBRANCH   4   7
ENDBRANCH   2   3
BRANCH   2  30
ATOM     30  N   UNL     1      61.955  29.527  49.680  1.00  0.00    -0.343 N 
ATOM     31  C   UNL     1      62.102  30.396  50.821  1.00  0.00     0.243 C 
ATOM     32  H   UNL     1      61.517  29.924  48.816  1.00  0.00     0.164 HD
ATOM     33  O   UNL     1      62.376  29.902  51.947  1.00  0.00    -0.273 OA
BRANCH  31  34
ATOM     34  C   UNL     1      61.892  31.892  50.679  1.00  0.00     0.174 C 
ATOM     35  N   UNL     1      63.071  32.619  50.165  1.00  0.00    -0.329 N 
ATOM     36  C   UNL     1      61.429  32.530  52.008  1.00  0.00     0.035 C 
ATOM     37  C   UNL     1      62.837  34.023  49.772  1.00  0.00     0.120 C 
ATOM     38  C   UNL     1      61.800  34.027  52.106  1.00  0.00     0.004 C 
ATOM     39  C   UNL     1      61.820  34.707  50.723  1.00  0.00     0.022 C 
BRANCH  35  40
ATOM     40  C   UNL     1      64.415  32.247  50.516  1.00  0.00     0.246 CG0
ATOM     41  O   UNL     1      64.722  32.112  51.734  1.00  0.00    -0.272 OA
ATOM     42  G   UNL     1      65.394  31.864  49.432  1.00  0.00     0.000 G0
ENDBRANCH  35  40
ENDBRANCH  31  34
ENDBRANCH   2  30
ENDBRANCH   1   2
BRANCH   1  43
ATOM     43  C   UNL     1      59.854  26.778  50.297  1.00  0.00     0.003 C 
BRANCH  43  44
ATOM     44  C   UNL     1      58.401  26.641  49.806  1.00  0.00     0.001 C 
BRANCH  44  45
ATOM     45  C   UNL     1      57.412  26.768  50.966  1.00  0.00     0.008 C 
BRANCH  45  46
ATOM     46  C   UNL     1      56.421  27.917  50.726  1.00  0.00     0.075 C 
BRANCH  46  47
ATOM     47  C   UNL     1      55.140  27.381  50.145  1.00  0.00     0.132 C 
ATOM     48  O   UNL     1      54.288  28.160  49.738  1.00  0.00    -0.300 OA
BRANCH  47  49
ATOM     49  C   UNL     1      54.861  25.901  50.130  1.00  0.00     0.072 C 
ATOM     50  C   UNL     1      53.889  25.543  49.010  1.00  0.00     0.012 C 
ENDBRANCH  47  49
ENDBRANCH  46  47
ENDBRANCH  45  46
ENDBRANCH  44  45
ENDBRANCH  43  44
ENDBRANCH   1  43
TORSDOF 12
ENDMDL
MODEL 4
REMARK VINA RESULT:    -3.882      6.505     11.665
REMARK INTER + INTRA:         -11.336
REMARK INTER:                  -6.744
REMARK INTRA:                  -4.592
REMARK UNBOUND:                -3.142
REMARK SMILES CCC(=O)CCCCC[C@@H]1NC(=O)[C@H]2CCCCN2C(=O)[C@@H]([C@@H](C)CC)NC(=O)[C@H](Cc2cn(OC)c3ccccc23)NC1=O
REMARK SMILES IDX 9 1 10 2 44 3 43 4 45 6 30 7 28 8 27 9 29 11 22 12 23 14
REMARK SMILES IDX 24 15 25 16 26 17 31 18 32 19 33 20 42 21 34 22 37 23 41 24
REMARK SMILES IDX 38 25 40 26 39 27 35 28 36 29 11 30 12 31 13 33 14 34 19 35
REMARK SMILES IDX 15 36 18 37 16 38 17 39 20 40 21 41 8 43 7 44 6 45 5 46 3 47
REMARK SMILES IDX 4 48 2 49 1 50
REMARK H PARENT 43 5 27 10 11 32
REMARK Flexibility Score: 80.00
ROOT
ATOM      1  C   UNL     1      59.877  26.455  53.556  1.00  0.00     0.035 C 
ENDROOT
BRANCH   1   2
ATOM      2  C   UNL     1      59.576  25.108  54.243  1.00  0.00     0.171 C 
BRANCH   2   3
ATOM      3  C   UNL     1      58.246  25.142  54.956  1.00  0.00     0.243 C 
ATOM      4  N   UNL     1      57.025  24.998  54.226  1.00  0.00    -0.342 N 
ATOM      5  H   UNL     1      57.035  25.253  53.210  1.00  0.00     0.164 HD
ATOM      6  O   UNL     1      58.217  25.269  56.210  1.00  0.00    -0.273 OA
BRANCH   4   7
ATOM      7  C   UNL     1      55.892  24.224  54.750  1.00  0.00     0.175 C 
BRANCH   7   8
ATOM      8  C   UNL     1      55.863  22.883  54.070  1.00  0.00     0.243 C 
ATOM      9  N   UNL     1      56.830  21.868  54.394  1.00  0.00    -0.342 N 
ATOM     10  H   UNL     1      57.512  22.064  55.160  1.00  0.00     0.164 HD
ATOM     11  O   UNL     1      54.975  22.655  53.204  1.00  0.00    -0.273 OA
BRANCH   9  12
ATOM     12  C   UNL     1      57.108  20.757  53.474  1.00  0.00     0.174 CG0
ATOM     13  G   UNL     1      58.602  20.541  53.412  1.00  0.00     0.000 G0
BRANCH  12  14
ATOM     14  C   UNL     1      56.272  19.481  53.809  1.00  0.00     0.018 C 
ATOM     15  C   UNL     1      55.510  19.564  55.149  1.00  0.00     0.010 C 
BRANCH  14  16
ATOM     16  C   UNL     1      55.269  19.132  52.678  1.00  0.00     0.002 C 
ATOM     17  C   UNL     1      55.912  19.042  51.292  1.00  0.00     0.004 C 
ENDBRANCH  14  16
ENDBRANCH  12  14
ENDBRANCH   9  12
ENDBRANCH   7   8
BRANCH   7  18
ATOM     18  C   UNL     1      54.575  24.972  54.486  1.00  0.00     0.073 C 
BRANCH  18  19
ATOM     19  C   UNL     1      54.777  26.235  53.695  1.00  0.00    -0.016 A 
ATOM     20  C   UNL     1      55.015  27.514  54.204  1.00  0.00     0.134 A 
ATOM     21  C   UNL     1      54.559  26.410  52.334  1.00  0.00     0.006 A 
ATOM     22  N   UNL     1      54.984  28.423  53.200  1.00  0.00    -0.191 N 
ATOM     23  C   UNL     1      54.696  27.753  52.072  1.00  0.00     0.087 A 
ATOM     24  C   UNL     1      54.226  25.499  51.326  1.00  0.00     0.011 A 
ATOM     25  C   UNL     1      54.528  28.274  50.786  1.00  0.00     0.030 A 
ATOM     26  C   UNL     1      54.056  25.997  50.022  1.00  0.00     0.001 A 
ATOM     27  C   UNL     1      54.204  27.375  49.753  1.00  0.00     0.002 A 
BRANCH  22  28
ATOM     28  O   UNL     1      55.137  29.792  53.304  1.00  0.00    -0.417 OA
ATOM     29  C   UNL     1      56.337  30.452  52.922  1.00  0.00     0.313 C 
ENDBRANCH  22  28
ENDBRANCH  18  19
ENDBRANCH   7  18
ENDBRANCH   4   7
ENDBRANCH   2   3
BRANCH   2  30
ATOM     30  N   UNL     1      59.599  24.011  53.260  1.00  0.00    -0.343 N 
ATOM     31  C   UNL     1      60.452  22.862  53.444  1.00  0.00     0.243 C 
ATOM     32  H   UNL     1      59.220  24.189  52.301  1.00  0.00     0.164 HD
ATOM     33  O   UNL     1      61.133  22.757  54.498  1.00  0.00    -0.273 OA
BRANCH  31  34
ATOM     34  C   UNL     1      60.560  21.805  52.361  1.00  0.00     0.174 C 
ATOM     35  N   UNL     1      59.374  20.932  52.252  1.00  0.00    -0.329 N 
ATOM     36  C   UNL     1      61.827  20.939  52.536  1.00  0.00     0.035 C 
ATOM     37  C   UNL     1      59.325  20.063  51.059  1.00  0.00     0.120 C 
ATOM     38  C   UNL     1      61.675  19.535  51.908  1.00  0.00     0.004 C 
ATOM     39  C   UNL     1      60.740  19.551  50.682  1.00  0.00     0.022 C 
BRANCH  35  40
ATOM     40  C   UNL     1      58.619  20.515  53.404  1.00  0.00     0.246 CG0
ATOM     41  O   UNL     1      59.229  20.050  54.408  1.00  0.00    -0.272 OA
ATOM     42  G   UNL     1      57.135  20.788  53.466  1.00  0.00     0.000 G0
ENDBRANCH  35  40
ENDBRANCH  31  34
ENDBRANCH   2  30
ENDBRANCH   1   2
BRANCH   1  43
ATOM     43  C   UNL     1      61.362  26.607  53.157  1.00  0.00     0.003 C 
BRANCH  43  44
ATOM     44  C   UNL     1      61.527  27.178  51.737  1.00  0.00     0.001 C 
BRANCH  44  45
ATOM     45  C   UNL     1      61.522  26.064  50.688  1.00  0.00     0.008 C 
BRANCH  45  46
ATOM     46  C   UNL     1      60.391  26.267  49.670  1.00  0.00     0.075 C 
BRANCH  46  47
ATOM     47  C   UNL     1      59.128  25.614  50.166  1.00  0.00     0.132 C 
ATOM     48  O   UNL     1      59.145  24.436  50.496  1.00  0.00    -0.300 OA
BRANCH  47  49
ATOM     49  C   UNL     1      57.826  26.372  50.187  1.00  0.00     0.072 C 
ATOM     50  C   UNL     1      58.070  27.864  50.386  1.00  0.00     0.012 C 
ENDBRANCH  47  49
ENDBRANCH  46  47
ENDBRANCH  45  46
ENDBRANCH  44  45
ENDBRANCH  43  44
ENDBRANCH   1  43
TORSDOF 12
ENDMDL
MODEL 5
REMARK VINA RESULT:    -3.853      9.200     12.811
REMARK INTER + INTRA:         -11.274
REMARK INTER:                  -7.647
REMARK INTRA:                  -3.627
REMARK UNBOUND:                -3.142
REMARK SMILES CCC(=O)CCCCC[C@@H]1NC(=O)[C@H]2CCCCN2C(=O)[C@@H]([C@@H](C)CC)NC(=O)[C@H](Cc2cn(OC)c3ccccc23)NC1=O
REMARK SMILES IDX 9 1 10 2 44 3 43 4 45 6 30 7 28 8 27 9 29 11 22 12 23 14
REMARK SMILES IDX 24 15 25 16 26 17 31 18 32 19 33 20 42 21 34 22 37 23 41 24
REMARK SMILES IDX 38 25 40 26 39 27 35 28 36 29 11 30 12 31 13 33 14 34 19 35
REMARK SMILES IDX 15 36 18 37 16 38 17 39 20 40 21 41 8 43 7 44 6 45 5 46 3 47
REMARK SMILES IDX 4 48 2 49 1 50
REMARK H PARENT 43 5 27 10 11 32
REMARK Flexibility Score: 80.00
ROOT
ATOM      1  C   UNL     1      60.810  31.103  59.973  1.00  0.00     0.035 C 
ENDROOT
BRANCH   1   2
ATOM      2  C   UNL     1      60.295  29.924  59.123  1.00  0.00     0.171 C 
BRANCH   2   3
ATOM      3  C   UNL     1      61.094  28.670  59.385  1.00  0.00     0.243 C 
ATOM      4  N   UNL     1      61.253  28.173  60.716  1.00  0.00    -0.342 N 
ATOM      5  H   UNL     1      61.156  28.858  61.504  1.00  0.00     0.164 HD
ATOM      6  O   UNL     1      61.599  28.042  58.416  1.00  0.00    -0.273 OA
BRANCH   4   7
ATOM      7  C   UNL     1      61.219  26.736  61.020  1.00  0.00     0.175 C 
BRANCH   7   8
ATOM      8  C   UNL     1      59.801  26.334  61.317  1.00  0.00     0.243 C 
ATOM      9  N   UNL     1      58.891  25.988  60.257  1.00  0.00    -0.342 N 
ATOM     10  H   UNL     1      59.261  25.960  59.281  1.00  0.00     0.164 HD
ATOM     11  O   UNL     1      59.412  26.305  62.516  1.00  0.00    -0.273 OA
BRANCH   9  12
ATOM     12  C   UNL     1      57.437  26.027  60.455  1.00  0.00     0.174 CG0
ATOM     13  G   UNL     1      56.799  26.669  59.246  1.00  0.00     0.000 G0
BRANCH  12  14
ATOM     14  C   UNL     1      56.851  24.633  60.845  1.00  0.00     0.018 C 
ATOM     15  C   UNL     1      57.787  23.447  60.530  1.00  0.00     0.010 C 
BRANCH  14  16
ATOM     16  C   UNL     1      56.446  24.573  62.342  1.00  0.00     0.002 C 
ATOM     17  C   UNL     1      56.935  23.313  63.061  1.00  0.00     0.004 C 
ENDBRANCH  14  16
ENDBRANCH  12  14
ENDBRANCH   9  12
ENDBRANCH   7   8
BRANCH   7  18
ATOM     18  C   UNL     1      62.114  26.432  62.232  1.00  0.00     0.073 C 
BRANCH  18  19
ATOM     19  C   UNL     1      62.624  25.017  62.233  1.00  0.00    -0.016 A 
ATOM     20  C   UNL     1      63.367  24.394  61.227  1.00  0.00     0.134 A 
ATOM     21  C   UNL     1      62.282  24.008  63.124  1.00  0.00     0.006 A 
ATOM     22  N   UNL     1      63.507  23.076  61.508  1.00  0.00    -0.191 N 
ATOM     23  C   UNL     1      62.840  22.844  62.650  1.00  0.00     0.087 A 
ATOM     24  C   UNL     1      61.507  24.026  64.289  1.00  0.00     0.011 A 
ATOM     25  C   UNL     1      62.676  21.624  63.313  1.00  0.00     0.030 A 
ATOM     26  C   UNL     1      61.331  22.812  64.978  1.00  0.00     0.001 A 
ATOM     27  C   UNL     1      61.910  21.619  64.494  1.00  0.00     0.002 A 
BRANCH  22  28
ATOM     28  O   UNL     1      64.142  22.119  60.740  1.00  0.00    -0.417 OA
ATOM     29  C   UNL     1      63.680  21.757  59.445  1.00  0.00     0.313 C 
ENDBRANCH  22  28
ENDBRANCH  18  19
ENDBRANCH   7  18
ENDBRANCH   4   7
ENDBRANCH   2   3
BRANCH   2  30
ATOM     30  N   UNL     1      58.867  29.683  59.388  1.00  0.00    -0.343 N 
ATOM     31  C   UNL     1      57.977  29.246  58.340  1.00  0.00     0.243 C 
ATOM     32  H   UNL     1      58.441  30.094  60.251  1.00  0.00     0.164 HD
ATOM     33  O   UNL     1      58.440  28.994  57.197  1.00  0.00    -0.273 OA
BRANCH  31  34
ATOM     34  C   UNL     1      56.486  29.128  58.598  1.00  0.00     0.174 C 
ATOM     35  N   UNL     1      56.106  27.942  59.392  1.00  0.00    -0.329 N 
ATOM     36  C   UNL     1      55.677  29.152  57.282  1.00  0.00     0.035 C 
ATOM     37  C   UNL     1      54.713  27.918  59.882  1.00  0.00     0.120 C 
ATOM     38  C   UNL     1      54.316  28.432  57.412  1.00  0.00     0.004 C 
ATOM     39  C   UNL     1      53.744  28.535  58.839  1.00  0.00     0.022 C 
BRANCH  35  40
ATOM     40  C   UNL     1      56.779  26.678  59.254  1.00  0.00     0.246 CG0
ATOM     41  O   UNL     1      56.915  26.171  58.105  1.00  0.00    -0.272 OA
ATOM     42  G   UNL     1      57.454  26.054  60.452  1.00  0.00     0.000 G0
ENDBRANCH  35  40
ENDBRANCH  31  34
ENDBRANCH   2  30
ENDBRANCH   1   2
BRANCH   1  43
ATOM     43  C   UNL     1      61.603  32.139  59.144  1.00  0.00     0.003 C 
BRANCH  43  44
ATOM     44  C   UNL     1      62.517  33.010  60.024  1.00  0.00     0.001 C 
BRANCH  44  45
ATOM     45  C   UNL     1      63.395  32.148  60.933  1.00  0.00     0.008 C 
BRANCH  45  46
ATOM     46  C   UNL     1      64.281  31.200  60.112  1.00  0.00     0.075 C 
BRANCH  46  47
ATOM     47  C   UNL     1      64.415  29.878  60.818  1.00  0.00     0.132 C 
ATOM     48  O   UNL     1      63.667  29.610  61.749  1.00  0.00    -0.300 OA
BRANCH  47  49
ATOM     49  C   UNL     1      65.509  28.912  60.444  1.00  0.00     0.072 C 
ATOM     50  C   UNL     1      64.937  27.528  60.158  1.00  0.00     0.012 C 
ENDBRANCH  47  49
ENDBRANCH  46  47
ENDBRANCH  45  46
ENDBRANCH  44  45
ENDBRANCH  43  44
ENDBRANCH   1  43
TORSDOF 12
ENDMDL
MODEL 6
REMARK VINA RESULT:    -3.773      9.386     11.975
REMARK INTER + INTRA:         -11.106
REMARK INTER:                  -8.379
REMARK INTRA:                  -2.727
REMARK UNBOUND:                -3.142
REMARK SMILES CCC(=O)CCCCC[C@@H]1NC(=O)[C@H]2CCCCN2C(=O)[C@@H]([C@@H](C)CC)NC(=O)[C@H](Cc2cn(OC)c3ccccc23)NC1=O
REMARK SMILES IDX 9 1 10 2 44 3 43 4 45 6 30 7 28 8 27 9 29 11 22 12 23 14
REMARK SMILES IDX 24 15 25 16 26 17 31 18 32 19 33 20 42 21 34 22 37 23 41 24
REMARK SMILES IDX 38 25 40 26 39 27 35 28 36 29 11 30 12 31 13 33 14 34 19 35
REMARK SMILES IDX 15 36 18 37 16 38 17 39 20 40 21 41 8 43 7 44 6 45 5 46 3 47
REMARK SMILES IDX 4 48 2 49 1 50
REMARK H PARENT 43 5 27 10 11 32
REMARK Flexibility Score: 80.00
ROOT
ATOM      1  C   UNL     1      61.752  29.859  61.752  1.00  0.00     0.035 C 
ENDROOT
BRANCH   1   2
ATOM      2  C   UNL     1      60.983  29.050  60.688  1.00  0.00     0.171 C 
BRANCH   2   3
ATOM      3  C   UNL     1      61.914  28.166  59.894  1.00  0.00     0.243 C 
ATOM      4  N   UNL     1      62.752  27.214  60.553  1.00  0.00    -0.342 N 
ATOM      5  H   UNL     1      62.997  27.396  61.556  1.00  0.00     0.164 HD
ATOM      6  O   UNL     1      61.928  28.251  58.636  1.00  0.00    -0.273 OA
BRANCH   4   7
ATOM      7  C   UNL     1      63.000  25.878  59.996  1.00  0.00     0.175 C 
BRANCH   7   8
ATOM      8  C   UNL     1      61.978  24.922  60.549  1.00  0.00     0.243 C 
ATOM      9  N   UNL     1      60.687  24.780  59.931  1.00  0.00    -0.342 N 
ATOM     10  H   UNL     1      60.501  25.309  59.050  1.00  0.00     0.164 HD
ATOM     11  O   UNL     1      62.267  24.242  61.571  1.00  0.00    -0.273 OA
BRANCH   9  12
ATOM     12  C   UNL     1      59.545  24.222  60.667  1.00  0.00     0.174 CG0
ATOM     13  G   UNL     1      58.325  25.066  60.385  1.00  0.00     0.000 G0
BRANCH  12  14
ATOM     14  C   UNL     1      59.360  22.692  60.410  1.00  0.00     0.018 C 
ATOM     15  C   UNL     1      60.266  22.129  59.295  1.00  0.00     0.010 C 
BRANCH  14  16
ATOM     16  C   UNL     1      59.570  21.858  61.702  1.00  0.00     0.002 C 
ATOM     17  C   UNL     1      58.264  21.451  62.390  1.00  0.00     0.004 C 
ENDBRANCH  14  16
ENDBRANCH  12  14
ENDBRANCH   9  12
ENDBRANCH   7   8
BRANCH   7  18
ATOM     18  C   UNL     1      64.414  25.404  60.369  1.00  0.00     0.073 C 
BRANCH  18  19
ATOM     19  C   UNL     1      65.472  25.976  59.465  1.00  0.00    -0.016 A 
ATOM     20  C   UNL     1      66.065  25.346  58.367  1.00  0.00     0.134 A 
ATOM     21  C   UNL     1      66.203  27.139  59.669  1.00  0.00     0.006 A 
ATOM     22  N   UNL     1      67.084  26.106  57.898  1.00  0.00    -0.191 N 
ATOM     23  C   UNL     1      67.172  27.183  58.694  1.00  0.00     0.087 A 
ATOM     24  C   UNL     1      66.104  28.134  60.647  1.00  0.00     0.011 A 
ATOM     25  C   UNL     1      68.096  28.229  58.619  1.00  0.00     0.030 A 
ATOM     26  C   UNL     1      67.019  29.202  60.591  1.00  0.00     0.001 A 
ATOM     27  C   UNL     1      68.008  29.249  59.586  1.00  0.00     0.002 A 
BRANCH  22  28
ATOM     28  O   UNL     1      67.935  25.809  56.850  1.00  0.00    -0.417 OA
ATOM     29  C   UNL     1      67.498  25.105  55.695  1.00  0.00     0.313 C 
ENDBRANCH  22  28
ENDBRANCH  18  19
ENDBRANCH   7  18
ENDBRANCH   4   7
ENDBRANCH   2   3
BRANCH   2  30
ATOM     30  N   UNL     1      59.927  28.241  61.319  1.00  0.00    -0.343 N 
ATOM     31  C   UNL     1      58.658  28.030  60.667  1.00  0.00     0.243 C 
ATOM     32  H   UNL     1      59.983  28.058  62.348  1.00  0.00     0.164 HD
ATOM     33  O   UNL     1      58.475  28.480  59.505  1.00  0.00    -0.273 OA
BRANCH  31  34
ATOM     34  C   UNL     1      57.536  27.304  61.386  1.00  0.00     0.174 C 
ATOM     35  N   UNL     1      57.720  25.840  61.464  1.00  0.00    -0.329 N 
ATOM     36  C   UNL     1      56.160  27.620  60.758  1.00  0.00     0.035 C 
ATOM     37  C   UNL     1      56.795  25.126  62.366  1.00  0.00     0.120 C 
ATOM     38  C   UNL     1      55.128  26.496  60.999  1.00  0.00     0.004 C 
ATOM     39  C   UNL     1      55.379  25.759  62.330  1.00  0.00     0.022 C 
BRANCH  35  40
ATOM     40  C   UNL     1      58.319  25.084  60.397  1.00  0.00     0.246 CG0
ATOM     41  O   UNL     1      57.890  25.230  59.218  1.00  0.00    -0.272 OA
ATOM     42  G   UNL     1      59.550  24.252  60.667  1.00  0.00     0.000 G0
ENDBRANCH  35  40
ENDBRANCH  31  34
ENDBRANCH   2  30
ENDBRANCH   1   2
BRANCH   1  43
ATOM     43  C   UNL     1      62.168  31.262  61.254  1.00  0.00     0.003 C 
BRANCH  43  44
ATOM     44  C   UNL     1      63.489  31.229  60.464  1.00  0.00     0.001 C 
BRANCH  44  45
ATOM     45  C   UNL     1      64.270  32.533  60.636  1.00  0.00     0.008 C 
BRANCH  45  46
ATOM     46  C   UNL     1      63.483  33.728  60.077  1.00  0.00     0.075 C 
BRANCH  46  47
ATOM     47  C   UNL     1      63.721  34.946  60.928  1.00  0.00     0.132 C 
ATOM     48  O   UNL     1      64.621  34.939  61.756  1.00  0.00    -0.300 OA
BRANCH  47  49
ATOM     49  C   UNL     1      62.814  36.146  60.826  1.00  0.00     0.072 C 
ATOM     50  C   UNL     1      61.365  35.715  60.625  1.00  0.00     0.012 C 
ENDBRANCH  47  49
ENDBRANCH  46  47
ENDBRANCH  45  46
ENDBRANCH  44  45
ENDBRANCH  43  44
ENDBRANCH   1  43
TORSDOF 12
ENDMDL
MODEL 7
REMARK VINA RESULT:    -3.741      7.349     10.563
REMARK INTER + INTRA:         -11.037
REMARK INTER:                  -8.235
REMARK INTRA:                  -2.803
REMARK UNBOUND:                -3.142
REMARK SMILES CCC(=O)CCCCC[C@@H]1NC(=O)[C@H]2CCCCN2C(=O)[C@@H]([C@@H](C)CC)NC(=O)[C@H](Cc2cn(OC)c3ccccc23)NC1=O
REMARK SMILES IDX 9 1 10 2 44 3 43 4 45 6 30 7 28 8 27 9 29 11 22 12 23 14
REMARK SMILES IDX 24 15 25 16 26 17 31 18 32 19 33 20 42 21 34 22 37 23 41 24
REMARK SMILES IDX 38 25 40 26 39 27 35 28 36 29 11 30 12 31 13 33 14 34 19 35
REMARK SMILES IDX 15 36 18 37 16 38 17 39 20 40 21 41 8 43 7 44 6 45 5 46 3 47
REMARK SMILES IDX 4 48 2 49 1 50
REMARK H PARENT 43 5 27 10 11 32
REMARK Flexibility Score: 80.00
ROOT
ATOM      1  C   UNL     1      62.727  27.135  61.491  1.00  0.00     0.035 C 
ENDROOT
BRANCH   1   2
ATOM      2  C   UNL     1      61.332  27.768  61.308  1.00  0.00     0.171 C 
BRANCH   2   3
ATOM      3  C   UNL     1      61.436  29.239  60.985  1.00  0.00     0.243 C 
ATOM      4  N   UNL     1      61.391  29.690  59.629  1.00  0.00    -0.342 N 
ATOM      5  H   UNL     1      61.670  29.010  58.882  1.00  0.00     0.164 HD
ATOM      6  O   UNL     1      61.534  30.075  61.922  1.00  0.00    -0.273 OA
BRANCH   4   7
ATOM      7  C   UNL     1      60.681  30.916  59.240  1.00  0.00     0.175 C 
BRANCH   7   8
ATOM      8  C   UNL     1      59.556  30.552  58.310  1.00  0.00     0.243 C 
ATOM      9  N   UNL     1      58.290  30.096  58.822  1.00  0.00    -0.342 N 
ATOM     10  H   UNL     1      58.152  30.088  59.857  1.00  0.00     0.164 HD
ATOM     11  O   UNL     1      59.735  30.649  57.066  1.00  0.00    -0.273 OA
BRANCH   9  12
ATOM     12  C   UNL     1      57.358  29.333  57.984  1.00  0.00     0.174 CG0
ATOM     13  G   UNL     1      57.021  28.039  58.686  1.00  0.00     0.000 G0
BRANCH  12  14
ATOM     14  C   UNL     1      56.124  30.181  57.539  1.00  0.00     0.018 C 
ATOM     15  C   UNL     1      56.181  31.656  57.988  1.00  0.00     0.010 C 
BRANCH  14  16
ATOM     16  C   UNL     1      55.908  30.128  56.003  1.00  0.00     0.002 C 
ATOM     17  C   UNL     1      57.040  29.429  55.247  1.00  0.00     0.004 C 
ENDBRANCH  14  16
ENDBRANCH  12  14
ENDBRANCH   9  12
ENDBRANCH   7   8
BRANCH   7  18
ATOM     18  C   UNL     1      61.646  31.885  58.539  1.00  0.00     0.073 C 
BRANCH  18  19
ATOM     19  C   UNL     1      61.484  33.304  59.012  1.00  0.00    -0.016 A 
ATOM     20  C   UNL     1      60.578  34.251  58.527  1.00  0.00     0.134 A 
ATOM     21  C   UNL     1      62.333  34.000  59.863  1.00  0.00     0.006 A 
ATOM     22  N   UNL     1      60.835  35.459  59.084  1.00  0.00    -0.191 N 
ATOM     23  C   UNL     1      61.904  35.307  59.882  1.00  0.00     0.087 A 
ATOM     24  C   UNL     1      63.455  33.589  60.590  1.00  0.00     0.011 A 
ATOM     25  C   UNL     1      62.553  36.285  60.640  1.00  0.00     0.030 A 
ATOM     26  C   UNL     1      64.124  34.554  61.366  1.00  0.00     0.001 A 
ATOM     27  C   UNL     1      63.677  35.893  61.390  1.00  0.00     0.002 A 
BRANCH  22  28
ATOM     28  O   UNL     1      60.184  36.652  58.832  1.00  0.00    -0.417 OA
ATOM     29  C   UNL     1      58.963  36.710  58.106  1.00  0.00     0.313 C 
ENDBRANCH  22  28
ENDBRANCH  18  19
ENDBRANCH   7  18
ENDBRANCH   4   7
ENDBRANCH   2   3
BRANCH   2  30
ATOM     30  N   UNL     1      60.582  27.066  60.254  1.00  0.00    -0.343 N 
ATOM     31  C   UNL     1      59.161  26.845  60.370  1.00  0.00     0.243 C 
ATOM     32  H   UNL     1      61.111  26.484  59.564  1.00  0.00     0.164 HD
ATOM     33  O   UNL     1      58.537  27.324  61.353  1.00  0.00    -0.273 OA
BRANCH  31  34
ATOM     34  C   UNL     1      58.427  26.008  59.339  1.00  0.00     0.174 C 
ATOM     35  N   UNL     1      57.673  26.802  58.347  1.00  0.00    -0.329 N 
ATOM     36  C   UNL     1      57.483  24.982  60.007  1.00  0.00     0.035 C 
ATOM     37  C   UNL     1      57.157  26.052  57.185  1.00  0.00     0.120 C 
ATOM     38  C   UNL     1      56.307  24.578  59.089  1.00  0.00     0.004 C 
ATOM     39  C   UNL     1      56.695  24.630  57.598  1.00  0.00     0.022 C 
BRANCH  35  40
ATOM     40  C   UNL     1      57.003  28.027  58.693  1.00  0.00     0.246 CG0
ATOM     41  O   UNL     1      56.204  28.040  59.671  1.00  0.00    -0.272 OA
ATOM     42  G   UNL     1      57.380  29.311  57.994  1.00  0.00     0.000 G0
ENDBRANCH  35  40
ENDBRANCH  31  34
ENDBRANCH   2  30
ENDBRANCH   1   2
BRANCH   1  43
ATOM     43  C   UNL     1      62.872  25.782  60.759  1.00  0.00     0.003 C 
BRANCH  43  44
ATOM     44  C   UNL     1      64.065  25.773  59.786  1.00  0.00     0.001 C 
BRANCH  44  45
ATOM     45  C   UNL     1      65.141  26.771  60.219  1.00  0.00     0.008 C 
BRANCH  45  46
ATOM     46  C   UNL     1      65.798  27.440  59.003  1.00  0.00     0.075 C 
BRANCH  46  47
ATOM     47  C   UNL     1      66.587  28.645  59.441  1.00  0.00     0.132 C 
ATOM     48  O   UNL     1      67.558  28.498  60.172  1.00  0.00    -0.300 OA
BRANCH  47  49
ATOM     49  C   UNL     1      66.152  30.034  59.055  1.00  0.00     0.072 C 
ATOM     50  C   UNL     1      65.211  30.619  60.103  1.00  0.00     0.012 C 
ENDBRANCH  47  49
ENDBRANCH  46  47
ENDBRANCH  45  46
ENDBRANCH  44  45
ENDBRANCH  43  44
ENDBRANCH   1  43
TORSDOF 12
ENDMDL
MODEL 8
REMARK VINA RESULT:    -3.706      8.710     11.734
REMARK INTER + INTRA:         -10.965
REMARK INTER:                  -8.345
REMARK INTRA:                  -2.619
REMARK UNBOUND:                -3.142
REMARK SMILES CCC(=O)CCCCC[C@@H]1NC(=O)[C@H]2CCCCN2C(=O)[C@@H]([C@@H](C)CC)NC(=O)[C@H](Cc2cn(OC)c3ccccc23)NC1=O
REMARK SMILES IDX 9 1 10 2 44 3 43 4 45 6 30 7 28 8 27 9 29 11 22 12 23 14
REMARK SMILES IDX 24 15 25 16 26 17 31 18 32 19 33 20 42 21 34 22 37 23 41 24
REMARK SMILES IDX 38 25 40 26 39 27 35 28 36 29 11 30 12 31 13 33 14 34 19 35
REMARK SMILES IDX 15 36 18 37 16 38 17 39 20 40 21 41 8 43 7 44 6 45 5 46 3 47
REMARK SMILES IDX 4 48 2 49 1 50
REMARK H PARENT 43 5 27 10 11 32
REMARK Flexibility Score: 80.00
ROOT
ATOM      1  C   UNL     1      65.871  28.135  60.231  1.00  0.00     0.035 C 
ENDROOT
BRANCH   1   2
ATOM      2  C   UNL     1      66.970  28.455  59.199  1.00  0.00     0.171 C 
BRANCH   2   3
ATOM      3  C   UNL     1      66.400  29.165  57.995  1.00  0.00     0.243 C 
ATOM      4  N   UNL     1      66.285  30.590  57.978  1.00  0.00    -0.342 N 
ATOM      5  H   UNL     1      66.229  31.083  58.901  1.00  0.00     0.164 HD
ATOM      6  O   UNL     1      66.051  28.496  56.986  1.00  0.00    -0.273 OA
BRANCH   4   7
ATOM      7  C   UNL     1      66.565  31.380  56.771  1.00  0.00     0.175 C 
BRANCH   7   8
ATOM      8  C   UNL     1      67.842  32.148  56.977  1.00  0.00     0.243 C 
ATOM      9  N   UNL     1      69.122  31.503  56.852  1.00  0.00    -0.342 N 
ATOM     10  H   UNL     1      69.142  30.504  56.550  1.00  0.00     0.164 HD
ATOM     11  O   UNL     1      67.779  33.374  57.265  1.00  0.00    -0.273 OA
BRANCH   9  12
ATOM     12  C   UNL     1      70.329  32.076  57.460  1.00  0.00     0.174 CG0
ATOM     13  G   UNL     1      71.043  30.994  58.235  1.00  0.00     0.000 G0
BRANCH  12  14
ATOM     14  C   UNL     1      71.216  32.838  56.424  1.00  0.00     0.018 C 
ATOM     15  C   UNL     1      70.553  33.017  55.042  1.00  0.00     0.010 C 
BRANCH  14  16
ATOM     16  C   UNL     1      71.663  34.226  56.954  1.00  0.00     0.002 C 
ATOM     17  C   UNL     1      72.198  35.157  55.863  1.00  0.00     0.004 C 
ENDBRANCH  14  16
ENDBRANCH  12  14
ENDBRANCH   9  12
ENDBRANCH   7   8
BRANCH   7  18
ATOM     18  C   UNL     1      65.408  32.354  56.497  1.00  0.00     0.073 C 
BRANCH  18  19
ATOM     19  C   UNL     1      64.296  32.228  57.503  1.00  0.00    -0.016 A 
ATOM     20  C   UNL     1      63.157  31.425  57.396  1.00  0.00     0.134 A 
ATOM     21  C   UNL     1      64.085  33.029  58.618  1.00  0.00     0.006 A 
ATOM     22  N   UNL     1      62.308  31.694  58.417  1.00  0.00    -0.191 N 
ATOM     23  C   UNL     1      62.868  32.673  59.147  1.00  0.00     0.087 A 
ATOM     24  C   UNL     1      64.856  34.052  59.180  1.00  0.00     0.011 A 
ATOM     25  C   UNL     1      62.344  33.300  60.281  1.00  0.00     0.030 A 
ATOM     26  C   UNL     1      64.354  34.697  60.325  1.00  0.00     0.001 A 
ATOM     27  C   UNL     1      63.107  34.325  60.872  1.00  0.00     0.002 A 
BRANCH  22  28
ATOM     28  O   UNL     1      61.063  31.137  58.639  1.00  0.00    -0.417 OA
ATOM     29  C   UNL     1      60.255  30.642  57.580  1.00  0.00     0.313 C 
ENDBRANCH  22  28
ENDBRANCH  18  19
ENDBRANCH   7  18
ENDBRANCH   4   7
ENDBRANCH   2   3
BRANCH   2  30
ATOM     30  N   UNL     1      68.034  29.267  59.813  1.00  0.00    -0.343 N 
ATOM     31  C   UNL     1      69.426  28.938  59.626  1.00  0.00     0.243 C 
ATOM     32  H   UNL     1      67.785  29.903  60.606  1.00  0.00     0.164 HD
ATOM     33  O   UNL     1      69.742  27.986  58.865  1.00  0.00    -0.273 OA
BRANCH  31  34
ATOM     34  C   UNL     1      70.503  29.705  60.371  1.00  0.00     0.174 C 
ATOM     35  N   UNL     1      70.960  30.926  59.676  1.00  0.00    -0.329 N 
ATOM     36  C   UNL     1      71.718  28.808  60.696  1.00  0.00     0.035 C 
ATOM     37  C   UNL     1      71.813  31.833  60.470  1.00  0.00     0.120 C 
ATOM     38  C   UNL     1      73.024  29.618  60.856  1.00  0.00     0.004 C 
ATOM     39  C   UNL     1      72.760  31.034  61.404  1.00  0.00     0.022 C 
BRANCH  35  40
ATOM     40  C   UNL     1      71.073  30.998  58.244  1.00  0.00     0.246 CG0
ATOM     41  O   UNL     1      71.696  30.089  57.626  1.00  0.00    -0.272 OA
ATOM     42  G   UNL     1      70.313  32.059  57.485  1.00  0.00     0.000 G0
ENDBRANCH  35  40
ENDBRANCH  31  34
ENDBRANCH   2  30
ENDBRANCH   1   2
BRANCH   1  43
ATOM     43  C   UNL     1      65.296  26.709  60.073  1.00  0.00     0.003 C 
BRANCH  43  44
ATOM     44  C   UNL     1      63.898  26.573  60.703  1.00  0.00     0.001 C 
BRANCH  44  45
ATOM     45  C   UNL     1      63.195  27.929  60.790  1.00  0.00     0.008 C 
BRANCH  45  46
ATOM     46  C   UNL     1      61.987  27.868  61.735  1.00  0.00     0.075 C 
BRANCH  46  47
ATOM     47  C   UNL     1      60.733  27.578  60.953  1.00  0.00     0.132 C 
ATOM     48  O   UNL     1      60.086  28.505  60.484  1.00  0.00    -0.300 OA
BRANCH  47  49
ATOM     49  C   UNL     1      60.225  26.168  60.808  1.00  0.00     0.072 C 
ATOM     50  C   UNL     1      60.529  25.350  62.058  1.00  0.00     0.012 C 
ENDBRANCH  47  49
ENDBRANCH  46  47
ENDBRANCH  45  46
ENDBRANCH  44  45
ENDBRANCH  43  44
ENDBRANCH   1  43
TORSDOF 12
ENDMDL
MODEL 9
REMARK VINA RESULT:    -3.569      8.092     11.196
REMARK INTER + INTRA:         -10.675
REMARK INTER:                  -7.406
REMARK INTRA:                  -3.269
REMARK UNBOUND:                -3.142
REMARK SMILES CCC(=O)CCCCC[C@@H]1NC(=O)[C@H]2CCCCN2C(=O)[C@@H]([C@@H](C)CC)NC(=O)[C@H](Cc2cn(OC)c3ccccc23)NC1=O
REMARK SMILES IDX 9 1 10 2 44 3 43 4 45 6 30 7 28 8 27 9 29 11 22 12 23 14
REMARK SMILES IDX 24 15 25 16 26 17 31 18 32 19 33 20 42 21 34 22 37 23 41 24
REMARK SMILES IDX 38 25 40 26 39 27 35 28 36 29 11 30 12 31 13 33 14 34 19 35
REMARK SMILES IDX 15 36 18 37 16 38 17 39 20 40 21 41 8 43 7 44 6 45 5 46 3 47
REMARK SMILES IDX 4 48 2 49 1 50
REMARK H PARENT 43 5 27 10 11 32
REMARK Flexibility Score: 80.00
ROOT
ATOM      1  C   UNL     1      65.591  28.678  60.821  1.00  0.00     0.035 C 
ENDROOT
BRANCH   1   2
ATOM      2  C   UNL     1      66.583  28.863  59.655  1.00  0.00     0.171 C 
BRANCH   2   3
ATOM      3  C   UNL     1      65.938  29.586  58.497  1.00  0.00     0.243 C 
ATOM      4  N   UNL     1      65.861  31.013  58.484  1.00  0.00    -0.342 N 
ATOM      5  H   UNL     1      65.893  31.510  59.406  1.00  0.00     0.164 HD
ATOM      6  O   UNL     1      65.491  28.924  57.522  1.00  0.00    -0.273 OA
BRANCH   4   7
ATOM      7  C   UNL     1      66.065  31.793  57.255  1.00  0.00     0.175 C 
BRANCH   7   8
ATOM      8  C   UNL     1      67.439  32.405  57.289  1.00  0.00     0.243 C 
ATOM      9  N   UNL     1      68.618  31.582  57.255  1.00  0.00    -0.342 N 
ATOM     10  H   UNL     1      68.495  30.551  57.140  1.00  0.00     0.164 HD
ATOM     11  O   UNL     1      67.547  33.660  57.350  1.00  0.00    -0.273 OA
BRANCH   9  12
ATOM     12  C   UNL     1      69.915  32.085  57.722  1.00  0.00     0.174 CG0
ATOM     13  G   UNL     1      70.654  30.961  58.408  1.00  0.00     0.000 G0
BRANCH  12  14
ATOM     14  C   UNL     1      70.717  32.807  56.593  1.00  0.00     0.018 C 
ATOM     15  C   UNL     1      70.158  32.568  55.174  1.00  0.00     0.010 C 
BRANCH  14  16
ATOM     16  C   UNL     1      70.823  34.335  56.843  1.00  0.00     0.002 C 
ATOM     17  C   UNL     1      71.926  35.016  56.029  1.00  0.00     0.004 C 
ENDBRANCH  14  16
ENDBRANCH  12  14
ENDBRANCH   9  12
ENDBRANCH   7   8
BRANCH   7  18
ATOM     18  C   UNL     1      65.002  32.898  57.148  1.00  0.00     0.073 C 
BRANCH  18  19
ATOM     19  C   UNL     1      64.432  33.019  55.761  1.00  0.00    -0.016 A 
ATOM     20  C   UNL     1      64.669  34.047  54.845  1.00  0.00     0.134 A 
ATOM     21  C   UNL     1      63.411  32.255  55.210  1.00  0.00     0.006 A 
ATOM     22  N   UNL     1      63.861  33.898  53.768  1.00  0.00    -0.191 N 
ATOM     23  C   UNL     1      63.094  32.820  53.997  1.00  0.00     0.087 A 
ATOM     24  C   UNL     1      62.729  31.135  55.696  1.00  0.00     0.011 A 
ATOM     25  C   UNL     1      62.088  32.296  53.181  1.00  0.00     0.030 A 
ATOM     26  C   UNL     1      61.715  30.585  54.891  1.00  0.00     0.001 A 
ATOM     27  C   UNL     1      61.395  31.161  53.643  1.00  0.00     0.002 A 
BRANCH  22  28
ATOM     28  O   UNL     1      63.771  34.729  52.668  1.00  0.00    -0.417 OA
ATOM     29  C   UNL     1      62.752  35.713  52.543  1.00  0.00     0.313 C 
ENDBRANCH  22  28
ENDBRANCH  18  19
ENDBRANCH   7  18
ENDBRANCH   4   7
ENDBRANCH   2   3
BRANCH   2  30
ATOM     30  N   UNL     1      67.781  29.589  60.107  1.00  0.00    -0.343 N 
ATOM     31  C   UNL     1      69.092  28.993  60.024  1.00  0.00     0.243 C 
ATOM     32  H   UNL     1      67.658  30.412  60.742  1.00  0.00     0.164 HD
ATOM     33  O   UNL     1      69.225  27.862  59.488  1.00  0.00    -0.273 OA
BRANCH  31  34
ATOM     34  C   UNL     1      70.296  29.702  60.612  1.00  0.00     0.174 C 
ATOM     35  N   UNL     1      70.727  30.891  59.848  1.00  0.00    -0.329 N 
ATOM     36  C   UNL     1      71.492  28.740  60.790  1.00  0.00     0.035 C 
ATOM     37  C   UNL     1      71.724  31.753  60.513  1.00  0.00     0.120 C 
ATOM     38  C   UNL     1      72.851  29.476  60.769  1.00  0.00     0.004 C 
ATOM     39  C   UNL     1      72.739  30.908  61.327  1.00  0.00     0.022 C 
BRANCH  35  40
ATOM     40  C   UNL     1      70.656  30.948  58.412  1.00  0.00     0.246 CG0
ATOM     41  O   UNL     1      71.092  29.976  57.733  1.00  0.00    -0.272 OA
ATOM     42  G   UNL     1      69.921  32.084  57.742  1.00  0.00     0.000 G0
ENDBRANCH  35  40
ENDBRANCH  31  34
ENDBRANCH   2  30
ENDBRANCH   1   2
BRANCH   1  43
ATOM     43  C   UNL     1      64.242  28.071  60.372  1.00  0.00     0.003 C 
BRANCH  43  44
ATOM     44  C   UNL     1      63.081  28.493  61.289  1.00  0.00     0.001 C 
BRANCH  44  45
ATOM     45  C   UNL     1      63.193  29.967  61.683  1.00  0.00     0.008 C 
BRANCH  45  46
ATOM     46  C   UNL     1      62.386  30.859  60.728  1.00  0.00     0.075 C 
BRANCH  46  47
ATOM     47  C   UNL     1      63.128  32.142  60.469  1.00  0.00     0.132 C 
ATOM     48  O   UNL     1      64.347  32.167  60.572  1.00  0.00    -0.300 OA
BRANCH  47  49
ATOM     49  C   UNL     1      62.383  33.415  60.160  1.00  0.00     0.072 C 
ATOM     50  C   UNL     1      61.501  33.242  58.928  1.00  0.00     0.012 C 
ENDBRANCH  47  49
ENDBRANCH  46  47
ENDBRANCH  45  46
ENDBRANCH  44  45
ENDBRANCH  43  44
ENDBRANCH   1  43
TORSDOF 12
ENDMDL
