MODEL 1
REMARK VINA RESULT:    -5.167      0.000      0.000
REMARK INTER + INTRA:          -6.555
REMARK INTER:                  -6.224
REMARK INTRA:                  -0.331
REMARK UNBOUND:                -0.331
REMARK SMILES O=c1c(O)c(-c2ccc(O)c(O)c2)oc2cc(O)cc(O)c12
REMARK SMILES IDX 5 1 3 2 2 3 1 4 22 5 20 6 19 7 17 8 16 9 15 10 14 11 6 12
REMARK SMILES IDX 7 13 8 14 9 15 13 16 11 17 10 18 12 20 4 22 21 24 18 26
REMARK H PARENT 10 19 12 21 4 23 21 25 18 27
REMARK Flexibility Score: inf
ROOT
ATOM      1  C   UNL     1      48.133  15.387  67.385  1.00  0.00     0.180 A 
ATOM      2  C   UNL     1      49.151  15.880  66.551  1.00  0.00     0.208 A 
ATOM      3  C   UNL     1      49.187  15.474  65.208  1.00  0.00     0.238 A 
ATOM      4  O   UNL     1      50.056  15.976  64.449  1.00  0.00    -0.285 OA
ATOM      5  C   UNL     1      48.239  14.539  64.727  1.00  0.00     0.111 A 
ATOM      6  C   UNL     1      48.208  14.023  63.397  1.00  0.00     0.134 A 
ATOM      7  C   UNL     1      47.158  13.182  63.006  1.00  0.00     0.093 A 
ATOM      8  C   UNL     1      46.175  12.788  63.912  1.00  0.00     0.123 A 
ATOM      9  C   UNL     1      46.226  13.241  65.231  1.00  0.00     0.094 A 
ATOM     10  C   UNL     1      47.238  14.112  65.641  1.00  0.00     0.146 A 
ATOM     11  O   UNL     1      47.238  14.537  66.899  1.00  0.00    -0.452 OA
ENDROOT
BRANCH   1  12
ATOM     12  C   UNL     1      48.020  15.780  68.808  1.00  0.00     0.025 A 
ATOM     13  C   UNL     1      48.618  14.980  69.795  1.00  0.00     0.016 A 
ATOM     14  C   UNL     1      48.507  15.319  71.145  1.00  0.00     0.051 A 
ATOM     15  C   UNL     1      47.784  16.455  71.531  1.00  0.00     0.157 A 
ATOM     16  C   UNL     1      47.277  16.908  69.201  1.00  0.00     0.062 A 
ATOM     17  C   UNL     1      47.163  17.248  70.558  1.00  0.00     0.158 A 
BRANCH  15  18
ATOM     18  O   UNL     1      47.672  16.798  72.876  1.00  0.00    -0.504 OA
ATOM     19  H   UNL     1      48.383  17.348  73.344  1.00  0.00     0.293 HD
ENDBRANCH  15  18
BRANCH  17  20
ATOM     20  O   UNL     1      46.433  18.370  70.944  1.00  0.00    -0.504 OA
ATOM     21  H   UNL     1      45.597  18.656  70.448  1.00  0.00     0.293 HD
ENDBRANCH  17  20
ENDBRANCH   1  12
BRANCH   2  22
ATOM     22  O   UNL     1      50.124  16.743  67.064  1.00  0.00    -0.502 OA
ATOM     23  H   UNL     1      49.904  17.677  67.387  1.00  0.00     0.293 HD
ENDBRANCH   2  22
BRANCH   6  24
ATOM     24  O   UNL     1      49.188  14.282  62.434  1.00  0.00    -0.507 OA
ATOM     25  H   UNL     1      49.310  13.762  61.578  1.00  0.00     0.293 HD
ENDBRANCH   6  24
BRANCH   8  26
ATOM     26  O   UNL     1      45.155  11.936  63.493  1.00  0.00    -0.508 OA
ATOM     27  H   UNL     1      44.671  12.080  62.614  1.00  0.00     0.293 HD
ENDBRANCH   8  26
TORSDOF 6
ENDMDL
MODEL 2
REMARK VINA RESULT:    -4.781      1.920      2.912
REMARK INTER + INTRA:          -6.090
REMARK INTER:                  -6.033
REMARK INTRA:                  -0.056
REMARK UNBOUND:                -0.331
REMARK SMILES O=c1c(O)c(-c2ccc(O)c(O)c2)oc2cc(O)cc(O)c12
REMARK SMILES IDX 5 1 3 2 2 3 1 4 22 5 20 6 19 7 17 8 16 9 15 10 14 11 6 12
REMARK SMILES IDX 7 13 8 14 9 15 13 16 11 17 10 18 12 20 4 22 21 24 18 26
REMARK H PARENT 10 19 12 21 4 23 21 25 18 27
REMARK Flexibility Score: inf
ROOT
ATOM      1  C   UNL     1      47.962  15.184  67.169  1.00  0.00     0.180 A 
ATOM      2  C   UNL     1      46.621  15.214  66.746  1.00  0.00     0.208 A 
ATOM      3  C   UNL     1      46.214  14.353  65.716  1.00  0.00     0.238 A 
ATOM      4  O   UNL     1      44.997  14.331  65.393  1.00  0.00    -0.285 OA
ATOM      5  C   UNL     1      47.160  13.512  65.081  1.00  0.00     0.111 A 
ATOM      6  C   UNL     1      46.868  12.632  63.996  1.00  0.00     0.134 A 
ATOM      7  C   UNL     1      47.864  11.771  63.518  1.00  0.00     0.093 A 
ATOM      8  C   UNL     1      49.155  11.801  64.042  1.00  0.00     0.123 A 
ATOM      9  C   UNL     1      49.468  12.697  65.065  1.00  0.00     0.094 A 
ATOM     10  C   UNL     1      48.487  13.541  65.590  1.00  0.00     0.146 A 
ATOM     11  O   UNL     1      48.820  14.363  66.578  1.00  0.00    -0.452 OA
ENDROOT
BRANCH   1  12
ATOM     12  C   UNL     1      48.464  16.051  68.259  1.00  0.00     0.025 A 
ATOM     13  C   UNL     1      49.621  16.819  68.053  1.00  0.00     0.016 A 
ATOM     14  C   UNL     1      50.125  17.628  69.074  1.00  0.00     0.051 A 
ATOM     15  C   UNL     1      49.489  17.670  70.321  1.00  0.00     0.157 A 
ATOM     16  C   UNL     1      47.840  16.079  69.520  1.00  0.00     0.062 A 
ATOM     17  C   UNL     1      48.347  16.890  70.546  1.00  0.00     0.158 A 
BRANCH  15  18
ATOM     18  O   UNL     1      49.987  18.476  71.342  1.00  0.00    -0.504 OA
ATOM     19  H   UNL     1      50.213  18.097  72.255  1.00  0.00     0.293 HD
ENDBRANCH  15  18
BRANCH  17  20
ATOM     20  O   UNL     1      47.724  16.922  71.792  1.00  0.00    -0.504 OA
ATOM     21  H   UNL     1      46.745  16.684  71.903  1.00  0.00     0.293 HD
ENDBRANCH  17  20
ENDBRANCH   1  12
BRANCH   2  22
ATOM     22  O   UNL     1      45.718  16.105  67.333  1.00  0.00    -0.502 OA
ATOM     23  H   UNL     1      45.525  17.018  66.941  1.00  0.00     0.293 HD
ENDBRANCH   2  22
BRANCH   6  24
ATOM     24  O   UNL     1      45.635  12.582  63.339  1.00  0.00    -0.507 OA
ATOM     25  H   UNL     1      45.227  11.752  62.938  1.00  0.00     0.293 HD
ENDBRANCH   6  24
BRANCH   8  26
ATOM     26  O   UNL     1      50.125  10.941  63.530  1.00  0.00    -0.508 OA
ATOM     27  H   UNL     1      49.889  10.013  63.197  1.00  0.00     0.293 HD
ENDBRANCH   8  26
TORSDOF 6
ENDMDL
MODEL 3
REMARK VINA RESULT:    -4.744      2.006      6.925
REMARK INTER + INTRA:          -6.046
REMARK INTER:                  -5.818
REMARK INTRA:                  -0.228
REMARK UNBOUND:                -0.331
REMARK SMILES O=c1c(O)c(-c2ccc(O)c(O)c2)oc2cc(O)cc(O)c12
REMARK SMILES IDX 5 1 3 2 2 3 1 4 22 5 20 6 19 7 17 8 16 9 15 10 14 11 6 12
REMARK SMILES IDX 7 13 8 14 9 15 13 16 11 17 10 18 12 20 4 22 21 24 18 26
REMARK H PARENT 10 19 12 21 4 23 21 25 18 27
REMARK Flexibility Score: inf
ROOT
ATOM      1  C   UNL     1      48.146  15.490  68.640  1.00  0.00     0.180 A 
ATOM      2  C   UNL     1      48.916  16.661  68.759  1.00  0.00     0.208 A 
ATOM      3  C   UNL     1      49.373  17.049  70.028  1.00  0.00     0.238 A 
ATOM      4  O   UNL     1      50.123  18.056  70.117  1.00  0.00    -0.285 OA
ATOM      5  C   UNL     1      49.009  16.296  71.170  1.00  0.00     0.111 A 
ATOM      6  C   UNL     1      49.378  16.623  72.510  1.00  0.00     0.134 A 
ATOM      7  C   UNL     1      49.049  15.744  73.551  1.00  0.00     0.093 A 
ATOM      8  C   UNL     1      48.312  14.586  73.310  1.00  0.00     0.123 A 
ATOM      9  C   UNL     1      47.898  14.285  72.012  1.00  0.00     0.094 A 
ATOM     10  C   UNL     1      48.244  15.121  70.948  1.00  0.00     0.146 A 
ATOM     11  O   UNL     1      47.849  14.786  69.725  1.00  0.00    -0.452 OA
ENDROOT
BRANCH   1  12
ATOM     12  C   UNL     1      47.641  15.008  67.335  1.00  0.00     0.025 A 
ATOM     13  C   UNL     1      48.542  14.472  66.401  1.00  0.00     0.016 A 
ATOM     14  C   UNL     1      48.092  14.030  65.156  1.00  0.00     0.051 A 
ATOM     15  C   UNL     1      46.736  14.131  64.818  1.00  0.00     0.157 A 
ATOM     16  C   UNL     1      46.284  15.127  66.985  1.00  0.00     0.062 A 
ATOM     17  C   UNL     1      45.831  14.685  65.732  1.00  0.00     0.158 A 
BRANCH  15  18
ATOM     18  O   UNL     1      46.282  13.690  63.577  1.00  0.00    -0.504 OA
ATOM     19  H   UNL     1      45.899  14.333  62.894  1.00  0.00     0.293 HD
ENDBRANCH  15  18
BRANCH  17  20
ATOM     20  O   UNL     1      44.485  14.798  65.390  1.00  0.00    -0.504 OA
ATOM     21  H   UNL     1      43.948  13.998  65.076  1.00  0.00     0.293 HD
ENDBRANCH  17  20
ENDBRANCH   1  12
BRANCH   2  22
ATOM     22  O   UNL     1      49.200  17.433  67.629  1.00  0.00    -0.502 OA
ATOM     23  H   UNL     1      50.128  17.487  67.228  1.00  0.00     0.293 HD
ENDBRANCH   2  22
BRANCH   6  24
ATOM     24  O   UNL     1      50.039  17.799  72.876  1.00  0.00    -0.507 OA
ATOM     25  H   UNL     1      49.611  18.710  72.930  1.00  0.00     0.293 HD
ENDBRANCH   6  24
BRANCH   8  26
ATOM     26  O   UNL     1      47.989  13.744  74.372  1.00  0.00    -0.508 OA
ATOM     27  H   UNL     1      48.121  12.741  74.313  1.00  0.00     0.293 HD
ENDBRANCH   8  26
TORSDOF 6
ENDMDL
MODEL 4
REMARK VINA RESULT:    -4.549      1.219      1.261
REMARK INTER + INTRA:          -5.811
REMARK INTER:                  -5.519
REMARK INTRA:                  -0.292
REMARK UNBOUND:                -0.331
REMARK SMILES O=c1c(O)c(-c2ccc(O)c(O)c2)oc2cc(O)cc(O)c12
REMARK SMILES IDX 5 1 3 2 2 3 1 4 22 5 20 6 19 7 17 8 16 9 15 10 14 11 6 12
REMARK SMILES IDX 7 13 8 14 9 15 13 16 11 17 10 18 12 20 4 22 21 24 18 26
REMARK H PARENT 10 19 12 21 4 23 21 25 18 27
REMARK Flexibility Score: inf
ROOT
ATOM      1  C   UNL     1      48.766  15.086  68.004  1.00  0.00     0.180 A 
ATOM      2  C   UNL     1      49.454  16.014  67.204  1.00  0.00     0.208 A 
ATOM      3  C   UNL     1      49.570  15.771  65.826  1.00  0.00     0.238 A 
ATOM      4  O   UNL     1      50.123  16.641  65.104  1.00  0.00    -0.285 OA
ATOM      5  C   UNL     1      49.048  14.577  65.273  1.00  0.00     0.111 A 
ATOM      6  C   UNL     1      49.148  14.205  63.899  1.00  0.00     0.134 A 
ATOM      7  C   UNL     1      48.499  13.049  63.447  1.00  0.00     0.093 A 
ATOM      8  C   UNL     1      47.808  12.219  64.328  1.00  0.00     0.123 A 
ATOM      9  C   UNL     1      47.751  12.542  65.684  1.00  0.00     0.094 A 
ATOM     10  C   UNL     1      48.354  13.709  66.159  1.00  0.00     0.146 A 
ATOM     11  O   UNL     1      48.257  13.992  67.453  1.00  0.00    -0.452 OA
ENDROOT
BRANCH   1  12
ATOM     12  C   UNL     1      48.588  15.280  69.461  1.00  0.00     0.025 A 
ATOM     13  C   UNL     1      49.346  14.510  70.357  1.00  0.00     0.016 A 
ATOM     14  C   UNL     1      49.181  14.661  71.736  1.00  0.00     0.051 A 
ATOM     15  C   UNL     1      48.244  15.573  72.239  1.00  0.00     0.157 A 
ATOM     16  C   UNL     1      47.634  16.180  69.970  1.00  0.00     0.062 A 
ATOM     17  C   UNL     1      47.466  16.330  71.355  1.00  0.00     0.158 A 
BRANCH  15  18
ATOM     18  O   UNL     1      48.077  15.728  73.614  1.00  0.00    -0.504 OA
ATOM     19  H   UNL     1      48.863  15.688  74.251  1.00  0.00     0.293 HD
ENDBRANCH  15  18
BRANCH  17  20
ATOM     20  O   UNL     1      46.524  17.226  71.857  1.00  0.00    -0.504 OA
ATOM     21  H   UNL     1      45.902  16.973  72.616  1.00  0.00     0.293 HD
ENDBRANCH  17  20
ENDBRANCH   1  12
BRANCH   2  22
ATOM     22  O   UNL     1      50.030  17.150  67.781  1.00  0.00    -0.502 OA
ATOM     23  H   UNL     1      50.827  17.622  67.371  1.00  0.00     0.293 HD
ENDBRANCH   2  22
BRANCH   6  24
ATOM     24  O   UNL     1      49.886  14.915  62.948  1.00  0.00    -0.507 OA
ATOM     25  H   UNL     1      50.871  15.122  63.017  1.00  0.00     0.293 HD
ENDBRANCH   6  24
BRANCH   8  26
ATOM     26  O   UNL     1      47.190  11.067  63.846  1.00  0.00    -0.508 OA
ATOM     27  H   UNL     1      46.500  11.107  63.104  1.00  0.00     0.293 HD
ENDBRANCH   8  26
TORSDOF 6
ENDMDL
MODEL 5
REMARK VINA RESULT:    -4.304      2.097      7.263
REMARK INTER + INTRA:          -5.515
REMARK INTER:                  -5.206
REMARK INTRA:                  -0.309
REMARK UNBOUND:                -0.331
REMARK SMILES O=c1c(O)c(-c2ccc(O)c(O)c2)oc2cc(O)cc(O)c12
REMARK SMILES IDX 5 1 3 2 2 3 1 4 22 5 20 6 19 7 17 8 16 9 15 10 14 11 6 12
REMARK SMILES IDX 7 13 8 14 9 15 13 16 11 17 10 18 12 20 4 22 21 24 18 26
REMARK H PARENT 10 19 12 21 4 23 21 25 18 27
REMARK Flexibility Score: inf
ROOT
ATOM      1  C   UNL     1      48.813  14.397  68.654  1.00  0.00     0.180 A 
ATOM      2  C   UNL     1      49.353  13.381  69.463  1.00  0.00     0.208 A 
ATOM      3  C   UNL     1      49.125  13.420  70.847  1.00  0.00     0.238 A 
ATOM      4  O   UNL     1      49.548  12.469  71.555  1.00  0.00    -0.285 OA
ATOM      5  C   UNL     1      48.408  14.501  71.414  1.00  0.00     0.111 A 
ATOM      6  C   UNL     1      48.155  14.667  72.810  1.00  0.00     0.134 A 
ATOM      7  C   UNL     1      47.343  15.722  73.244  1.00  0.00     0.093 A 
ATOM      8  C   UNL     1      46.826  16.652  72.344  1.00  0.00     0.123 A 
ATOM      9  C   UNL     1      47.113  16.532  70.984  1.00  0.00     0.094 A 
ATOM     10  C   UNL     1      47.887  15.469  70.514  1.00  0.00     0.146 A 
ATOM     11  O   UNL     1      48.117  15.380  69.210  1.00  0.00    -0.452 OA
ENDROOT
BRANCH   1  12
ATOM     12  C   UNL     1      48.998  14.416  67.185  1.00  0.00     0.025 A 
ATOM     13  C   UNL     1      49.941  15.290  66.620  1.00  0.00     0.016 A 
ATOM     14  C   UNL     1      50.118  15.341  65.235  1.00  0.00     0.051 A 
ATOM     15  C   UNL     1      49.345  14.531  64.394  1.00  0.00     0.157 A 
ATOM     16  C   UNL     1      48.209  13.620  66.336  1.00  0.00     0.062 A 
ATOM     17  C   UNL     1      48.385  13.673  64.945  1.00  0.00     0.158 A 
BRANCH  15  18
ATOM     18  O   UNL     1      49.519  14.578  63.013  1.00  0.00    -0.504 OA
ATOM     19  H   UNL     1      49.858  13.776  62.494  1.00  0.00     0.293 HD
ENDBRANCH  15  18
BRANCH  17  20
ATOM     20  O   UNL     1      47.606  12.878  64.105  1.00  0.00    -0.504 OA
ATOM     21  H   UNL     1      47.265  11.970  64.399  1.00  0.00     0.293 HD
ENDBRANCH  17  20
ENDBRANCH   1  12
BRANCH   2  22
ATOM     22  O   UNL     1      50.124  12.363  68.893  1.00  0.00    -0.502 OA
ATOM     23  H   UNL     1      49.724  11.651  68.293  1.00  0.00     0.293 HD
ENDBRANCH   2  22
BRANCH   6  24
ATOM     24  O   UNL     1      48.694  13.846  73.805  1.00  0.00    -0.507 OA
ATOM     25  H   UNL     1      48.173  13.449  74.572  1.00  0.00     0.293 HD
ENDBRANCH   6  24
BRANCH   8  26
ATOM     26  O   UNL     1      46.036  17.698  72.814  1.00  0.00    -0.508 OA
ATOM     27  H   UNL     1      45.244  18.044  72.285  1.00  0.00     0.293 HD
ENDBRANCH   8  26
TORSDOF 6
ENDMDL
MODEL 6
REMARK VINA RESULT:    -4.244      1.836      6.798
REMARK INTER + INTRA:          -5.443
REMARK INTER:                  -5.148
REMARK INTRA:                  -0.294
REMARK UNBOUND:                -0.331
REMARK SMILES O=c1c(O)c(-c2ccc(O)c(O)c2)oc2cc(O)cc(O)c12
REMARK SMILES IDX 5 1 3 2 2 3 1 4 22 5 20 6 19 7 17 8 16 9 15 10 14 11 6 12
REMARK SMILES IDX 7 13 8 14 9 15 13 16 11 17 10 18 12 20 4 22 21 24 18 26
REMARK H PARENT 10 19 12 21 4 23 21 25 18 27
REMARK Flexibility Score: inf
ROOT
ATOM      1  C   UNL     1      48.749  14.812  67.649  1.00  0.00     0.180 A 
ATOM      2  C   UNL     1      49.302  16.076  67.378  1.00  0.00     0.208 A 
ATOM      3  C   UNL     1      49.562  16.949  68.446  1.00  0.00     0.238 A 
ATOM      4  O   UNL     1      50.125  18.048  68.204  1.00  0.00    -0.285 OA
ATOM      5  C   UNL     1      49.217  16.572  69.766  1.00  0.00     0.111 A 
ATOM      6  C   UNL     1      49.393  17.394  70.920  1.00  0.00     0.134 A 
ATOM      7  C   UNL     1      49.112  16.873  72.189  1.00  0.00     0.093 A 
ATOM      8  C   UNL     1      48.602  15.585  72.343  1.00  0.00     0.123 A 
ATOM      9  C   UNL     1      48.372  14.792  71.218  1.00  0.00     0.094 A 
ATOM     10  C   UNL     1      48.679  15.268  69.942  1.00  0.00     0.146 A 
ATOM     11  O   UNL     1      48.466  14.473  68.900  1.00  0.00    -0.452 OA
ENDROOT
BRANCH   1  12
ATOM     12  C   UNL     1      48.461  13.832  66.578  1.00  0.00     0.025 A 
ATOM     13  C   UNL     1      49.379  12.803  66.318  1.00  0.00     0.016 A 
ATOM     14  C   UNL     1      49.138  11.879  65.298  1.00  0.00     0.051 A 
ATOM     15  C   UNL     1      47.982  11.980  64.513  1.00  0.00     0.157 A 
ATOM     16  C   UNL     1      47.312  13.943  65.773  1.00  0.00     0.062 A 
ATOM     17  C   UNL     1      47.070  13.017  64.748  1.00  0.00     0.158 A 
BRANCH  15  18
ATOM     18  O   UNL     1      47.737  11.060  63.496  1.00  0.00    -0.504 OA
ATOM     19  H   UNL     1      47.086  11.261  62.745  1.00  0.00     0.293 HD
ENDBRANCH  15  18
BRANCH  17  20
ATOM     20  O   UNL     1      45.928  13.123  63.956  1.00  0.00    -0.504 OA
ATOM     21  H   UNL     1      45.007  12.909  64.321  1.00  0.00     0.293 HD
ENDBRANCH  17  20
ENDBRANCH   1  12
BRANCH   2  22
ATOM     22  O   UNL     1      49.565  16.461  66.060  1.00  0.00    -0.502 OA
ATOM     23  H   UNL     1      49.250  15.920  65.264  1.00  0.00     0.293 HD
ENDBRANCH   2  22
BRANCH   6  24
ATOM     24  O   UNL     1      49.814  18.726  70.874  1.00  0.00    -0.507 OA
ATOM     25  H   UNL     1      50.742  19.048  71.104  1.00  0.00     0.293 HD
ENDBRANCH   6  24
BRANCH   8  26
ATOM     26  O   UNL     1      48.317  15.106  73.620  1.00  0.00    -0.508 OA
ATOM     27  H   UNL     1      49.052  14.792  74.245  1.00  0.00     0.293 HD
ENDBRANCH   8  26
TORSDOF 6
ENDMDL
MODEL 7
REMARK VINA RESULT:    -4.210      3.884      6.724
REMARK INTER + INTRA:          -5.402
REMARK INTER:                  -5.079
REMARK INTRA:                  -0.323
REMARK UNBOUND:                -0.331
REMARK SMILES O=c1c(O)c(-c2ccc(O)c(O)c2)oc2cc(O)cc(O)c12
REMARK SMILES IDX 5 1 3 2 2 3 1 4 22 5 20 6 19 7 17 8 16 9 15 10 14 11 6 12
REMARK SMILES IDX 7 13 8 14 9 15 13 16 11 17 10 18 12 20 4 22 21 24 18 26
REMARK H PARENT 10 19 12 21 4 23 21 25 18 27
REMARK Flexibility Score: inf
ROOT
ATOM      1  C   UNL     1      48.857  13.938  72.846  1.00  0.00     0.180 A 
ATOM      2  C   UNL     1      49.438  13.271  71.752  1.00  0.00     0.208 A 
ATOM      3  C   UNL     1      49.340  13.845  70.476  1.00  0.00     0.238 A 
ATOM      4  O   UNL     1      49.925  13.281  69.514  1.00  0.00    -0.285 OA
ATOM      5  C   UNL     1      48.617  15.049  70.296  1.00  0.00     0.111 A 
ATOM      6  C   UNL     1      48.415  15.697  69.040  1.00  0.00     0.134 A 
ATOM      7  C   UNL     1      47.771  16.940  68.999  1.00  0.00     0.093 A 
ATOM      8  C   UNL     1      47.268  17.529  70.157  1.00  0.00     0.123 A 
ATOM      9  C   UNL     1      47.410  16.879  71.384  1.00  0.00     0.094 A 
ATOM     10  C   UNL     1      48.081  15.656  71.463  1.00  0.00     0.146 A 
ATOM     11  O   UNL     1      48.213  15.082  72.652  1.00  0.00    -0.452 OA
ENDROOT
BRANCH   1  12
ATOM     12  C   UNL     1      48.931  13.403  74.224  1.00  0.00     0.025 A 
ATOM     13  C   UNL     1      50.024  13.741  75.038  1.00  0.00     0.016 A 
ATOM     14  C   UNL     1      50.125  13.232  76.335  1.00  0.00     0.051 A 
ATOM     15  C   UNL     1      49.143  12.365  76.832  1.00  0.00     0.157 A 
ATOM     16  C   UNL     1      47.958  12.516  74.719  1.00  0.00     0.062 A 
ATOM     17  C   UNL     1      48.061  12.002  76.021  1.00  0.00     0.158 A 
BRANCH  15  18
ATOM     18  O   UNL     1      49.240  11.855  78.125  1.00  0.00    -0.504 OA
ATOM     19  H   UNL     1      49.635  10.940  78.306  1.00  0.00     0.293 HD
ENDBRANCH  15  18
BRANCH  17  20
ATOM     20  O   UNL     1      47.092  11.128  76.512  1.00  0.00    -0.504 OA
ATOM     21  H   UNL     1      46.674  11.259  77.426  1.00  0.00     0.293 HD
ENDBRANCH  17  20
ENDBRANCH   1  12
BRANCH   2  22
ATOM     22  O   UNL     1      50.082  12.045  71.938  1.00  0.00    -0.502 OA
ATOM     23  H   UNL     1      49.687  11.305  72.506  1.00  0.00     0.293 HD
ENDBRANCH   2  22
BRANCH   6  24
ATOM     24  O   UNL     1      48.800  15.156  67.809  1.00  0.00    -0.507 OA
ATOM     25  H   UNL     1      48.180  14.990  67.031  1.00  0.00     0.293 HD
ENDBRANCH   6  24
BRANCH   8  26
ATOM     26  O   UNL     1      46.618  18.759  70.077  1.00  0.00    -0.508 OA
ATOM     27  H   UNL     1      46.822  19.510  70.727  1.00  0.00     0.293 HD
ENDBRANCH   8  26
TORSDOF 6
ENDMDL
MODEL 8
REMARK VINA RESULT:    -4.167      4.150      6.294
REMARK INTER + INTRA:          -5.351
REMARK INTER:                  -5.144
REMARK INTRA:                  -0.206
REMARK UNBOUND:                -0.331
REMARK SMILES O=c1c(O)c(-c2ccc(O)c(O)c2)oc2cc(O)cc(O)c12
REMARK SMILES IDX 5 1 3 2 2 3 1 4 22 5 20 6 19 7 17 8 16 9 15 10 14 11 6 12
REMARK SMILES IDX 7 13 8 14 9 15 13 16 11 17 10 18 12 20 4 22 21 24 18 26
REMARK H PARENT 10 19 12 21 4 23 21 25 18 27
REMARK Flexibility Score: inf
ROOT
ATOM      1  C   UNL     1      49.206  17.583  70.144  1.00  0.00     0.180 A 
ATOM      2  C   UNL     1      49.579  16.707  69.109  1.00  0.00     0.208 A 
ATOM      3  C   UNL     1      49.520  15.323  69.334  1.00  0.00     0.238 A 
ATOM      4  O   UNL     1      49.784  14.545  68.380  1.00  0.00    -0.285 OA
ATOM      5  C   UNL     1      49.141  14.830  70.606  1.00  0.00     0.111 A 
ATOM      6  C   UNL     1      49.090  13.448  70.960  1.00  0.00     0.134 A 
ATOM      7  C   UNL     1      48.598  13.075  72.217  1.00  0.00     0.093 A 
ATOM      8  C   UNL     1      48.217  14.032  73.155  1.00  0.00     0.123 A 
ATOM      9  C   UNL     1      48.317  15.388  72.841  1.00  0.00     0.094 A 
ATOM     10  C   UNL     1      48.766  15.792  71.582  1.00  0.00     0.146 A 
ATOM     11  O   UNL     1      48.824  17.091  71.316  1.00  0.00    -0.452 OA
ENDROOT
BRANCH   1  12
ATOM     12  C   UNL     1      49.228  19.054  69.979  1.00  0.00     0.025 A 
ATOM     13  C   UNL     1      50.102  19.824  70.763  1.00  0.00     0.016 A 
ATOM     14  C   UNL     1      50.125  21.215  70.639  1.00  0.00     0.051 A 
ATOM     15  C   UNL     1      49.264  21.858  69.740  1.00  0.00     0.157 A 
ATOM     16  C   UNL     1      48.350  19.705  69.093  1.00  0.00     0.062 A 
ATOM     17  C   UNL     1      48.372  21.103  68.970  1.00  0.00     0.158 A 
BRANCH  15  18
ATOM     18  O   UNL     1      49.285  23.245  69.613  1.00  0.00    -0.504 OA
ATOM     19  H   UNL     1      50.157  23.760  69.562  1.00  0.00     0.293 HD
ENDBRANCH  15  18
BRANCH  17  20
ATOM     20  O   UNL     1      47.507  21.746  68.087  1.00  0.00    -0.504 OA
ATOM     21  H   UNL     1      47.215  22.705  68.233  1.00  0.00     0.293 HD
ENDBRANCH  17  20
ENDBRANCH   1  12
BRANCH   2  22
ATOM     22  O   UNL     1      50.024  17.215  67.885  1.00  0.00    -0.502 OA
ATOM     23  H   UNL     1      50.348  18.169  67.778  1.00  0.00     0.293 HD
ENDBRANCH   2  22
BRANCH   6  24
ATOM     24  O   UNL     1      49.528  12.411  70.131  1.00  0.00    -0.507 OA
ATOM     25  H   UNL     1      50.173  11.685  70.404  1.00  0.00     0.293 HD
ENDBRANCH   6  24
BRANCH   8  26
ATOM     26  O   UNL     1      47.750  13.625  74.403  1.00  0.00    -0.508 OA
ATOM     27  H   UNL     1      46.813  13.255  74.524  1.00  0.00     0.293 HD
ENDBRANCH   8  26
TORSDOF 6
ENDMDL
MODEL 9
REMARK VINA RESULT:    -4.116      2.124      7.273
REMARK INTER + INTRA:          -5.289
REMARK INTER:                  -5.067
REMARK INTRA:                  -0.222
REMARK UNBOUND:                -0.331
REMARK SMILES O=c1c(O)c(-c2ccc(O)c(O)c2)oc2cc(O)cc(O)c12
REMARK SMILES IDX 5 1 3 2 2 3 1 4 22 5 20 6 19 7 17 8 16 9 15 10 14 11 6 12
REMARK SMILES IDX 7 13 8 14 9 15 13 16 11 17 10 18 12 20 4 22 21 24 18 26
REMARK H PARENT 10 19 12 21 4 23 21 25 18 27
REMARK Flexibility Score: inf
ROOT
ATOM      1  C   UNL     1      48.670  14.970  68.746  1.00  0.00     0.180 A 
ATOM      2  C   UNL     1      47.800  15.952  69.252  1.00  0.00     0.208 A 
ATOM      3  C   UNL     1      47.542  15.988  70.630  1.00  0.00     0.238 A 
ATOM      4  O   UNL     1      46.822  16.914  71.086  1.00  0.00    -0.285 OA
ATOM      5  C   UNL     1      48.110  15.008  71.481  1.00  0.00     0.111 A 
ATOM      6  C   UNL     1      47.880  14.920  72.887  1.00  0.00     0.134 A 
ATOM      7  C   UNL     1      48.581  13.972  73.643  1.00  0.00     0.093 A 
ATOM      8  C   UNL     1      49.453  13.069  73.038  1.00  0.00     0.123 A 
ATOM      9  C   UNL     1      49.642  13.108  71.656  1.00  0.00     0.094 A 
ATOM     10  C   UNL     1      48.988  14.068  70.880  1.00  0.00     0.146 A 
ATOM     11  O   UNL     1      49.214  14.085  69.572  1.00  0.00    -0.452 OA
ENDROOT
BRANCH   1  12
ATOM     12  C   UNL     1      49.003  14.878  67.306  1.00  0.00     0.025 A 
ATOM     13  C   UNL     1      49.813  15.864  66.721  1.00  0.00     0.016 A 
ATOM     14  C   UNL     1      50.123  15.809  65.360  1.00  0.00     0.051 A 
ATOM     15  C   UNL     1      49.616  14.776  64.561  1.00  0.00     0.157 A 
ATOM     16  C   UNL     1      48.479  13.854  66.497  1.00  0.00     0.062 A 
ATOM     17  C   UNL     1      48.788  13.800  65.129  1.00  0.00     0.158 A 
BRANCH  15  18
ATOM     18  O   UNL     1      49.924  14.717  63.204  1.00  0.00    -0.504 OA
ATOM     19  H   UNL     1      50.184  13.845  62.757  1.00  0.00     0.293 HD
ENDBRANCH  15  18
BRANCH  17  20
ATOM     20  O   UNL     1      48.273  12.781  64.330  1.00  0.00    -0.504 OA
ATOM     21  H   UNL     1      48.463  11.805  64.526  1.00  0.00     0.293 HD
ENDBRANCH  17  20
ENDBRANCH   1  12
BRANCH   2  22
ATOM     22  O   UNL     1      47.189  16.863  68.385  1.00  0.00    -0.502 OA
ATOM     23  H   UNL     1      47.464  16.959  67.415  1.00  0.00     0.293 HD
ENDBRANCH   2  22
BRANCH   6  24
ATOM     24  O   UNL     1      46.964  15.716  73.582  1.00  0.00    -0.507 OA
ATOM     25  H   UNL     1      46.118  16.099  73.191  1.00  0.00     0.293 HD
ENDBRANCH   6  24
BRANCH   8  26
ATOM     26  O   UNL     1      50.119  12.128  73.820  1.00  0.00    -0.508 OA
ATOM     27  H   UNL     1      49.647  11.623  74.561  1.00  0.00     0.293 HD
ENDBRANCH   8  26
TORSDOF 6
ENDMDL
