MODEL 1
REMARK VINA RESULT:    -4.709      0.000      0.000
REMARK INTER + INTRA:          -7.335
REMARK INTER:                  -7.186
REMARK INTRA:                  -0.149
REMARK UNBOUND:                -0.149
REMARK SMILES CC1=CCC[C@@H](C)C(=O)C[C@@H](C(C)C)C(=O)C1
REMARK SMILES IDX 8 1 9 2 6 3 7 4 5 5 4 6 3 7 2 8 1 9 10 11 11 12 15 13 16 14
REMARK SMILES IDX 17 15 12 17 13 18 14 19
REMARK H PARENT
REMARK Flexibility Score: 70.00
ROOT
ATOM      1  C   UNL     1      11.778 -33.091 -28.946  1.00  0.00     0.136 C 
ATOM      2  O   UNL     1      10.672 -32.599 -29.106  1.00  0.00    -0.299 OA
ENDROOT
BRANCH   1   3
ATOM      3  C   UNL     1      11.933 -34.253 -27.977  1.00  0.00     0.053 C 
ATOM      4  C   UNL     1      11.205 -33.915 -26.670  1.00  0.00     0.016 C 
BRANCH   3   5
ATOM      5  C   UNL     1      13.416 -34.622 -27.699  1.00  0.00     0.015 C 
BRANCH   5   6
ATOM      6  C   UNL     1      14.000 -35.758 -28.563  1.00  0.00     0.028 C 
BRANCH   6   7
ATOM      7  C   UNL     1      13.046 -36.465 -29.496  1.00  0.00    -0.028 C 
ATOM      8  C   UNL     1      12.957 -36.284 -30.834  1.00  0.00    -0.070 CG0
ATOM      9  C   UNL     1      12.146 -37.290 -31.615  1.00  0.00     0.039 C 
ATOM     10  G   UNL     1      13.633 -35.146 -31.580  1.00  0.00     0.000 G0
ENDBRANCH   6   7
ENDBRANCH   5   6
ENDBRANCH   3   5
ENDBRANCH   1   3
BRANCH   1  11
ATOM     11  C   UNL     1      12.978 -32.444 -29.610  1.00  0.00     0.087 C 
BRANCH  11  12
ATOM     12  C   UNL     1      13.042 -32.571 -31.161  1.00  0.00     0.066 C 
BRANCH  12  13
ATOM     13  C   UNL     1      12.688 -33.957 -31.684  1.00  0.00     0.140 C 
ATOM     14  O   UNL     1      11.622 -34.094 -32.266  1.00  0.00    -0.299 OA
BRANCH  13  15
ATOM     15  C   UNL     1      13.626 -35.141 -31.592  1.00  0.00     0.106 CG0
ATOM     16  G   UNL     1      12.974 -36.283 -30.831  1.00  0.00     0.000 G0
ENDBRANCH  13  15
ENDBRANCH  12  13
BRANCH  12  17
ATOM     17  C   UNL     1      14.414 -32.087 -31.729  1.00  0.00    -0.006 C 
ATOM     18  C   UNL     1      14.986 -30.917 -30.908  1.00  0.00     0.008 C 
ATOM     19  C   UNL     1      14.306 -31.653 -33.203  1.00  0.00     0.008 C 
ENDBRANCH  12  17
ENDBRANCH  11  12
ENDBRANCH   1  11
TORSDOF 1
ENDMDL
MODEL 2
REMARK VINA RESULT:    -4.416      1.849      4.172
REMARK INTER + INTRA:          -6.889
REMARK INTER:                  -6.885
REMARK INTRA:                  -0.004
REMARK UNBOUND:                -0.149
REMARK SMILES CC1=CCC[C@@H](C)C(=O)C[C@@H](C(C)C)C(=O)C1
REMARK SMILES IDX 8 1 9 2 6 3 7 4 5 5 4 6 3 7 2 8 1 9 10 11 11 12 15 13 16 14
REMARK SMILES IDX 17 15 12 17 13 18 14 19
REMARK H PARENT
REMARK Flexibility Score: 70.00
ROOT
ATOM      1  C   UNL     1      13.276 -32.516 -30.489  1.00  0.00     0.136 C 
ATOM      2  O   UNL     1      14.069 -31.617 -30.252  1.00  0.00    -0.299 OA
ENDROOT
BRANCH   1   3
ATOM      3  C   UNL     1      13.039 -32.925 -31.934  1.00  0.00     0.053 C 
ATOM      4  C   UNL     1      13.898 -32.044 -32.851  1.00  0.00     0.016 C 
BRANCH   3   5
ATOM      5  C   UNL     1      11.545 -32.857 -32.350  1.00  0.00     0.015 C 
BRANCH   5   6
ATOM      6  C   UNL     1      10.785 -34.199 -32.356  1.00  0.00     0.028 C 
BRANCH   6   7
ATOM      7  C   UNL     1      11.622 -35.456 -32.382  1.00  0.00    -0.028 C 
ATOM      8  C   UNL     1      11.851 -36.283 -31.336  1.00  0.00    -0.070 CG0
ATOM      9  C   UNL     1      12.469 -37.627 -31.640  1.00  0.00     0.039 C 
ATOM     10  G   UNL     1      11.509 -35.941 -29.896  1.00  0.00     0.000 G0
ENDBRANCH   6   7
ENDBRANCH   5   6
ENDBRANCH   3   5
ENDBRANCH   1   3
BRANCH   1  11
ATOM     11  C   UNL     1      12.458 -33.098 -29.353  1.00  0.00     0.087 C 
BRANCH  11  12
ATOM     12  C   UNL     1      13.124 -34.269 -28.571  1.00  0.00     0.066 C 
BRANCH  12  13
ATOM     13  C   UNL     1      12.750 -35.652 -29.089  1.00  0.00     0.140 C 
ATOM     14  O   UNL     1      13.461 -36.594 -28.771  1.00  0.00    -0.299 OA
BRANCH  13  15
ATOM     15  C   UNL     1      11.500 -35.921 -29.899  1.00  0.00     0.106 CG0
ATOM     16  G   UNL     1      11.859 -36.289 -31.329  1.00  0.00     0.000 G0
ENDBRANCH  13  15
ENDBRANCH  12  13
BRANCH  12  17
ATOM     17  C   UNL     1      12.878 -34.157 -27.033  1.00  0.00    -0.006 C 
ATOM     18  C   UNL     1      11.398 -33.877 -26.715  1.00  0.00     0.008 C 
ATOM     19  C   UNL     1      13.741 -33.054 -26.391  1.00  0.00     0.008 C 
ENDBRANCH  12  17
ENDBRANCH  11  12
ENDBRANCH   1  11
TORSDOF 1
ENDMDL
MODEL 3
REMARK VINA RESULT:    -4.120      1.853      3.395
REMARK INTER + INTRA:          -6.437
REMARK INTER:                  -6.473
REMARK INTRA:                   0.036
REMARK UNBOUND:                -0.149
REMARK SMILES CC1=CCC[C@@H](C)C(=O)C[C@@H](C(C)C)C(=O)C1
REMARK SMILES IDX 8 1 9 2 6 3 7 4 5 5 4 6 3 7 2 8 1 9 10 11 11 12 15 13 16 14
REMARK SMILES IDX 17 15 12 17 13 18 14 19
REMARK H PARENT
REMARK Flexibility Score: 70.00
ROOT
ATOM      1  C   UNL     1      13.155 -36.050 -30.661  1.00  0.00     0.136 C 
ATOM      2  O   UNL     1      12.201 -36.762 -30.935  1.00  0.00    -0.299 OA
ENDROOT
BRANCH   1   3
ATOM      3  C   UNL     1      13.750 -36.121 -29.264  1.00  0.00     0.053 C 
ATOM      4  C   UNL     1      13.388 -37.473 -28.634  1.00  0.00     0.016 C 
BRANCH   3   5
ATOM      5  C   UNL     1      13.299 -34.951 -28.348  1.00  0.00     0.015 C 
BRANCH   5   6
ATOM      6  C   UNL     1      11.776 -34.756 -28.204  1.00  0.00     0.028 C 
BRANCH   6   7
ATOM      7  C   UNL     1      11.239 -33.369 -28.461  1.00  0.00    -0.028 C 
ATOM      8  C   UNL     1      10.576 -32.962 -29.568  1.00  0.00    -0.070 CG0
ATOM      9  C   UNL     1       9.876 -31.626 -29.503  1.00  0.00     0.039 C 
ATOM     10  G   UNL     1      10.489 -33.775 -30.849  1.00  0.00     0.000 G0
ENDBRANCH   6   7
ENDBRANCH   5   6
ENDBRANCH   3   5
ENDBRANCH   1   3
BRANCH   1  11
ATOM     11  C   UNL     1      13.626 -35.025 -31.675  1.00  0.00     0.087 C 
BRANCH  11  12
ATOM     12  C   UNL     1      13.107 -33.572 -31.460  1.00  0.00     0.066 C 
BRANCH  12  13
ATOM     13  C   UNL     1      11.633 -33.385 -31.798  1.00  0.00     0.140 C 
ATOM     14  O   UNL     1      11.350 -32.959 -32.908  1.00  0.00    -0.299 OA
BRANCH  13  15
ATOM     15  C   UNL     1      10.512 -33.783 -30.862  1.00  0.00     0.106 CG0
ATOM     16  G   UNL     1      10.552 -32.947 -29.594  1.00  0.00     0.000 G0
ENDBRANCH  13  15
ENDBRANCH  12  13
BRANCH  12  17
ATOM     17  C   UNL     1      13.993 -32.521 -32.199  1.00  0.00    -0.006 C 
ATOM     18  C   UNL     1      15.205 -33.182 -32.883  1.00  0.00     0.008 C 
ATOM     19  C   UNL     1      14.500 -31.423 -31.244  1.00  0.00     0.008 C 
ENDBRANCH  12  17
ENDBRANCH  11  12
ENDBRANCH   1  11
TORSDOF 1
ENDMDL
MODEL 4
REMARK VINA RESULT:    -3.833      1.469      3.912
REMARK INTER + INTRA:          -5.998
REMARK INTER:                  -6.039
REMARK INTRA:                   0.040
REMARK UNBOUND:                -0.149
REMARK SMILES CC1=CCC[C@@H](C)C(=O)C[C@@H](C(C)C)C(=O)C1
REMARK SMILES IDX 8 1 9 2 6 3 7 4 5 5 4 6 3 7 2 8 1 9 10 11 11 12 15 13 16 14
REMARK SMILES IDX 17 15 12 17 13 18 14 19
REMARK H PARENT
REMARK Flexibility Score: 70.00
ROOT
ATOM      1  C   UNL     1      11.225 -34.255 -28.621  1.00  0.00     0.136 C 
ATOM      2  O   UNL     1      10.216 -33.566 -28.660  1.00  0.00    -0.299 OA
ENDROOT
BRANCH   1   3
ATOM      3  C   UNL     1      12.201 -34.064 -27.470  1.00  0.00     0.053 C 
ATOM      4  C   UNL     1      11.410 -33.901 -26.165  1.00  0.00     0.016 C 
BRANCH   3   5
ATOM      5  C   UNL     1      13.166 -32.867 -27.681  1.00  0.00     0.015 C 
BRANCH   5   6
ATOM      6  C   UNL     1      12.817 -31.916 -28.843  1.00  0.00     0.028 C 
BRANCH   6   7
ATOM      7  C   UNL     1      13.900 -31.659 -29.864  1.00  0.00    -0.028 C 
ATOM      8  C   UNL     1      13.904 -32.086 -31.147  1.00  0.00    -0.070 CG0
ATOM      9  C   UNL     1      14.933 -31.482 -32.073  1.00  0.00     0.039 C 
ATOM     10  G   UNL     1      12.933 -33.115 -31.700  1.00  0.00     0.000 G0
ENDBRANCH   6   7
ENDBRANCH   5   6
ENDBRANCH   3   5
ENDBRANCH   1   3
BRANCH   1  11
ATOM     11  C   UNL     1      11.537 -35.174 -29.785  1.00  0.00     0.087 C 
BRANCH  11  12
ATOM     12  C   UNL     1      13.043 -35.305 -30.159  1.00  0.00     0.066 C 
BRANCH  12  13
ATOM     13  C   UNL     1      13.441 -34.527 -31.407  1.00  0.00     0.140 C 
ATOM     14  O   UNL     1      14.136 -35.094 -32.238  1.00  0.00    -0.299 OA
BRANCH  13  15
ATOM     15  C   UNL     1      12.947 -33.127 -31.702  1.00  0.00     0.106 CG0
ATOM     16  G   UNL     1      13.904 -32.091 -31.136  1.00  0.00     0.000 G0
ENDBRANCH  13  15
ENDBRANCH  12  13
BRANCH  12  17
ATOM     17  C   UNL     1      13.492 -36.797 -30.258  1.00  0.00    -0.006 C 
ATOM     18  C   UNL     1      12.499 -37.634 -31.086  1.00  0.00     0.008 C 
ATOM     19  C   UNL     1      13.648 -37.444 -28.869  1.00  0.00     0.008 C 
ENDBRANCH  12  17
ENDBRANCH  11  12
ENDBRANCH   1  11
TORSDOF 1
ENDMDL
MODEL 5
REMARK VINA RESULT:    -3.819      2.213      4.539
REMARK INTER + INTRA:          -5.978
REMARK INTER:                  -6.486
REMARK INTRA:                   0.508
REMARK UNBOUND:                -0.149
REMARK SMILES CC1=CCC[C@@H](C)C(=O)C[C@@H](C(C)C)C(=O)C1
REMARK SMILES IDX 8 1 9 2 6 3 7 4 5 5 4 6 3 7 2 8 1 9 10 11 11 12 15 13 16 14
REMARK SMILES IDX 17 15 12 17 13 18 14 19
REMARK H PARENT
REMARK Flexibility Score: 70.00
ROOT
ATOM      1  C   UNL     1      13.245 -36.002 -29.521  1.00  0.00     0.136 C 
ATOM      2  O   UNL     1      13.356 -36.964 -28.776  1.00  0.00    -0.299 OA
ENDROOT
BRANCH   1   3
ATOM      3  C   UNL     1      13.214 -36.233 -31.023  1.00  0.00     0.053 C 
ATOM      4  C   UNL     1      13.789 -35.000 -31.732  1.00  0.00     0.016 C 
BRANCH   3   5
ATOM      5  C   UNL     1      11.796 -36.564 -31.561  1.00  0.00     0.015 C 
BRANCH   5   6
ATOM      6  C   UNL     1      10.637 -35.754 -30.945  1.00  0.00     0.028 C 
BRANCH   6   7
ATOM      7  C   UNL     1      10.137 -34.569 -31.737  1.00  0.00    -0.028 C 
ATOM      8  C   UNL     1      10.613 -33.305 -31.666  1.00  0.00    -0.070 CG0
ATOM      9  C   UNL     1      10.174 -32.339 -32.742  1.00  0.00     0.039 C 
ATOM     10  G   UNL     1      11.564 -32.817 -30.586  1.00  0.00     0.000 G0
ENDBRANCH   6   7
ENDBRANCH   5   6
ENDBRANCH   3   5
ENDBRANCH   1   3
BRANCH   1  11
ATOM     11  C   UNL     1      13.278 -34.605 -28.931  1.00  0.00     0.087 C 
BRANCH  11  12
ATOM     12  C   UNL     1      11.947 -34.108 -28.293  1.00  0.00     0.066 C 
BRANCH  12  13
ATOM     13  C   UNL     1      11.111 -33.228 -29.212  1.00  0.00     0.140 C 
ATOM     14  O   UNL     1      10.056 -32.787 -28.780  1.00  0.00    -0.299 OA
BRANCH  13  15
ATOM     15  C   UNL     1      11.566 -32.807 -30.593  1.00  0.00     0.106 CG0
ATOM     16  G   UNL     1      10.594 -33.303 -31.651  1.00  0.00     0.000 G0
ENDBRANCH  13  15
ENDBRANCH  12  13
BRANCH  12  17
ATOM     17  C   UNL     1      12.184 -33.418 -26.913  1.00  0.00    -0.006 C 
ATOM     18  C   UNL     1      13.676 -33.418 -26.528  1.00  0.00     0.008 C 
ATOM     19  C   UNL     1      11.381 -34.094 -25.786  1.00  0.00     0.008 C 
ENDBRANCH  12  17
ENDBRANCH  11  12
ENDBRANCH   1  11
TORSDOF 1
ENDMDL
MODEL 6
REMARK VINA RESULT:    -3.703      1.688      3.559
REMARK INTER + INTRA:          -5.800
REMARK INTER:                  -5.670
REMARK INTRA:                  -0.130
REMARK UNBOUND:                -0.149
REMARK SMILES CC1=CCC[C@@H](C)C(=O)C[C@@H](C(C)C)C(=O)C1
REMARK SMILES IDX 8 1 9 2 6 3 7 4 5 5 4 6 3 7 2 8 1 9 10 11 11 12 15 13 16 14
REMARK SMILES IDX 17 15 12 17 13 18 14 19
REMARK H PARENT
REMARK Flexibility Score: 70.00
ROOT
ATOM      1  C   UNL     1      11.790 -35.674 -31.210  1.00  0.00     0.136 C 
ATOM      2  O   UNL     1      10.750 -35.950 -30.631  1.00  0.00    -0.299 OA
ENDROOT
BRANCH   1   3
ATOM      3  C   UNL     1      12.938 -36.670 -31.177  1.00  0.00     0.053 C 
ATOM      4  C   UNL     1      12.500 -37.962 -31.880  1.00  0.00     0.016 C 
BRANCH   3   5
ATOM      5  C   UNL     1      13.443 -36.971 -29.740  1.00  0.00     0.015 C 
BRANCH   5   6
ATOM      6  C   UNL     1      13.906 -35.751 -28.920  1.00  0.00     0.028 C 
BRANCH   6   7
ATOM      7  C   UNL     1      12.993 -35.289 -27.809  1.00  0.00    -0.028 C 
ATOM      8  C   UNL     1      12.490 -34.043 -27.655  1.00  0.00    -0.070 CG0
ATOM      9  C   UNL     1      11.376 -33.865 -26.652  1.00  0.00     0.039 C 
ATOM     10  G   UNL     1      12.972 -32.834 -28.439  1.00  0.00     0.000 G0
ENDBRANCH   6   7
ENDBRANCH   5   6
ENDBRANCH   3   5
ENDBRANCH   1   3
BRANCH   1  11
ATOM     11  C   UNL     1      11.949 -34.296 -31.823  1.00  0.00     0.087 C 
BRANCH  11  12
ATOM     12  C   UNL     1      12.898 -33.323 -31.062  1.00  0.00     0.066 C 
BRANCH  12  13
ATOM     13  C   UNL     1      12.299 -32.745 -29.787  1.00  0.00     0.140 C 
ATOM     14  O   UNL     1      11.181 -32.255 -29.850  1.00  0.00    -0.299 OA
BRANCH  13  15
ATOM     15  C   UNL     1      12.985 -32.827 -28.439  1.00  0.00     0.106 CG0
ATOM     16  G   UNL     1      12.490 -34.034 -27.660  1.00  0.00     0.000 G0
ENDBRANCH  13  15
ENDBRANCH  12  13
BRANCH  12  17
ATOM     17  C   UNL     1      13.443 -32.193 -31.993  1.00  0.00    -0.006 C 
ATOM     18  C   UNL     1      12.628 -32.091 -33.296  1.00  0.00     0.008 C 
ATOM     19  C   UNL     1      14.926 -32.406 -32.349  1.00  0.00     0.008 C 
ENDBRANCH  12  17
ENDBRANCH  11  12
ENDBRANCH   1  11
TORSDOF 1
ENDMDL
MODEL 7
REMARK VINA RESULT:    -3.300      2.232      3.746
REMARK INTER + INTRA:          -5.186
REMARK INTER:                  -4.919
REMARK INTRA:                  -0.267
REMARK UNBOUND:                -0.149
REMARK SMILES CC1=CCC[C@@H](C)C(=O)C[C@@H](C(C)C)C(=O)C1
REMARK SMILES IDX 8 1 9 2 6 3 7 4 5 5 4 6 3 7 2 8 1 9 10 11 11 12 15 13 16 14
REMARK SMILES IDX 17 15 12 17 13 18 14 19
REMARK H PARENT
REMARK Flexibility Score: 70.00
ROOT
ATOM      1  C   UNL     1      12.098 -34.404 -31.974  1.00  0.00     0.136 C 
ATOM      2  O   UNL     1      12.827 -35.379 -32.079  1.00  0.00    -0.299 OA
ENDROOT
BRANCH   1   3
ATOM      3  C   UNL     1      10.609 -34.620 -31.755  1.00  0.00     0.053 C 
ATOM      4  C   UNL     1       9.877 -33.284 -31.937  1.00  0.00     0.016 C 
BRANCH   3   5
ATOM      5  C   UNL     1      10.279 -35.242 -30.371  1.00  0.00     0.015 C 
BRANCH   5   6
ATOM      6  C   UNL     1      10.432 -34.304 -29.157  1.00  0.00     0.028 C 
BRANCH   6   7
ATOM      7  C   UNL     1      11.762 -34.325 -28.442  1.00  0.00    -0.028 C 
ATOM      8  C   UNL     1      12.658 -33.312 -28.393  1.00  0.00    -0.070 CG0
ATOM      9  C   UNL     1      13.783 -33.432 -27.393  1.00  0.00     0.039 C 
ATOM     10  G   UNL     1      12.583 -32.073 -29.269  1.00  0.00     0.000 G0
ENDBRANCH   6   7
ENDBRANCH   5   6
ENDBRANCH   3   5
ENDBRANCH   1   3
BRANCH   1  11
ATOM     11  C   UNL     1      12.677 -33.021 -32.200  1.00  0.00     0.087 C 
BRANCH  11  12
ATOM     12  C   UNL     1      13.997 -32.708 -31.435  1.00  0.00     0.066 C 
BRANCH  12  13
ATOM     13  C   UNL     1      13.795 -31.919 -30.148  1.00  0.00     0.140 C 
ATOM     14  O   UNL     1      14.633 -31.080 -29.852  1.00  0.00    -0.299 OA
BRANCH  13  15
ATOM     15  C   UNL     1      12.568 -32.065 -29.272  1.00  0.00     0.106 CG0
ATOM     16  G   UNL     1      12.668 -33.316 -28.416  1.00  0.00     0.000 G0
ENDBRANCH  13  15
ENDBRANCH  12  13
BRANCH  12  17
ATOM     17  C   UNL     1      15.056 -32.022 -32.356  1.00  0.00    -0.006 C 
ATOM     18  C   UNL     1      14.393 -31.070 -33.369  1.00  0.00     0.008 C 
ATOM     19  C   UNL     1      15.903 -33.053 -33.125  1.00  0.00     0.008 C 
ENDBRANCH  12  17
ENDBRANCH  11  12
ENDBRANCH   1  11
TORSDOF 1
ENDMDL
MODEL 8
REMARK VINA RESULT:    -3.267      1.562      2.301
REMARK INTER + INTRA:          -5.135
REMARK INTER:                  -5.744
REMARK INTRA:                   0.609
REMARK UNBOUND:                -0.149
REMARK SMILES CC1=CCC[C@@H](C)C(=O)C[C@@H](C(C)C)C(=O)C1
REMARK SMILES IDX 8 1 9 2 6 3 7 4 5 5 4 6 3 7 2 8 1 9 10 11 11 12 15 13 16 14
REMARK SMILES IDX 17 15 12 17 13 18 14 19
REMARK H PARENT
REMARK Flexibility Score: 70.00
ROOT
ATOM      1  C   UNL     1      12.156 -32.874 -28.646  1.00  0.00     0.136 C 
ATOM      2  O   UNL     1      13.031 -32.057 -28.400  1.00  0.00    -0.299 OA
ENDROOT
BRANCH   1   3
ATOM      3  C   UNL     1      12.065 -34.133 -27.797  1.00  0.00     0.053 C 
ATOM      4  C   UNL     1      11.287 -33.815 -26.513  1.00  0.00     0.016 C 
BRANCH   3   5
ATOM      5  C   UNL     1      13.452 -34.744 -27.461  1.00  0.00     0.015 C 
BRANCH   5   6
ATOM      6  C   UNL     1      14.017 -35.740 -28.493  1.00  0.00     0.028 C 
BRANCH   6   7
ATOM      7  C   UNL     1      13.018 -36.430 -29.392  1.00  0.00    -0.028 C 
ATOM      8  C   UNL     1      12.894 -36.255 -30.728  1.00  0.00    -0.070 CG0
ATOM      9  C   UNL     1      12.036 -37.246 -31.478  1.00  0.00     0.039 C 
ATOM     10  G   UNL     1      13.574 -35.139 -31.502  1.00  0.00     0.000 G0
ENDBRANCH   6   7
ENDBRANCH   5   6
ENDBRANCH   3   5
ENDBRANCH   1   3
BRANCH   1  11
ATOM     11  C   UNL     1      11.282 -32.674 -29.869  1.00  0.00     0.087 C 
BRANCH  11  12
ATOM     12  C   UNL     1      11.316 -33.823 -30.920  1.00  0.00     0.066 C 
BRANCH  12  13
ATOM     13  C   UNL     1      12.641 -33.945 -31.661  1.00  0.00     0.140 C 
ATOM     14  O   UNL     1      12.999 -33.002 -32.353  1.00  0.00    -0.299 OA
BRANCH  13  15
ATOM     15  C   UNL     1      13.566 -35.133 -31.512  1.00  0.00     0.106 CG0
ATOM     16  G   UNL     1      12.884 -36.250 -30.740  1.00  0.00     0.000 G0
ENDBRANCH  13  15
ENDBRANCH  12  13
BRANCH  12  17
ATOM     17  C   UNL     1      10.117 -33.736 -31.917  1.00  0.00    -0.006 C 
ATOM     18  C   UNL     1      10.165 -34.868 -32.960  1.00  0.00     0.008 C 
ATOM     19  C   UNL     1      10.078 -32.384 -32.652  1.00  0.00     0.008 C 
ENDBRANCH  12  17
ENDBRANCH  11  12
ENDBRANCH   1  11
TORSDOF 1
ENDMDL
MODEL 9
REMARK VINA RESULT:    -3.103      1.730      4.418
REMARK INTER + INTRA:          -4.885
REMARK INTER:                  -5.176
REMARK INTRA:                   0.291
REMARK UNBOUND:                -0.149
REMARK SMILES CC1=CCC[C@@H](C)C(=O)C[C@@H](C(C)C)C(=O)C1
REMARK SMILES IDX 8 1 9 2 6 3 7 4 5 5 4 6 3 7 2 8 1 9 10 11 11 12 15 13 16 14
REMARK SMILES IDX 17 15 12 17 13 18 14 19
REMARK H PARENT
REMARK Flexibility Score: 70.00
ROOT
ATOM      1  C   UNL     1      11.202 -35.502 -29.897  1.00  0.00     0.136 C 
ATOM      2  O   UNL     1       9.998 -35.427 -29.704  1.00  0.00    -0.299 OA
ENDROOT
BRANCH   1   3
ATOM      3  C   UNL     1      11.704 -36.201 -31.151  1.00  0.00     0.053 C 
ATOM      4  C   UNL     1      13.131 -36.707 -30.905  1.00  0.00     0.016 C 
BRANCH   3   5
ATOM      5  C   UNL     1      11.651 -35.300 -32.414  1.00  0.00     0.015 C 
BRANCH   5   6
ATOM      6  C   UNL     1      11.219 -33.839 -32.182  1.00  0.00     0.028 C 
BRANCH   6   7
ATOM      7  C   UNL     1      12.233 -32.768 -32.506  1.00  0.00    -0.028 C 
ATOM      8  C   UNL     1      13.429 -32.591 -31.897  1.00  0.00    -0.070 CG0
ATOM      9  C   UNL     1      14.409 -31.653 -32.559  1.00  0.00     0.039 C 
ATOM     10  G   UNL     1      13.834 -33.289 -30.610  1.00  0.00     0.000 G0
ENDBRANCH   6   7
ENDBRANCH   5   6
ENDBRANCH   3   5
ENDBRANCH   1   3
BRANCH   1  11
ATOM     11  C   UNL     1      12.153 -35.020 -28.820  1.00  0.00     0.087 C 
BRANCH  11  12
ATOM     12  C   UNL     1      12.137 -33.488 -28.540  1.00  0.00     0.066 C 
BRANCH  12  13
ATOM     13  C   UNL     1      13.098 -32.689 -29.411  1.00  0.00     0.140 C 
ATOM     14  O   UNL     1      13.341 -31.535 -29.088  1.00  0.00    -0.299 OA
BRANCH  13  15
ATOM     15  C   UNL     1      13.827 -33.283 -30.598  1.00  0.00     0.106 CG0
ATOM     16  G   UNL     1      13.422 -32.577 -31.881  1.00  0.00     0.000 G0
ENDBRANCH  13  15
ENDBRANCH  12  13
BRANCH  12  17
ATOM     17  C   UNL     1      12.351 -33.169 -27.026  1.00  0.00    -0.006 C 
ATOM     18  C   UNL     1      13.792 -33.478 -26.580  1.00  0.00     0.008 C 
ATOM     19  C   UNL     1      11.374 -33.954 -26.130  1.00  0.00     0.008 C 
ENDBRANCH  12  17
ENDBRANCH  11  12
ENDBRANCH   1  11
TORSDOF 1
ENDMDL
