MODEL 1
REMARK VINA RESULT:    -3.918      0.000      0.000
REMARK INTER + INTRA:          -6.696
REMARK INTER:                  -6.209
REMARK INTRA:                  -0.487
REMARK UNBOUND:                -0.487
REMARK SMILES CCCCCCCCCCCC(=O)[O-]
REMARK SMILES IDX 7 1 8 2 9 3 10 4 11 5 12 6 13 7 14 8 6 9 5 10 4 11 3 12 2 13
REMARK SMILES IDX 1 14
REMARK H PARENT
REMARK Flexibility Score: inf
ROOT
ATOM      1  C   UNL     1      -1.504   6.959   9.762  1.00  0.00     0.000 C 
ENDROOT
BRANCH   1   2
ATOM      2  C   UNL     1      -2.228   5.604   9.785  1.00  0.00     0.000 C 
BRANCH   2   3
ATOM      3  C   UNL     1      -1.454   4.505   9.040  1.00  0.00     0.000 C 
BRANCH   3   4
ATOM      4  C   UNL     1      -1.466   3.160   9.788  1.00  0.00     0.006 C 
BRANCH   4   5
ATOM      5  C   UNL     1      -2.877   2.565   9.886  1.00  0.00     0.053 C 
BRANCH   5   6
ATOM      6  C   UNL     1      -3.121   1.527   8.833  1.00  0.00     0.041 C 
ATOM      7  O   UNL     1      -4.250   0.979   8.733  1.00  0.00    -0.550 OA
ATOM      8  O   UNL     1      -2.092   1.144   7.981  1.00  0.00    -0.550 OA
ENDBRANCH   5   6
ENDBRANCH   4   5
ENDBRANCH   3   4
ENDBRANCH   2   3
ENDBRANCH   1   2
BRANCH   1   9
ATOM      9  C   UNL     1      -0.157   6.848   9.030  1.00  0.00     0.000 C 
BRANCH   9  10
ATOM     10  C   UNL     1       0.019   7.924   7.947  1.00  0.00    -0.000 C 
BRANCH  10  11
ATOM     11  C   UNL     1       1.242   8.823   8.199  1.00  0.00    -0.000 C 
BRANCH  11  12
ATOM     12  C   UNL     1       2.313   8.682   7.106  1.00  0.00    -0.000 C 
BRANCH  12  13
ATOM     13  C   UNL     1       3.478   7.780   7.535  1.00  0.00    -0.003 C 
ATOM     14  C   UNL     1       4.412   8.510   8.498  1.00  0.00     0.004 C 
ENDBRANCH  12  13
ENDBRANCH  11  12
ENDBRANCH  10  11
ENDBRANCH   9  10
ENDBRANCH   1   9
TORSDOF 10
ENDMDL
MODEL 2
REMARK VINA RESULT:    -3.830      0.761      1.620
REMARK INTER + INTRA:          -6.556
REMARK INTER:                  -5.955
REMARK INTRA:                  -0.601
REMARK UNBOUND:                -0.487
REMARK SMILES CCCCCCCCCCCC(=O)[O-]
REMARK SMILES IDX 7 1 8 2 9 3 10 4 11 5 12 6 13 7 14 8 6 9 5 10 4 11 3 12 2 13
REMARK SMILES IDX 1 14
REMARK H PARENT
REMARK Flexibility Score: inf
ROOT
ATOM      1  C   UNL     1      -0.351   6.999   8.872  1.00  0.00     0.000 C 
ENDROOT
BRANCH   1   2
ATOM      2  C   UNL     1      -1.549   7.128   9.825  1.00  0.00     0.000 C 
BRANCH   2   3
ATOM      3  C   UNL     1      -2.323   5.810   9.985  1.00  0.00     0.000 C 
BRANCH   3   4
ATOM      4  C   UNL     1      -1.829   4.712   9.027  1.00  0.00     0.006 C 
BRANCH   4   5
ATOM      5  C   UNL     1      -1.426   3.433   9.772  1.00  0.00     0.053 C 
BRANCH   5   6
ATOM      6  C   UNL     1      -2.306   2.275   9.411  1.00  0.00     0.041 C 
ATOM      7  O   UNL     1      -2.006   1.529   8.442  1.00  0.00    -0.550 OA
ATOM      8  O   UNL     1      -3.475   2.038  10.125  1.00  0.00    -0.550 OA
ENDBRANCH   5   6
ENDBRANCH   4   5
ENDBRANCH   3   4
ENDBRANCH   2   3
ENDBRANCH   1   2
BRANCH   1   9
ATOM      9  C   UNL     1      -0.074   8.331   8.157  1.00  0.00     0.000 C 
BRANCH   9  10
ATOM     10  C   UNL     1       0.808   9.277   8.986  1.00  0.00    -0.000 C 
BRANCH  10  11
ATOM     11  C   UNL     1       2.053   9.752   8.217  1.00  0.00    -0.000 C 
BRANCH  11  12
ATOM     12  C   UNL     1       2.473   8.772   7.110  1.00  0.00    -0.000 C 
BRANCH  12  13
ATOM     13  C   UNL     1       3.552   7.785   7.574  1.00  0.00    -0.003 C 
ATOM     14  C   UNL     1       4.699   8.513   8.271  1.00  0.00     0.004 C 
ENDBRANCH  12  13
ENDBRANCH  11  12
ENDBRANCH  10  11
ENDBRANCH   9  10
ENDBRANCH   1   9
TORSDOF 10
ENDMDL
MODEL 3
REMARK VINA RESULT:    -3.784      3.676      7.086
REMARK INTER + INTRA:          -6.484
REMARK INTER:                  -5.763
REMARK INTRA:                  -0.721
REMARK UNBOUND:                -0.487
REMARK SMILES CCCCCCCCCCCC(=O)[O-]
REMARK SMILES IDX 7 1 8 2 9 3 10 4 11 5 12 6 13 7 14 8 6 9 5 10 4 11 3 12 2 13
REMARK SMILES IDX 1 14
REMARK H PARENT
REMARK Flexibility Score: inf
ROOT
ATOM      1  C   UNL     1       0.639   6.591   9.358  1.00  0.00     0.000 C 
ENDROOT
BRANCH   1   2
ATOM      2  C   UNL     1      -0.350   7.636   8.821  1.00  0.00     0.000 C 
BRANCH   2   3
ATOM      3  C   UNL     1       0.137   9.078   9.032  1.00  0.00     0.000 C 
BRANCH   3   4
ATOM      4  C   UNL     1       1.662   9.165   9.224  1.00  0.00     0.006 C 
BRANCH   4   5
ATOM      5  C   UNL     1       2.378   9.644   7.954  1.00  0.00     0.053 C 
BRANCH   5   6
ATOM      6  C   UNL     1       2.597   8.526   6.981  1.00  0.00     0.041 C 
ATOM      7  O   UNL     1       1.874   8.428   5.955  1.00  0.00    -0.550 OA
ATOM      8  O   UNL     1       3.580   7.574   7.223  1.00  0.00    -0.550 OA
ENDBRANCH   5   6
ENDBRANCH   4   5
ENDBRANCH   3   4
ENDBRANCH   2   3
ENDBRANCH   1   2
BRANCH   1   9
ATOM      9  C   UNL     1      -0.099   5.482  10.125  1.00  0.00     0.000 C 
BRANCH   9  10
ATOM     10  C   UNL     1      -1.624   5.557   9.953  1.00  0.00    -0.000 C 
BRANCH  10  11
ATOM     11  C   UNL     1      -2.175   4.436   9.054  1.00  0.00    -0.000 C 
BRANCH  11  12
ATOM     12  C   UNL     1      -1.505   3.079   9.324  1.00  0.00    -0.000 C 
BRANCH  12  13
ATOM     13  C   UNL     1      -2.441   1.895   9.045  1.00  0.00    -0.003 C 
ATOM     14  C   UNL     1      -3.898   2.275   9.299  1.00  0.00     0.004 C 
ENDBRANCH  12  13
ENDBRANCH  11  12
ENDBRANCH  10  11
ENDBRANCH   9  10
ENDBRANCH   1   9
TORSDOF 10
ENDMDL
MODEL 4
REMARK VINA RESULT:    -3.713      1.153      1.703
REMARK INTER + INTRA:          -6.371
REMARK INTER:                  -5.809
REMARK INTRA:                  -0.562
REMARK UNBOUND:                -0.487
REMARK SMILES CCCCCCCCCCCC(=O)[O-]
REMARK SMILES IDX 7 1 8 2 9 3 10 4 11 5 12 6 13 7 14 8 6 9 5 10 4 11 3 12 2 13
REMARK SMILES IDX 1 14
REMARK H PARENT
REMARK Flexibility Score: inf
ROOT
ATOM      1  C   UNL     1      -1.437   5.464   8.946  1.00  0.00     0.000 C 
ENDROOT
BRANCH   1   2
ATOM      2  C   UNL     1      -0.739   4.493   9.911  1.00  0.00     0.000 C 
BRANCH   2   3
ATOM      3  C   UNL     1      -1.129   3.027   9.663  1.00  0.00     0.000 C 
BRANCH   3   4
ATOM      4  C   UNL     1      -2.582   2.875   9.178  1.00  0.00     0.006 C 
BRANCH   4   5
ATOM      5  C   UNL     1      -3.317   1.739   9.901  1.00  0.00     0.053 C 
BRANCH   5   6
ATOM      6  C   UNL     1      -4.644   1.442   9.271  1.00  0.00     0.041 C 
ATOM      7  O   UNL     1      -5.627   2.202   9.477  1.00  0.00    -0.550 OA
ATOM      8  O   UNL     1      -4.803   0.309   8.483  1.00  0.00    -0.550 OA
ENDBRANCH   5   6
ENDBRANCH   4   5
ENDBRANCH   3   4
ENDBRANCH   2   3
ENDBRANCH   1   2
BRANCH   1   9
ATOM      9  C   UNL     1      -0.955   6.905   9.176  1.00  0.00     0.000 C 
BRANCH   9  10
ATOM     10  C   UNL     1       0.437   6.968   9.823  1.00  0.00    -0.000 C 
BRANCH  10  11
ATOM     11  C   UNL     1       1.289   8.129   9.281  1.00  0.00    -0.000 C 
BRANCH  11  12
ATOM     12  C   UNL     1       0.948   8.483   7.825  1.00  0.00    -0.000 C 
BRANCH  12  13
ATOM     13  C   UNL     1       2.191   8.553   6.928  1.00  0.00    -0.003 C 
ATOM     14  C   UNL     1       3.389   7.883   7.597  1.00  0.00     0.004 C 
ENDBRANCH  12  13
ENDBRANCH  11  12
ENDBRANCH  10  11
ENDBRANCH   9  10
ENDBRANCH   1   9
TORSDOF 10
ENDMDL
MODEL 5
REMARK VINA RESULT:    -3.686      4.356      7.956
REMARK INTER + INTRA:          -6.328
REMARK INTER:                  -5.788
REMARK INTRA:                  -0.539
REMARK UNBOUND:                -0.487
REMARK SMILES CCCCCCCCCCCC(=O)[O-]
REMARK SMILES IDX 7 1 8 2 9 3 10 4 11 5 12 6 13 7 14 8 6 9 5 10 4 11 3 12 2 13
REMARK SMILES IDX 1 14
REMARK H PARENT
REMARK Flexibility Score: inf
ROOT
ATOM      1  C   UNL     1       2.196   7.398   9.016  1.00  0.00     0.000 C 
ENDROOT
BRANCH   1   2
ATOM      2  C   UNL     1       1.664   8.209   7.824  1.00  0.00     0.000 C 
BRANCH   2   3
ATOM      3  C   UNL     1       2.565   9.402   7.470  1.00  0.00     0.000 C 
BRANCH   3   4
ATOM      4  C   UNL     1       3.549   9.758   8.598  1.00  0.00     0.006 C 
BRANCH   4   5
ATOM      5  C   UNL     1       4.994   9.868   8.093  1.00  0.00     0.053 C 
BRANCH   5   6
ATOM      6  C   UNL     1       5.879   8.822   8.700  1.00  0.00     0.041 C 
ATOM      7  O   UNL     1       7.033   8.623   8.237  1.00  0.00    -0.550 OA
ATOM      8  O   UNL     1       5.418   8.045   9.755  1.00  0.00    -0.550 OA
ENDBRANCH   5   6
ENDBRANCH   4   5
ENDBRANCH   3   4
ENDBRANCH   2   3
ENDBRANCH   1   2
BRANCH   1   9
ATOM      9  C   UNL     1       1.097   6.494   9.597  1.00  0.00     0.000 C 
BRANCH   9  10
ATOM     10  C   UNL     1      -0.299   6.835   9.053  1.00  0.00    -0.000 C 
BRANCH  10  11
ATOM     11  C   UNL     1      -1.407   5.972   9.683  1.00  0.00    -0.000 C 
BRANCH  11  12
ATOM     12  C   UNL     1      -1.702   4.702   8.869  1.00  0.00    -0.000 C 
BRANCH  12  13
ATOM     13  C   UNL     1      -1.294   3.421   9.609  1.00  0.00    -0.003 C 
ATOM     14  C   UNL     1      -2.309   2.305   9.374  1.00  0.00     0.004 C 
ENDBRANCH  12  13
ENDBRANCH  11  12
ENDBRANCH  10  11
ENDBRANCH   9  10
ENDBRANCH   1   9
TORSDOF 10
ENDMDL
MODEL 6
REMARK VINA RESULT:    -3.646      3.663      7.860
REMARK INTER + INTRA:          -6.265
REMARK INTER:                  -5.956
REMARK INTRA:                  -0.310
REMARK UNBOUND:                -0.487
REMARK SMILES CCCCCCCCCCCC(=O)[O-]
REMARK SMILES IDX 7 1 8 2 9 3 10 4 11 5 12 6 13 7 14 8 6 9 5 10 4 11 3 12 2 13
REMARK SMILES IDX 1 14
REMARK H PARENT
REMARK Flexibility Score: inf
ROOT
ATOM      1  C   UNL     1      -1.465   5.069   8.729  1.00  0.00     0.000 C 
ENDROOT
BRANCH   1   2
ATOM      2  C   UNL     1      -1.522   6.437   9.426  1.00  0.00     0.000 C 
BRANCH   2   3
ATOM      3  C   UNL     1      -0.159   7.146   9.454  1.00  0.00     0.000 C 
BRANCH   3   4
ATOM      4  C   UNL     1       0.068   8.042   8.224  1.00  0.00     0.006 C 
BRANCH   4   5
ATOM      5  C   UNL     1       1.452   8.705   8.238  1.00  0.00     0.053 C 
BRANCH   5   6
ATOM      6  C   UNL     1       2.272   8.310   7.047  1.00  0.00     0.041 C 
ATOM      7  O   UNL     1       3.433   7.849   7.203  1.00  0.00    -0.550 OA
ATOM      8  O   UNL     1       1.766   8.481   5.765  1.00  0.00    -0.550 OA
ENDBRANCH   5   6
ENDBRANCH   4   5
ENDBRANCH   3   4
ENDBRANCH   2   3
ENDBRANCH   1   2
BRANCH   1   9
ATOM      9  C   UNL     1      -1.117   3.958   9.732  1.00  0.00     0.000 C 
BRANCH   9  10
ATOM     10  C   UNL     1      -1.661   2.585   9.307  1.00  0.00    -0.000 C 
BRANCH  10  11
ATOM     11  C   UNL     1      -2.998   2.242   9.988  1.00  0.00    -0.000 C 
BRANCH  11  12
ATOM     12  C   UNL     1      -4.006   1.600   9.021  1.00  0.00    -0.000 C 
BRANCH  12  13
ATOM     13  C   UNL     1      -5.442   1.626   9.564  1.00  0.00    -0.003 C 
ATOM     14  C   UNL     1      -6.229   0.407   9.091  1.00  0.00     0.004 C 
ENDBRANCH  12  13
ENDBRANCH  11  12
ENDBRANCH  10  11
ENDBRANCH   9  10
ENDBRANCH   1   9
TORSDOF 10
ENDMDL
MODEL 7
REMARK VINA RESULT:    -3.599      1.959      2.917
REMARK INTER + INTRA:          -6.189
REMARK INTER:                  -5.215
REMARK INTRA:                  -0.974
REMARK UNBOUND:                -0.487
REMARK SMILES CCCCCCCCCCCC(=O)[O-]
REMARK SMILES IDX 7 1 8 2 9 3 10 4 11 5 12 6 13 7 14 8 6 9 5 10 4 11 3 12 2 13
REMARK SMILES IDX 1 14
REMARK H PARENT
REMARK Flexibility Score: inf
ROOT
ATOM      1  C   UNL     1      -1.297   5.338   8.871  1.00  0.00     0.000 C 
ENDROOT
BRANCH   1   2
ATOM      2  C   UNL     1      -2.481   5.345   9.850  1.00  0.00     0.000 C 
BRANCH   2   3
ATOM      3  C   UNL     1      -3.835   5.510   9.143  1.00  0.00     0.000 C 
BRANCH   3   4
ATOM      4  C   UNL     1      -4.480   4.162   8.775  1.00  0.00     0.006 C 
BRANCH   4   5
ATOM      5  C   UNL     1      -4.148   3.065   9.795  1.00  0.00     0.053 C 
BRANCH   5   6
ATOM      6  C   UNL     1      -3.487   1.884   9.150  1.00  0.00     0.041 C 
ATOM      7  O   UNL     1      -4.183   0.935   8.703  1.00  0.00    -0.550 OA
ATOM      8  O   UNL     1      -2.102   1.819   9.072  1.00  0.00    -0.550 OA
ENDBRANCH   5   6
ENDBRANCH   4   5
ENDBRANCH   3   4
ENDBRANCH   2   3
ENDBRANCH   1   2
BRANCH   1   9
ATOM      9  C   UNL     1       0.033   5.519   9.619  1.00  0.00     0.000 C 
BRANCH   9  10
ATOM     10  C   UNL     1       0.691   6.879   9.338  1.00  0.00    -0.000 C 
BRANCH  10  11
ATOM     11  C   UNL     1      -0.108   7.726   8.331  1.00  0.00    -0.000 C 
BRANCH  11  12
ATOM     12  C   UNL     1      -0.061   9.228   8.653  1.00  0.00    -0.000 C 
BRANCH  12  13
ATOM     13  C   UNL     1      -1.458   9.829   8.863  1.00  0.00    -0.003 C 
ATOM     14  C   UNL     1      -2.229   9.066   9.937  1.00  0.00     0.004 C 
ENDBRANCH  12  13
ENDBRANCH  11  12
ENDBRANCH  10  11
ENDBRANCH   9  10
ENDBRANCH   1   9
TORSDOF 10
ENDMDL
MODEL 8
REMARK VINA RESULT:    -3.448      1.586      2.800
REMARK INTER + INTRA:          -5.951
REMARK INTER:                  -5.409
REMARK INTRA:                  -0.543
REMARK UNBOUND:                -0.487
REMARK SMILES CCCCCCCCCCCC(=O)[O-]
REMARK SMILES IDX 7 1 8 2 9 3 10 4 11 5 12 6 13 7 14 8 6 9 5 10 4 11 3 12 2 13
REMARK SMILES IDX 1 14
REMARK H PARENT
REMARK Flexibility Score: inf
ROOT
ATOM      1  C   UNL     1      -3.110   5.310   8.966  1.00  0.00     0.000 C 
ENDROOT
BRANCH   1   2
ATOM      2  C   UNL     1      -3.805   4.027   9.447  1.00  0.00     0.000 C 
BRANCH   2   3
ATOM      3  C   UNL     1      -2.817   2.881   9.713  1.00  0.00     0.000 C 
BRANCH   3   4
ATOM      4  C   UNL     1      -3.460   1.493   9.546  1.00  0.00     0.006 C 
BRANCH   4   5
ATOM      5  C   UNL     1      -4.989   1.545   9.668  1.00  0.00     0.053 C 
BRANCH   5   6
ATOM      6  C   UNL     1      -5.653   0.505   8.818  1.00  0.00     0.041 C 
ATOM      7  O   UNL     1      -4.958  -0.324   8.173  1.00  0.00    -0.550 OA
ATOM      8  O   UNL     1      -7.038   0.471   8.714  1.00  0.00    -0.550 OA
ENDBRANCH   5   6
ENDBRANCH   4   5
ENDBRANCH   3   4
ENDBRANCH   2   3
ENDBRANCH   1   2
BRANCH   1   9
ATOM      9  C   UNL     1      -1.583   5.135   8.958  1.00  0.00     0.000 C 
BRANCH   9  10
ATOM     10  C   UNL     1      -0.849   6.306   9.631  1.00  0.00    -0.000 C 
BRANCH  10  11
ATOM     11  C   UNL     1       0.633   5.996   9.907  1.00  0.00    -0.000 C 
BRANCH  11  12
ATOM     12  C   UNL     1       1.582   7.000   9.234  1.00  0.00    -0.000 C 
BRANCH  12  13
ATOM     13  C   UNL     1       0.856   7.924   8.245  1.00  0.00    -0.003 C 
ATOM     14  C   UNL     1       1.833   8.524   7.237  1.00  0.00     0.004 C 
ENDBRANCH  12  13
ENDBRANCH  11  12
ENDBRANCH  10  11
ENDBRANCH   9  10
ENDBRANCH   1   9
TORSDOF 10
ENDMDL
MODEL 9
REMARK VINA RESULT:    -3.377     15.536     17.816
REMARK INTER + INTRA:          -5.839
REMARK INTER:                  -5.266
REMARK INTRA:                  -0.573
REMARK UNBOUND:                -0.487
REMARK SMILES CCCCCCCCCCCC(=O)[O-]
REMARK SMILES IDX 7 1 8 2 9 3 10 4 11 5 12 6 13 7 14 8 6 9 5 10 4 11 3 12 2 13
REMARK SMILES IDX 1 14
REMARK H PARENT
REMARK Flexibility Score: inf
ROOT
ATOM      1  C   UNL     1      -9.893  -2.322  -1.231  1.00  0.00     0.000 C 
ENDROOT
BRANCH   1   2
ATOM      2  C   UNL     1     -10.122  -0.803  -1.277  1.00  0.00     0.000 C 
BRANCH   2   3
ATOM      3  C   UNL     1      -9.717  -0.183  -2.623  1.00  0.00     0.000 C 
BRANCH   3   4
ATOM      4  C   UNL     1     -10.125   1.296  -2.741  1.00  0.00     0.006 C 
BRANCH   4   5
ATOM      5  C   UNL     1      -9.017   2.154  -3.366  1.00  0.00     0.053 C 
BRANCH   5   6
ATOM      6  C   UNL     1      -9.575   3.247  -4.227  1.00  0.00     0.041 C 
ATOM      7  O   UNL     1      -9.875   3.017  -5.428  1.00  0.00    -0.550 OA
ATOM      8  O   UNL     1      -9.735   4.527  -3.711  1.00  0.00    -0.550 OA
ENDBRANCH   5   6
ENDBRANCH   4   5
ENDBRANCH   3   4
ENDBRANCH   2   3
ENDBRANCH   1   2
BRANCH   1   9
ATOM      9  C   UNL     1      -8.697  -2.722  -2.109  1.00  0.00     0.000 C 
BRANCH   9  10
ATOM     10  C   UNL     1      -8.626  -4.237  -2.357  1.00  0.00    -0.000 C 
BRANCH  10  11
ATOM     11  C   UNL     1      -8.443  -4.585  -3.845  1.00  0.00    -0.000 C 
BRANCH  11  12
ATOM     12  C   UNL     1      -9.469  -3.880  -4.747  1.00  0.00    -0.000 C 
BRANCH  12  13
ATOM     13  C   UNL     1     -10.050  -4.812  -5.819  1.00  0.00    -0.003 C 
ATOM     14  C   UNL     1      -9.692  -6.268  -5.533  1.00  0.00     0.004 C 
ENDBRANCH  12  13
ENDBRANCH  11  12
ENDBRANCH  10  11
ENDBRANCH   9  10
ENDBRANCH   1   9
TORSDOF 10
ENDMDL
