MODEL 1
REMARK VINA RESULT:    -5.653      0.000      0.000
REMARK INTER + INTRA:          -5.653
REMARK INTER:                  -5.653
REMARK INTRA:                   0.000
REMARK UNBOUND:                 0.000
REMARK SMILES CC1(C)[C@@H]2CC[C@@]1(C)C(=O)C2
REMARK SMILES IDX 1 1 2 2 4 3 5 4 6 5 7 6 9 7 10 8 11 9 8 10 3 11
REMARK H PARENT
REMARK Flexibility Score: inf
ROOT
ATOM      1  C   UNL     1      22.769   6.961 -80.154  1.00  0.00     0.012 C 
ATOM      2  C   UNL     1      21.675   5.876 -80.405  1.00  0.00    -0.020 C 
ATOM      3  C   UNL     1      21.003   5.983 -81.794  1.00  0.00     0.003 C 
ATOM      4  C   UNL     1      20.108   4.714 -81.840  1.00  0.00     0.005 C 
ATOM      5  C   UNL     1      20.958   3.662 -81.085  1.00  0.00     0.015 C 
ATOM      6  C   UNL     1      22.224   4.463 -80.697  1.00  0.00     0.032 C 
ATOM      7  C   UNL     1      22.941   4.707 -82.002  1.00  0.00     0.139 C 
ATOM      8  O   UNL     1      23.932   4.113 -82.398  1.00  0.00    -0.299 OA
ATOM      9  C   UNL     1      22.175   5.728 -82.784  1.00  0.00     0.080 C 
ATOM     10  C   UNL     1      23.079   3.821 -79.598  1.00  0.00     0.020 C 
ATOM     11  C   UNL     1      20.676   5.975 -79.213  1.00  0.00     0.012 C 
ENDROOT
TORSDOF 0
ENDMDL
MODEL 2
REMARK VINA RESULT:    -5.286      3.736      5.448
REMARK INTER + INTRA:          -5.286
REMARK INTER:                  -5.286
REMARK INTRA:                   0.000
REMARK UNBOUND:                 0.000
REMARK SMILES CC1(C)[C@@H]2CC[C@@]1(C)C(=O)C2
REMARK SMILES IDX 1 1 2 2 4 3 5 4 6 5 7 6 9 7 10 8 11 9 8 10 3 11
REMARK H PARENT
REMARK Flexibility Score: inf
ROOT
ATOM      1  C   UNL     1      27.410   4.442 -78.805  1.00  0.00     0.012 C 
ATOM      2  C   UNL     1      26.947   4.013 -80.233  1.00  0.00    -0.020 C 
ATOM      3  C   UNL     1      27.323   2.557 -80.594  1.00  0.00     0.003 C 
ATOM      4  C   UNL     1      26.609   2.348 -81.958  1.00  0.00     0.005 C 
ATOM      5  C   UNL     1      25.299   3.157 -81.792  1.00  0.00     0.015 C 
ATOM      6  C   UNL     1      25.434   3.733 -80.361  1.00  0.00     0.032 C 
ATOM      7  C   UNL     1      25.294   2.537 -79.451  1.00  0.00     0.139 C 
ATOM      8  O   UNL     1      24.302   2.242 -78.802  1.00  0.00    -0.299 OA
ATOM      9  C   UNL     1      26.537   1.710 -79.554  1.00  0.00     0.080 C 
ATOM     10  C   UNL     1      24.492   4.900 -80.048  1.00  0.00     0.020 C 
ATOM     11  C   UNL     1      27.518   5.076 -81.219  1.00  0.00     0.012 C 
ENDROOT
TORSDOF 0
ENDMDL
MODEL 3
REMARK VINA RESULT:    -5.280      3.982      5.734
REMARK INTER + INTRA:          -5.280
REMARK INTER:                  -5.280
REMARK INTRA:                   0.000
REMARK UNBOUND:                 0.000
REMARK SMILES CC1(C)[C@@H]2CC[C@@]1(C)C(=O)C2
REMARK SMILES IDX 1 1 2 2 4 3 5 4 6 5 7 6 9 7 10 8 11 9 8 10 3 11
REMARK H PARENT
REMARK Flexibility Score: inf
ROOT
ATOM      1  C   UNL     1      26.206   2.259 -82.273  1.00  0.00     0.012 C 
ATOM      2  C   UNL     1      26.955   3.134 -81.221  1.00  0.00    -0.020 C 
ATOM      3  C   UNL     1      26.443   4.592 -81.149  1.00  0.00     0.003 C 
ATOM      4  C   UNL     1      27.223   5.169 -79.935  1.00  0.00     0.005 C 
ATOM      5  C   UNL     1      27.303   3.962 -78.968  1.00  0.00     0.015 C 
ATOM      6  C   UNL     1      26.569   2.848 -79.753  1.00  0.00     0.032 C 
ATOM      7  C   UNL     1      25.120   3.271 -79.759  1.00  0.00     0.139 C 
ATOM      8  O   UNL     1      24.233   2.804 -79.062  1.00  0.00    -0.299 OA
ATOM      9  C   UNL     1      24.967   4.436 -80.687  1.00  0.00     0.080 C 
ATOM     10  C   UNL     1      26.827   1.426 -79.242  1.00  0.00     0.020 C 
ATOM     11  C   UNL     1      28.474   3.015 -81.550  1.00  0.00     0.012 C 
ENDROOT
TORSDOF 0
ENDMDL
MODEL 4
REMARK VINA RESULT:    -5.200      1.383      2.997
REMARK INTER + INTRA:          -5.200
REMARK INTER:                  -5.200
REMARK INTRA:                   0.000
REMARK UNBOUND:                 0.000
REMARK SMILES CC1(C)[C@@H]2CC[C@@]1(C)C(=O)C2
REMARK SMILES IDX 1 1 2 2 4 3 5 4 6 5 7 6 9 7 10 8 11 9 8 10 3 11
REMARK H PARENT
REMARK Flexibility Score: inf
ROOT
ATOM      1  C   UNL     1      21.056   6.093 -79.257  1.00  0.00     0.012 C 
ATOM      2  C   UNL     1      22.309   5.727 -80.113  1.00  0.00    -0.020 C 
ATOM      3  C   UNL     1      22.989   4.406 -79.682  1.00  0.00     0.003 C 
ATOM      4  C   UNL     1      24.069   4.203 -80.780  1.00  0.00     0.005 C 
ATOM      5  C   UNL     1      23.373   4.740 -82.055  1.00  0.00     0.015 C 
ATOM      6  C   UNL     1      21.990   5.189 -81.524  1.00  0.00     0.032 C 
ATOM      7  C   UNL     1      21.276   3.905 -81.178  1.00  0.00     0.139 C 
ATOM      8  O   UNL     1      20.398   3.373 -81.839  1.00  0.00    -0.299 OA
ATOM      9  C   UNL     1      21.894   3.333 -79.941  1.00  0.00     0.080 C 
ATOM     10  C   UNL     1      21.219   6.129 -82.457  1.00  0.00     0.020 C 
ATOM     11  C   UNL     1      23.253   6.966 -80.065  1.00  0.00     0.012 C 
ENDROOT
TORSDOF 0
ENDMDL
MODEL 5
REMARK VINA RESULT:    -5.140      3.779      5.658
REMARK INTER + INTRA:          -5.140
REMARK INTER:                  -5.140
REMARK INTRA:                   0.000
REMARK UNBOUND:                 0.000
REMARK SMILES CC1(C)[C@@H]2CC[C@@]1(C)C(=O)C2
REMARK SMILES IDX 1 1 2 2 4 3 5 4 6 5 7 6 9 7 10 8 11 9 8 10 3 11
REMARK H PARENT
REMARK Flexibility Score: inf
ROOT
ATOM      1  C   UNL     1      27.729   3.781 -82.282  1.00  0.00     0.012 C 
ATOM      2  C   UNL     1      26.891   2.984 -81.233  1.00  0.00    -0.020 C 
ATOM      3  C   UNL     1      27.488   3.023 -79.806  1.00  0.00     0.003 C 
ATOM      4  C   UNL     1      26.392   2.318 -78.959  1.00  0.00     0.005 C 
ATOM      5  C   UNL     1      25.078   2.781 -79.636  1.00  0.00     0.015 C 
ATOM      6  C   UNL     1      25.588   3.682 -80.787  1.00  0.00     0.032 C 
ATOM      7  C   UNL     1      26.146   4.904 -80.101  1.00  0.00     0.139 C 
ATOM      8  O   UNL     1      25.605   5.996 -80.028  1.00  0.00    -0.299 OA
ATOM      9  C   UNL     1      27.431   4.530 -79.429  1.00  0.00     0.080 C 
ATOM     10  C   UNL     1      24.555   3.968 -81.883  1.00  0.00     0.020 C 
ATOM     11  C   UNL     1      26.721   1.546 -81.806  1.00  0.00     0.012 C 
ENDROOT
TORSDOF 0
ENDMDL
MODEL 6
REMARK VINA RESULT:    -5.076      1.363      3.017
REMARK INTER + INTRA:          -5.076
REMARK INTER:                  -5.076
REMARK INTRA:                   0.000
REMARK UNBOUND:                 0.000
REMARK SMILES CC1(C)[C@@H]2CC[C@@]1(C)C(=O)C2
REMARK SMILES IDX 1 1 2 2 4 3 5 4 6 5 7 6 9 7 10 8 11 9 8 10 3 11
REMARK H PARENT
REMARK Flexibility Score: inf
ROOT
ATOM      1  C   UNL     1      20.807   4.164 -82.074  1.00  0.00     0.012 C 
ATOM      2  C   UNL     1      21.704   5.344 -81.586  1.00  0.00    -0.020 C 
ATOM      3  C   UNL     1      21.200   6.006 -80.282  1.00  0.00     0.003 C 
ATOM      4  C   UNL     1      22.341   7.004 -79.942  1.00  0.00     0.005 C 
ATOM      5  C   UNL     1      23.613   6.243 -80.392  1.00  0.00     0.015 C 
ATOM      6  C   UNL     1      23.039   4.914 -80.939  1.00  0.00     0.032 C 
ATOM      7  C   UNL     1      22.535   4.182 -79.720  1.00  0.00     0.139 C 
ATOM      8  O   UNL     1      23.088   3.244 -79.167  1.00  0.00    -0.299 OA
ATOM      9  C   UNL     1      21.292   4.861 -79.234  1.00  0.00     0.080 C 
ATOM     10  C   UNL     1      24.002   4.115 -81.824  1.00  0.00     0.020 C 
ATOM     11  C   UNL     1      21.827   6.330 -82.786  1.00  0.00     0.012 C 
ENDROOT
TORSDOF 0
ENDMDL
MODEL 7
REMARK VINA RESULT:    -5.030      3.845      5.511
REMARK INTER + INTRA:          -5.030
REMARK INTER:                  -5.030
REMARK INTRA:                   0.000
REMARK UNBOUND:                 0.000
REMARK SMILES CC1(C)[C@@H]2CC[C@@]1(C)C(=O)C2
REMARK SMILES IDX 1 1 2 2 4 3 5 4 6 5 7 6 9 7 10 8 11 9 8 10 3 11
REMARK H PARENT
REMARK Flexibility Score: inf
ROOT
ATOM      1  C   UNL     1      27.355   5.402 -80.019  1.00  0.00     0.012 C 
ATOM      2  C   UNL     1      27.250   3.855 -79.843  1.00  0.00    -0.020 C 
ATOM      3  C   UNL     1      26.010   3.406 -79.034  1.00  0.00     0.003 C 
ATOM      4  C   UNL     1      26.062   1.858 -79.158  1.00  0.00     0.005 C 
ATOM      5  C   UNL     1      26.599   1.643 -80.595  1.00  0.00     0.015 C 
ATOM      6  C   UNL     1      26.794   3.092 -81.106  1.00  0.00     0.032 C 
ATOM      7  C   UNL     1      25.396   3.634 -81.269  1.00  0.00     0.139 C 
ATOM      8  O   UNL     1      24.799   3.773 -82.325  1.00  0.00    -0.299 OA
ATOM      9  C   UNL     1      24.815   3.876 -79.910  1.00  0.00     0.080 C 
ATOM     10  C   UNL     1      27.689   3.221 -82.343  1.00  0.00     0.020 C 
ATOM     11  C   UNL     1      28.605   3.388 -79.230  1.00  0.00     0.012 C 
ENDROOT
TORSDOF 0
ENDMDL
MODEL 8
REMARK VINA RESULT:    -4.934      1.467      2.694
REMARK INTER + INTRA:          -4.934
REMARK INTER:                  -4.934
REMARK INTRA:                   0.000
REMARK UNBOUND:                 0.000
REMARK SMILES CC1(C)[C@@H]2CC[C@@]1(C)C(=O)C2
REMARK SMILES IDX 1 1 2 2 4 3 5 4 6 5 7 6 9 7 10 8 11 9 8 10 3 11
REMARK H PARENT
REMARK Flexibility Score: inf
ROOT
ATOM      1  C   UNL     1      23.699   4.259 -81.892  1.00  0.00     0.012 C 
ATOM      2  C   UNL     1      22.762   4.709 -80.728  1.00  0.00    -0.020 C 
ATOM      3  C   UNL     1      22.844   6.222 -80.416  1.00  0.00     0.003 C 
ATOM      4  C   UNL     1      21.714   6.416 -79.367  1.00  0.00     0.005 C 
ATOM      5  C   UNL     1      20.621   5.430 -79.847  1.00  0.00     0.015 C 
ATOM      6  C   UNL     1      21.266   4.791 -81.101  1.00  0.00     0.032 C 
ATOM      7  C   UNL     1      21.295   5.899 -82.126  1.00  0.00     0.139 C 
ATOM      8  O   UNL     1      20.536   6.018 -83.075  1.00  0.00    -0.299 OA
ATOM      9  C   UNL     1      22.344   6.890 -81.728  1.00  0.00     0.080 C 
ATOM     10  C   UNL     1      20.605   3.490 -81.571  1.00  0.00     0.020 C 
ATOM     11  C   UNL     1      23.101   3.795 -79.512  1.00  0.00     0.012 C 
ENDROOT
TORSDOF 0
ENDMDL
MODEL 9
REMARK VINA RESULT:    -4.909      3.756      5.150
REMARK INTER + INTRA:          -4.909
REMARK INTER:                  -4.909
REMARK INTRA:                   0.000
REMARK UNBOUND:                 0.000
REMARK SMILES CC1(C)[C@@H]2CC[C@@]1(C)C(=O)C2
REMARK SMILES IDX 1 1 2 2 4 3 5 4 6 5 7 6 9 7 10 8 11 9 8 10 3 11
REMARK H PARENT
REMARK Flexibility Score: inf
ROOT
ATOM      1  C   UNL     1      24.788   5.309 -80.007  1.00  0.00     0.012 C 
ATOM      2  C   UNL     1      25.395   4.126 -80.823  1.00  0.00    -0.020 C 
ATOM      3  C   UNL     1      26.763   4.455 -81.466  1.00  0.00     0.003 C 
ATOM      4  C   UNL     1      27.204   3.085 -82.052  1.00  0.00     0.005 C 
ATOM      5  C   UNL     1      26.673   2.073 -81.007  1.00  0.00     0.015 C 
ATOM      6  C   UNL     1      25.990   2.989 -79.963  1.00  0.00     0.032 C 
ATOM      7  C   UNL     1      27.126   3.716 -79.287  1.00  0.00     0.139 C 
ATOM      8  O   UNL     1      27.576   3.470 -78.178  1.00  0.00    -0.299 OA
ATOM      9  C   UNL     1      27.685   4.724 -80.242  1.00  0.00     0.080 C 
ATOM     10  C   UNL     1      25.023   2.272 -79.014  1.00  0.00     0.020 C 
ATOM     11  C   UNL     1      24.305   3.692 -81.848  1.00  0.00     0.012 C 
ENDROOT
TORSDOF 0
ENDMDL
