MODEL 1
REMARK VINA RESULT:    -5.302      0.000      0.000
REMARK INTER + INTRA:         -11.349
REMARK INTER:                  -9.952
REMARK INTRA:                  -1.397
REMARK UNBOUND:                -1.397
REMARK SMILES CCCCCCCCC=CCCCCCCCC(=O)[O-]
REMARK SMILES IDX 10 1 9 2 11 3 12 4 13 5 14 6 15 7 16 8 17 9 18 10 19 11
REMARK SMILES IDX 20 12 8 13 7 14 6 15 5 16 4 17 3 18 2 19 1 20
REMARK H PARENT
REMARK Flexibility Score: inf
ROOT
ATOM      1  C   UNL     1      35.664  41.891  37.970  1.00  0.00    -0.031 C 
ATOM      2  C   UNL     1      36.001  42.666  36.922  1.00  0.00    -0.031 C 
ENDROOT
BRANCH   1   3
ATOM      3  C   UNL     1      36.038  42.175  39.404  1.00  0.00     0.027 C 
BRANCH   3   4
ATOM      4  C   UNL     1      34.932  42.941  40.144  1.00  0.00     0.004 C 
BRANCH   4   5
ATOM      5  C   UNL     1      35.264  44.432  40.298  1.00  0.00     0.000 C 
BRANCH   5   6
ATOM      6  C   UNL     1      34.583  45.021  41.543  1.00  0.00     0.000 C 
BRANCH   6   7
ATOM      7  C   UNL     1      33.922  43.948  42.428  1.00  0.00     0.000 C 
BRANCH   7   8
ATOM      8  C   UNL     1      32.526  44.318  42.970  1.00  0.00     0.006 C 
BRANCH   8   9
ATOM      9  C   UNL     1      31.413  43.328  42.592  1.00  0.00     0.053 C 
BRANCH   9  10
ATOM     10  C   UNL     1      31.316  43.134  41.111  1.00  0.00     0.041 C 
ATOM     11  O   UNL     1      30.828  44.037  40.383  1.00  0.00    -0.550 OA
ATOM     12  O   UNL     1      31.733  41.939  40.537  1.00  0.00    -0.550 OA
ENDBRANCH   9  10
ENDBRANCH   8   9
ENDBRANCH   7   8
ENDBRANCH   6   7
ENDBRANCH   5   6
ENDBRANCH   4   5
ENDBRANCH   3   4
ENDBRANCH   1   3
BRANCH   2  13
ATOM     13  C   UNL     1      36.715  43.992  37.025  1.00  0.00     0.027 C 
BRANCH  13  14
ATOM     14  C   UNL     1      36.444  44.893  35.808  1.00  0.00     0.004 C 
BRANCH  14  15
ATOM     15  C   UNL     1      35.181  44.516  35.010  1.00  0.00     0.000 C 
BRANCH  15  16
ATOM     16  C   UNL     1      35.081  45.260  33.669  1.00  0.00     0.000 C 
BRANCH  16  17
ATOM     17  C   UNL     1      36.369  46.023  33.313  1.00  0.00    -0.000 C 
BRANCH  17  18
ATOM     18  C   UNL     1      36.135  47.236  32.388  1.00  0.00    -0.000 C 
BRANCH  18  19
ATOM     19  C   UNL     1      35.570  48.444  33.149  1.00  0.00    -0.003 C 
ATOM     20  C   UNL     1      36.274  48.628  34.491  1.00  0.00     0.004 C 
ENDBRANCH  18  19
ENDBRANCH  17  18
ENDBRANCH  16  17
ENDBRANCH  15  16
ENDBRANCH  14  15
ENDBRANCH  13  14
ENDBRANCH   2  13
TORSDOF 15
ENDMDL
MODEL 2
REMARK VINA RESULT:    -4.755      3.166      8.485
REMARK INTER + INTRA:         -10.323
REMARK INTER:                  -9.805
REMARK INTRA:                  -0.517
REMARK UNBOUND:                -1.397
REMARK SMILES CCCCCCCCC=CCCCCCCCC(=O)[O-]
REMARK SMILES IDX 10 1 9 2 11 3 12 4 13 5 14 6 15 7 16 8 17 9 18 10 19 11
REMARK SMILES IDX 20 12 8 13 7 14 6 15 5 16 4 17 3 18 2 19 1 20
REMARK H PARENT
REMARK Flexibility Score: inf
ROOT
ATOM      1  C   UNL     1      36.273  42.247  38.612  1.00  0.00    -0.031 C 
ATOM      2  C   UNL     1      35.301  42.210  39.543  1.00  0.00    -0.031 C 
ENDROOT
BRANCH   1   3
ATOM      3  C   UNL     1      36.693  43.484  37.857  1.00  0.00     0.027 C 
BRANCH   3   4
ATOM      4  C   UNL     1      36.298  43.412  36.374  1.00  0.00     0.004 C 
BRANCH   4   5
ATOM      5  C   UNL     1      36.138  44.805  35.749  1.00  0.00     0.000 C 
BRANCH   5   6
ATOM      6  C   UNL     1      34.988  44.821  34.732  1.00  0.00     0.000 C 
BRANCH   6   7
ATOM      7  C   UNL     1      35.289  45.694  33.500  1.00  0.00     0.000 C 
BRANCH   7   8
ATOM      8  C   UNL     1      36.766  46.108  33.337  1.00  0.00     0.006 C 
BRANCH   8   9
ATOM      9  C   UNL     1      36.973  47.513  32.751  1.00  0.00     0.053 C 
BRANCH   9  10
ATOM     10  C   UNL     1      36.191  48.551  33.495  1.00  0.00     0.041 C 
ATOM     11  O   UNL     1      35.558  49.440  32.866  1.00  0.00    -0.550 OA
ATOM     12  O   UNL     1      36.188  48.557  34.884  1.00  0.00    -0.550 OA
ENDBRANCH   9  10
ENDBRANCH   8   9
ENDBRANCH   7   8
ENDBRANCH   6   7
ENDBRANCH   5   6
ENDBRANCH   4   5
ENDBRANCH   3   4
ENDBRANCH   1   3
BRANCH   2  13
ATOM     13  C   UNL     1      34.550  43.416  40.053  1.00  0.00     0.027 C 
BRANCH  13  14
ATOM     14  C   UNL     1      35.031  43.854  41.446  1.00  0.00     0.004 C 
BRANCH  14  15
ATOM     15  C   UNL     1      34.240  45.031  42.047  1.00  0.00     0.000 C 
BRANCH  15  16
ATOM     16  C   UNL     1      32.988  44.577  42.815  1.00  0.00     0.000 C 
BRANCH  16  17
ATOM     17  C   UNL     1      33.133  43.165  43.410  1.00  0.00    -0.000 C 
BRANCH  17  18
ATOM     18  C   UNL     1      32.011  42.194  42.985  1.00  0.00    -0.000 C 
BRANCH  18  19
ATOM     19  C   UNL     1      31.771  42.216  41.468  1.00  0.00    -0.003 C 
ATOM     20  C   UNL     1      30.988  43.459  41.051  1.00  0.00     0.004 C 
ENDBRANCH  18  19
ENDBRANCH  17  18
ENDBRANCH  16  17
ENDBRANCH  15  16
ENDBRANCH  14  15
ENDBRANCH  13  14
ENDBRANCH   2  13
TORSDOF 15
ENDMDL
MODEL 3
REMARK VINA RESULT:    -4.463     11.964     14.334
REMARK INTER + INTRA:          -9.775
REMARK INTER:                  -8.759
REMARK INTRA:                  -1.015
REMARK UNBOUND:                -1.397
REMARK SMILES CCCCCCCCC=CCCCCCCCC(=O)[O-]
REMARK SMILES IDX 10 1 9 2 11 3 12 4 13 5 14 6 15 7 16 8 17 9 18 10 19 11
REMARK SMILES IDX 20 12 8 13 7 14 6 15 5 16 4 17 3 18 2 19 1 20
REMARK H PARENT
REMARK Flexibility Score: inf
ROOT
ATOM      1  C   UNL     1      25.608  50.082  36.496  1.00  0.00    -0.031 C 
ATOM      2  C   UNL     1      25.348  48.811  36.136  1.00  0.00    -0.031 C 
ENDROOT
BRANCH   1   3
ATOM      3  C   UNL     1      24.580  51.052  37.026  1.00  0.00     0.027 C 
BRANCH   3   4
ATOM      4  C   UNL     1      25.211  52.111  37.942  1.00  0.00     0.004 C 
BRANCH   4   5
ATOM      5  C   UNL     1      25.928  53.212  37.147  1.00  0.00     0.000 C 
BRANCH   5   6
ATOM      6  C   UNL     1      26.923  53.972  38.036  1.00  0.00     0.000 C 
BRANCH   6   7
ATOM      7  C   UNL     1      28.223  53.187  38.287  1.00  0.00     0.000 C 
BRANCH   7   8
ATOM      8  C   UNL     1      29.376  54.010  38.899  1.00  0.00     0.006 C 
BRANCH   8   9
ATOM      9  C   UNL     1      29.117  55.524  38.957  1.00  0.00     0.053 C 
BRANCH   9  10
ATOM     10  C   UNL     1      30.028  56.212  39.926  1.00  0.00     0.041 C 
ATOM     11  O   UNL     1      31.102  55.662  40.287  1.00  0.00    -0.550 OA
ATOM     12  O   UNL     1      29.675  57.446  40.457  1.00  0.00    -0.550 OA
ENDBRANCH   9  10
ENDBRANCH   8   9
ENDBRANCH   7   8
ENDBRANCH   6   7
ENDBRANCH   5   6
ENDBRANCH   4   5
ENDBRANCH   3   4
ENDBRANCH   1   3
BRANCH   2  13
ATOM     13  C   UNL     1      24.014  48.124  36.302  1.00  0.00     0.027 C 
BRANCH  13  14
ATOM     14  C   UNL     1      23.195  48.124  35.000  1.00  0.00     0.004 C 
BRANCH  14  15
ATOM     15  C   UNL     1      21.741  48.607  35.169  1.00  0.00     0.000 C 
BRANCH  15  16
ATOM     16  C   UNL     1      21.425  49.050  36.606  1.00  0.00     0.000 C 
BRANCH  16  17
ATOM     17  C   UNL     1      20.089  48.488  37.122  1.00  0.00    -0.000 C 
BRANCH  17  18
ATOM     18  C   UNL     1      18.887  48.806  36.207  1.00  0.00    -0.000 C 
BRANCH  18  19
ATOM     19  C   UNL     1      17.550  48.405  36.847  1.00  0.00    -0.003 C 
ATOM     20  C   UNL     1      17.064  47.061  36.310  1.00  0.00     0.004 C 
ENDBRANCH  18  19
ENDBRANCH  17  18
ENDBRANCH  16  17
ENDBRANCH  15  16
ENDBRANCH  14  15
ENDBRANCH  13  14
ENDBRANCH   2  13
TORSDOF 15
ENDMDL
MODEL 4
REMARK VINA RESULT:    -4.453     10.703     12.874
REMARK INTER + INTRA:          -9.756
REMARK INTER:                  -9.005
REMARK INTRA:                  -0.751
REMARK UNBOUND:                -1.397
REMARK SMILES CCCCCCCCC=CCCCCCCCC(=O)[O-]
REMARK SMILES IDX 10 1 9 2 11 3 12 4 13 5 14 6 15 7 16 8 17 9 18 10 19 11
REMARK SMILES IDX 20 12 8 13 7 14 6 15 5 16 4 17 3 18 2 19 1 20
REMARK H PARENT
REMARK Flexibility Score: inf
ROOT
ATOM      1  C   UNL     1      26.620  49.002  36.265  1.00  0.00    -0.031 C 
ATOM      2  C   UNL     1      25.285  48.869  36.154  1.00  0.00    -0.031 C 
ENDROOT
BRANCH   1   3
ATOM      3  C   UNL     1      27.616  47.891  36.040  1.00  0.00     0.027 C 
BRANCH   3   4
ATOM      4  C   UNL     1      29.064  48.385  36.168  1.00  0.00     0.004 C 
BRANCH   4   5
ATOM      5  C   UNL     1      29.213  49.470  37.245  1.00  0.00     0.000 C 
BRANCH   5   6
ATOM      6  C   UNL     1      30.508  49.273  38.047  1.00  0.00     0.000 C 
BRANCH   6   7
ATOM      7  C   UNL     1      30.701  50.336  39.144  1.00  0.00     0.000 C 
BRANCH   7   8
ATOM      8  C   UNL     1      29.795  51.579  39.016  1.00  0.00     0.006 C 
BRANCH   8   9
ATOM      9  C   UNL     1      30.532  52.921  39.150  1.00  0.00     0.053 C 
BRANCH   9  10
ATOM     10  C   UNL     1      29.596  54.086  39.054  1.00  0.00     0.041 C 
ATOM     11  O   UNL     1      29.941  55.214  39.492  1.00  0.00    -0.550 OA
ATOM     12  O   UNL     1      28.329  53.917  38.511  1.00  0.00    -0.550 OA
ENDBRANCH   9  10
ENDBRANCH   8   9
ENDBRANCH   7   8
ENDBRANCH   6   7
ENDBRANCH   5   6
ENDBRANCH   4   5
ENDBRANCH   3   4
ENDBRANCH   1   3
BRANCH   2  13
ATOM     13  C   UNL     1      24.579  47.618  35.688  1.00  0.00     0.027 C 
BRANCH  13  14
ATOM     14  C   UNL     1      23.227  47.929  35.024  1.00  0.00     0.004 C 
BRANCH  14  15
ATOM     15  C   UNL     1      22.377  48.971  35.776  1.00  0.00     0.000 C 
BRANCH  15  16
ATOM     16  C   UNL     1      20.878  48.631  35.771  1.00  0.00     0.000 C 
BRANCH  16  17
ATOM     17  C   UNL     1      20.255  48.659  37.177  1.00  0.00    -0.000 C 
BRANCH  17  18
ATOM     18  C   UNL     1      18.740  48.956  37.179  1.00  0.00    -0.000 C 
BRANCH  18  19
ATOM     19  C   UNL     1      17.993  48.155  36.103  1.00  0.00    -0.003 C 
ATOM     20  C   UNL     1      16.939  47.243  36.727  1.00  0.00     0.004 C 
ENDBRANCH  18  19
ENDBRANCH  17  18
ENDBRANCH  16  17
ENDBRANCH  15  16
ENDBRANCH  14  15
ENDBRANCH  13  14
ENDBRANCH   2  13
TORSDOF 15
ENDMDL
MODEL 5
REMARK VINA RESULT:    -4.413      9.849     11.219
REMARK INTER + INTRA:          -9.679
REMARK INTER:                  -8.458
REMARK INTRA:                  -1.221
REMARK UNBOUND:                -1.397
REMARK SMILES CCCCCCCCC=CCCCCCCCC(=O)[O-]
REMARK SMILES IDX 10 1 9 2 11 3 12 4 13 5 14 6 15 7 16 8 17 9 18 10 19 11
REMARK SMILES IDX 20 12 8 13 7 14 6 15 5 16 4 17 3 18 2 19 1 20
REMARK H PARENT
REMARK Flexibility Score: inf
ROOT
ATOM      1  C   UNL     1      30.625  49.225  37.945  1.00  0.00    -0.031 C 
ATOM      2  C   UNL     1      31.093  50.084  38.870  1.00  0.00    -0.031 C 
ENDROOT
BRANCH   1   3
ATOM      3  C   UNL     1      29.243  49.283  37.341  1.00  0.00     0.027 C 
BRANCH   3   4
ATOM      4  C   UNL     1      29.119  48.377  36.107  1.00  0.00     0.004 C 
BRANCH   4   5
ATOM      5  C   UNL     1      27.674  47.915  35.870  1.00  0.00     0.000 C 
BRANCH   5   6
ATOM      6  C   UNL     1      26.686  49.071  36.088  1.00  0.00     0.000 C 
BRANCH   6   7
ATOM      7  C   UNL     1      25.335  48.605  36.661  1.00  0.00     0.000 C 
BRANCH   7   8
ATOM      8  C   UNL     1      24.096  49.304  36.064  1.00  0.00     0.006 C 
BRANCH   8   9
ATOM      9  C   UNL     1      23.192  48.389  35.224  1.00  0.00     0.053 C 
BRANCH   9  10
ATOM     10  C   UNL     1      21.742  48.597  35.534  1.00  0.00     0.041 C 
ATOM     11  O   UNL     1      20.929  48.874  34.613  1.00  0.00    -0.550 OA
ATOM     12  O   UNL     1      21.293  48.518  36.846  1.00  0.00    -0.550 OA
ENDBRANCH   9  10
ENDBRANCH   8   9
ENDBRANCH   7   8
ENDBRANCH   6   7
ENDBRANCH   5   6
ENDBRANCH   4   5
ENDBRANCH   3   4
ENDBRANCH   1   3
BRANCH   2  13
ATOM     13  C   UNL     1      30.352  51.299  39.372  1.00  0.00     0.027 C 
BRANCH  13  14
ATOM     14  C   UNL     1      31.141  52.599  39.138  1.00  0.00     0.004 C 
BRANCH  14  15
ATOM     15  C   UNL     1      30.262  53.858  39.013  1.00  0.00     0.000 C 
BRANCH  15  16
ATOM     16  C   UNL     1      28.765  53.529  38.894  1.00  0.00     0.000 C 
BRANCH  16  17
ATOM     17  C   UNL     1      27.949  54.680  38.282  1.00  0.00    -0.000 C 
BRANCH  17  18
ATOM     18  C   UNL     1      26.487  54.302  37.962  1.00  0.00    -0.000 C 
BRANCH  18  19
ATOM     19  C   UNL     1      26.302  52.785  37.810  1.00  0.00    -0.003 C 
ATOM     20  C   UNL     1      24.903  52.449  37.298  1.00  0.00     0.004 C 
ENDBRANCH  18  19
ENDBRANCH  17  18
ENDBRANCH  16  17
ENDBRANCH  15  16
ENDBRANCH  14  15
ENDBRANCH  13  14
ENDBRANCH   2  13
TORSDOF 15
ENDMDL
MODEL 6
REMARK VINA RESULT:    -4.380     10.904     13.109
REMARK INTER + INTRA:          -9.618
REMARK INTER:                  -8.610
REMARK INTRA:                  -1.008
REMARK UNBOUND:                -1.397
REMARK SMILES CCCCCCCCC=CCCCCCCCC(=O)[O-]
REMARK SMILES IDX 10 1 9 2 11 3 12 4 13 5 14 6 15 7 16 8 17 9 18 10 19 11
REMARK SMILES IDX 20 12 8 13 7 14 6 15 5 16 4 17 3 18 2 19 1 20
REMARK H PARENT
REMARK Flexibility Score: inf
ROOT
ATOM      1  C   UNL     1      24.505  52.028  37.347  1.00  0.00    -0.031 C 
ATOM      2  C   UNL     1      24.190  50.820  36.843  1.00  0.00    -0.031 C 
ENDROOT
BRANCH   1   3
ATOM      3  C   UNL     1      25.856  52.400  37.907  1.00  0.00     0.027 C 
BRANCH   3   4
ATOM      4  C   UNL     1      26.364  53.734  37.340  1.00  0.00     0.004 C 
BRANCH   4   5
ATOM      5  C   UNL     1      27.247  54.491  38.342  1.00  0.00     0.000 C 
BRANCH   5   6
ATOM      6  C   UNL     1      28.726  54.417  37.936  1.00  0.00     0.000 C 
BRANCH   6   7
ATOM      7  C   UNL     1      29.670  54.237  39.139  1.00  0.00     0.000 C 
BRANCH   7   8
ATOM      8  C   UNL     1      30.497  52.935  39.131  1.00  0.00     0.006 C 
BRANCH   8   9
ATOM      9  C   UNL     1      29.659  51.649  39.051  1.00  0.00     0.053 C 
BRANCH   9  10
ATOM     10  C   UNL     1      30.517  50.431  38.899  1.00  0.00     0.041 C 
ATOM     11  O   UNL     1      31.593  50.328  39.543  1.00  0.00    -0.550 OA
ATOM     12  O   UNL     1      30.144  49.423  38.018  1.00  0.00    -0.550 OA
ENDBRANCH   9  10
ENDBRANCH   8   9
ENDBRANCH   7   8
ENDBRANCH   6   7
ENDBRANCH   5   6
ENDBRANCH   4   5
ENDBRANCH   3   4
ENDBRANCH   1   3
BRANCH   2  13
ATOM     13  C   UNL     1      25.164  49.682  36.662  1.00  0.00     0.027 C 
BRANCH  13  14
ATOM     14  C   UNL     1      24.585  48.556  35.788  1.00  0.00     0.004 C 
BRANCH  14  15
ATOM     15  C   UNL     1      23.092  48.268  36.036  1.00  0.00     0.000 C 
BRANCH  15  16
ATOM     16  C   UNL     1      22.200  48.700  34.861  1.00  0.00     0.000 C 
BRANCH  16  17
ATOM     17  C   UNL     1      20.723  48.862  35.262  1.00  0.00    -0.000 C 
BRANCH  17  18
ATOM     18  C   UNL     1      20.454  48.593  36.758  1.00  0.00    -0.000 C 
BRANCH  18  19
ATOM     19  C   UNL     1      19.046  49.036  37.181  1.00  0.00    -0.003 C 
ATOM     20  C   UNL     1      17.973  48.199  36.489  1.00  0.00     0.004 C 
ENDBRANCH  18  19
ENDBRANCH  17  18
ENDBRANCH  16  17
ENDBRANCH  15  16
ENDBRANCH  14  15
ENDBRANCH  13  14
ENDBRANCH   2  13
TORSDOF 15
ENDMDL
MODEL 7
REMARK VINA RESULT:    -4.320      9.698     11.172
REMARK INTER + INTRA:          -9.506
REMARK INTER:                  -8.187
REMARK INTRA:                  -1.318
REMARK UNBOUND:                -1.397
REMARK SMILES CCCCCCCCC=CCCCCCCCC(=O)[O-]
REMARK SMILES IDX 10 1 9 2 11 3 12 4 13 5 14 6 15 7 16 8 17 9 18 10 19 11
REMARK SMILES IDX 20 12 8 13 7 14 6 15 5 16 4 17 3 18 2 19 1 20
REMARK H PARENT
REMARK Flexibility Score: inf
ROOT
ATOM      1  C   UNL     1      30.741  49.774  38.714  1.00  0.00    -0.031 C 
ATOM      2  C   UNL     1      30.358  49.019  37.667  1.00  0.00    -0.031 C 
ENDROOT
BRANCH   1   3
ATOM      3  C   UNL     1      30.075  51.061  39.134  1.00  0.00     0.027 C 
BRANCH   3   4
ATOM      4  C   UNL     1      31.075  52.224  39.211  1.00  0.00     0.004 C 
BRANCH   4   5
ATOM      5  C   UNL     1      30.379  53.592  39.160  1.00  0.00     0.000 C 
BRANCH   5   6
ATOM      6  C   UNL     1      29.054  53.504  38.387  1.00  0.00     0.000 C 
BRANCH   6   7
ATOM      7  C   UNL     1      28.156  54.738  38.595  1.00  0.00     0.000 C 
BRANCH   7   8
ATOM      8  C   UNL     1      26.659  54.514  38.297  1.00  0.00     0.006 C 
BRANCH   8   9
ATOM      9  C   UNL     1      26.376  53.470  37.206  1.00  0.00     0.053 C 
BRANCH   9  10
ATOM     10  C   UNL     1      25.207  52.600  37.553  1.00  0.00     0.041 C 
ATOM     11  O   UNL     1      25.134  52.058  38.687  1.00  0.00    -0.550 OA
ATOM     12  O   UNL     1      24.215  52.360  36.611  1.00  0.00    -0.550 OA
ENDBRANCH   9  10
ENDBRANCH   8   9
ENDBRANCH   7   8
ENDBRANCH   6   7
ENDBRANCH   5   6
ENDBRANCH   4   5
ENDBRANCH   3   4
ENDBRANCH   1   3
BRANCH   2  13
ATOM     13  C   UNL     1      29.143  49.283  36.812  1.00  0.00     0.027 C 
BRANCH  13  14
ATOM     14  C   UNL     1      28.648  48.014  36.097  1.00  0.00     0.004 C 
BRANCH  14  15
ATOM     15  C   UNL     1      27.117  47.839  36.108  1.00  0.00     0.000 C 
BRANCH  15  16
ATOM     16  C   UNL     1      26.368  49.167  36.297  1.00  0.00     0.000 C 
BRANCH  16  17
ATOM     17  C   UNL     1      24.839  48.996  36.284  1.00  0.00    -0.000 C 
BRANCH  17  18
ATOM     18  C   UNL     1      24.352  47.845  35.379  1.00  0.00    -0.000 C 
BRANCH  18  19
ATOM     19  C   UNL     1      22.874  48.001  34.989  1.00  0.00    -0.003 C 
ATOM     20  C   UNL     1      22.144  48.928  35.957  1.00  0.00     0.004 C 
ENDBRANCH  18  19
ENDBRANCH  17  18
ENDBRANCH  16  17
ENDBRANCH  15  16
ENDBRANCH  14  15
ENDBRANCH  13  14
ENDBRANCH   2  13
TORSDOF 15
ENDMDL
MODEL 8
REMARK VINA RESULT:    -4.292      2.855      8.359
REMARK INTER + INTRA:          -9.453
REMARK INTER:                  -8.628
REMARK INTRA:                  -0.825
REMARK UNBOUND:                -1.397
REMARK SMILES CCCCCCCCC=CCCCCCCCC(=O)[O-]
REMARK SMILES IDX 10 1 9 2 11 3 12 4 13 5 14 6 15 7 16 8 17 9 18 10 19 11
REMARK SMILES IDX 20 12 8 13 7 14 6 15 5 16 4 17 3 18 2 19 1 20
REMARK H PARENT
REMARK Flexibility Score: inf
ROOT
ATOM      1  C   UNL     1      37.109  43.934  36.274  1.00  0.00    -0.031 C 
ATOM      2  C   UNL     1      36.958  43.032  37.261  1.00  0.00    -0.031 C 
ENDROOT
BRANCH   1   3
ATOM      3  C   UNL     1      36.076  44.963  35.885  1.00  0.00     0.027 C 
BRANCH   3   4
ATOM      4  C   UNL     1      35.131  44.442  34.792  1.00  0.00     0.004 C 
BRANCH   4   5
ATOM      5  C   UNL     1      35.055  45.395  33.590  1.00  0.00     0.000 C 
BRANCH   5   6
ATOM      6  C   UNL     1      36.461  45.778  33.104  1.00  0.00     0.000 C 
BRANCH   6   7
ATOM      7  C   UNL     1      36.438  46.720  31.887  1.00  0.00     0.000 C 
BRANCH   7   8
ATOM      8  C   UNL     1      36.699  48.207  32.206  1.00  0.00     0.006 C 
BRANCH   8   9
ATOM      9  C   UNL     1      35.637  48.861  33.105  1.00  0.00     0.053 C 
BRANCH   9  10
ATOM     10  C   UNL     1      35.958  48.701  34.559  1.00  0.00     0.041 C 
ATOM     11  O   UNL     1      37.124  48.392  34.921  1.00  0.00    -0.550 OA
ATOM     12  O   UNL     1      34.961  48.859  35.513  1.00  0.00    -0.550 OA
ENDBRANCH   9  10
ENDBRANCH   8   9
ENDBRANCH   7   8
ENDBRANCH   6   7
ENDBRANCH   5   6
ENDBRANCH   4   5
ENDBRANCH   3   4
ENDBRANCH   1   3
BRANCH   2  13
ATOM     13  C   UNL     1      35.779  42.973  38.203  1.00  0.00     0.027 C 
BRANCH  13  14
ATOM     14  C   UNL     1      35.850  44.058  39.290  1.00  0.00     0.004 C 
BRANCH  14  15
ATOM     15  C   UNL     1      35.038  43.736  40.559  1.00  0.00     0.000 C 
BRANCH  15  16
ATOM     16  C   UNL     1      34.715  44.987  41.392  1.00  0.00     0.000 C 
BRANCH  16  17
ATOM     17  C   UNL     1      33.677  44.717  42.495  1.00  0.00    -0.000 C 
BRANCH  17  18
ATOM     18  C   UNL     1      32.966  43.355  42.357  1.00  0.00    -0.000 C 
BRANCH  18  19
ATOM     19  C   UNL     1      31.454  43.512  42.137  1.00  0.00    -0.003 C 
ATOM     20  C   UNL     1      31.137  43.806  40.673  1.00  0.00     0.004 C 
ENDBRANCH  18  19
ENDBRANCH  17  18
ENDBRANCH  16  17
ENDBRANCH  15  16
ENDBRANCH  14  15
ENDBRANCH  13  14
ENDBRANCH   2  13
TORSDOF 15
ENDMDL
MODEL 9
REMARK VINA RESULT:    -4.107     11.403     13.151
REMARK INTER + INTRA:          -9.105
REMARK INTER:                  -8.142
REMARK INTRA:                  -0.963
REMARK UNBOUND:                -1.397
REMARK SMILES CCCCCCCCC=CCCCCCCCC(=O)[O-]
REMARK SMILES IDX 10 1 9 2 11 3 12 4 13 5 14 6 15 7 16 8 17 9 18 10 19 11
REMARK SMILES IDX 20 12 8 13 7 14 6 15 5 16 4 17 3 18 2 19 1 20
REMARK H PARENT
REMARK Flexibility Score: inf
ROOT
ATOM      1  C   UNL     1      24.773  51.602  37.517  1.00  0.00    -0.031 C 
ATOM      2  C   UNL     1      25.039  52.921  37.465  1.00  0.00    -0.031 C 
ENDROOT
BRANCH   1   3
ATOM      3  C   UNL     1      25.639  50.527  36.906  1.00  0.00     0.027 C 
BRANCH   3   4
ATOM      4  C   UNL     1      24.806  49.341  36.399  1.00  0.00     0.004 C 
BRANCH   4   5
ATOM      5  C   UNL     1      23.340  49.725  36.153  1.00  0.00     0.000 C 
BRANCH   5   6
ATOM      6  C   UNL     1      22.606  48.621  35.378  1.00  0.00     0.000 C 
BRANCH   6   7
ATOM      7  C   UNL     1      21.075  48.710  35.513  1.00  0.00     0.000 C 
BRANCH   7   8
ATOM      8  C   UNL     1      20.523  48.389  36.918  1.00  0.00     0.006 C 
BRANCH   8   9
ATOM      9  C   UNL     1      19.277  49.197  37.313  1.00  0.00     0.053 C 
BRANCH   9  10
ATOM     10  C   UNL     1      18.011  48.504  36.913  1.00  0.00     0.041 C 
ATOM     11  O   UNL     1      16.912  49.117  36.954  1.00  0.00    -0.550 OA
ATOM     12  O   UNL     1      18.040  47.169  36.529  1.00  0.00    -0.550 OA
ENDBRANCH   9  10
ENDBRANCH   8   9
ENDBRANCH   7   8
ENDBRANCH   6   7
ENDBRANCH   5   6
ENDBRANCH   4   5
ENDBRANCH   3   4
ENDBRANCH   1   3
BRANCH   2  13
ATOM     13  C   UNL     1      26.293  53.526  36.883  1.00  0.00     0.027 C 
BRANCH  13  14
ATOM     14  C   UNL     1      27.144  54.237  37.949  1.00  0.00     0.004 C 
BRANCH  14  15
ATOM     15  C   UNL     1      28.149  53.320  38.671  1.00  0.00     0.000 C 
BRANCH  15  16
ATOM     16  C   UNL     1      29.574  53.897  38.687  1.00  0.00     0.000 C 
BRANCH  16  17
ATOM     17  C   UNL     1      30.639  52.843  39.036  1.00  0.00    -0.000 C 
BRANCH  17  18
ATOM     18  C   UNL     1      30.054  51.450  39.350  1.00  0.00    -0.000 C 
BRANCH  18  19
ATOM     19  C   UNL     1      31.043  50.321  39.028  1.00  0.00    -0.003 C 
ATOM     20  C   UNL     1      30.468  49.364  37.987  1.00  0.00     0.004 C 
ENDBRANCH  18  19
ENDBRANCH  17  18
ENDBRANCH  16  17
ENDBRANCH  15  16
ENDBRANCH  14  15
ENDBRANCH  13  14
ENDBRANCH   2  13
TORSDOF 15
ENDMDL
