MODEL 1
REMARK VINA RESULT:    -4.831      0.000      0.000
REMARK INTER + INTRA:          -8.948
REMARK INTER:                  -7.373
REMARK INTRA:                  -1.575
REMARK UNBOUND:                -1.575
REMARK SMILES OC[C@H]1O[C@@](CO)(O[C@H]2O[C@H](CO)[C@@H](O)[C@@H](O)[C@@H]2O)[C@H](O)[C@H]1O
REMARK SMILES IDX 8 1 9 2 11 3 14 4 10 5 16 6 18 7 12 8 13 9 15 11 17 13 19 15
REMARK SMILES IDX 5 17 20 18 4 19 22 20 3 21 6 22 7 23 21 25 23 27 2 29 1 30
REMARK H PARENT 13 10 15 12 17 14 19 16 7 24 21 26 23 28 1 31
REMARK Flexibility Score: inf
ROOT
ATOM      1  O   UNL     1      -5.132   7.930 -11.310  1.00  0.00    -0.313 OA
ENDROOT
BRANCH   1   2
ATOM      2  C   UNL     1      -4.514   6.654 -11.391  1.00  0.00     0.285 C 
ATOM      3  C   UNL     1      -4.408   6.846 -13.736  1.00  0.00     0.178 C 
ATOM      4  C   UNL     1      -2.872   7.061 -13.751  1.00  0.00     0.177 C 
ATOM      5  O   UNL     1      -4.784   6.023 -12.641  1.00  0.00    -0.341 OA
ATOM      6  C   UNL     1      -2.361   7.595 -12.393  1.00  0.00     0.179 C 
ATOM      7  C   UNL     1      -2.991   6.820 -11.212  1.00  0.00     0.202 C 
BRANCH   3   8
ATOM      8  C   UNL     1      -4.863   6.151 -15.030  1.00  0.00     0.191 C 
BRANCH   8   9
ATOM      9  O   UNL     1      -6.244   6.329 -15.232  1.00  0.00    -0.394 OA
ATOM     10  H   UNL     1      -6.340   6.753 -16.127  1.00  0.00     0.210 HD
ENDBRANCH   8   9
ENDBRANCH   3   8
BRANCH   4  11
ATOM     11  O   UNL     1      -2.517   7.971 -14.767  1.00  0.00    -0.387 OA
ATOM     12  H   UNL     1      -2.839   7.572 -15.623  1.00  0.00     0.211 HD
ENDBRANCH   4  11
BRANCH   6  13
ATOM     13  O   UNL     1      -2.670   8.961 -12.246  1.00  0.00    -0.387 OA
ATOM     14  H   UNL     1      -2.467   9.199 -11.300  1.00  0.00     0.211 HD
ENDBRANCH   6  13
BRANCH   7  15
ATOM     15  O   UNL     1      -2.371   5.571 -11.011  1.00  0.00    -0.385 OA
ATOM     16  H   UNL     1      -2.970   5.026 -10.435  1.00  0.00     0.211 HD
ENDBRANCH   7  15
ENDBRANCH   1   2
BRANCH   1  17
ATOM     17  C   UNL     1      -6.412   7.947 -10.671  1.00  0.00     0.224 C 
ATOM     18  C   UNL     1      -7.474   8.105 -11.794  1.00  0.00     0.208 C 
ATOM     19  O   UNL     1      -6.686   6.734  -9.976  1.00  0.00    -0.337 OA
ATOM     20  C   UNL     1      -8.191   6.768 -11.804  1.00  0.00     0.180 C 
ATOM     21  C   UNL     1      -7.970   6.308 -10.370  1.00  0.00     0.179 C 
BRANCH  17  22
ATOM     22  C   UNL     1      -6.461   9.125  -9.666  1.00  0.00     0.225 C 
BRANCH  22  23
ATOM     23  O   UNL     1      -5.454   9.010  -8.693  1.00  0.00    -0.391 OA
ATOM     24  H   UNL     1      -5.673   9.678  -7.993  1.00  0.00     0.210 HD
ENDBRANCH  22  23
ENDBRANCH  17  22
BRANCH  18  25
ATOM     25  O   UNL     1      -8.405   9.125 -11.511  1.00  0.00    -0.385 OA
ATOM     26  H   UNL     1      -8.008   9.981 -11.821  1.00  0.00     0.211 HD
ENDBRANCH  18  25
BRANCH  20  27
ATOM     27  O   UNL     1      -7.610   5.869 -12.718  1.00  0.00    -0.387 OA
ATOM     28  H   UNL     1      -6.971   5.298 -12.211  1.00  0.00     0.211 HD
ENDBRANCH  20  27
BRANCH  21  29
ATOM     29  C   UNL     1      -8.103   4.792 -10.163  1.00  0.00     0.191 C 
BRANCH  29  30
ATOM     30  O   UNL     1      -9.277   4.320 -10.765  1.00  0.00    -0.394 OA
ATOM     31  H   UNL     1     -10.004   4.404 -10.095  1.00  0.00     0.210 HD
ENDBRANCH  29  30
ENDBRANCH  21  29
ENDBRANCH   1  17
TORSDOF 13
ENDMDL
MODEL 2
REMARK VINA RESULT:    -4.697      1.385      5.024
REMARK INTER + INTRA:          -8.744
REMARK INTER:                  -7.154
REMARK INTRA:                  -1.589
REMARK UNBOUND:                -1.575
REMARK SMILES OC[C@H]1O[C@@](CO)(O[C@H]2O[C@H](CO)[C@@H](O)[C@@H](O)[C@@H]2O)[C@H](O)[C@H]1O
REMARK SMILES IDX 8 1 9 2 11 3 14 4 10 5 16 6 18 7 12 8 13 9 15 11 17 13 19 15
REMARK SMILES IDX 5 17 20 18 4 19 22 20 3 21 6 22 7 23 21 25 23 27 2 29 1 30
REMARK H PARENT 13 10 15 12 17 14 19 16 7 24 21 26 23 28 1 31
REMARK Flexibility Score: inf
ROOT
ATOM      1  O   UNL     1      -5.223   6.852 -10.753  1.00  0.00    -0.313 OA
ENDROOT
BRANCH   1   2
ATOM      2  C   UNL     1      -6.069   7.846 -11.313  1.00  0.00     0.285 C 
ATOM      3  C   UNL     1      -6.787   6.319 -12.955  1.00  0.00     0.178 C 
ATOM      4  C   UNL     1      -8.197   6.151 -12.330  1.00  0.00     0.177 C 
ATOM      5  O   UNL     1      -6.283   7.623 -12.704  1.00  0.00    -0.341 OA
ATOM      6  C   UNL     1      -8.198   6.519 -10.828  1.00  0.00     0.179 C 
ATOM      7  C   UNL     1      -7.421   7.832 -10.571  1.00  0.00     0.202 C 
BRANCH   3   8
ATOM      8  C   UNL     1      -6.851   6.120 -14.479  1.00  0.00     0.191 C 
BRANCH   8   9
ATOM      9  O   UNL     1      -5.848   6.868 -15.122  1.00  0.00    -0.394 OA
ATOM     10  H   UNL     1      -5.451   7.456 -14.423  1.00  0.00     0.210 HD
ENDBRANCH   8   9
ENDBRANCH   3   8
BRANCH   4  11
ATOM     11  O   UNL     1      -8.643   4.823 -12.480  1.00  0.00    -0.387 OA
ATOM     12  H   UNL     1      -8.087   4.271 -11.863  1.00  0.00     0.211 HD
ENDBRANCH   4  11
BRANCH   6  13
ATOM     13  O   UNL     1      -7.607   5.494 -10.064  1.00  0.00    -0.387 OA
ATOM     14  H   UNL     1      -7.711   5.756  -9.107  1.00  0.00     0.211 HD
ENDBRANCH   6  13
BRANCH   7  15
ATOM     15  O   UNL     1      -8.185   8.969 -10.901  1.00  0.00    -0.385 OA
ATOM     16  H   UNL     1      -9.141   8.744 -10.748  1.00  0.00     0.211 HD
ENDBRANCH   7  15
ENDBRANCH   1   2
BRANCH   1  17
ATOM     17  C   UNL     1      -3.830   7.177 -10.736  1.00  0.00     0.224 C 
ATOM     18  C   UNL     1      -3.089   6.021 -11.464  1.00  0.00     0.208 C 
ATOM     19  O   UNL     1      -3.548   8.386 -11.436  1.00  0.00    -0.337 OA
ATOM     20  C   UNL     1      -2.587   6.661 -12.744  1.00  0.00     0.180 C 
ATOM     21  C   UNL     1      -2.482   8.119 -12.318  1.00  0.00     0.179 C 
BRANCH  17  22
ATOM     22  C   UNL     1      -3.360   7.324  -9.268  1.00  0.00     0.225 C 
BRANCH  22  23
ATOM     23  O   UNL     1      -4.433   7.634  -8.415  1.00  0.00    -0.391 OA
ATOM     24  H   UNL     1      -4.260   7.147  -7.569  1.00  0.00     0.210 HD
ENDBRANCH  22  23
ENDBRANCH  17  22
BRANCH  18  25
ATOM     25  O   UNL     1      -1.988   5.541 -10.725  1.00  0.00    -0.385 OA
ATOM     26  H   UNL     1      -1.170   5.931 -11.130  1.00  0.00     0.211 HD
ENDBRANCH  18  25
BRANCH  20  27
ATOM     27  O   UNL     1      -3.503   6.508 -13.801  1.00  0.00    -0.387 OA
ATOM     28  H   UNL     1      -3.056   5.973 -14.510  1.00  0.00     0.211 HD
ENDBRANCH  20  27
BRANCH  21  29
ATOM     29  C   UNL     1      -2.504   9.122 -13.481  1.00  0.00     0.191 C 
BRANCH  29  30
ATOM     30  O   UNL     1      -3.763   9.122 -14.099  1.00  0.00    -0.394 OA
ATOM     31  H   UNL     1      -4.274   8.362 -13.719  1.00  0.00     0.210 HD
ENDBRANCH  29  30
ENDBRANCH  21  29
ENDBRANCH   1  17
TORSDOF 13
ENDMDL
MODEL 3
REMARK VINA RESULT:    -4.158      1.957      5.519
REMARK INTER + INTRA:          -7.921
REMARK INTER:                  -6.706
REMARK INTRA:                  -1.214
REMARK UNBOUND:                -1.575
REMARK SMILES OC[C@H]1O[C@@](CO)(O[C@H]2O[C@H](CO)[C@@H](O)[C@@H](O)[C@@H]2O)[C@H](O)[C@H]1O
REMARK SMILES IDX 8 1 9 2 11 3 14 4 10 5 16 6 18 7 12 8 13 9 15 11 17 13 19 15
REMARK SMILES IDX 5 17 20 18 4 19 22 20 3 21 6 22 7 23 21 25 23 27 2 29 1 30
REMARK H PARENT 13 10 15 12 17 14 19 16 7 24 21 26 23 28 1 31
REMARK Flexibility Score: inf
ROOT
ATOM      1  O   UNL     1      -4.378   6.464 -13.476  1.00  0.00    -0.313 OA
ENDROOT
BRANCH   1   2
ATOM      2  C   UNL     1      -3.852   7.710 -13.040  1.00  0.00     0.285 C 
ATOM      3  C   UNL     1      -5.272   7.657 -11.162  1.00  0.00     0.178 C 
ATOM      4  C   UNL     1      -4.117   7.365 -10.168  1.00  0.00     0.177 C 
ATOM      5  O   UNL     1      -4.802   8.430 -12.258  1.00  0.00    -0.341 OA
ATOM      6  C   UNL     1      -2.905   6.723 -10.882  1.00  0.00     0.179 C 
ATOM      7  C   UNL     1      -2.580   7.455 -12.206  1.00  0.00     0.202 C 
BRANCH   3   8
ATOM      8  C   UNL     1      -6.388   8.454 -10.464  1.00  0.00     0.191 C 
BRANCH   8   9
ATOM      9  O   UNL     1      -6.018   8.780  -9.146  1.00  0.00    -0.394 OA
ATOM     10  H   UNL     1      -6.210   7.971  -8.597  1.00  0.00     0.210 HD
ENDBRANCH   8   9
ENDBRANCH   3   8
BRANCH   4  11
ATOM     11  O   UNL     1      -4.560   6.503  -9.145  1.00  0.00    -0.387 OA
ATOM     12  H   UNL     1      -5.311   5.974  -9.533  1.00  0.00     0.211 HD
ENDBRANCH   4  11
BRANCH   6  13
ATOM     13  O   UNL     1      -3.157   5.368 -11.171  1.00  0.00    -0.387 OA
ATOM     14  H   UNL     1      -2.752   5.186 -12.064  1.00  0.00     0.211 HD
ENDBRANCH   6  13
BRANCH   7  15
ATOM     15  O   UNL     1      -1.877   8.655 -11.984  1.00  0.00    -0.385 OA
ATOM     16  H   UNL     1      -0.996   8.576 -12.438  1.00  0.00     0.211 HD
ENDBRANCH   7  15
ENDBRANCH   1   2
BRANCH   1  17
ATOM     17  C   UNL     1      -4.825   6.435 -14.834  1.00  0.00     0.224 C 
ATOM     18  C   UNL     1      -4.033   7.535 -15.594  1.00  0.00     0.208 C 
ATOM     19  O   UNL     1      -4.555   5.187 -15.467  1.00  0.00    -0.337 OA
ATOM     20  C   UNL     1      -3.130   6.752 -16.527  1.00  0.00     0.180 C 
ATOM     21  C   UNL     1      -3.930   5.469 -16.698  1.00  0.00     0.179 C 
BRANCH  17  22
ATOM     22  C   UNL     1      -6.351   6.698 -14.872  1.00  0.00     0.225 C 
BRANCH  22  23
ATOM     23  O   UNL     1      -7.021   5.975 -13.870  1.00  0.00    -0.391 OA
ATOM     24  H   UNL     1      -6.443   6.022 -13.066  1.00  0.00     0.210 HD
ENDBRANCH  22  23
ENDBRANCH  17  22
BRANCH  18  25
ATOM     25  O   UNL     1      -4.874   8.371 -16.357  1.00  0.00    -0.385 OA
ATOM     26  H   UNL     1      -4.332   8.724 -17.111  1.00  0.00     0.211 HD
ENDBRANCH  18  25
BRANCH  20  27
ATOM     27  O   UNL     1      -1.875   6.492 -15.947  1.00  0.00    -0.387 OA
ATOM     28  H   UNL     1      -1.268   7.240 -16.197  1.00  0.00     0.211 HD
ENDBRANCH  20  27
BRANCH  21  29
ATOM     29  C   UNL     1      -3.098   4.259 -17.150  1.00  0.00     0.191 C 
BRANCH  29  30
ATOM     30  O   UNL     1      -2.051   4.673 -17.984  1.00  0.00    -0.394 OA
ATOM     31  H   UNL     1      -1.253   4.800 -17.409  1.00  0.00     0.210 HD
ENDBRANCH  29  30
ENDBRANCH  21  29
ENDBRANCH   1  17
TORSDOF 13
ENDMDL
MODEL 4
REMARK VINA RESULT:    -3.046      1.669      3.127
REMARK INTER + INTRA:          -6.225
REMARK INTER:                  -5.849
REMARK INTRA:                  -0.376
REMARK UNBOUND:                -1.575
REMARK SMILES OC[C@H]1O[C@@](CO)(O[C@H]2O[C@H](CO)[C@@H](O)[C@@H](O)[C@@H]2O)[C@H](O)[C@H]1O
REMARK SMILES IDX 8 1 9 2 11 3 14 4 10 5 16 6 18 7 12 8 13 9 15 11 17 13 19 15
REMARK SMILES IDX 5 17 20 18 4 19 22 20 3 21 6 22 7 23 21 25 23 27 2 29 1 30
REMARK H PARENT 13 10 15 12 17 14 19 16 7 24 21 26 23 28 1 31
REMARK Flexibility Score: inf
ROOT
ATOM      1  O   UNL     1      -4.725   6.897 -12.525  1.00  0.00    -0.313 OA
ENDROOT
BRANCH   1   2
ATOM      2  C   UNL     1      -5.615   7.449 -13.485  1.00  0.00     0.285 C 
ATOM      3  C   UNL     1      -3.932   7.320 -15.127  1.00  0.00     0.178 C 
ATOM      4  C   UNL     1      -4.612   6.145 -15.878  1.00  0.00     0.177 C 
ATOM      5  O   UNL     1      -4.908   8.146 -14.508  1.00  0.00    -0.341 OA
ATOM      6  C   UNL     1      -5.567   5.358 -14.952  1.00  0.00     0.179 C 
ATOM      7  C   UNL     1      -6.448   6.313 -14.111  1.00  0.00     0.202 C 
BRANCH   3   8
ATOM      8  C   UNL     1      -3.129   8.189 -16.110  1.00  0.00     0.191 C 
BRANCH   8   9
ATOM      9  O   UNL     1      -3.967   9.122 -16.749  1.00  0.00    -0.394 OA
ATOM     10  H   UNL     1      -3.833   8.989 -17.727  1.00  0.00     0.210 HD
ENDBRANCH   8   9
ENDBRANCH   3   8
BRANCH   4  11
ATOM     11  O   UNL     1      -3.638   5.265 -16.391  1.00  0.00    -0.387 OA
ATOM     12  H   UNL     1      -3.009   5.826 -16.926  1.00  0.00     0.211 HD
ENDBRANCH   4  11
BRANCH   6  13
ATOM     13  O   UNL     1      -4.840   4.532 -14.072  1.00  0.00    -0.387 OA
ATOM     14  H   UNL     1      -5.165   4.738 -13.153  1.00  0.00     0.211 HD
ENDBRANCH   6  13
BRANCH   7  15
ATOM     15  O   UNL     1      -7.522   6.833 -14.860  1.00  0.00    -0.385 OA
ATOM     16  H   UNL     1      -7.582   6.312 -15.703  1.00  0.00     0.211 HD
ENDBRANCH   7  15
ENDBRANCH   1   2
BRANCH   1  17
ATOM     17  C   UNL     1      -5.158   6.998 -11.165  1.00  0.00     0.224 C 
ATOM     18  C   UNL     1      -5.867   8.373 -11.019  1.00  0.00     0.208 C 
ATOM     19  O   UNL     1      -6.097   5.983 -10.819  1.00  0.00    -0.337 OA
ATOM     20  C   UNL     1      -7.324   8.008 -10.804  1.00  0.00     0.180 C 
ATOM     21  C   UNL     1      -7.190   6.618 -10.197  1.00  0.00     0.179 C 
BRANCH  17  22
ATOM     22  C   UNL     1      -3.928   6.885 -10.231  1.00  0.00     0.225 C 
BRANCH  22  23
ATOM     23  O   UNL     1      -4.312   6.854  -8.880  1.00  0.00    -0.391 OA
ATOM     24  H   UNL     1      -4.193   7.778  -8.540  1.00  0.00     0.210 HD
ENDBRANCH  22  23
ENDBRANCH  17  22
BRANCH  18  25
ATOM     25  O   UNL     1      -5.403   9.099  -9.903  1.00  0.00    -0.385 OA
ATOM     26  H   UNL     1      -4.795   8.500  -9.395  1.00  0.00     0.211 HD
ENDBRANCH  18  25
BRANCH  20  27
ATOM     27  O   UNL     1      -8.037   7.963 -12.016  1.00  0.00    -0.387 OA
ATOM     28  H   UNL     1      -7.614   7.267 -12.587  1.00  0.00     0.211 HD
ENDBRANCH  20  27
BRANCH  21  29
ATOM     29  C   UNL     1      -8.446   5.745 -10.329  1.00  0.00     0.191 C 
BRANCH  29  30
ATOM     30  O   UNL     1      -8.612   5.329 -11.658  1.00  0.00    -0.394 OA
ATOM     31  H   UNL     1      -9.067   4.448 -11.634  1.00  0.00     0.210 HD
ENDBRANCH  29  30
ENDBRANCH  21  29
ENDBRANCH   1  17
TORSDOF 13
ENDMDL
MODEL 5
REMARK VINA RESULT:    -2.181      1.753      5.489
REMARK INTER + INTRA:          -4.904
REMARK INTER:                  -4.674
REMARK INTRA:                  -0.230
REMARK UNBOUND:                -1.575
REMARK SMILES OC[C@H]1O[C@@](CO)(O[C@H]2O[C@H](CO)[C@@H](O)[C@@H](O)[C@@H]2O)[C@H](O)[C@H]1O
REMARK SMILES IDX 8 1 9 2 11 3 14 4 10 5 16 6 18 7 12 8 13 9 15 11 17 13 19 15
REMARK SMILES IDX 5 17 20 18 4 19 22 20 3 21 6 22 7 23 21 25 23 27 2 29 1 30
REMARK H PARENT 13 10 15 12 17 14 19 16 7 24 21 26 23 28 1 31
REMARK Flexibility Score: inf
ROOT
ATOM      1  O   UNL     1      -5.361   7.116 -12.572  1.00  0.00    -0.313 OA
ENDROOT
BRANCH   1   2
ATOM      2  C   UNL     1      -6.447   7.879 -12.066  1.00  0.00     0.285 C 
ATOM      3  C   UNL     1      -7.672   5.903 -11.697  1.00  0.00     0.178 C 
ATOM      4  C   UNL     1      -7.525   5.977 -10.154  1.00  0.00     0.177 C 
ATOM      5  O   UNL     1      -7.689   7.207 -12.259  1.00  0.00    -0.341 OA
ATOM      6  C   UNL     1      -6.300   6.826  -9.743  1.00  0.00     0.179 C 
ATOM      7  C   UNL     1      -6.224   8.137 -10.562  1.00  0.00     0.202 C 
BRANCH   3   8
ATOM      8  C   UNL     1      -8.991   5.206 -12.074  1.00  0.00     0.191 C 
BRANCH   8   9
ATOM      9  O   UNL     1      -9.789   4.998 -10.934  1.00  0.00    -0.394 OA
ATOM     10  H   UNL     1      -9.197   4.569 -10.258  1.00  0.00     0.210 HD
ENDBRANCH   8   9
ENDBRANCH   3   8
BRANCH   4  11
ATOM     11  O   UNL     1      -7.392   4.683  -9.614  1.00  0.00    -0.387 OA
ATOM     12  H   UNL     1      -8.069   4.615  -8.884  1.00  0.00     0.211 HD
ENDBRANCH   4  11
BRANCH   6  13
ATOM     13  O   UNL     1      -5.106   6.107  -9.941  1.00  0.00    -0.387 OA
ATOM     14  H   UNL     1      -4.385   6.782 -10.076  1.00  0.00     0.211 HD
ENDBRANCH   6  13
BRANCH   7  15
ATOM     15  O   UNL     1      -7.123   9.110 -10.082  1.00  0.00    -0.385 OA
ATOM     16  H   UNL     1      -6.597   9.776  -9.564  1.00  0.00     0.211 HD
ENDBRANCH   7  15
ENDBRANCH   1   2
BRANCH   1  17
ATOM     17  C   UNL     1      -4.199   7.871 -12.927  1.00  0.00     0.224 C 
ATOM     18  C   UNL     1      -3.119   6.850 -13.380  1.00  0.00     0.208 C 
ATOM     19  O   UNL     1      -4.443   8.761 -14.013  1.00  0.00    -0.337 OA
ATOM     20  C   UNL     1      -2.978   7.108 -14.868  1.00  0.00     0.180 C 
ATOM     21  C   UNL     1      -3.412   8.565 -14.953  1.00  0.00     0.179 C 
BRANCH  17  22
ATOM     22  C   UNL     1      -3.733   8.693 -11.699  1.00  0.00     0.225 C 
BRANCH  22  23
ATOM     23  O   UNL     1      -3.106   7.875 -10.744  1.00  0.00    -0.391 OA
ATOM     24  H   UNL     1      -2.307   8.375 -10.438  1.00  0.00     0.210 HD
ENDBRANCH  22  23
ENDBRANCH  17  22
BRANCH  18  25
ATOM     25  O   UNL     1      -1.876   7.073 -12.753  1.00  0.00    -0.385 OA
ATOM     26  H   UNL     1      -1.974   7.878 -12.181  1.00  0.00     0.211 HD
ENDBRANCH  18  25
BRANCH  20  27
ATOM     27  O   UNL     1      -3.829   6.282 -15.625  1.00  0.00    -0.387 OA
ATOM     28  H   UNL     1      -4.480   6.872 -16.094  1.00  0.00     0.211 HD
ENDBRANCH  20  27
BRANCH  21  29
ATOM     29  C   UNL     1      -3.886   9.004 -16.347  1.00  0.00     0.191 C 
BRANCH  29  30
ATOM     30  O   UNL     1      -2.939   8.649 -17.317  1.00  0.00    -0.394 OA
ATOM     31  H   UNL     1      -3.297   8.940 -18.195  1.00  0.00     0.210 HD
ENDBRANCH  29  30
ENDBRANCH  21  29
ENDBRANCH   1  17
TORSDOF 13
ENDMDL
