MODEL 1
REMARK VINA RESULT:    -4.371      0.000      0.000
REMARK INTER + INTRA:          -9.095
REMARK INTER:                  -6.671
REMARK INTRA:                  -2.425
REMARK UNBOUND:                -2.425
REMARK SMILES CC(=O)CCC=C(C)CCC=C(C)CCC=C(C)C
REMARK SMILES IDX 10 1 11 2 12 3 13 4 14 5 15 6 16 7 18 8 17 9 19 10 9 11 7 12
REMARK SMILES IDX 6 13 8 14 5 15 4 16 2 17 3 18 1 19
REMARK H PARENT
REMARK Flexibility Score: inf
ROOT
ATOM      1  C   UNL     1       3.645  22.079   0.856  1.00  0.00     0.032 C 
ENDROOT
BRANCH   1   2
ATOM      2  C   UNL     1       4.560  21.708   1.999  1.00  0.00    -0.028 C 
ATOM      3  C   UNL     1       5.235  20.541   2.102  1.00  0.00    -0.077 C 
ATOM      4  C   UNL     1       5.179  19.488   1.021  1.00  0.00     0.039 C 
BRANCH   3   5
ATOM      5  C   UNL     1       6.063  20.277   3.342  1.00  0.00     0.034 C 
BRANCH   5   6
ATOM      6  C   UNL     1       5.473  20.998   4.557  1.00  0.00     0.032 C 
BRANCH   6   7
ATOM      7  C   UNL     1       4.416  20.150   5.221  1.00  0.00    -0.028 C 
ATOM      8  C   UNL     1       4.112  21.741   7.131  1.00  0.00     0.039 C 
ATOM      9  C   UNL     1       3.813  20.458   6.390  1.00  0.00    -0.080 C 
ATOM     10  C   UNL     1       2.803  19.493   6.954  1.00  0.00     0.039 C 
ENDBRANCH   6   7
ENDBRANCH   5   6
ENDBRANCH   3   5
ENDBRANCH   1   2
BRANCH   1  11
ATOM     11  C   UNL     1       2.259  22.499   1.365  1.00  0.00     0.034 C 
BRANCH  11  12
ATOM     12  C   UNL     1       1.817  21.674   2.561  1.00  0.00    -0.077 C 
ATOM     13  C   UNL     1       1.561  22.216   3.774  1.00  0.00    -0.028 C 
ATOM     14  C   UNL     1       1.619  20.190   2.387  1.00  0.00     0.039 C 
BRANCH  13  15
ATOM     15  C   UNL     1       1.758  23.668   4.130  1.00  0.00     0.035 C 
BRANCH  15  16
ATOM     16  C   UNL     1       3.210  23.932   4.540  1.00  0.00     0.079 C 
BRANCH  16  17
ATOM     17  C   UNL     1       3.655  25.294   4.073  1.00  0.00     0.130 C 
ATOM     18  O   UNL     1       4.100  26.091   4.885  1.00  0.00    -0.300 OA
ATOM     19  C   UNL     1       3.552  25.699   2.632  1.00  0.00     0.087 C 
ENDBRANCH  16  17
ENDBRANCH  15  16
ENDBRANCH  13  15
ENDBRANCH  11  12
ENDBRANCH   1  11
TORSDOF 9
ENDMDL
MODEL 2
REMARK VINA RESULT:    -4.300      2.187      4.690
REMARK INTER + INTRA:          -8.988
REMARK INTER:                  -6.953
REMARK INTRA:                  -2.035
REMARK UNBOUND:                -2.425
REMARK SMILES CC(=O)CCC=C(C)CCC=C(C)CCC=C(C)C
REMARK SMILES IDX 10 1 11 2 12 3 13 4 14 5 15 6 16 7 18 8 17 9 19 10 9 11 7 12
REMARK SMILES IDX 6 13 8 14 5 15 4 16 2 17 3 18 1 19
REMARK H PARENT
REMARK Flexibility Score: inf
ROOT
ATOM      1  C   UNL     1       3.582  23.981   6.529  1.00  0.00     0.032 C 
ENDROOT
BRANCH   1   2
ATOM      2  C   UNL     1       3.902  22.540   6.851  1.00  0.00    -0.028 C 
ATOM      3  C   UNL     1       3.044  21.668   7.429  1.00  0.00    -0.077 C 
ATOM      4  C   UNL     1       1.622  22.050   7.764  1.00  0.00     0.039 C 
BRANCH   3   5
ATOM      5  C   UNL     1       3.526  20.271   7.757  1.00  0.00     0.034 C 
BRANCH   5   6
ATOM      6  C   UNL     1       3.875  19.499   6.481  1.00  0.00     0.032 C 
BRANCH   6   7
ATOM      7  C   UNL     1       3.311  18.101   6.531  1.00  0.00    -0.028 C 
ATOM      8  C   UNL     1       1.133  18.772   5.491  1.00  0.00     0.039 C 
ATOM      9  C   UNL     1       2.071  17.763   6.112  1.00  0.00    -0.080 C 
ATOM     10  C   UNL     1       1.628  16.331   6.261  1.00  0.00     0.039 C 
ENDBRANCH   6   7
ENDBRANCH   5   6
ENDBRANCH   3   5
ENDBRANCH   1   2
BRANCH   1  11
ATOM     11  C   UNL     1       3.525  24.214   5.013  1.00  0.00     0.034 C 
BRANCH  11  12
ATOM     12  C   UNL     1       2.235  23.694   4.404  1.00  0.00    -0.077 C 
ATOM     13  C   UNL     1       2.208  22.783   3.404  1.00  0.00    -0.028 C 
ATOM     14  C   UNL     1       0.921  24.185   4.957  1.00  0.00     0.039 C 
BRANCH  13  15
ATOM     15  C   UNL     1       3.425  22.232   2.706  1.00  0.00     0.035 C 
BRANCH  15  16
ATOM     16  C   UNL     1       3.956  20.996   3.439  1.00  0.00     0.079 C 
BRANCH  16  17
ATOM     17  C   UNL     1       5.324  20.622   2.930  1.00  0.00     0.130 C 
ATOM     18  O   UNL     1       5.534  20.610   1.726  1.00  0.00    -0.300 OA
ATOM     19  C   UNL     1       6.433  20.250   3.869  1.00  0.00     0.087 C 
ENDBRANCH  16  17
ENDBRANCH  15  16
ENDBRANCH  13  15
ENDBRANCH  11  12
ENDBRANCH   1  11
TORSDOF 9
ENDMDL
MODEL 3
REMARK VINA RESULT:    -4.282      1.940      4.500
REMARK INTER + INTRA:          -8.960
REMARK INTER:                  -7.381
REMARK INTRA:                  -1.579
REMARK UNBOUND:                -2.425
REMARK SMILES CC(=O)CCC=C(C)CCC=C(C)CCC=C(C)C
REMARK SMILES IDX 10 1 11 2 12 3 13 4 14 5 15 6 16 7 18 8 17 9 19 10 9 11 7 12
REMARK SMILES IDX 6 13 8 14 5 15 4 16 2 17 3 18 1 19
REMARK H PARENT
REMARK Flexibility Score: inf
ROOT
ATOM      1  C   UNL     1       3.126  24.094   4.520  1.00  0.00     0.032 C 
ENDROOT
BRANCH   1   2
ATOM      2  C   UNL     1       2.482  23.213   5.566  1.00  0.00    -0.028 C 
ATOM      3  C   UNL     1       3.151  22.548   6.534  1.00  0.00    -0.077 C 
ATOM      4  C   UNL     1       4.647  22.673   6.703  1.00  0.00     0.039 C 
BRANCH   3   5
ATOM      5  C   UNL     1       2.380  21.644   7.472  1.00  0.00     0.034 C 
BRANCH   5   6
ATOM      6  C   UNL     1       3.136  20.334   7.714  1.00  0.00     0.032 C 
BRANCH   6   7
ATOM      7  C   UNL     1       2.359  19.161   7.171  1.00  0.00    -0.028 C 
ATOM      8  C   UNL     1       4.417  17.931   6.446  1.00  0.00     0.039 C 
ATOM      9  C   UNL     1       2.919  18.083   6.576  1.00  0.00    -0.080 C 
ATOM     10  C   UNL     1       2.013  17.004   6.045  1.00  0.00     0.039 C 
ENDBRANCH   6   7
ENDBRANCH   5   6
ENDBRANCH   3   5
ENDBRANCH   1   2
BRANCH   1  11
ATOM     11  C   UNL     1       2.467  23.903   3.148  1.00  0.00     0.034 C 
BRANCH  11  12
ATOM     12  C   UNL     1       3.440  24.151   2.009  1.00  0.00    -0.077 C 
ATOM     13  C   UNL     1       4.008  23.152   1.294  1.00  0.00    -0.028 C 
ATOM     14  C   UNL     1       3.767  25.573   1.629  1.00  0.00     0.039 C 
BRANCH  13  15
ATOM     15  C   UNL     1       3.830  21.681   1.575  1.00  0.00     0.035 C 
BRANCH  15  16
ATOM     16  C   UNL     1       5.171  21.033   1.932  1.00  0.00     0.079 C 
BRANCH  16  17
ATOM     17  C   UNL     1       5.204  20.643   3.387  1.00  0.00     0.130 C 
ATOM     18  O   UNL     1       4.155  20.545   4.006  1.00  0.00    -0.300 OA
ATOM     19  C   UNL     1       6.499  20.385   4.098  1.00  0.00     0.087 C 
ENDBRANCH  16  17
ENDBRANCH  15  16
ENDBRANCH  13  15
ENDBRANCH  11  12
ENDBRANCH   1  11
TORSDOF 9
ENDMDL
MODEL 4
REMARK VINA RESULT:    -4.264      2.289      4.569
REMARK INTER + INTRA:          -8.932
REMARK INTER:                  -7.313
REMARK INTRA:                  -1.619
REMARK UNBOUND:                -2.425
REMARK SMILES CC(=O)CCC=C(C)CCC=C(C)CCC=C(C)C
REMARK SMILES IDX 10 1 11 2 12 3 13 4 14 5 15 6 16 7 18 8 17 9 19 10 9 11 7 12
REMARK SMILES IDX 6 13 8 14 5 15 4 16 2 17 3 18 1 19
REMARK H PARENT
REMARK Flexibility Score: inf
ROOT
ATOM      1  C   UNL     1       4.343  20.753   5.966  1.00  0.00     0.032 C 
ENDROOT
BRANCH   1   2
ATOM      2  C   UNL     1       4.338  20.753   4.455  1.00  0.00    -0.028 C 
ATOM      3  C   UNL     1       5.439  20.649   3.678  1.00  0.00    -0.077 C 
ATOM      4  C   UNL     1       6.818  20.462   4.266  1.00  0.00     0.039 C 
BRANCH   3   5
ATOM      5  C   UNL     1       5.289  20.733   2.174  1.00  0.00     0.034 C 
BRANCH   5   6
ATOM      6  C   UNL     1       3.935  21.341   1.793  1.00  0.00     0.032 C 
BRANCH   6   7
ATOM      7  C   UNL     1       4.109  22.736   1.247  1.00  0.00    -0.028 C 
ATOM      8  C   UNL     1       2.852  23.802   3.133  1.00  0.00     0.039 C 
ATOM      9  C   UNL     1       3.608  23.850   1.826  1.00  0.00    -0.080 C 
ATOM     10  C   UNL     1       3.829  25.175   1.144  1.00  0.00     0.039 C 
ENDBRANCH   6   7
ENDBRANCH   5   6
ENDBRANCH   3   5
ENDBRANCH   1   2
BRANCH   1  11
ATOM     11  C   UNL     1       4.396  22.182   6.522  1.00  0.00     0.034 C 
BRANCH  11  12
ATOM     12  C   UNL     1       3.021  22.694   6.911  1.00  0.00    -0.077 C 
ATOM     13  C   UNL     1       2.693  24.007   6.896  1.00  0.00    -0.028 C 
ATOM     14  C   UNL     1       1.957  21.698   7.299  1.00  0.00     0.039 C 
BRANCH  13  15
ATOM     15  C   UNL     1       3.647  25.132   6.584  1.00  0.00     0.035 C 
BRANCH  15  16
ATOM     16  C   UNL     1       2.899  26.464   6.481  1.00  0.00     0.079 C 
BRANCH  16  17
ATOM     17  C   UNL     1       3.088  27.279   7.734  1.00  0.00     0.130 C 
ATOM     18  O   UNL     1       4.119  27.917   7.885  1.00  0.00    -0.300 OA
ATOM     19  C   UNL     1       2.042  27.316   8.808  1.00  0.00     0.087 C 
ENDBRANCH  16  17
ENDBRANCH  15  16
ENDBRANCH  13  15
ENDBRANCH  11  12
ENDBRANCH   1  11
TORSDOF 9
ENDMDL
MODEL 5
REMARK VINA RESULT:    -4.252      2.366      5.604
REMARK INTER + INTRA:          -8.914
REMARK INTER:                  -7.012
REMARK INTRA:                  -1.902
REMARK UNBOUND:                -2.425
REMARK SMILES CC(=O)CCC=C(C)CCC=C(C)CCC=C(C)C
REMARK SMILES IDX 10 1 11 2 12 3 13 4 14 5 15 6 16 7 18 8 17 9 19 10 9 11 7 12
REMARK SMILES IDX 6 13 8 14 5 15 4 16 2 17 3 18 1 19
REMARK H PARENT
REMARK Flexibility Score: inf
ROOT
ATOM      1  C   UNL     1       5.285  20.253   4.297  1.00  0.00     0.032 C 
ENDROOT
BRANCH   1   2
ATOM      2  C   UNL     1       5.534  20.675   2.868  1.00  0.00    -0.028 C 
ATOM      3  C   UNL     1       4.577  20.803   1.922  1.00  0.00    -0.077 C 
ATOM      4  C   UNL     1       3.115  20.582   2.229  1.00  0.00     0.039 C 
BRANCH   3   5
ATOM      5  C   UNL     1       4.983  21.168   0.510  1.00  0.00     0.034 C 
BRANCH   5   6
ATOM      6  C   UNL     1       4.066  22.255  -0.059  1.00  0.00     0.032 C 
BRANCH   6   7
ATOM      7  C   UNL     1       4.317  23.577   0.622  1.00  0.00    -0.028 C 
ATOM      8  C   UNL     1       1.907  23.907   1.220  1.00  0.00     0.039 C 
ATOM      9  C   UNL     1       3.353  24.343   1.181  1.00  0.00    -0.080 C 
ATOM     10  C   UNL     1       3.748  25.662   1.793  1.00  0.00     0.039 C 
ENDBRANCH   6   7
ENDBRANCH   5   6
ENDBRANCH   3   5
ENDBRANCH   1   2
BRANCH   1  11
ATOM     11  C   UNL     1       5.413  21.440   5.260  1.00  0.00     0.034 C 
BRANCH  11  12
ATOM     12  C   UNL     1       4.064  22.055   5.589  1.00  0.00    -0.077 C 
ATOM     13  C   UNL     1       3.248  21.566   6.551  1.00  0.00    -0.028 C 
ATOM     14  C   UNL     1       3.623  23.286   4.838  1.00  0.00     0.039 C 
BRANCH  13  15
ATOM     15  C   UNL     1       3.512  20.319   7.356  1.00  0.00     0.035 C 
BRANCH  15  16
ATOM     16  C   UNL     1       2.399  19.289   7.139  1.00  0.00     0.079 C 
BRANCH  16  17
ATOM     17  C   UNL     1       2.969  17.989   6.632  1.00  0.00     0.130 C 
ATOM     18  O   UNL     1       4.179  17.820   6.641  1.00  0.00    -0.300 OA
ATOM     19  C   UNL     1       2.082  16.902   6.102  1.00  0.00     0.087 C 
ENDBRANCH  16  17
ENDBRANCH  15  16
ENDBRANCH  13  15
ENDBRANCH  11  12
ENDBRANCH   1  11
TORSDOF 9
ENDMDL
MODEL 6
REMARK VINA RESULT:    -4.219      1.477      4.309
REMARK INTER + INTRA:          -8.864
REMARK INTER:                  -6.634
REMARK INTRA:                  -2.230
REMARK UNBOUND:                -2.425
REMARK SMILES CC(=O)CCC=C(C)CCC=C(C)CCC=C(C)C
REMARK SMILES IDX 10 1 11 2 12 3 13 4 14 5 15 6 16 7 18 8 17 9 19 10 9 11 7 12
REMARK SMILES IDX 6 13 8 14 5 15 4 16 2 17 3 18 1 19
REMARK H PARENT
REMARK Flexibility Score: inf
ROOT
ATOM      1  C   UNL     1       0.888  20.755   6.869  1.00  0.00     0.032 C 
ENDROOT
BRANCH   1   2
ATOM      2  C   UNL     1       1.057  20.907   5.375  1.00  0.00    -0.028 C 
ATOM      3  C   UNL     1       1.305  19.890   4.518  1.00  0.00    -0.077 C 
ATOM      4  C   UNL     1       1.381  18.455   4.981  1.00  0.00     0.039 C 
BRANCH   3   5
ATOM      5  C   UNL     1       1.521  20.201   3.052  1.00  0.00     0.034 C 
BRANCH   5   6
ATOM      6  C   UNL     1       2.544  21.328   2.877  1.00  0.00     0.032 C 
BRANCH   6   7
ATOM      7  C   UNL     1       3.860  20.959   3.516  1.00  0.00    -0.028 C 
ATOM      8  C   UNL     1       5.049  20.752   1.322  1.00  0.00     0.039 C 
ATOM      9  C   UNL     1       4.989  20.673   2.830  1.00  0.00    -0.080 C 
ATOM     10  C   UNL     1       6.220  20.281   3.603  1.00  0.00     0.039 C 
ENDBRANCH   6   7
ENDBRANCH   5   6
ENDBRANCH   3   5
ENDBRANCH   1   2
BRANCH   1  11
ATOM     11  C   UNL     1       1.874  21.647   7.635  1.00  0.00     0.034 C 
BRANCH  11  12
ATOM     12  C   UNL     1       3.311  21.405   7.209  1.00  0.00    -0.077 C 
ATOM     13  C   UNL     1       4.138  22.400   6.809  1.00  0.00    -0.028 C 
ATOM     14  C   UNL     1       3.859  20.002   7.264  1.00  0.00     0.039 C 
BRANCH  13  15
ATOM     15  C   UNL     1       3.736  23.844   6.648  1.00  0.00     0.035 C 
BRANCH  15  16
ATOM     16  C   UNL     1       2.903  24.035   5.377  1.00  0.00     0.079 C 
BRANCH  16  17
ATOM     17  C   UNL     1       3.536  25.064   4.476  1.00  0.00     0.130 C 
ATOM     18  O   UNL     1       4.151  25.997   4.969  1.00  0.00    -0.300 OA
ATOM     19  C   UNL     1       3.418  24.974   2.984  1.00  0.00     0.087 C 
ENDBRANCH  16  17
ENDBRANCH  15  16
ENDBRANCH  13  15
ENDBRANCH  11  12
ENDBRANCH   1  11
TORSDOF 9
ENDMDL
MODEL 7
REMARK VINA RESULT:    -4.208      1.348      2.951
REMARK INTER + INTRA:          -8.847
REMARK INTER:                  -7.027
REMARK INTRA:                  -1.820
REMARK UNBOUND:                -2.425
REMARK SMILES CC(=O)CCC=C(C)CCC=C(C)CCC=C(C)C
REMARK SMILES IDX 10 1 11 2 12 3 13 4 14 5 15 6 16 7 18 8 17 9 19 10 9 11 7 12
REMARK SMILES IDX 6 13 8 14 5 15 4 16 2 17 3 18 1 19
REMARK H PARENT
REMARK Flexibility Score: inf
ROOT
ATOM      1  C   UNL     1       3.541  20.928   2.560  1.00  0.00     0.032 C 
ENDROOT
BRANCH   1   2
ATOM      2  C   UNL     1       3.301  21.474   3.948  1.00  0.00    -0.028 C 
ATOM      3  C   UNL     1       4.209  21.464   4.950  1.00  0.00    -0.077 C 
ATOM      4  C   UNL     1       5.611  20.940   4.753  1.00  0.00     0.039 C 
BRANCH   3   5
ATOM      5  C   UNL     1       3.804  21.984   6.313  1.00  0.00     0.034 C 
BRANCH   5   6
ATOM      6  C   UNL     1       3.898  20.879   7.370  1.00  0.00     0.032 C 
BRANCH   6   7
ATOM      7  C   UNL     1       2.772  19.888   7.208  1.00  0.00    -0.028 C 
ATOM      8  C   UNL     1       4.299  18.024   6.525  1.00  0.00     0.039 C 
ATOM      9  C   UNL     1       2.934  18.608   6.806  1.00  0.00    -0.080 C 
ATOM     10  C   UNL     1       1.710  17.744   6.650  1.00  0.00     0.039 C 
ENDBRANCH   6   7
ENDBRANCH   5   6
ENDBRANCH   3   5
ENDBRANCH   1   2
BRANCH   1  11
ATOM     11  C   UNL     1       2.925  21.838   1.489  1.00  0.00     0.034 C 
BRANCH  11  12
ATOM     12  C   UNL     1       3.980  22.637   0.745  1.00  0.00    -0.077 C 
ATOM     13  C   UNL     1       4.045  23.988   0.786  1.00  0.00    -0.028 C 
ATOM     14  C   UNL     1       5.026  21.897  -0.050  1.00  0.00     0.039 C 
BRANCH  13  15
ATOM     15  C   UNL     1       3.051  24.879   1.487  1.00  0.00     0.035 C 
BRANCH  15  16
ATOM     16  C   UNL     1       3.770  25.877   2.400  1.00  0.00     0.079 C 
BRANCH  16  17
ATOM     17  C   UNL     1       3.447  25.605   3.846  1.00  0.00     0.130 C 
ATOM     18  O   UNL     1       4.220  25.981   4.715  1.00  0.00    -0.300 OA
ATOM     19  C   UNL     1       2.202  24.869   4.244  1.00  0.00     0.087 C 
ENDBRANCH  16  17
ENDBRANCH  15  16
ENDBRANCH  13  15
ENDBRANCH  11  12
ENDBRANCH   1  11
TORSDOF 9
ENDMDL
MODEL 8
REMARK VINA RESULT:    -4.181      1.517      4.621
REMARK INTER + INTRA:          -8.806
REMARK INTER:                  -6.951
REMARK INTRA:                  -1.855
REMARK UNBOUND:                -2.425
REMARK SMILES CC(=O)CCC=C(C)CCC=C(C)CCC=C(C)C
REMARK SMILES IDX 10 1 11 2 12 3 13 4 14 5 15 6 16 7 18 8 17 9 19 10 9 11 7 12
REMARK SMILES IDX 6 13 8 14 5 15 4 16 2 17 3 18 1 19
REMARK H PARENT
REMARK Flexibility Score: inf
ROOT
ATOM      1  C   UNL     1       5.607  20.179   4.225  1.00  0.00     0.032 C 
ENDROOT
BRANCH   1   2
ATOM      2  C   UNL     1       5.806  20.581   2.782  1.00  0.00    -0.028 C 
ATOM      3  C   UNL     1       4.809  20.790   1.893  1.00  0.00    -0.077 C 
ATOM      4  C   UNL     1       3.354  20.692   2.286  1.00  0.00     0.039 C 
BRANCH   3   5
ATOM      5  C   UNL     1       5.161  21.122   0.458  1.00  0.00     0.034 C 
BRANCH   5   6
ATOM      6  C   UNL     1       4.183  22.149  -0.121  1.00  0.00     0.032 C 
BRANCH   6   7
ATOM      7  C   UNL     1       4.735  23.547   0.015  1.00  0.00    -0.028 C 
ATOM      8  C   UNL     1       2.466  24.599   0.155  1.00  0.00     0.039 C 
ATOM      9  C   UNL     1       3.975  24.661   0.116  1.00  0.00    -0.080 C 
ATOM     10  C   UNL     1       4.667  25.996   0.204  1.00  0.00     0.039 C 
ENDBRANCH   6   7
ENDBRANCH   5   6
ENDBRANCH   3   5
ENDBRANCH   1   2
BRANCH   1  11
ATOM     11  C   UNL     1       5.330  21.401   5.111  1.00  0.00     0.034 C 
BRANCH  11  12
ATOM     12  C   UNL     1       4.155  21.173   6.045  1.00  0.00    -0.077 C 
ATOM     13  C   UNL     1       3.619  22.154   6.807  1.00  0.00    -0.028 C 
ATOM     14  C   UNL     1       3.529  19.802   6.105  1.00  0.00     0.039 C 
BRANCH  13  15
ATOM     15  C   UNL     1       4.154  23.561   6.904  1.00  0.00     0.035 C 
BRANCH  15  16
ATOM     16  C   UNL     1       3.159  24.560   6.307  1.00  0.00     0.079 C 
BRANCH  16  17
ATOM     17  C   UNL     1       3.551  24.923   4.897  1.00  0.00     0.130 C 
ATOM     18  O   UNL     1       4.253  25.905   4.704  1.00  0.00    -0.300 OA
ATOM     19  C   UNL     1       3.088  24.113   3.724  1.00  0.00     0.087 C 
ENDBRANCH  16  17
ENDBRANCH  15  16
ENDBRANCH  13  15
ENDBRANCH  11  12
ENDBRANCH   1  11
TORSDOF 9
ENDMDL
MODEL 9
REMARK VINA RESULT:    -4.160      2.134      5.050
REMARK INTER + INTRA:          -8.774
REMARK INTER:                  -6.802
REMARK INTRA:                  -1.972
REMARK UNBOUND:                -2.425
REMARK SMILES CC(=O)CCC=C(C)CCC=C(C)CCC=C(C)C
REMARK SMILES IDX 10 1 11 2 12 3 13 4 14 5 15 6 16 7 18 8 17 9 19 10 9 11 7 12
REMARK SMILES IDX 6 13 8 14 5 15 4 16 2 17 3 18 1 19
REMARK H PARENT
REMARK Flexibility Score: inf
ROOT
ATOM      1  C   UNL     1       2.532  24.734   3.840  1.00  0.00     0.032 C 
ENDROOT
BRANCH   1   2
ATOM      2  C   UNL     1       3.493  24.403   2.722  1.00  0.00    -0.028 C 
ATOM      3  C   UNL     1       3.154  23.787   1.568  1.00  0.00    -0.077 C 
ATOM      4  C   UNL     1       1.726  23.411   1.252  1.00  0.00     0.039 C 
BRANCH   3   5
ATOM      5  C   UNL     1       4.239  23.456   0.565  1.00  0.00     0.034 C 
BRANCH   5   6
ATOM      6  C   UNL     1       4.372  21.941   0.384  1.00  0.00     0.032 C 
BRANCH   6   7
ATOM      7  C   UNL     1       5.355  21.369   1.375  1.00  0.00    -0.028 C 
ATOM      8  C   UNL     1       3.564  20.628   2.962  1.00  0.00     0.039 C 
ATOM      9  C   UNL     1       5.008  20.797   2.550  1.00  0.00    -0.080 C 
ATOM     10  C   UNL     1       6.103  20.305   3.460  1.00  0.00     0.039 C 
ENDBRANCH   6   7
ENDBRANCH   5   6
ENDBRANCH   3   5
ENDBRANCH   1   2
BRANCH   1  11
ATOM     11  C   UNL     1       2.532  23.641   4.917  1.00  0.00     0.034 C 
BRANCH  11  12
ATOM     12  C   UNL     1       3.431  23.995   6.088  1.00  0.00    -0.077 C 
ATOM     13  C   UNL     1       4.219  23.089   6.712  1.00  0.00    -0.028 C 
ATOM     14  C   UNL     1       3.480  25.426   6.561  1.00  0.00     0.039 C 
BRANCH  13  15
ATOM     15  C   UNL     1       4.252  21.614   6.400  1.00  0.00     0.035 C 
BRANCH  15  16
ATOM     16  C   UNL     1       3.562  20.811   7.507  1.00  0.00     0.079 C 
BRANCH  16  17
ATOM     17  C   UNL     1       3.009  19.520   6.963  1.00  0.00     0.130 C 
ATOM     18  O   UNL     1       1.803  19.405   6.800  1.00  0.00    -0.300 OA
ATOM     19  C   UNL     1       3.905  18.365   6.628  1.00  0.00     0.087 C 
ENDBRANCH  16  17
ENDBRANCH  15  16
ENDBRANCH  13  15
ENDBRANCH  11  12
ENDBRANCH   1  11
TORSDOF 9
ENDMDL
