MODEL 1
REMARK VINA RESULT:    -0.211      0.000      0.000
REMARK INTER + INTRA:          -0.513
REMARK INTER:                  -0.255
REMARK INTRA:                  -0.258
REMARK UNBOUND:                -0.258
REMARK SMILES O=c1c(O)c(-c2ccc(O)c(O)c2)oc2cc(O)cc(O)c12
REMARK SMILES IDX 5 1 3 2 2 3 1 4 22 5 20 6 19 7 17 8 16 9 15 10 14 11 6 12
REMARK SMILES IDX 7 13 8 14 9 15 13 16 11 17 10 18 12 20 4 22 21 24 18 26
REMARK H PARENT 10 19 12 21 4 23 21 25 18 27
REMARK Flexibility Score: inf
ROOT
ATOM      1  C   UNL     1      16.178  -4.648  26.178  1.00  0.00     0.180 A 
ATOM      2  C   UNL     1      15.260  -3.614  26.452  1.00  0.00     0.208 A 
ATOM      3  C   UNL     1      15.700  -2.489  27.166  1.00  0.00     0.238 A 
ATOM      4  O   UNL     1      14.891  -1.552  27.408  1.00  0.00    -0.285 OA
ATOM      5  C   UNL     1      17.037  -2.423  27.609  1.00  0.00     0.111 A 
ATOM      6  C   UNL     1      17.558  -1.327  28.337  1.00  0.00     0.134 A 
ATOM      7  C   UNL     1      18.899  -1.341  28.752  1.00  0.00     0.093 A 
ATOM      8  C   UNL     1      19.725  -2.427  28.454  1.00  0.00     0.123 A 
ATOM      9  C   UNL     1      19.216  -3.513  27.734  1.00  0.00     0.094 A 
ATOM     10  C   UNL     1      17.883  -3.516  27.311  1.00  0.00     0.146 A 
ATOM     11  O   UNL     1      17.427  -4.558  26.625  1.00  0.00    -0.452 OA
ENDROOT
BRANCH   1  12
ATOM     12  C   UNL     1      15.794  -5.857  25.414  1.00  0.00     0.025 A 
ATOM     13  C   UNL     1      15.561  -7.084  26.055  1.00  0.00     0.016 A 
ATOM     14  C   UNL     1      15.177  -8.204  25.317  1.00  0.00     0.051 A 
ATOM     15  C   UNL     1      15.004  -8.121  23.930  1.00  0.00     0.157 A 
ATOM     16  C   UNL     1      15.600  -5.766  24.027  1.00  0.00     0.062 A 
ATOM     17  C   UNL     1      15.215  -6.884  23.277  1.00  0.00     0.158 A 
BRANCH  15  18
ATOM     18  O   UNL     1      14.623  -9.280  23.249  1.00  0.00    -0.504 OA
ATOM     19  H   UNL     1      13.921  -9.303  22.525  1.00  0.00     0.293 HD
ENDBRANCH  15  18
BRANCH  17  20
ATOM     20  O   UNL     1      15.053  -6.722  21.900  1.00  0.00    -0.504 OA
ATOM     21  H   UNL     1      14.613  -7.402  21.299  1.00  0.00     0.293 HD
ENDBRANCH  17  20
ENDBRANCH   1  12
BRANCH   2  22
ATOM     22  O   UNL     1      13.929  -3.726  26.044  1.00  0.00    -0.502 OA
ATOM     23  H   UNL     1      13.669  -3.875  25.076  1.00  0.00     0.293 HD
ENDBRANCH   2  22
BRANCH   6  24
ATOM     24  O   UNL     1      16.758  -0.227  28.651  1.00  0.00    -0.507 OA
ATOM     25  H   UNL     1      16.726   0.158  29.588  1.00  0.00     0.293 HD
ENDBRANCH   6  24
BRANCH   8  26
ATOM     26  O   UNL     1      21.053  -2.416  28.877  1.00  0.00    -0.508 OA
ATOM     27  H   UNL     1      21.306  -2.143  29.819  1.00  0.00     0.293 HD
ENDBRANCH   8  26
TORSDOF 6
ENDMDL
MODEL 2
REMARK VINA RESULT:    -0.009      3.102      4.831
REMARK INTER + INTRA:          -0.269
REMARK INTER:                  -0.196
REMARK INTRA:                  -0.072
REMARK UNBOUND:                -0.258
REMARK SMILES O=c1c(O)c(-c2ccc(O)c(O)c2)oc2cc(O)cc(O)c12
REMARK SMILES IDX 5 1 3 2 2 3 1 4 22 5 20 6 19 7 17 8 16 9 15 10 14 11 6 12
REMARK SMILES IDX 7 13 8 14 9 15 13 16 11 17 10 18 12 20 4 22 21 24 18 26
REMARK H PARENT 10 19 12 21 4 23 21 25 18 27
REMARK Flexibility Score: inf
ROOT
ATOM      1  C   UNL     1      16.003  -1.682  26.878  1.00  0.00     0.180 A 
ATOM      2  C   UNL     1      16.099  -1.106  28.160  1.00  0.00     0.208 A 
ATOM      3  C   UNL     1      15.772   0.249  28.320  1.00  0.00     0.238 A 
ATOM      4  O   UNL     1      15.843   0.773  29.465  1.00  0.00    -0.285 OA
ATOM      5  C   UNL     1      15.377   1.008  27.200  1.00  0.00     0.111 A 
ATOM      6  C   UNL     1      15.035   2.380  27.276  1.00  0.00     0.134 A 
ATOM      7  C   UNL     1      14.661   3.069  26.113  1.00  0.00     0.093 A 
ATOM      8  C   UNL     1      14.623   2.416  24.878  1.00  0.00     0.123 A 
ATOM      9  C   UNL     1      14.959   1.060  24.798  1.00  0.00     0.094 A 
ATOM     10  C   UNL     1      15.333   0.357  25.946  1.00  0.00     0.146 A 
ATOM     11  O   UNL     1      15.642  -0.931  25.842  1.00  0.00    -0.452 OA
ENDROOT
BRANCH   1  12
ATOM     12  C   UNL     1      16.312  -3.110  26.632  1.00  0.00     0.025 A 
ATOM     13  C   UNL     1      17.557  -3.659  26.977  1.00  0.00     0.016 A 
ATOM     14  C   UNL     1      17.816  -5.012  26.757  1.00  0.00     0.051 A 
ATOM     15  C   UNL     1      16.838  -5.847  26.205  1.00  0.00     0.157 A 
ATOM     16  C   UNL     1      15.322  -3.949  26.098  1.00  0.00     0.062 A 
ATOM     17  C   UNL     1      15.572  -5.309  25.875  1.00  0.00     0.158 A 
BRANCH  15  18
ATOM     18  O   UNL     1      17.162  -7.191  26.008  1.00  0.00    -0.504 OA
ATOM     19  H   UNL     1      18.095  -7.524  25.818  1.00  0.00     0.293 HD
ENDBRANCH  15  18
BRANCH  17  20
ATOM     20  O   UNL     1      14.544  -6.080  25.329  1.00  0.00    -0.504 OA
ATOM     21  H   UNL     1      13.647  -6.219  25.770  1.00  0.00     0.293 HD
ENDBRANCH  17  20
ENDBRANCH   1  12
BRANCH   2  22
ATOM     22  O   UNL     1      16.540  -1.868  29.245  1.00  0.00    -0.502 OA
ATOM     23  H   UNL     1      15.969  -2.591  29.667  1.00  0.00     0.293 HD
ENDBRANCH   2  22
BRANCH   6  24
ATOM     24  O   UNL     1      15.064   3.062  28.493  1.00  0.00    -0.507 OA
ATOM     25  H   UNL     1      14.475   2.788  29.272  1.00  0.00     0.293 HD
ENDBRANCH   6  24
BRANCH   8  26
ATOM     26  O   UNL     1      14.248   3.123  23.738  1.00  0.00    -0.508 OA
ATOM     27  H   UNL     1      14.907   3.311  22.992  1.00  0.00     0.293 HD
ENDBRANCH   8  26
TORSDOF 6
ENDMDL
MODEL 3
REMARK VINA RESULT:     0.164      8.706      9.877
REMARK INTER + INTRA:          -0.060
REMARK INTER:                   0.032
REMARK INTRA:                  -0.092
REMARK UNBOUND:                -0.258
REMARK SMILES O=c1c(O)c(-c2ccc(O)c(O)c2)oc2cc(O)cc(O)c12
REMARK SMILES IDX 5 1 3 2 2 3 1 4 22 5 20 6 19 7 17 8 16 9 15 10 14 11 6 12
REMARK SMILES IDX 7 13 8 14 9 15 13 16 11 17 10 18 12 20 4 22 21 24 18 26
REMARK H PARENT 10 19 12 21 4 23 21 25 18 27
REMARK Flexibility Score: inf
ROOT
ATOM      1  C   UNL     1      13.450 -13.015  28.629  1.00  0.00     0.180 A 
ATOM      2  C   UNL     1      12.143 -12.686  28.219  1.00  0.00     0.208 A 
ATOM      3  C   UNL     1      11.473 -11.638  28.870  1.00  0.00     0.238 A 
ATOM      4  O   UNL     1      10.307 -11.326  28.504  1.00  0.00    -0.285 OA
ATOM      5  C   UNL     1      12.108 -10.953  29.926  1.00  0.00     0.111 A 
ATOM      6  C   UNL     1      11.500  -9.889  30.635  1.00  0.00     0.134 A 
ATOM      7  C   UNL     1      12.194  -9.264  31.681  1.00  0.00     0.093 A 
ATOM      8  C   UNL     1      13.481  -9.681  32.033  1.00  0.00     0.123 A 
ATOM      9  C   UNL     1      14.086 -10.732  31.335  1.00  0.00     0.094 A 
ATOM     10  C   UNL     1      13.411 -11.366  30.288  1.00  0.00     0.146 A 
ATOM     11  O   UNL     1      14.011 -12.357  29.639  1.00  0.00    -0.452 OA
ENDROOT
BRANCH   1  12
ATOM     12  C   UNL     1      14.229 -14.095  27.980  1.00  0.00     0.025 A 
ATOM     13  C   UNL     1      14.466 -14.096  26.597  1.00  0.00     0.016 A 
ATOM     14  C   UNL     1      15.223 -15.112  26.011  1.00  0.00     0.051 A 
ATOM     15  C   UNL     1      15.770 -16.136  26.792  1.00  0.00     0.157 A 
ATOM     16  C   UNL     1      14.794 -15.109  28.769  1.00  0.00     0.062 A 
ATOM     17  C   UNL     1      15.556 -16.132  28.191  1.00  0.00     0.158 A 
BRANCH  15  18
ATOM     18  O   UNL     1      16.514 -17.125  26.145  1.00  0.00    -0.504 OA
ATOM     19  H   UNL     1      17.488 -17.312  26.333  1.00  0.00     0.293 HD
ENDBRANCH  15  18
BRANCH  17  20
ATOM     20  O   UNL     1      16.076 -17.114  29.036  1.00  0.00    -0.504 OA
ATOM     21  H   UNL     1      15.660 -17.380  29.916  1.00  0.00     0.293 HD
ENDBRANCH  17  20
ENDBRANCH   1  12
BRANCH   2  22
ATOM     22  O   UNL     1      11.518 -13.412  27.203  1.00  0.00    -0.502 OA
ATOM     23  H   UNL     1      10.512 -13.526  27.157  1.00  0.00     0.293 HD
ENDBRANCH   2  22
BRANCH   6  24
ATOM     24  O   UNL     1      10.216  -9.449  30.309  1.00  0.00    -0.507 OA
ATOM     25  H   UNL     1       9.431  -9.584  30.937  1.00  0.00     0.293 HD
ENDBRANCH   6  24
BRANCH   8  26
ATOM     26  O   UNL     1      14.149  -9.044  33.076  1.00  0.00    -0.508 OA
ATOM     27  H   UNL     1      13.765  -8.223  33.528  1.00  0.00     0.293 HD
ENDBRANCH   8  26
TORSDOF 6
ENDMDL
MODEL 4
REMARK VINA RESULT:     0.762      5.978      9.667
REMARK INTER + INTRA:           0.659
REMARK INTER:                   0.800
REMARK INTRA:                  -0.140
REMARK UNBOUND:                -0.258
REMARK SMILES O=c1c(O)c(-c2ccc(O)c(O)c2)oc2cc(O)cc(O)c12
REMARK SMILES IDX 5 1 3 2 2 3 1 4 22 5 20 6 19 7 17 8 16 9 15 10 14 11 6 12
REMARK SMILES IDX 7 13 8 14 9 15 13 16 11 17 10 18 12 20 4 22 21 24 18 26
REMARK H PARENT 10 19 12 21 4 23 21 25 18 27
REMARK Flexibility Score: inf
ROOT
ATOM      1  C   UNL     1      14.402 -11.119  28.097  1.00  0.00     0.180 A 
ATOM      2  C   UNL     1      13.982 -11.188  29.440  1.00  0.00     0.208 A 
ATOM      3  C   UNL     1      14.055 -12.419  30.111  1.00  0.00     0.238 A 
ATOM      4  O   UNL     1      13.694 -12.491  31.317  1.00  0.00    -0.285 OA
ATOM      5  C   UNL     1      14.525 -13.559  29.427  1.00  0.00     0.111 A 
ATOM      6  C   UNL     1      14.626 -14.836  30.030  1.00  0.00     0.134 A 
ATOM      7  C   UNL     1      15.094 -15.925  29.278  1.00  0.00     0.093 A 
ATOM      8  C   UNL     1      15.461 -15.762  27.940  1.00  0.00     0.123 A 
ATOM      9  C   UNL     1      15.364 -14.502  27.340  1.00  0.00     0.094 A 
ATOM     10  C   UNL     1      14.901 -13.405  28.073  1.00  0.00     0.146 A 
ATOM     11  O   UNL     1      14.824 -12.218  27.480  1.00  0.00    -0.452 OA
ENDROOT
BRANCH   1  12
ATOM     12  C   UNL     1      14.372  -9.854  27.328  1.00  0.00     0.025 A 
ATOM     13  C   UNL     1      13.169  -9.177  27.078  1.00  0.00     0.016 A 
ATOM     14  C   UNL     1      13.170  -7.974  26.371  1.00  0.00     0.051 A 
ATOM     15  C   UNL     1      14.368  -7.414  25.914  1.00  0.00     0.157 A 
ATOM     16  C   UNL     1      15.578  -9.284  26.889  1.00  0.00     0.062 A 
ATOM     17  C   UNL     1      15.589  -8.077  26.180  1.00  0.00     0.158 A 
BRANCH  15  18
ATOM     18  O   UNL     1      14.300  -6.210  25.210  1.00  0.00    -0.504 OA
ATOM     19  H   UNL     1      14.778  -5.366  25.488  1.00  0.00     0.293 HD
ENDBRANCH  15  18
BRANCH  17  20
ATOM     20  O   UNL     1      16.825  -7.576  25.764  1.00  0.00    -0.504 OA
ATOM     21  H   UNL     1      17.404  -8.015  25.064  1.00  0.00     0.293 HD
ENDBRANCH  17  20
ENDBRANCH   1  12
BRANCH   2  22
ATOM     22  O   UNL     1      13.475 -10.054  30.080  1.00  0.00    -0.502 OA
ATOM     23  H   UNL     1      13.356 -10.006  31.085  1.00  0.00     0.293 HD
ENDBRANCH   2  22
BRANCH   6  24
ATOM     24  O   UNL     1      14.266 -15.032  31.364  1.00  0.00    -0.507 OA
ATOM     25  H   UNL     1      14.169 -15.960  31.759  1.00  0.00     0.293 HD
ENDBRANCH   6  24
BRANCH   8  26
ATOM     26  O   UNL     1      15.922 -16.859  27.216  1.00  0.00    -0.508 OA
ATOM     27  H   UNL     1      16.455 -16.744  26.362  1.00  0.00     0.293 HD
ENDBRANCH   8  26
TORSDOF 6
ENDMDL
MODEL 5
REMARK VINA RESULT:     0.959      4.766      8.413
REMARK INTER + INTRA:           0.897
REMARK INTER:                   1.207
REMARK INTRA:                  -0.310
REMARK UNBOUND:                -0.258
REMARK SMILES O=c1c(O)c(-c2ccc(O)c(O)c2)oc2cc(O)cc(O)c12
REMARK SMILES IDX 5 1 3 2 2 3 1 4 22 5 20 6 19 7 17 8 16 9 15 10 14 11 6 12
REMARK SMILES IDX 7 13 8 14 9 15 13 16 11 17 10 18 12 20 4 22 21 24 18 26
REMARK H PARENT 10 19 12 21 4 23 21 25 18 27
REMARK Flexibility Score: inf
ROOT
ATOM      1  C   UNL     1      14.154  -9.523  26.975  1.00  0.00     0.180 A 
ATOM      2  C   UNL     1      15.045 -10.426  27.590  1.00  0.00     0.208 A 
ATOM      3  C   UNL     1      14.561 -11.274  28.598  1.00  0.00     0.238 A 
ATOM      4  O   UNL     1      15.345 -12.094  29.148  1.00  0.00    -0.285 OA
ATOM      5  C   UNL     1      13.209 -11.194  28.988  1.00  0.00     0.111 A 
ATOM      6  C   UNL     1      12.644 -12.009  29.998  1.00  0.00     0.134 A 
ATOM      7  C   UNL     1      11.290 -11.861  30.336  1.00  0.00     0.093 A 
ATOM      8  C   UNL     1      10.493 -10.916  29.686  1.00  0.00     0.123 A 
ATOM      9  C   UNL     1      11.045 -10.108  28.687  1.00  0.00     0.094 A 
ATOM     10  C   UNL     1      12.391 -10.241  28.336  1.00  0.00     0.146 A 
ATOM     11  O   UNL     1      12.889  -9.465  27.379  1.00  0.00    -0.452 OA
ENDROOT
BRANCH   1  12
ATOM     12  C   UNL     1      14.585  -8.610  25.891  1.00  0.00     0.025 A 
ATOM     13  C   UNL     1      14.977  -7.290  26.159  1.00  0.00     0.016 A 
ATOM     14  C   UNL     1      15.402  -6.456  25.124  1.00  0.00     0.051 A 
ATOM     15  C   UNL     1      15.457  -6.924  23.806  1.00  0.00     0.157 A 
ATOM     16  C   UNL     1      14.659  -9.089  24.574  1.00  0.00     0.062 A 
ATOM     17  C   UNL     1      15.084  -8.260  23.528  1.00  0.00     0.158 A 
BRANCH  15  18
ATOM     18  O   UNL     1      15.886  -6.038  22.816  1.00  0.00    -0.504 OA
ATOM     19  H   UNL     1      16.818  -5.653  22.769  1.00  0.00     0.293 HD
ENDBRANCH  15  18
BRANCH  17  20
ATOM     20  O   UNL     1      15.121  -8.801  22.241  1.00  0.00    -0.504 OA
ATOM     21  H   UNL     1      14.932  -9.769  22.030  1.00  0.00     0.293 HD
ENDBRANCH  17  20
ENDBRANCH   1  12
BRANCH   2  22
ATOM     22  O   UNL     1      16.391 -10.452  27.219  1.00  0.00    -0.502 OA
ATOM     23  H   UNL     1      16.964 -11.282  27.315  1.00  0.00     0.293 HD
ENDBRANCH   2  22
BRANCH   6  24
ATOM     24  O   UNL     1      13.414 -12.962  30.667  1.00  0.00    -0.507 OA
ATOM     25  H   UNL     1      13.100 -13.919  30.776  1.00  0.00     0.293 HD
ENDBRANCH   6  24
BRANCH   8  26
ATOM     26  O   UNL     1       9.151 -10.789  30.041  1.00  0.00    -0.508 OA
ATOM     27  H   UNL     1       8.874 -10.412  30.939  1.00  0.00     0.293 HD
ENDBRANCH   8  26
TORSDOF 6
ENDMDL
MODEL 6
REMARK VINA RESULT:     1.046      8.815     10.296
REMARK INTER + INTRA:           1.002
REMARK INTER:                   1.094
REMARK INTRA:                  -0.092
REMARK UNBOUND:                -0.258
REMARK SMILES O=c1c(O)c(-c2ccc(O)c(O)c2)oc2cc(O)cc(O)c12
REMARK SMILES IDX 5 1 3 2 2 3 1 4 22 5 20 6 19 7 17 8 16 9 15 10 14 11 6 12
REMARK SMILES IDX 7 13 8 14 9 15 13 16 11 17 10 18 12 20 4 22 21 24 18 26
REMARK H PARENT 10 19 12 21 4 23 21 25 18 27
REMARK Flexibility Score: inf
ROOT
ATOM      1  C   UNL     1      13.812 -12.898  28.829  1.00  0.00     0.180 A 
ATOM      2  C   UNL     1      14.481 -12.102  29.781  1.00  0.00     0.208 A 
ATOM      3  C   UNL     1      13.770 -11.080  30.429  1.00  0.00     0.238 A 
ATOM      4  O   UNL     1      14.355 -10.369  31.291  1.00  0.00    -0.285 OA
ATOM      5  C   UNL     1      12.417 -10.858  30.104  1.00  0.00     0.111 A 
ATOM      6  C   UNL     1      11.632  -9.846  30.708  1.00  0.00     0.134 A 
ATOM      7  C   UNL     1      10.293  -9.681  30.323  1.00  0.00     0.093 A 
ATOM      8  C   UNL     1       9.725 -10.505  29.348  1.00  0.00     0.123 A 
ATOM      9  C   UNL     1      10.496 -11.506  28.747  1.00  0.00     0.094 A 
ATOM     10  C   UNL     1      11.831 -11.687  29.119  1.00  0.00     0.146 A 
ATOM     11  O   UNL     1      12.539 -12.649  28.537  1.00  0.00    -0.452 OA
ENDROOT
BRANCH   1  12
ATOM     12  C   UNL     1      14.488 -14.007  28.118  1.00  0.00     0.025 A 
ATOM     13  C   UNL     1      14.624 -14.005  26.721  1.00  0.00     0.016 A 
ATOM     14  C   UNL     1      15.286 -15.050  26.075  1.00  0.00     0.051 A 
ATOM     15  C   UNL     1      15.837 -16.108  26.807  1.00  0.00     0.157 A 
ATOM     16  C   UNL     1      15.057 -15.056  28.856  1.00  0.00     0.062 A 
ATOM     17  C   UNL     1      15.724 -16.110  28.217  1.00  0.00     0.158 A 
BRANCH  15  18
ATOM     18  O   UNL     1      16.483 -17.125  26.100  1.00  0.00    -0.504 OA
ATOM     19  H   UNL     1      16.807 -17.985  26.518  1.00  0.00     0.293 HD
ENDBRANCH  15  18
BRANCH  17  20
ATOM     20  O   UNL     1      16.255 -17.125  29.015  1.00  0.00    -0.504 OA
ATOM     21  H   UNL     1      16.675 -16.971  29.919  1.00  0.00     0.293 HD
ENDBRANCH  17  20
ENDBRANCH   1  12
BRANCH   2  22
ATOM     22  O   UNL     1      15.836 -12.313  30.049  1.00  0.00    -0.502 OA
ATOM     23  H   UNL     1      16.345 -11.763  30.731  1.00  0.00     0.293 HD
ENDBRANCH   2  22
BRANCH   6  24
ATOM     24  O   UNL     1      12.169  -9.006  31.685  1.00  0.00    -0.507 OA
ATOM     25  H   UNL     1      13.167  -8.961  31.858  1.00  0.00     0.293 HD
ENDBRANCH   6  24
BRANCH   8  26
ATOM     26  O   UNL     1       8.393 -10.320  28.983  1.00  0.00    -0.508 OA
ATOM     27  H   UNL     1       8.090  -9.489  28.488  1.00  0.00     0.293 HD
ENDBRANCH   8  26
TORSDOF 6
ENDMDL
MODEL 7
REMARK VINA RESULT:     1.048      2.491      3.950
REMARK INTER + INTRA:           1.004
REMARK INTER:                   1.086
REMARK INTRA:                  -0.081
REMARK UNBOUND:                -0.258
REMARK SMILES O=c1c(O)c(-c2ccc(O)c(O)c2)oc2cc(O)cc(O)c12
REMARK SMILES IDX 5 1 3 2 2 3 1 4 22 5 20 6 19 7 17 8 16 9 15 10 14 11 6 12
REMARK SMILES IDX 7 13 8 14 9 15 13 16 11 17 10 18 12 20 4 22 21 24 18 26
REMARK H PARENT 10 19 12 21 4 23 21 25 18 27
REMARK Flexibility Score: inf
ROOT
ATOM      1  C   UNL     1      15.909  -2.920  26.924  1.00  0.00     0.180 A 
ATOM      2  C   UNL     1      16.318  -2.525  28.213  1.00  0.00     0.208 A 
ATOM      3  C   UNL     1      16.222  -1.171  28.568  1.00  0.00     0.238 A 
ATOM      4  O   UNL     1      16.574  -0.806  29.723  1.00  0.00    -0.285 OA
ATOM      5  C   UNL     1      15.741  -0.235  27.630  1.00  0.00     0.111 A 
ATOM      6  C   UNL     1      15.618   1.148  27.908  1.00  0.00     0.134 A 
ATOM      7  C   UNL     1      15.140   2.017  26.916  1.00  0.00     0.093 A 
ATOM      8  C   UNL     1      14.784   1.532  25.654  1.00  0.00     0.123 A 
ATOM      9  C   UNL     1      14.904   0.167  25.374  1.00  0.00     0.094 A 
ATOM     10  C   UNL     1      15.377  -0.715  26.350  1.00  0.00     0.146 A 
ATOM     11  O   UNL     1      15.475  -2.008  26.059  1.00  0.00    -0.452 OA
ENDROOT
BRANCH   1  12
ATOM     12  C   UNL     1      15.962  -4.332  26.481  1.00  0.00     0.025 A 
ATOM     13  C   UNL     1      17.161  -5.062  26.503  1.00  0.00     0.016 A 
ATOM     14  C   UNL     1      17.181  -6.399  26.103  1.00  0.00     0.051 A 
ATOM     15  C   UNL     1      16.007  -7.038  25.688  1.00  0.00     0.157 A 
ATOM     16  C   UNL     1      14.780  -4.977  26.086  1.00  0.00     0.062 A 
ATOM     17  C   UNL     1      14.789  -6.319  25.683  1.00  0.00     0.158 A 
BRANCH  15  18
ATOM     18  O   UNL     1      16.095  -8.376  25.297  1.00  0.00    -0.504 OA
ATOM     19  H   UNL     1      16.901  -8.778  24.841  1.00  0.00     0.293 HD
ENDBRANCH  15  18
BRANCH  17  20
ATOM     20  O   UNL     1      13.577  -6.891  25.291  1.00  0.00    -0.504 OA
ATOM     21  H   UNL     1      13.062  -7.558  25.846  1.00  0.00     0.293 HD
ENDBRANCH  17  20
ENDBRANCH   1  12
BRANCH   2  22
ATOM     22  O   UNL     1      16.837  -3.464  29.107  1.00  0.00    -0.502 OA
ATOM     23  H   UNL     1      16.251  -4.138  29.586  1.00  0.00     0.293 HD
ENDBRANCH   2  22
BRANCH   6  24
ATOM     24  O   UNL     1      15.965   1.663  29.157  1.00  0.00    -0.507 OA
ATOM     25  H   UNL     1      16.893   2.028  29.344  1.00  0.00     0.293 HD
ENDBRANCH   6  24
BRANCH   8  26
ATOM     26  O   UNL     1      14.312   2.416  24.687  1.00  0.00    -0.508 OA
ATOM     27  H   UNL     1      13.323   2.507  24.489  1.00  0.00     0.293 HD
ENDBRANCH   8  26
TORSDOF 6
ENDMDL
MODEL 8
REMARK VINA RESULT:     1.113      1.226      2.872
REMARK INTER + INTRA:           1.083
REMARK INTER:                   1.407
REMARK INTRA:                  -0.324
REMARK UNBOUND:                -0.258
REMARK SMILES O=c1c(O)c(-c2ccc(O)c(O)c2)oc2cc(O)cc(O)c12
REMARK SMILES IDX 5 1 3 2 2 3 1 4 22 5 20 6 19 7 17 8 16 9 15 10 14 11 6 12
REMARK SMILES IDX 7 13 8 14 9 15 13 16 11 17 10 18 12 20 4 22 21 24 18 26
REMARK H PARENT 10 19 12 21 4 23 21 25 18 27
REMARK Flexibility Score: inf
ROOT
ATOM      1  C   UNL     1      16.631  -4.539  26.395  1.00  0.00     0.180 A 
ATOM      2  C   UNL     1      18.006  -4.440  26.691  1.00  0.00     0.208 A 
ATOM      3  C   UNL     1      18.458  -3.349  27.449  1.00  0.00     0.238 A 
ATOM      4  O   UNL     1      19.684  -3.255  27.731  1.00  0.00    -0.285 OA
ATOM      5  C   UNL     1      17.540  -2.371  27.881  1.00  0.00     0.111 A 
ATOM      6  C   UNL     1      17.916  -1.240  28.646  1.00  0.00     0.134 A 
ATOM      7  C   UNL     1      16.943  -0.304  29.028  1.00  0.00     0.093 A 
ATOM      8  C   UNL     1      15.606  -0.476  28.662  1.00  0.00     0.123 A 
ATOM      9  C   UNL     1      15.229  -1.592  27.907  1.00  0.00     0.094 A 
ATOM     10  C   UNL     1      16.183  -2.536  27.517  1.00  0.00     0.146 A 
ATOM     11  O   UNL     1      15.797  -3.589  26.805  1.00  0.00    -0.452 OA
ENDROOT
BRANCH   1  12
ATOM     12  C   UNL     1      16.075  -5.669  25.616  1.00  0.00     0.025 A 
ATOM     13  C   UNL     1      15.759  -6.893  26.226  1.00  0.00     0.016 A 
ATOM     14  C   UNL     1      15.213  -7.935  25.475  1.00  0.00     0.051 A 
ATOM     15  C   UNL     1      14.958  -7.774  24.108  1.00  0.00     0.157 A 
ATOM     16  C   UNL     1      15.800  -5.497  24.250  1.00  0.00     0.062 A 
ATOM     17  C   UNL     1      15.252  -6.537  23.488  1.00  0.00     0.158 A 
BRANCH  15  18
ATOM     18  O   UNL     1      14.414  -8.857  23.414  1.00  0.00    -0.504 OA
ATOM     19  H   UNL     1      14.656  -9.096  22.464  1.00  0.00     0.293 HD
ENDBRANCH  15  18
BRANCH  17  20
ATOM     20  O   UNL     1      15.018  -6.299  22.133  1.00  0.00    -0.504 OA
ATOM     21  H   UNL     1      14.113  -6.382  21.693  1.00  0.00     0.293 HD
ENDBRANCH  17  20
ENDBRANCH   1  12
BRANCH   2  22
ATOM     22  O   UNL     1      18.902  -5.397  26.210  1.00  0.00    -0.502 OA
ATOM     23  H   UNL     1      19.340  -5.321  25.299  1.00  0.00     0.293 HD
ENDBRANCH   2  22
BRANCH   6  24
ATOM     24  O   UNL     1      19.243  -1.039  29.027  1.00  0.00    -0.507 OA
ATOM     25  H   UNL     1      19.996  -1.023  28.348  1.00  0.00     0.293 HD
ENDBRANCH   6  24
BRANCH   8  26
ATOM     26  O   UNL     1      14.659   0.467  29.055  1.00  0.00    -0.508 OA
ATOM     27  H   UNL     1      14.480   1.299  28.505  1.00  0.00     0.293 HD
ENDBRANCH   8  26
TORSDOF 6
ENDMDL
MODEL 9
REMARK VINA RESULT:     1.181      8.763     11.717
REMARK INTER + INTRA:           1.165
REMARK INTER:                   1.252
REMARK INTRA:                  -0.088
REMARK UNBOUND:                -0.258
REMARK SMILES O=c1c(O)c(-c2ccc(O)c(O)c2)oc2cc(O)cc(O)c12
REMARK SMILES IDX 5 1 3 2 2 3 1 4 22 5 20 6 19 7 17 8 16 9 15 10 14 11 6 12
REMARK SMILES IDX 7 13 8 14 9 15 13 16 11 17 10 18 12 20 4 22 21 24 18 26
REMARK H PARENT 10 19 12 21 4 23 21 25 18 27
REMARK Flexibility Score: inf
ROOT
ATOM      1  C   UNL     1      13.335 -13.084  29.528  1.00  0.00     0.180 A 
ATOM      2  C   UNL     1      13.578 -13.567  28.227  1.00  0.00     0.208 A 
ATOM      3  C   UNL     1      14.356 -14.723  28.067  1.00  0.00     0.238 A 
ATOM      4  O   UNL     1      14.570 -15.172  26.908  1.00  0.00    -0.285 OA
ATOM      5  C   UNL     1      14.893 -15.365  29.202  1.00  0.00     0.111 A 
ATOM      6  C   UNL     1      15.690 -16.532  29.127  1.00  0.00     0.134 A 
ATOM      7  C   UNL     1      16.196 -17.106  30.303  1.00  0.00     0.093 A 
ATOM      8  C   UNL     1      15.922 -16.536  31.549  1.00  0.00     0.123 A 
ATOM      9  C   UNL     1      15.135 -15.383  31.629  1.00  0.00     0.094 A 
ATOM     10  C   UNL     1      14.620 -14.798  30.469  1.00  0.00     0.146 A 
ATOM     11  O   UNL     1      13.871 -13.706  30.574  1.00  0.00    -0.452 OA
ENDROOT
BRANCH   1  12
ATOM     12  C   UNL     1      12.509 -11.881  29.779  1.00  0.00     0.025 A 
ATOM     13  C   UNL     1      13.040 -10.746  30.411  1.00  0.00     0.016 A 
ATOM     14  C   UNL     1      12.248  -9.616  30.615  1.00  0.00     0.051 A 
ATOM     15  C   UNL     1      10.918  -9.587  30.180  1.00  0.00     0.157 A 
ATOM     16  C   UNL     1      11.181 -11.847  29.322  1.00  0.00     0.062 A 
ATOM     17  C   UNL     1      10.378 -10.717  29.522  1.00  0.00     0.158 A 
BRANCH  15  18
ATOM     18  O   UNL     1      10.178  -8.427  30.418  1.00  0.00    -0.504 OA
ATOM     19  H   UNL     1      10.399  -7.526  30.021  1.00  0.00     0.293 HD
ENDBRANCH  15  18
BRANCH  17  20
ATOM     20  O   UNL     1       9.064 -10.760  29.052  1.00  0.00    -0.504 OA
ATOM     21  H   UNL     1       8.624 -10.012  28.539  1.00  0.00     0.293 HD
ENDBRANCH  17  20
ENDBRANCH   1  12
BRANCH   2  22
ATOM     22  O   UNL     1      13.074 -12.885  27.116  1.00  0.00    -0.502 OA
ATOM     23  H   UNL     1      12.239 -13.185  26.628  1.00  0.00     0.293 HD
ENDBRANCH   2  22
BRANCH   6  24
ATOM     24  O   UNL     1      15.982 -17.125  27.898  1.00  0.00    -0.507 OA
ATOM     25  H   UNL     1      15.472 -16.885  27.056  1.00  0.00     0.293 HD
ENDBRANCH   6  24
BRANCH   8  26
ATOM     26  O   UNL     1      16.437 -17.125  32.702  1.00  0.00    -0.508 OA
ATOM     27  H   UNL     1      16.966 -17.988  32.665  1.00  0.00     0.293 HD
ENDBRANCH   8  26
TORSDOF 6
ENDMDL
