MODEL 1
REMARK VINA RESULT:    -3.924      0.000      0.000
REMARK INTER + INTRA:          -5.029
REMARK INTER:                  -4.842
REMARK INTRA:                  -0.187
REMARK UNBOUND:                -0.187
REMARK SMILES C=CC[C@H](C)C(=O)CC
REMARK SMILES IDX 4 1 5 2 6 3 7 4 8 5 9 6 3 7 2 8 1 9
REMARK H PARENT
REMARK Flexibility Score: inf
ROOT
ATOM      1  C   UNL     1      14.440  21.921  27.816  1.00  0.00     0.057 C 
ATOM      2  C   UNL     1      15.016  20.502  27.930  1.00  0.00     0.016 C 
ENDROOT
BRANCH   1   3
ATOM      3  C   UNL     1      15.358  22.781  26.975  1.00  0.00     0.135 C 
ATOM      4  O   UNL     1      15.755  23.852  27.414  1.00  0.00    -0.299 OA
BRANCH   3   5
ATOM      5  C   UNL     1      15.788  22.350  25.598  1.00  0.00     0.072 C 
ATOM      6  C   UNL     1      17.266  21.976  25.585  1.00  0.00     0.012 C 
ENDBRANCH   3   5
ENDBRANCH   1   3
BRANCH   1   7
ATOM      7  C   UNL     1      14.234  22.566  29.201  1.00  0.00     0.038 C 
BRANCH   7   8
ATOM      8  C   UNL     1      14.887  21.777  30.306  1.00  0.00    -0.034 C 
ATOM      9  C   UNL     1      15.273  22.352  31.449  1.00  0.00     0.004 C 
ENDBRANCH   7   8
ENDBRANCH   1   7
TORSDOF 4
ENDMDL
MODEL 2
REMARK VINA RESULT:    -3.840      2.168      3.135
REMARK INTER + INTRA:          -4.924
REMARK INTER:                  -4.735
REMARK INTRA:                  -0.190
REMARK UNBOUND:                -0.187
REMARK SMILES C=CC[C@H](C)C(=O)CC
REMARK SMILES IDX 4 1 5 2 6 3 7 4 8 5 9 6 3 7 2 8 1 9
REMARK H PARENT
REMARK Flexibility Score: inf
ROOT
ATOM      1  C   UNL     1      15.483  20.713  29.486  1.00  0.00     0.057 C 
ATOM      2  C   UNL     1      14.880  21.137  30.833  1.00  0.00     0.016 C 
ENDROOT
BRANCH   1   3
ATOM      3  C   UNL     1      14.826  21.488  28.364  1.00  0.00     0.135 C 
ATOM      4  O   UNL     1      14.409  22.619  28.572  1.00  0.00    -0.299 OA
BRANCH   3   5
ATOM      5  C   UNL     1      14.666  20.889  26.991  1.00  0.00     0.072 C 
ATOM      6  C   UNL     1      15.527  21.629  25.974  1.00  0.00     0.012 C 
ENDBRANCH   3   5
ENDBRANCH   1   3
BRANCH   1   7
ATOM      7  C   UNL     1      15.328  19.198  29.243  1.00  0.00     0.038 C 
BRANCH   7   8
ATOM      8  C   UNL     1      16.180  18.376  30.174  1.00  0.00    -0.034 C 
ATOM      9  C   UNL     1      16.374  17.068  29.982  1.00  0.00     0.004 C 
ENDBRANCH   7   8
ENDBRANCH   1   7
TORSDOF 4
ENDMDL
MODEL 3
REMARK VINA RESULT:    -3.755      1.927      3.468
REMARK INTER + INTRA:          -4.819
REMARK INTER:                  -4.425
REMARK INTRA:                  -0.394
REMARK UNBOUND:                -0.187
REMARK SMILES C=CC[C@H](C)C(=O)CC
REMARK SMILES IDX 4 1 5 2 6 3 7 4 8 5 9 6 3 7 2 8 1 9
REMARK H PARENT
REMARK Flexibility Score: inf
ROOT
ATOM      1  C   UNL     1      15.433  22.569  31.107  1.00  0.00     0.057 C 
ATOM      2  C   UNL     1      15.310  23.094  32.544  1.00  0.00     0.016 C 
ENDROOT
BRANCH   1   3
ATOM      3  C   UNL     1      14.879  23.592  30.138  1.00  0.00     0.135 C 
ATOM      4  O   UNL     1      15.094  24.782  30.325  1.00  0.00    -0.299 OA
BRANCH   3   5
ATOM      5  C   UNL     1      14.056  23.174  28.948  1.00  0.00     0.072 C 
ATOM      6  C   UNL     1      14.914  23.116  27.690  1.00  0.00     0.012 C 
ENDBRANCH   3   5
ENDBRANCH   1   3
BRANCH   1   7
ATOM      7  C   UNL     1      14.704  21.222  30.926  1.00  0.00     0.038 C 
BRANCH   7   8
ATOM      8  C   UNL     1      15.616  20.140  30.409  1.00  0.00    -0.034 C 
ATOM      9  C   UNL     1      15.398  19.536  29.237  1.00  0.00     0.004 C 
ENDBRANCH   7   8
ENDBRANCH   1   7
TORSDOF 4
ENDMDL
MODEL 4
REMARK VINA RESULT:    -3.679      2.314      4.094
REMARK INTER + INTRA:          -4.727
REMARK INTER:                  -4.398
REMARK INTRA:                  -0.329
REMARK UNBOUND:                -0.187
REMARK SMILES C=CC[C@H](C)C(=O)CC
REMARK SMILES IDX 4 1 5 2 6 3 7 4 8 5 9 6 3 7 2 8 1 9
REMARK H PARENT
REMARK Flexibility Score: inf
ROOT
ATOM      1  C   UNL     1      15.024  21.813  28.768  1.00  0.00     0.057 C 
ATOM      2  C   UNL     1      14.958  20.654  27.764  1.00  0.00     0.016 C 
ENDROOT
BRANCH   1   3
ATOM      3  C   UNL     1      14.982  21.272  30.181  1.00  0.00     0.135 C 
ATOM      4  O   UNL     1      15.501  20.193  30.431  1.00  0.00    -0.299 OA
BRANCH   3   5
ATOM      5  C   UNL     1      14.303  22.034  31.289  1.00  0.00     0.072 C 
ATOM      6  C   UNL     1      15.298  22.928  32.019  1.00  0.00     0.012 C 
ENDBRANCH   3   5
ENDBRANCH   1   3
BRANCH   1   7
ATOM      7  C   UNL     1      13.875  22.820  28.554  1.00  0.00     0.038 C 
BRANCH   7   8
ATOM      8  C   UNL     1      14.376  24.218  28.300  1.00  0.00    -0.034 C 
ATOM      9  C   UNL     1      15.118  24.517  27.229  1.00  0.00     0.004 C 
ENDBRANCH   7   8
ENDBRANCH   1   7
TORSDOF 4
ENDMDL
MODEL 5
REMARK VINA RESULT:    -3.666      1.870      3.380
REMARK INTER + INTRA:          -4.710
REMARK INTER:                  -4.494
REMARK INTRA:                  -0.216
REMARK UNBOUND:                -0.187
REMARK SMILES C=CC[C@H](C)C(=O)CC
REMARK SMILES IDX 4 1 5 2 6 3 7 4 8 5 9 6 3 7 2 8 1 9
REMARK H PARENT
REMARK Flexibility Score: inf
ROOT
ATOM      1  C   UNL     1      15.612  23.124  26.989  1.00  0.00     0.057 C 
ATOM      2  C   UNL     1      15.662  22.722  25.508  1.00  0.00     0.016 C 
ENDROOT
BRANCH   1   3
ATOM      3  C   UNL     1      14.776  22.129  27.763  1.00  0.00     0.135 C 
ATOM      4  O   UNL     1      13.986  22.529  28.608  1.00  0.00    -0.299 OA
BRANCH   3   5
ATOM      5  C   UNL     1      14.902  20.648  27.522  1.00  0.00     0.072 C 
ATOM      6  C   UNL     1      15.303  19.924  28.803  1.00  0.00     0.012 C 
ENDBRANCH   3   5
ENDBRANCH   1   3
BRANCH   1   7
ATOM      7  C   UNL     1      15.047  24.547  27.175  1.00  0.00     0.038 C 
BRANCH   7   8
ATOM      8  C   UNL     1      15.936  25.412  28.030  1.00  0.00    -0.034 C 
ATOM      9  C   UNL     1      17.261  25.446  27.859  1.00  0.00     0.004 C 
ENDBRANCH   7   8
ENDBRANCH   1   7
TORSDOF 4
ENDMDL
MODEL 6
REMARK VINA RESULT:    -3.638      1.856      2.587
REMARK INTER + INTRA:          -4.676
REMARK INTER:                  -4.215
REMARK INTRA:                  -0.461
REMARK UNBOUND:                -0.187
REMARK SMILES C=CC[C@H](C)C(=O)CC
REMARK SMILES IDX 4 1 5 2 6 3 7 4 8 5 9 6 3 7 2 8 1 9
REMARK H PARENT
REMARK Flexibility Score: inf
ROOT
ATOM      1  C   UNL     1      14.321  22.662  28.135  1.00  0.00     0.057 C 
ATOM      2  C   UNL     1      14.679  22.343  29.593  1.00  0.00     0.016 C 
ENDROOT
BRANCH   1   3
ATOM      3  C   UNL     1      15.062  21.724  27.207  1.00  0.00     0.135 C 
ATOM      4  O   UNL     1      15.332  20.590  27.580  1.00  0.00    -0.299 OA
BRANCH   3   5
ATOM      5  C   UNL     1      15.486  22.161  25.829  1.00  0.00     0.072 C 
ATOM      6  C   UNL     1      16.986  21.967  25.637  1.00  0.00     0.012 C 
ENDBRANCH   3   5
ENDBRANCH   1   3
BRANCH   1   7
ATOM      7  C   UNL     1      14.647  24.126  27.775  1.00  0.00     0.038 C 
BRANCH   7   8
ATOM      8  C   UNL     1      15.868  24.637  28.494  1.00  0.00    -0.034 C 
ATOM      9  C   UNL     1      16.871  25.234  27.843  1.00  0.00     0.004 C 
ENDBRANCH   7   8
ENDBRANCH   1   7
TORSDOF 4
ENDMDL
MODEL 7
REMARK VINA RESULT:    -3.620      1.342      4.142
REMARK INTER + INTRA:          -4.653
REMARK INTER:                  -4.454
REMARK INTRA:                  -0.199
REMARK UNBOUND:                -0.187
REMARK SMILES C=CC[C@H](C)C(=O)CC
REMARK SMILES IDX 4 1 5 2 6 3 7 4 8 5 9 6 3 7 2 8 1 9
REMARK H PARENT
REMARK Flexibility Score: inf
ROOT
ATOM      1  C   UNL     1      15.363  20.935  28.726  1.00  0.00     0.057 C 
ATOM      2  C   UNL     1      15.383  19.514  29.306  1.00  0.00     0.016 C 
ENDROOT
BRANCH   1   3
ATOM      3  C   UNL     1      14.615  21.861  29.661  1.00  0.00     0.135 C 
ATOM      4  O   UNL     1      13.942  22.772  29.200  1.00  0.00    -0.299 OA
BRANCH   3   5
ATOM      5  C   UNL     1      14.690  21.688  31.155  1.00  0.00     0.072 C 
ATOM      6  C   UNL     1      15.387  22.880  31.802  1.00  0.00     0.012 C 
ENDBRANCH   3   5
ENDBRANCH   1   3
BRANCH   1   7
ATOM      7  C   UNL     1      14.722  20.970  27.324  1.00  0.00     0.038 C 
BRANCH   7   8
ATOM      8  C   UNL     1      15.698  21.388  26.255  1.00  0.00    -0.034 C 
ATOM      9  C   UNL     1      15.644  22.595  25.684  1.00  0.00     0.004 C 
ENDBRANCH   7   8
ENDBRANCH   1   7
TORSDOF 4
ENDMDL
MODEL 8
REMARK VINA RESULT:    -3.618      1.299      2.250
REMARK INTER + INTRA:          -4.651
REMARK INTER:                  -4.481
REMARK INTRA:                  -0.170
REMARK UNBOUND:                -0.187
REMARK SMILES C=CC[C@H](C)C(=O)CC
REMARK SMILES IDX 4 1 5 2 6 3 7 4 8 5 9 6 3 7 2 8 1 9
REMARK H PARENT
REMARK Flexibility Score: inf
ROOT
ATOM      1  C   UNL     1      14.646  21.875  30.133  1.00  0.00     0.057 C 
ATOM      2  C   UNL     1      15.419  20.591  30.465  1.00  0.00     0.016 C 
ENDROOT
BRANCH   1   3
ATOM      3  C   UNL     1      14.574  22.057  28.632  1.00  0.00     0.135 C 
ATOM      4  O   UNL     1      14.282  23.151  28.168  1.00  0.00    -0.299 OA
BRANCH   3   5
ATOM      5  C   UNL     1      14.846  20.912  27.692  1.00  0.00     0.072 C 
ATOM      6  C   UNL     1      15.505  21.409  26.411  1.00  0.00     0.012 C 
ENDBRANCH   3   5
ENDBRANCH   1   3
BRANCH   1   7
ATOM      7  C   UNL     1      15.292  23.114  30.785  1.00  0.00     0.038 C 
BRANCH   7   8
ATOM      8  C   UNL     1      15.326  23.021  32.288  1.00  0.00    -0.034 C 
ATOM      9  C   UNL     1      14.726  23.928  33.064  1.00  0.00     0.004 C 
ENDBRANCH   7   8
ENDBRANCH   1   7
TORSDOF 4
ENDMDL
