MODEL 1
REMARK VINA RESULT:    -8.082      0.000      0.000
REMARK INTER + INTRA:          -8.936
REMARK INTER:                  -8.790
REMARK INTRA:                  -0.146
REMARK UNBOUND:                -0.146
REMARK SMILES C[C@@H]1[C@H](C)CC[C@@]2(C(=O)[O-])CC[C@]3(C)C(=CC[C@H]4[C@@]5(C)CC[C@H](O)C(C)(C)[C@H]5CC[C@]43C)[C@@H]12
REMARK SMILES IDX 7 1 6 2 11 3 33 4 5 5 12 6 15 7 2 8 3 9 13 10 16 11 1 12
REMARK SMILES IDX 4 13 14 14 31 15 17 16 18 17 30 18 32 19 19 20 29 21 28 22
REMARK SMILES IDX 21 23 20 24 25 25 22 26 23 27 26 28 27 29 8 30 9 31 10 32
REMARK SMILES IDX 24 33
REMARK H PARENT 24 34
REMARK Flexibility Score: inf
ROOT
ATOM      1  C   UNL     1      14.900 -54.137  20.814  1.00  0.00     0.017 C 
ATOM      2  C   UNL     1      16.139 -53.184  20.815  1.00  0.00     0.014 C 
ATOM      3  C   UNL     1      13.625 -53.234  20.670  1.00  0.00     0.014 C 
ATOM      4  C   UNL     1      15.052 -55.240  19.663  1.00  0.00     0.030 C 
ATOM      5  C   UNL     1      17.436 -53.943  20.564  1.00  0.00     0.004 C 
ATOM      6  C   UNL     1      12.890 -53.401  19.344  1.00  0.00     0.013 C 
ATOM      7  C   UNL     1      13.708 -55.750  19.115  1.00  0.00    -0.063 C 
ATOM      8  C   UNL     1      16.050 -54.788  18.540  1.00  0.00    -0.003 C 
ATOM      9  C   UNL     1      17.483 -54.532  19.132  1.00  0.00    -0.011 C 
ATOM     10  C   UNL     1      12.456 -54.875  19.076  1.00  0.00    -0.006 C 
ATOM     11  C   UNL     1      13.612 -57.029  18.698  1.00  0.00    -0.027 C 
ATOM     12  C   UNL     1      16.100 -55.726  17.318  1.00  0.00     0.008 C 
ATOM     13  C   UNL     1      18.405 -55.771  19.137  1.00  0.00     0.008 C 
ATOM     14  C   UNL     1      11.553 -55.310  20.280  1.00  0.00     0.017 C 
ATOM     15  C   UNL     1      11.693 -55.033  17.650  1.00  0.00    -0.020 C 
ATOM     16  C   UNL     1      12.349 -57.545  18.077  1.00  0.00     0.032 C 
ATOM     17  C   UNL     1      11.774 -56.517  17.059  1.00  0.00     0.006 C 
ATOM     18  C   UNL     1      10.210 -54.618  17.798  1.00  0.00     0.008 C 
ATOM     19  C   UNL     1      12.340 -54.070  16.597  1.00  0.00     0.012 C 
ATOM     20  C   UNL     1      10.500 -57.074  16.251  1.00  0.00    -0.025 C 
ATOM     21  C   UNL     1       9.399 -54.695  16.509  1.00  0.00     0.005 C 
ATOM     22  C   UNL     1       9.686 -55.900  15.552  1.00  0.00     0.003 C 
ATOM     23  C   UNL     1       9.519 -57.877  17.166  1.00  0.00     0.010 C 
ATOM     24  C   UNL     1      11.084 -58.054  15.170  1.00  0.00     0.012 C 
ATOM     25  C   UNL     1       8.345 -56.350  14.813  1.00  0.00    -0.006 C 
ATOM     26  C   UNL     1       8.215 -58.317  16.478  1.00  0.00     0.033 C 
ATOM     27  C   UNL     1       7.450 -57.161  15.798  1.00  0.00     0.120 C 
ATOM     28  C   UNL     1       7.548 -55.105  14.316  1.00  0.00     0.014 C 
ATOM     29  C   UNL     1       8.635 -57.172  13.520  1.00  0.00     0.014 C 
ENDROOT
BRANCH   1  30
ATOM     30  C   UNL     1      14.821 -54.809  22.187  1.00  0.00     0.048 C 
ATOM     31  O   UNL     1      13.912 -54.472  22.998  1.00  0.00    -0.550 OA
ATOM     32  O   UNL     1      15.700 -55.829  22.556  1.00  0.00    -0.550 OA
ENDBRANCH   1  30
BRANCH  27  33
ATOM     33  O   UNL     1       6.327 -57.661  15.115  1.00  0.00    -0.393 OA
ATOM     34  H   UNL     1       6.291 -58.646  15.275  1.00  0.00     0.210 HD
ENDBRANCH  27  33
TORSDOF 2
ENDMDL
MODEL 2
REMARK VINA RESULT:    -7.272      1.634      8.033
REMARK INTER + INTRA:          -8.055
REMARK INTER:                  -7.835
REMARK INTRA:                  -0.220
REMARK UNBOUND:                -0.146
REMARK SMILES C[C@@H]1[C@H](C)CC[C@@]2(C(=O)[O-])CC[C@]3(C)C(=CC[C@H]4[C@@]5(C)CC[C@H](O)C(C)(C)[C@H]5CC[C@]43C)[C@@H]12
REMARK SMILES IDX 7 1 6 2 11 3 33 4 5 5 12 6 15 7 2 8 3 9 13 10 16 11 1 12
REMARK SMILES IDX 4 13 14 14 31 15 17 16 18 17 30 18 32 19 19 20 29 21 28 22
REMARK SMILES IDX 21 23 20 24 25 25 22 26 23 27 26 28 27 29 8 30 9 31 10 32
REMARK SMILES IDX 24 33
REMARK H PARENT 24 34
REMARK Flexibility Score: inf
ROOT
ATOM      1  C   UNL     1       9.052 -55.950  15.097  1.00  0.00     0.017 C 
ATOM      2  C   UNL     1       8.957 -56.091  13.542  1.00  0.00     0.014 C 
ATOM      3  C   UNL     1       9.784 -57.231  15.631  1.00  0.00     0.014 C 
ATOM      4  C   UNL     1       9.774 -54.574  15.485  1.00  0.00     0.030 C 
ATOM      5  C   UNL     1       8.621 -54.763  12.875  1.00  0.00     0.004 C 
ATOM      6  C   UNL     1      11.168 -56.960  16.212  1.00  0.00     0.013 C 
ATOM      7  C   UNL     1      10.520 -54.628  16.830  1.00  0.00    -0.063 C 
ATOM      8  C   UNL     1      10.650 -54.016  14.310  1.00  0.00    -0.003 C 
ATOM      9  C   UNL     1       9.770 -53.737  13.037  1.00  0.00    -0.011 C 
ATOM     10  C   UNL     1      11.143 -55.915  17.369  1.00  0.00    -0.006 C 
ATOM     11  C   UNL     1      10.589 -53.513  17.586  1.00  0.00    -0.027 C 
ATOM     12  C   UNL     1      11.511 -52.793  14.684  1.00  0.00     0.008 C 
ATOM     13  C   UNL     1       9.175 -52.313  12.970  1.00  0.00     0.008 C 
ATOM     14  C   UNL     1      10.169 -56.471  18.465  1.00  0.00     0.017 C 
ATOM     15  C   UNL     1      12.628 -55.626  17.960  1.00  0.00    -0.020 C 
ATOM     16  C   UNL     1      11.377 -53.494  18.861  1.00  0.00     0.032 C 
ATOM     17  C   UNL     1      12.753 -54.199  18.670  1.00  0.00     0.006 C 
ATOM     18  C   UNL     1      13.019 -56.736  18.965  1.00  0.00     0.008 C 
ATOM     19  C   UNL     1      13.675 -55.667  16.794  1.00  0.00     0.012 C 
ATOM     20  C   UNL     1      13.706 -54.081  19.960  1.00  0.00    -0.025 C 
ATOM     21  C   UNL     1      14.415 -56.588  19.562  1.00  0.00     0.005 C 
ATOM     22  C   UNL     1      14.893 -55.139  19.912  1.00  0.00     0.003 C 
ATOM     23  C   UNL     1      12.924 -54.278  21.299  1.00  0.00     0.010 C 
ATOM     24  C   UNL     1      14.276 -52.617  19.929  1.00  0.00     0.012 C 
ATOM     25  C   UNL     1      15.831 -55.165  21.204  1.00  0.00    -0.006 C 
ATOM     26  C   UNL     1      13.806 -54.314  22.559  1.00  0.00     0.033 C 
ATOM     27  C   UNL     1      14.957 -55.340  22.483  1.00  0.00     0.120 C 
ATOM     28  C   UNL     1      16.846 -56.346  21.122  1.00  0.00     0.014 C 
ATOM     29  C   UNL     1      16.721 -53.889  21.309  1.00  0.00     0.014 C 
ENDROOT
BRANCH   1  30
ATOM     30  C   UNL     1       7.628 -55.980  15.659  1.00  0.00     0.048 C 
ATOM     31  O   UNL     1       6.860 -56.940  15.367  1.00  0.00    -0.550 OA
ATOM     32  O   UNL     1       7.164 -54.996  16.535  1.00  0.00    -0.550 OA
ENDBRANCH   1  30
BRANCH  27  33
ATOM     33  O   UNL     1      15.768 -55.241  23.627  1.00  0.00    -0.393 OA
ATOM     34  H   UNL     1      16.126 -54.310  23.663  1.00  0.00     0.210 HD
ENDBRANCH  27  33
TORSDOF 2
ENDMDL
MODEL 3
REMARK VINA RESULT:    -7.084      1.326      8.172
REMARK INTER + INTRA:          -7.851
REMARK INTER:                  -7.661
REMARK INTRA:                  -0.190
REMARK UNBOUND:                -0.146
REMARK SMILES C[C@@H]1[C@H](C)CC[C@@]2(C(=O)[O-])CC[C@]3(C)C(=CC[C@H]4[C@@]5(C)CC[C@H](O)C(C)(C)[C@H]5CC[C@]43C)[C@@H]12
REMARK SMILES IDX 7 1 6 2 11 3 33 4 5 5 12 6 15 7 2 8 3 9 13 10 16 11 1 12
REMARK SMILES IDX 4 13 14 14 31 15 17 16 18 17 30 18 32 19 19 20 29 21 28 22
REMARK SMILES IDX 21 23 20 24 25 25 22 26 23 27 26 28 27 29 8 30 9 31 10 32
REMARK SMILES IDX 24 33
REMARK H PARENT 24 34
REMARK Flexibility Score: inf
ROOT
ATOM      1  C   UNL     1       8.782 -56.925  14.749  1.00  0.00     0.017 C 
ATOM      2  C   UNL     1       8.413 -56.876  13.231  1.00  0.00     0.014 C 
ATOM      3  C   UNL     1       9.889 -58.023  14.919  1.00  0.00     0.014 C 
ATOM      4  C   UNL     1       9.220 -55.471  15.260  1.00  0.00     0.030 C 
ATOM      5  C   UNL     1       7.644 -55.608  12.878  1.00  0.00     0.004 C 
ATOM      6  C   UNL     1      11.257 -57.473  15.310  1.00  0.00     0.013 C 
ATOM      7  C   UNL     1      10.211 -55.503  16.436  1.00  0.00    -0.063 C 
ATOM      8  C   UNL     1       9.682 -54.547  14.081  1.00  0.00    -0.003 C 
ATOM      9  C   UNL     1       8.525 -54.344  13.037  1.00  0.00    -0.011 C 
ATOM     10  C   UNL     1      11.217 -56.638  16.627  1.00  0.00    -0.006 C 
ATOM     11  C   UNL     1      10.164 -54.523  17.360  1.00  0.00    -0.027 C 
ATOM     12  C   UNL     1      10.286 -53.200  14.527  1.00  0.00     0.008 C 
ATOM     13  C   UNL     1       7.607 -53.136  13.325  1.00  0.00     0.008 C 
ATOM     14  C   UNL     1      10.645 -57.576  17.744  1.00  0.00     0.017 C 
ATOM     15  C   UNL     1      12.679 -56.045  17.014  1.00  0.00    -0.020 C 
ATOM     16  C   UNL     1      11.165 -54.465  18.475  1.00  0.00     0.032 C 
ATOM     17  C   UNL     1      12.601 -54.745  17.942  1.00  0.00     0.006 C 
ATOM     18  C   UNL     1      13.517 -57.135  17.726  1.00  0.00     0.008 C 
ATOM     19  C   UNL     1      13.449 -55.649  15.708  1.00  0.00     0.012 C 
ATOM     20  C   UNL     1      13.739 -54.551  19.062  1.00  0.00    -0.025 C 
ATOM     21  C   UNL     1      14.927 -56.701  18.108  1.00  0.00     0.005 C 
ATOM     22  C   UNL     1      15.109 -55.238  18.634  1.00  0.00     0.003 C 
ATOM     23  C   UNL     1      13.311 -55.128  20.451  1.00  0.00     0.010 C 
ATOM     24  C   UNL     1      13.927 -52.998  19.206  1.00  0.00     0.012 C 
ATOM     25  C   UNL     1      16.265 -55.185  19.733  1.00  0.00    -0.006 C 
ATOM     26  C   UNL     1      14.412 -55.095  21.526  1.00  0.00     0.033 C 
ATOM     27  C   UNL     1      15.734 -55.757  21.082  1.00  0.00     0.120 C 
ATOM     28  C   UNL     1      17.495 -56.031  19.277  1.00  0.00     0.014 C 
ATOM     29  C   UNL     1      16.829 -53.744  19.924  1.00  0.00     0.014 C 
ENDROOT
BRANCH   1  30
ATOM     30  C   UNL     1       7.549 -57.409  15.518  1.00  0.00     0.048 C 
ATOM     31  O   UNL     1       6.803 -58.295  15.011  1.00  0.00    -0.550 OA
ATOM     32  O   UNL     1       7.248 -56.934  16.796  1.00  0.00    -0.550 OA
ENDBRANCH   1  30
BRANCH  27  33
ATOM     33  O   UNL     1      16.711 -55.600  22.081  1.00  0.00    -0.393 OA
ATOM     34  H   UNL     1      17.538 -55.256  21.641  1.00  0.00     0.210 HD
ENDBRANCH  27  33
TORSDOF 2
ENDMDL
MODEL 4
REMARK VINA RESULT:    -6.670      1.622      2.161
REMARK INTER + INTRA:          -7.401
REMARK INTER:                  -7.301
REMARK INTRA:                  -0.101
REMARK UNBOUND:                -0.146
REMARK SMILES C[C@@H]1[C@H](C)CC[C@@]2(C(=O)[O-])CC[C@]3(C)C(=CC[C@H]4[C@@]5(C)CC[C@H](O)C(C)(C)[C@H]5CC[C@]43C)[C@@H]12
REMARK SMILES IDX 7 1 6 2 11 3 33 4 5 5 12 6 15 7 2 8 3 9 13 10 16 11 1 12
REMARK SMILES IDX 4 13 14 14 31 15 17 16 18 17 30 18 32 19 19 20 29 21 28 22
REMARK SMILES IDX 21 23 20 24 25 25 22 26 23 27 26 28 27 29 8 30 9 31 10 32
REMARK SMILES IDX 24 33
REMARK H PARENT 24 34
REMARK Flexibility Score: inf
ROOT
ATOM      1  C   UNL     1      15.444 -54.325  22.020  1.00  0.00     0.017 C 
ATOM      2  C   UNL     1      16.125 -53.127  22.760  1.00  0.00     0.014 C 
ATOM      3  C   UNL     1      13.893 -54.132  22.164  1.00  0.00     0.014 C 
ATOM      4  C   UNL     1      15.955 -54.402  20.505  1.00  0.00     0.030 C 
ATOM      5  C   UNL     1      17.592 -52.987  22.373  1.00  0.00     0.004 C 
ATOM      6  C   UNL     1      13.181 -53.812  20.854  1.00  0.00     0.013 C 
ATOM      7  C   UNL     1      14.929 -55.020  19.539  1.00  0.00    -0.063 C 
ATOM      8  C   UNL     1      16.532 -53.031  20.006  1.00  0.00    -0.003 C 
ATOM      9  C   UNL     1      17.753 -52.582  20.887  1.00  0.00    -0.011 C 
ATOM     10  C   UNL     1      13.421 -54.895  19.757  1.00  0.00    -0.006 C 
ATOM     11  C   UNL     1      15.369 -55.738  18.485  1.00  0.00    -0.027 C 
ATOM     12  C   UNL     1      16.871 -52.993  18.503  1.00  0.00     0.008 C 
ATOM     13  C   UNL     1      19.124 -53.085  20.384  1.00  0.00     0.008 C 
ATOM     14  C   UNL     1      12.929 -56.260  20.349  1.00  0.00     0.017 C 
ATOM     15  C   UNL     1      12.671 -54.525  18.364  1.00  0.00    -0.020 C 
ATOM     16  C   UNL     1      14.412 -56.285  17.471  1.00  0.00     0.032 C 
ATOM     17  C   UNL     1      13.342 -55.219  17.089  1.00  0.00     0.006 C 
ATOM     18  C   UNL     1      11.180 -54.932  18.446  1.00  0.00     0.008 C 
ATOM     19  C   UNL     1      12.716 -52.976  18.138  1.00  0.00     0.012 C 
ATOM     20  C   UNL     1      12.375 -55.695  15.896  1.00  0.00    -0.025 C 
ATOM     21  C   UNL     1      10.364 -54.601  17.201  1.00  0.00     0.005 C 
ATOM     22  C   UNL     1      11.060 -54.803  15.814  1.00  0.00     0.003 C 
ATOM     23  C   UNL     1      11.947 -57.192  16.037  1.00  0.00     0.010 C 
ATOM     24  C   UNL     1      13.223 -55.542  14.582  1.00  0.00     0.012 C 
ATOM     25  C   UNL     1       9.992 -55.269  14.723  1.00  0.00    -0.006 C 
ATOM     26  C   UNL     1      10.912 -57.664  15.001  1.00  0.00     0.033 C 
ATOM     27  C   UNL     1       9.651 -56.776  14.932  1.00  0.00     0.120 C 
ATOM     28  C   UNL     1       8.680 -54.434  14.847  1.00  0.00     0.014 C 
ATOM     29  C   UNL     1      10.487 -55.008  13.267  1.00  0.00     0.014 C 
ENDROOT
BRANCH   1  30
ATOM     30  C   UNL     1      15.807 -55.609  22.770  1.00  0.00     0.048 C 
ATOM     31  O   UNL     1      16.127 -55.552  23.992  1.00  0.00    -0.550 OA
ATOM     32  O   UNL     1      15.747 -56.860  22.154  1.00  0.00    -0.550 OA
ENDBRANCH   1  30
BRANCH  27  33
ATOM     33  O   UNL     1       8.805 -57.218  13.900  1.00  0.00    -0.393 OA
ATOM     34  H   UNL     1       7.884 -57.297  14.279  1.00  0.00     0.210 HD
ENDBRANCH  27  33
TORSDOF 2
ENDMDL
MODEL 5
REMARK VINA RESULT:    -6.476      1.931      8.037
REMARK INTER + INTRA:          -7.190
REMARK INTER:                  -6.962
REMARK INTRA:                  -0.228
REMARK UNBOUND:                -0.146
REMARK SMILES C[C@@H]1[C@H](C)CC[C@@]2(C(=O)[O-])CC[C@]3(C)C(=CC[C@H]4[C@@]5(C)CC[C@H](O)C(C)(C)[C@H]5CC[C@]43C)[C@@H]12
REMARK SMILES IDX 7 1 6 2 11 3 33 4 5 5 12 6 15 7 2 8 3 9 13 10 16 11 1 12
REMARK SMILES IDX 4 13 14 14 31 15 17 16 18 17 30 18 32 19 19 20 29 21 28 22
REMARK SMILES IDX 21 23 20 24 25 25 22 26 23 27 26 28 27 29 8 30 9 31 10 32
REMARK SMILES IDX 24 33
REMARK H PARENT 24 34
REMARK Flexibility Score: inf
ROOT
ATOM      1  C   UNL     1      11.187 -56.837  14.139  1.00  0.00     0.017 C 
ATOM      2  C   UNL     1      10.443 -56.234  12.903  1.00  0.00     0.014 C 
ATOM      3  C   UNL     1      12.653 -56.279  14.110  1.00  0.00     0.014 C 
ATOM      4  C   UNL     1      10.386 -56.500  15.485  1.00  0.00     0.030 C 
ATOM      5  C   UNL     1       8.932 -56.384  13.026  1.00  0.00     0.004 C 
ATOM      6  C   UNL     1      12.977 -55.319  15.250  1.00  0.00     0.013 C 
ATOM      7  C   UNL     1      11.285 -56.408  16.730  1.00  0.00    -0.063 C 
ATOM      8  C   UNL     1       9.435 -55.266  15.312  1.00  0.00    -0.003 C 
ATOM      9  C   UNL     1       8.368 -55.531  14.189  1.00  0.00    -0.011 C 
ATOM     10  C   UNL     1      12.741 -55.951  16.657  1.00  0.00    -0.006 C 
ATOM     11  C   UNL     1      10.790 -56.789  17.926  1.00  0.00    -0.027 C 
ATOM     12  C   UNL     1       8.775 -54.782  16.619  1.00  0.00     0.008 C 
ATOM     13  C   UNL     1       7.060 -56.183  14.690  1.00  0.00     0.008 C 
ATOM     14  C   UNL     1      13.631 -57.239  16.733  1.00  0.00     0.017 C 
ATOM     15  C   UNL     1      13.072 -54.905  17.856  1.00  0.00    -0.020 C 
ATOM     16  C   UNL     1      11.597 -56.636  19.179  1.00  0.00     0.032 C 
ATOM     17  C   UNL     1      12.304 -55.249  19.215  1.00  0.00     0.006 C 
ATOM     18  C   UNL     1      14.597 -54.875  18.120  1.00  0.00     0.008 C 
ATOM     19  C   UNL     1      12.648 -53.460  17.425  1.00  0.00     0.012 C 
ATOM     20  C   UNL     1      13.067 -54.965  20.602  1.00  0.00    -0.025 C 
ATOM     21  C   UNL     1      15.032 -53.899  19.208  1.00  0.00     0.005 C 
ATOM     22  C   UNL     1      14.110 -53.772  20.466  1.00  0.00     0.003 C 
ATOM     23  C   UNL     1      13.825 -56.224  21.133  1.00  0.00     0.010 C 
ATOM     24  C   UNL     1      11.940 -54.592  21.632  1.00  0.00     0.012 C 
ATOM     25  C   UNL     1      14.989 -53.488  21.768  1.00  0.00    -0.006 C 
ATOM     26  C   UNL     1      14.686 -55.975  22.384  1.00  0.00     0.033 C 
ATOM     27  C   UNL     1      15.681 -54.806  22.231  1.00  0.00     0.120 C 
ATOM     28  C   UNL     1      16.086 -52.420  21.468  1.00  0.00     0.014 C 
ATOM     29  C   UNL     1      14.144 -52.868  22.924  1.00  0.00     0.014 C 
ENDROOT
BRANCH   1  30
ATOM     30  C   UNL     1      11.279 -58.352  13.941  1.00  0.00     0.048 C 
ATOM     31  O   UNL     1      10.656 -59.125  14.722  1.00  0.00    -0.550 OA
ATOM     32  O   UNL     1      11.996 -58.911  12.881  1.00  0.00    -0.550 OA
ENDBRANCH   1  30
BRANCH  27  33
ATOM     33  O   UNL     1      16.357 -54.585  23.444  1.00  0.00    -0.393 OA
ATOM     34  H   UNL     1      16.963 -53.802  23.313  1.00  0.00     0.210 HD
ENDBRANCH  27  33
TORSDOF 2
ENDMDL
MODEL 6
REMARK VINA RESULT:    -5.559      2.416      4.643
REMARK INTER + INTRA:          -6.192
REMARK INTER:                  -6.398
REMARK INTRA:                   0.206
REMARK UNBOUND:                -0.146
REMARK SMILES C[C@@H]1[C@H](C)CC[C@@]2(C(=O)[O-])CC[C@]3(C)C(=CC[C@H]4[C@@]5(C)CC[C@H](O)C(C)(C)[C@H]5CC[C@]43C)[C@@H]12
REMARK SMILES IDX 7 1 6 2 11 3 33 4 5 5 12 6 15 7 2 8 3 9 13 10 16 11 1 12
REMARK SMILES IDX 4 13 14 14 31 15 17 16 18 17 30 18 32 19 19 20 29 21 28 22
REMARK SMILES IDX 21 23 20 24 25 25 22 26 23 27 26 28 27 29 8 30 9 31 10 32
REMARK SMILES IDX 24 33
REMARK H PARENT 24 34
REMARK Flexibility Score: inf
ROOT
ATOM      1  C   UNL     1      14.076 -56.423  17.214  1.00  0.00     0.017 C 
ATOM      2  C   UNL     1      14.911 -56.405  18.536  1.00  0.00     0.014 C 
ATOM      3  C   UNL     1      13.510 -57.877  17.047  1.00  0.00     0.014 C 
ATOM      4  C   UNL     1      12.950 -55.285  17.256  1.00  0.00     0.030 C 
ATOM      5  C   UNL     1      15.189 -54.984  19.009  1.00  0.00     0.004 C 
ATOM      6  C   UNL     1      11.996 -57.977  17.195  1.00  0.00     0.013 C 
ATOM      7  C   UNL     1      11.703 -55.620  16.420  1.00  0.00    -0.063 C 
ATOM      8  C   UNL     1      12.615 -54.840  18.722  1.00  0.00    -0.003 C 
ATOM      9  C   UNL     1      13.888 -54.262  19.440  1.00  0.00    -0.011 C 
ATOM     10  C   UNL     1      11.230 -57.056  16.195  1.00  0.00    -0.006 C 
ATOM     11  C   UNL     1      11.026 -54.619  15.821  1.00  0.00    -0.027 C 
ATOM     12  C   UNL     1      11.413 -53.881  18.837  1.00  0.00     0.008 C 
ATOM     13  C   UNL     1      14.086 -52.741  19.264  1.00  0.00     0.008 C 
ATOM     14  C   UNL     1      11.685 -57.469  14.754  1.00  0.00     0.017 C 
ATOM     15  C   UNL     1       9.620 -57.162  16.383  1.00  0.00    -0.020 C 
ATOM     16  C   UNL     1       9.757 -54.887  15.069  1.00  0.00     0.032 C 
ATOM     17  C   UNL     1       8.842 -55.866  15.862  1.00  0.00     0.006 C 
ATOM     18  C   UNL     1       9.086 -58.414  15.646  1.00  0.00     0.008 C 
ATOM     19  C   UNL     1       9.278 -57.340  17.902  1.00  0.00     0.012 C 
ATOM     20  C   UNL     1       7.403 -56.078  15.177  1.00  0.00    -0.025 C 
ATOM     21  C   UNL     1       7.584 -58.637  15.781  1.00  0.00     0.005 C 
ATOM     22  C   UNL     1       6.666 -57.370  15.743  1.00  0.00     0.003 C 
ATOM     23  C   UNL     1       7.496 -56.207  13.622  1.00  0.00     0.010 C 
ATOM     24  C   UNL     1       6.580 -54.784  15.520  1.00  0.00     0.012 C 
ATOM     25  C   UNL     1       5.273 -57.717  15.045  1.00  0.00    -0.006 C 
ATOM     26  C   UNL     1       6.167 -56.549  12.925  1.00  0.00     0.033 C 
ATOM     27  C   UNL     1       5.467 -57.798  13.500  1.00  0.00     0.120 C 
ATOM     28  C   UNL     1       4.728 -59.086  15.558  1.00  0.00     0.014 C 
ATOM     29  C   UNL     1       4.159 -56.689  15.412  1.00  0.00     0.014 C 
ENDROOT
BRANCH   1  30
ATOM     30  C   UNL     1      15.036 -56.178  16.047  1.00  0.00     0.048 C 
ATOM     31  O   UNL     1      16.232 -55.841  16.281  1.00  0.00    -0.550 OA
ATOM     32  O   UNL     1      14.643 -56.367  14.721  1.00  0.00    -0.550 OA
ENDBRANCH   1  30
BRANCH  27  33
ATOM     33  O   UNL     1       4.221 -57.984  12.876  1.00  0.00    -0.393 OA
ATOM     34  H   UNL     1       3.582 -58.310  13.570  1.00  0.00     0.210 HD
ENDBRANCH  27  33
TORSDOF 2
ENDMDL
MODEL 7
REMARK VINA RESULT:    -5.179     14.090     15.943
REMARK INTER + INTRA:          -5.780
REMARK INTER:                  -6.018
REMARK INTRA:                   0.239
REMARK UNBOUND:                -0.146
REMARK SMILES C[C@@H]1[C@H](C)CC[C@@]2(C(=O)[O-])CC[C@]3(C)C(=CC[C@H]4[C@@]5(C)CC[C@H](O)C(C)(C)[C@H]5CC[C@]43C)[C@@H]12
REMARK SMILES IDX 7 1 6 2 11 3 33 4 5 5 12 6 15 7 2 8 3 9 13 10 16 11 1 12
REMARK SMILES IDX 4 13 14 14 31 15 17 16 18 17 30 18 32 19 19 20 29 21 28 22
REMARK SMILES IDX 21 23 20 24 25 25 22 26 23 27 26 28 27 29 8 30 9 31 10 32
REMARK SMILES IDX 24 33
REMARK H PARENT 24 34
REMARK Flexibility Score: inf
ROOT
ATOM      1  C   UNL     1       0.496 -45.926  23.591  1.00  0.00     0.017 C 
ATOM      2  C   UNL     1       1.109 -46.706  24.800  1.00  0.00     0.014 C 
ATOM      3  C   UNL     1       1.634 -45.019  23.005  1.00  0.00     0.014 C 
ATOM      4  C   UNL     1      -0.134 -46.950  22.533  1.00  0.00     0.030 C 
ATOM      5  C   UNL     1       0.237 -47.887  25.209  1.00  0.00     0.004 C 
ATOM      6  C   UNL     1       2.104 -45.431  21.614  1.00  0.00     0.013 C 
ATOM      7  C   UNL     1      -0.127 -46.425  21.088  1.00  0.00    -0.063 C 
ATOM      8  C   UNL     1       0.470 -48.390  22.675  1.00  0.00    -0.003 C 
ATOM      9  C   UNL     1       0.198 -48.975  24.108  1.00  0.00    -0.011 C 
ATOM     10  C   UNL     1       0.945 -45.465  20.571  1.00  0.00    -0.006 C 
ATOM     11  C   UNL     1      -1.125 -46.783  20.254  1.00  0.00    -0.027 C 
ATOM     12  C   UNL     1       0.037 -49.373  21.569  1.00  0.00     0.008 C 
ATOM     13  C   UNL     1      -1.125 -49.762  24.238  1.00  0.00     0.008 C 
ATOM     14  C   UNL     1       0.308 -44.033  20.551  1.00  0.00     0.017 C 
ATOM     15  C   UNL     1       1.463 -45.926  19.101  1.00  0.00    -0.020 C 
ATOM     16  C   UNL     1      -1.115 -46.367  18.814  1.00  0.00     0.032 C 
ATOM     17  C   UNL     1       0.303 -46.551  18.197  1.00  0.00     0.006 C 
ATOM     18  C   UNL     1       2.096 -44.720  18.366  1.00  0.00     0.008 C 
ATOM     19  C   UNL     1       2.581 -47.012  19.255  1.00  0.00     0.012 C 
ATOM     20  C   UNL     1       0.344 -46.262  16.615  1.00  0.00    -0.025 C 
ATOM     21  C   UNL     1       2.651 -45.042  16.982  1.00  0.00     0.005 C 
ATOM     22  C   UNL     1       1.832 -46.039  16.096  1.00  0.00     0.003 C 
ATOM     23  C   UNL     1      -0.509 -45.015  16.215  1.00  0.00     0.010 C 
ATOM     24  C   UNL     1      -0.287 -47.533  15.939  1.00  0.00     0.012 C 
ATOM     25  C   UNL     1       1.960 -45.643  14.556  1.00  0.00    -0.006 C 
ATOM     26  C   UNL     1      -0.397 -44.608  14.736  1.00  0.00     0.033 C 
ATOM     27  C   UNL     1       1.056 -44.409  14.254  1.00  0.00     0.120 C 
ATOM     28  C   UNL     1       3.437 -45.285  14.203  1.00  0.00     0.014 C 
ATOM     29  C   UNL     1       1.609 -46.834  13.611  1.00  0.00     0.014 C 
ENDROOT
BRANCH   1  30
ATOM     30  C   UNL     1      -0.587 -44.991  24.136  1.00  0.00     0.048 C 
ATOM     31  O   UNL     1      -1.125 -45.239  25.252  1.00  0.00    -0.550 OA
ATOM     32  O   UNL     1      -0.967 -43.833  23.454  1.00  0.00    -0.550 OA
ENDBRANCH   1  30
BRANCH  27  33
ATOM     33  O   UNL     1       1.075 -44.134  12.875  1.00  0.00    -0.393 OA
ATOM     34  H   UNL     1       1.703 -43.372  12.729  1.00  0.00     0.210 HD
ENDBRANCH  27  33
TORSDOF 2
ENDMDL
