MODEL 1
REMARK VINA RESULT:    -3.911      0.000      0.000
REMARK INTER + INTRA:         -10.574
REMARK INTER:                  -7.570
REMARK INTRA:                  -3.005
REMARK UNBOUND:                -3.005
REMARK SMILES CCCCCCCCCCCCCCCCCC(=O)[O-]
REMARK SMILES IDX 10 1 11 2 12 3 13 4 14 5 15 6 16 7 17 8 18 9 19 10 20 11
REMARK SMILES IDX 9 12 8 13 7 14 6 15 5 16 4 17 3 18 2 19 1 20
REMARK H PARENT
REMARK Flexibility Score: inf
ROOT
ATOM      1  C   UNL     1       6.367 -19.684  23.313  1.00  0.00     0.000 C 
ENDROOT
BRANCH   1   2
ATOM      2  C   UNL     1       7.173 -20.027  22.044  1.00  0.00     0.000 C 
BRANCH   2   3
ATOM      3  C   UNL     1       7.384 -18.852  21.074  1.00  0.00     0.000 C 
BRANCH   3   4
ATOM      4  C   UNL     1       8.870 -18.586  20.772  1.00  0.00     0.000 C 
BRANCH   4   5
ATOM      5  C   UNL     1       9.668 -18.213  22.031  1.00  0.00     0.000 C 
BRANCH   5   6
ATOM      6  C   UNL     1      10.758 -19.246  22.365  1.00  0.00     0.000 C 
BRANCH   6   7
ATOM      7  C   UNL     1      12.085 -18.591  22.781  1.00  0.00     0.006 C 
BRANCH   7   8
ATOM      8  C   UNL     1      12.364 -17.291  22.018  1.00  0.00     0.053 C 
BRANCH   8   9
ATOM      9  C   UNL     1      13.597 -16.628  22.550  1.00  0.00     0.041 C 
ATOM     10  O   UNL     1      14.712 -17.204  22.467  1.00  0.00    -0.550 OA
ATOM     11  O   UNL     1      13.504 -15.394  23.182  1.00  0.00    -0.550 OA
ENDBRANCH   8   9
ENDBRANCH   7   8
ENDBRANCH   6   7
ENDBRANCH   5   6
ENDBRANCH   4   5
ENDBRANCH   3   4
ENDBRANCH   2   3
ENDBRANCH   1   2
BRANCH   1  12
ATOM     12  C   UNL     1       6.351 -18.189  23.690  1.00  0.00     0.000 C 
BRANCH  12  13
ATOM     13  C   UNL     1       6.844 -17.870  25.116  1.00  0.00    -0.000 C 
BRANCH  13  14
ATOM     14  C   UNL     1       7.822 -18.896  25.716  1.00  0.00    -0.000 C 
BRANCH  14  15
ATOM     15  C   UNL     1       9.285 -18.426  25.671  1.00  0.00    -0.000 C 
BRANCH  15  16
ATOM     16  C   UNL     1       9.437 -16.918  25.940  1.00  0.00    -0.000 C 
BRANCH  16  17
ATOM     17  C   UNL     1      10.536 -16.211  25.120  1.00  0.00    -0.000 C 
BRANCH  17  18
ATOM     18  C   UNL     1      10.030 -15.145  24.127  1.00  0.00    -0.000 C 
BRANCH  18  19
ATOM     19  C   UNL     1       8.615 -14.616  24.414  1.00  0.00    -0.003 C 
ATOM     20  C   UNL     1       7.677 -14.741  23.213  1.00  0.00     0.004 C 
ENDBRANCH  18  19
ENDBRANCH  17  18
ENDBRANCH  16  17
ENDBRANCH  15  16
ENDBRANCH  14  15
ENDBRANCH  13  14
ENDBRANCH  12  13
ENDBRANCH   1  12
TORSDOF 16
ENDMDL
MODEL 2
REMARK VINA RESULT:    -3.898      1.981      4.971
REMARK INTER + INTRA:         -10.549
REMARK INTER:                  -8.199
REMARK INTRA:                  -2.350
REMARK UNBOUND:                -3.005
REMARK SMILES CCCCCCCCCCCCCCCCCC(=O)[O-]
REMARK SMILES IDX 10 1 11 2 12 3 13 4 14 5 15 6 16 7 17 8 18 9 19 10 20 11
REMARK SMILES IDX 9 12 8 13 7 14 6 15 5 16 4 17 3 18 2 19 1 20
REMARK H PARENT
REMARK Flexibility Score: inf
ROOT
ATOM      1  C   UNL     1       6.690 -15.708  22.721  1.00  0.00     0.000 C 
ENDROOT
BRANCH   1   2
ATOM      2  C   UNL     1       7.511 -14.467  23.126  1.00  0.00     0.000 C 
BRANCH   2   3
ATOM      3  C   UNL     1       8.484 -14.688  24.297  1.00  0.00     0.000 C 
BRANCH   3   4
ATOM      4  C   UNL     1       9.958 -14.702  23.855  1.00  0.00     0.000 C 
BRANCH   4   5
ATOM      5  C   UNL     1      10.652 -16.037  24.164  1.00  0.00     0.000 C 
BRANCH   5   6
ATOM      6  C   UNL     1      10.489 -16.460  25.634  1.00  0.00     0.000 C 
BRANCH   6   7
ATOM      7  C   UNL     1      10.540 -17.985  25.819  1.00  0.00     0.006 C 
BRANCH   7   8
ATOM      8  C   UNL     1      10.898 -18.724  24.524  1.00  0.00     0.053 C 
BRANCH   8   9
ATOM      9  C   UNL     1      12.285 -19.280  24.606  1.00  0.00     0.041 C 
ATOM     10  O   UNL     1      12.807 -19.519  25.725  1.00  0.00    -0.550 OA
ATOM     11  O   UNL     1      13.020 -19.489  23.445  1.00  0.00    -0.550 OA
ENDBRANCH   8   9
ENDBRANCH   7   8
ENDBRANCH   6   7
ENDBRANCH   5   6
ENDBRANCH   4   5
ENDBRANCH   3   4
ENDBRANCH   2   3
ENDBRANCH   1   2
BRANCH   1  12
ATOM     12  C   UNL     1       7.421 -16.699  21.795  1.00  0.00     0.000 C 
BRANCH  12  13
ATOM     13  C   UNL     1       7.925 -17.985  22.481  1.00  0.00    -0.000 C 
BRANCH  13  14
ATOM     14  C   UNL     1       6.970 -18.585  23.529  1.00  0.00    -0.000 C 
BRANCH  14  15
ATOM     15  C   UNL     1       6.562 -20.032  23.207  1.00  0.00    -0.000 C 
BRANCH  15  16
ATOM     16  C   UNL     1       6.713 -20.378  21.714  1.00  0.00    -0.000 C 
BRANCH  16  17
ATOM     17  C   UNL     1       7.667 -21.550  21.405  1.00  0.00    -0.000 C 
BRANCH  17  18
ATOM     18  C   UNL     1       8.966 -21.161  20.669  1.00  0.00    -0.000 C 
BRANCH  18  19
ATOM     19  C   UNL     1      10.159 -20.847  21.588  1.00  0.00    -0.003 C 
ATOM     20  C   UNL     1      11.145 -22.009  21.700  1.00  0.00     0.004 C 
ENDBRANCH  18  19
ENDBRANCH  17  18
ENDBRANCH  16  17
ENDBRANCH  15  16
ENDBRANCH  14  15
ENDBRANCH  13  14
ENDBRANCH  12  13
ENDBRANCH   1  12
TORSDOF 16
ENDMDL
MODEL 3
REMARK VINA RESULT:    -3.889      2.738      4.389
REMARK INTER + INTRA:         -10.531
REMARK INTER:                  -7.612
REMARK INTRA:                  -2.919
REMARK UNBOUND:                -3.005
REMARK SMILES CCCCCCCCCCCCCCCCCC(=O)[O-]
REMARK SMILES IDX 10 1 11 2 12 3 13 4 14 5 15 6 16 7 17 8 18 9 19 10 20 11
REMARK SMILES IDX 9 12 8 13 7 14 6 15 5 16 4 17 3 18 2 19 1 20
REMARK H PARENT
REMARK Flexibility Score: inf
ROOT
ATOM      1  C   UNL     1       6.707 -17.790  25.514  1.00  0.00     0.000 C 
ENDROOT
BRANCH   1   2
ATOM      2  C   UNL     1       7.351 -19.188  25.602  1.00  0.00     0.000 C 
BRANCH   2   3
ATOM      3  C   UNL     1       6.777 -20.229  24.625  1.00  0.00     0.000 C 
BRANCH   3   4
ATOM      4  C   UNL     1       6.392 -19.622  23.264  1.00  0.00     0.000 C 
BRANCH   4   5
ATOM      5  C   UNL     1       6.977 -20.411  22.083  1.00  0.00     0.000 C 
BRANCH   5   6
ATOM      6  C   UNL     1       8.448 -20.054  21.806  1.00  0.00     0.000 C 
BRANCH   6   7
ATOM      7  C   UNL     1       8.759 -18.575  22.085  1.00  0.00     0.006 C 
BRANCH   7   8
ATOM      8  C   UNL     1       9.093 -17.792  20.809  1.00  0.00     0.053 C 
BRANCH   8   9
ATOM      9  C   UNL     1       7.860 -17.585  19.986  1.00  0.00     0.041 C 
ATOM     10  O   UNL     1       6.960 -16.799  20.379  1.00  0.00    -0.550 OA
ATOM     11  O   UNL     1       7.684 -18.299  18.807  1.00  0.00    -0.550 OA
ENDBRANCH   8   9
ENDBRANCH   7   8
ENDBRANCH   6   7
ENDBRANCH   5   6
ENDBRANCH   4   5
ENDBRANCH   3   4
ENDBRANCH   2   3
ENDBRANCH   1   2
BRANCH   1  12
ATOM     12  C   UNL     1       7.665 -16.657  25.096  1.00  0.00     0.000 C 
BRANCH  12  13
ATOM     13  C   UNL     1       7.230 -15.860  23.850  1.00  0.00    -0.000 C 
BRANCH  13  14
ATOM     14  C   UNL     1       8.234 -14.797  23.369  1.00  0.00    -0.000 C 
BRANCH  14  15
ATOM     15  C   UNL     1       9.525 -14.771  24.204  1.00  0.00    -0.000 C 
BRANCH  15  16
ATOM     16  C   UNL     1      10.783 -15.073  23.370  1.00  0.00    -0.000 C 
BRANCH  16  17
ATOM     17  C   UNL     1      11.652 -16.237  23.888  1.00  0.00    -0.000 C 
BRANCH  17  18
ATOM     18  C   UNL     1      11.182 -16.865  25.216  1.00  0.00    -0.000 C 
BRANCH  18  19
ATOM     19  C   UNL     1      10.986 -18.391  25.174  1.00  0.00    -0.003 C 
ATOM     20  C   UNL     1      11.742 -19.057  24.024  1.00  0.00     0.004 C 
ENDBRANCH  18  19
ENDBRANCH  17  18
ENDBRANCH  16  17
ENDBRANCH  15  16
ENDBRANCH  14  15
ENDBRANCH  13  14
ENDBRANCH  12  13
ENDBRANCH   1  12
TORSDOF 16
ENDMDL
MODEL 4
REMARK VINA RESULT:    -3.861      2.325      4.840
REMARK INTER + INTRA:         -10.476
REMARK INTER:                  -7.838
REMARK INTRA:                  -2.638
REMARK UNBOUND:                -3.005
REMARK SMILES CCCCCCCCCCCCCCCCCC(=O)[O-]
REMARK SMILES IDX 10 1 11 2 12 3 13 4 14 5 15 6 16 7 17 8 18 9 19 10 20 11
REMARK SMILES IDX 9 12 8 13 7 14 6 15 5 16 4 17 3 18 2 19 1 20
REMARK H PARENT
REMARK Flexibility Score: inf
ROOT
ATOM      1  C   UNL     1       7.053 -16.393  22.785  1.00  0.00     0.000 C 
ENDROOT
BRANCH   1   2
ATOM      2  C   UNL     1       7.138 -16.682  21.273  1.00  0.00     0.000 C 
BRANCH   2   3
ATOM      3  C   UNL     1       8.542 -17.046  20.760  1.00  0.00     0.000 C 
BRANCH   3   4
ATOM      4  C   UNL     1       9.645 -16.778  21.800  1.00  0.00     0.000 C 
BRANCH   4   5
ATOM      5  C   UNL     1      10.257 -18.074  22.354  1.00  0.00     0.000 C 
BRANCH   5   6
ATOM      6  C   UNL     1      11.376 -17.806  23.376  1.00  0.00     0.000 C 
BRANCH   6   7
ATOM      7  C   UNL     1      11.193 -16.472  24.117  1.00  0.00     0.006 C 
BRANCH   7   8
ATOM      8  C   UNL     1      10.294 -16.603  25.353  1.00  0.00     0.053 C 
BRANCH   8   9
ATOM      9  C   UNL     1       9.259 -15.522  25.363  1.00  0.00     0.041 C 
ATOM     10  O   UNL     1       9.343 -14.557  24.559  1.00  0.00    -0.550 OA
ATOM     11  O   UNL     1       8.228 -15.556  26.293  1.00  0.00    -0.550 OA
ENDBRANCH   8   9
ENDBRANCH   7   8
ENDBRANCH   6   7
ENDBRANCH   5   6
ENDBRANCH   4   5
ENDBRANCH   3   4
ENDBRANCH   2   3
ENDBRANCH   1   2
BRANCH   1  12
ATOM     12  C   UNL     1       6.290 -17.450  23.608  1.00  0.00     0.000 C 
BRANCH  12  13
ATOM     13  C   UNL     1       7.179 -18.408  24.426  1.00  0.00    -0.000 C 
BRANCH  13  14
ATOM     14  C   UNL     1       7.032 -19.899  24.073  1.00  0.00    -0.000 C 
BRANCH  14  15
ATOM     15  C   UNL     1       6.362 -20.128  22.708  1.00  0.00    -0.000 C 
BRANCH  15  16
ATOM     16  C   UNL     1       7.379 -20.297  21.564  1.00  0.00    -0.000 C 
BRANCH  16  17
ATOM     17  C   UNL     1       7.586 -21.746  21.078  1.00  0.00    -0.000 C 
BRANCH  17  18
ATOM     18  C   UNL     1       8.294 -21.885  19.715  1.00  0.00    -0.000 C 
BRANCH  18  19
ATOM     19  C   UNL     1       8.677 -20.552  19.048  1.00  0.00    -0.003 C 
ATOM     20  C   UNL     1      10.184 -20.296  19.055  1.00  0.00     0.004 C 
ENDBRANCH  18  19
ENDBRANCH  17  18
ENDBRANCH  16  17
ENDBRANCH  15  16
ENDBRANCH  14  15
ENDBRANCH  13  14
ENDBRANCH  12  13
ENDBRANCH   1  12
TORSDOF 16
ENDMDL
MODEL 5
REMARK VINA RESULT:    -3.811      1.814      4.478
REMARK INTER + INTRA:         -10.380
REMARK INTER:                  -7.775
REMARK INTRA:                  -2.606
REMARK UNBOUND:                -3.005
REMARK SMILES CCCCCCCCCCCCCCCCCC(=O)[O-]
REMARK SMILES IDX 10 1 11 2 12 3 13 4 14 5 15 6 16 7 17 8 18 9 19 10 20 11
REMARK SMILES IDX 9 12 8 13 7 14 6 15 5 16 4 17 3 18 2 19 1 20
REMARK H PARENT
REMARK Flexibility Score: inf
ROOT
ATOM      1  C   UNL     1       7.476 -18.314  22.904  1.00  0.00     0.000 C 
ENDROOT
BRANCH   1   2
ATOM      2  C   UNL     1       6.653 -17.322  23.752  1.00  0.00     0.000 C 
BRANCH   2   3
ATOM      3  C   UNL     1       6.455 -15.936  23.114  1.00  0.00     0.000 C 
BRANCH   3   4
ATOM      4  C   UNL     1       7.755 -15.115  23.052  1.00  0.00     0.000 C 
BRANCH   4   5
ATOM      5  C   UNL     1       8.314 -14.794  24.447  1.00  0.00     0.000 C 
BRANCH   5   6
ATOM      6  C   UNL     1       9.741 -15.333  24.648  1.00  0.00     0.000 C 
BRANCH   6   7
ATOM      7  C   UNL     1      10.343 -15.907  23.356  1.00  0.00     0.006 C 
BRANCH   7   8
ATOM      8  C   UNL     1      11.569 -15.120  22.877  1.00  0.00     0.053 C 
BRANCH   8   9
ATOM      9  C   UNL     1      12.829 -15.812  23.296  1.00  0.00     0.041 C 
ATOM     10  O   UNL     1      13.949 -15.345  22.963  1.00  0.00    -0.550 OA
ATOM     11  O   UNL     1      12.764 -17.000  24.013  1.00  0.00    -0.550 OA
ENDBRANCH   8   9
ENDBRANCH   7   8
ENDBRANCH   6   7
ENDBRANCH   5   6
ENDBRANCH   4   5
ENDBRANCH   3   4
ENDBRANCH   2   3
ENDBRANCH   1   2
BRANCH   1  12
ATOM     12  C   UNL     1       6.684 -19.520  22.363  1.00  0.00     0.000 C 
BRANCH  12  13
ATOM     13  C   UNL     1       7.538 -20.747  21.987  1.00  0.00    -0.000 C 
BRANCH  13  14
ATOM     14  C   UNL     1       9.019 -20.448  21.689  1.00  0.00    -0.000 C 
BRANCH  14  15
ATOM     15  C   UNL     1       9.507 -21.091  20.380  1.00  0.00    -0.000 C 
BRANCH  15  16
ATOM     16  C   UNL     1       8.612 -20.749  19.175  1.00  0.00    -0.000 C 
BRANCH  16  17
ATOM     17  C   UNL     1       8.689 -19.286  18.694  1.00  0.00    -0.000 C 
BRANCH  17  18
ATOM     18  C   UNL     1       7.377 -18.485  18.818  1.00  0.00    -0.000 C 
BRANCH  18  19
ATOM     19  C   UNL     1       7.524 -17.104  19.480  1.00  0.00    -0.003 C 
ATOM     20  C   UNL     1       8.964 -16.790  19.887  1.00  0.00     0.004 C 
ENDBRANCH  18  19
ENDBRANCH  17  18
ENDBRANCH  16  17
ENDBRANCH  15  16
ENDBRANCH  14  15
ENDBRANCH  13  14
ENDBRANCH  12  13
ENDBRANCH   1  12
TORSDOF 16
ENDMDL
MODEL 6
REMARK VINA RESULT:    -3.803      1.659      4.322
REMARK INTER + INTRA:         -10.364
REMARK INTER:                  -7.591
REMARK INTRA:                  -2.773
REMARK UNBOUND:                -3.005
REMARK SMILES CCCCCCCCCCCCCCCCCC(=O)[O-]
REMARK SMILES IDX 10 1 11 2 12 3 13 4 14 5 15 6 16 7 17 8 18 9 19 10 20 11
REMARK SMILES IDX 9 12 8 13 7 14 6 15 5 16 4 17 3 18 2 19 1 20
REMARK H PARENT
REMARK Flexibility Score: inf
ROOT
ATOM      1  C   UNL     1       7.030 -18.337  23.160  1.00  0.00     0.000 C 
ENDROOT
BRANCH   1   2
ATOM      2  C   UNL     1       7.412 -17.669  21.824  1.00  0.00     0.000 C 
BRANCH   2   3
ATOM      3  C   UNL     1       7.128 -16.159  21.750  1.00  0.00     0.000 C 
BRANCH   3   4
ATOM      4  C   UNL     1       6.752 -15.555  23.115  1.00  0.00     0.000 C 
BRANCH   4   5
ATOM      5  C   UNL     1       7.879 -14.695  23.709  1.00  0.00     0.000 C 
BRANCH   5   6
ATOM      6  C   UNL     1       8.606 -15.397  24.869  1.00  0.00     0.000 C 
BRANCH   6   7
ATOM      7  C   UNL     1      10.086 -15.672  24.558  1.00  0.00     0.006 C 
BRANCH   7   8
ATOM      8  C   UNL     1      10.529 -15.068  23.220  1.00  0.00     0.053 C 
BRANCH   8   9
ATOM      9  C   UNL     1      12.001 -15.253  23.025  1.00  0.00     0.041 C 
ATOM     10  O   UNL     1      12.611 -14.598  22.140  1.00  0.00    -0.550 OA
ATOM     11  O   UNL     1      12.691 -16.185  23.790  1.00  0.00    -0.550 OA
ENDBRANCH   8   9
ENDBRANCH   7   8
ENDBRANCH   6   7
ENDBRANCH   5   6
ENDBRANCH   4   5
ENDBRANCH   3   4
ENDBRANCH   2   3
ENDBRANCH   1   2
BRANCH   1  12
ATOM     12  C   UNL     1       6.934 -19.875  23.116  1.00  0.00     0.000 C 
BRANCH  12  13
ATOM     13  C   UNL     1       6.737 -20.476  21.710  1.00  0.00    -0.000 C 
BRANCH  13  14
ATOM     14  C   UNL     1       7.724 -21.597  21.333  1.00  0.00    -0.000 C 
BRANCH  14  15
ATOM     15  C   UNL     1       8.643 -21.215  20.161  1.00  0.00    -0.000 C 
BRANCH  15  16
ATOM     16  C   UNL     1      10.056 -20.809  20.617  1.00  0.00    -0.000 C 
BRANCH  16  17
ATOM     17  C   UNL     1      10.449 -19.348  20.317  1.00  0.00    -0.000 C 
BRANCH  17  18
ATOM     18  C   UNL     1      10.859 -18.513  21.547  1.00  0.00    -0.000 C 
BRANCH  18  19
ATOM     19  C   UNL     1      10.640 -19.210  22.901  1.00  0.00    -0.003 C 
ATOM     20  C   UNL     1      11.950 -19.554  23.611  1.00  0.00     0.004 C 
ENDBRANCH  18  19
ENDBRANCH  17  18
ENDBRANCH  16  17
ENDBRANCH  15  16
ENDBRANCH  14  15
ENDBRANCH  13  14
ENDBRANCH  12  13
ENDBRANCH   1  12
TORSDOF 16
ENDMDL
MODEL 7
REMARK VINA RESULT:    -3.784      2.143      4.742
REMARK INTER + INTRA:         -10.328
REMARK INTER:                  -7.209
REMARK INTRA:                  -3.119
REMARK UNBOUND:                -3.005
REMARK SMILES CCCCCCCCCCCCCCCCCC(=O)[O-]
REMARK SMILES IDX 10 1 11 2 12 3 13 4 14 5 15 6 16 7 17 8 18 9 19 10 20 11
REMARK SMILES IDX 9 12 8 13 7 14 6 15 5 16 4 17 3 18 2 19 1 20
REMARK H PARENT
REMARK Flexibility Score: inf
ROOT
ATOM      1  C   UNL     1       6.385 -17.258  23.896  1.00  0.00     0.000 C 
ENDROOT
BRANCH   1   2
ATOM      2  C   UNL     1       7.434 -16.129  23.917  1.00  0.00     0.000 C 
BRANCH   2   3
ATOM      3  C   UNL     1       7.759 -15.522  22.540  1.00  0.00     0.000 C 
BRANCH   3   4
ATOM      4  C   UNL     1       7.146 -16.320  21.376  1.00  0.00     0.000 C 
BRANCH   4   5
ATOM      5  C   UNL     1       8.213 -16.993  20.499  1.00  0.00     0.000 C 
BRANCH   5   6
ATOM      6  C   UNL     1       9.645 -16.678  20.965  1.00  0.00     0.000 C 
BRANCH   6   7
ATOM      7  C   UNL     1      10.476 -17.945  21.217  1.00  0.00     0.006 C 
BRANCH   7   8
ATOM      8  C   UNL     1      10.092 -18.652  22.522  1.00  0.00     0.053 C 
BRANCH   8   9
ATOM      9  C   UNL     1      10.797 -18.023  23.683  1.00  0.00     0.041 C 
ATOM     10  O   UNL     1      11.929 -17.496  23.528  1.00  0.00    -0.550 OA
ATOM     11  O   UNL     1      10.223 -18.063  24.948  1.00  0.00    -0.550 OA
ENDBRANCH   8   9
ENDBRANCH   7   8
ENDBRANCH   6   7
ENDBRANCH   5   6
ENDBRANCH   4   5
ENDBRANCH   3   4
ENDBRANCH   2   3
ENDBRANCH   1   2
BRANCH   1  12
ATOM     12  C   UNL     1       6.750 -18.501  24.733  1.00  0.00     0.000 C 
BRANCH  12  13
ATOM     13  C   UNL     1       7.018 -19.781  23.917  1.00  0.00    -0.000 C 
BRANCH  13  14
ATOM     14  C   UNL     1       6.075 -20.006  22.721  1.00  0.00    -0.000 C 
BRANCH  14  15
ATOM     15  C   UNL     1       6.828 -20.203  21.394  1.00  0.00    -0.000 C 
BRANCH  15  16
ATOM     16  C   UNL     1       7.598 -21.535  21.336  1.00  0.00    -0.000 C 
BRANCH  16  17
ATOM     17  C   UNL     1       8.670 -21.626  20.231  1.00  0.00    -0.000 C 
BRANCH  17  18
ATOM     18  C   UNL     1       8.683 -20.452  19.232  1.00  0.00    -0.000 C 
BRANCH  18  19
ATOM     19  C   UNL     1       9.868 -20.453  18.250  1.00  0.00    -0.003 C 
ATOM     20  C   UNL     1      10.135 -19.078  17.638  1.00  0.00     0.004 C 
ENDBRANCH  18  19
ENDBRANCH  17  18
ENDBRANCH  16  17
ENDBRANCH  15  16
ENDBRANCH  14  15
ENDBRANCH  13  14
ENDBRANCH  12  13
ENDBRANCH   1  12
TORSDOF 16
ENDMDL
MODEL 8
REMARK VINA RESULT:    -3.776      2.644      4.896
REMARK INTER + INTRA:         -10.313
REMARK INTER:                  -7.447
REMARK INTRA:                  -2.866
REMARK UNBOUND:                -3.005
REMARK SMILES CCCCCCCCCCCCCCCCCC(=O)[O-]
REMARK SMILES IDX 10 1 11 2 12 3 13 4 14 5 15 6 16 7 17 8 18 9 19 10 20 11
REMARK SMILES IDX 9 12 8 13 7 14 6 15 5 16 4 17 3 18 2 19 1 20
REMARK H PARENT
REMARK Flexibility Score: inf
ROOT
ATOM      1  C   UNL     1       9.009 -15.148  25.116  1.00  0.00     0.000 C 
ENDROOT
BRANCH   1   2
ATOM      2  C   UNL     1       8.760 -15.368  23.610  1.00  0.00     0.000 C 
BRANCH   2   3
ATOM      3  C   UNL     1       7.301 -15.680  23.234  1.00  0.00     0.000 C 
BRANCH   3   4
ATOM      4  C   UNL     1       7.100 -17.134  22.773  1.00  0.00     0.000 C 
BRANCH   4   5
ATOM      5  C   UNL     1       6.471 -18.015  23.863  1.00  0.00     0.000 C 
BRANCH   5   6
ATOM      6  C   UNL     1       6.729 -19.515  23.630  1.00  0.00     0.000 C 
BRANCH   6   7
ATOM      7  C   UNL     1       6.603 -19.912  22.150  1.00  0.00     0.006 C 
BRANCH   7   8
ATOM      8  C   UNL     1       7.633 -20.969  21.735  1.00  0.00     0.053 C 
BRANCH   8   9
ATOM      9  C   UNL     1       8.260 -20.602  20.426  1.00  0.00     0.041 C 
ATOM     10  O   UNL     1       8.633 -21.501  19.628  1.00  0.00    -0.550 OA
ATOM     11  O   UNL     1       8.474 -19.267  20.108  1.00  0.00    -0.550 OA
ENDBRANCH   8   9
ENDBRANCH   7   8
ENDBRANCH   6   7
ENDBRANCH   5   6
ENDBRANCH   4   5
ENDBRANCH   3   4
ENDBRANCH   2   3
ENDBRANCH   1   2
BRANCH   1  12
ATOM     12  C   UNL     1       9.969 -16.161  25.772  1.00  0.00     0.000 C 
BRANCH  12  13
ATOM     13  C   UNL     1       9.593 -17.642  25.571  1.00  0.00    -0.000 C 
BRANCH  13  14
ATOM     14  C   UNL     1      10.656 -18.498  24.858  1.00  0.00    -0.000 C 
BRANCH  14  15
ATOM     15  C   UNL     1      10.302 -18.793  23.391  1.00  0.00    -0.000 C 
BRANCH  15  16
ATOM     16  C   UNL     1      11.163 -17.994  22.396  1.00  0.00    -0.000 C 
BRANCH  16  17
ATOM     17  C   UNL     1      12.687 -18.134  22.586  1.00  0.00    -0.000 C 
BRANCH  17  18
ATOM     18  C   UNL     1      13.430 -16.822  22.910  1.00  0.00    -0.000 C 
BRANCH  18  19
ATOM     19  C   UNL     1      12.518 -15.629  23.244  1.00  0.00    -0.003 C 
ATOM     20  C   UNL     1      12.760 -14.423  22.337  1.00  0.00     0.004 C 
ENDBRANCH  18  19
ENDBRANCH  17  18
ENDBRANCH  16  17
ENDBRANCH  15  16
ENDBRANCH  14  15
ENDBRANCH  13  14
ENDBRANCH  12  13
ENDBRANCH   1  12
TORSDOF 16
ENDMDL
MODEL 9
REMARK VINA RESULT:    -3.770      2.251      5.210
REMARK INTER + INTRA:         -10.300
REMARK INTER:                  -7.155
REMARK INTRA:                  -3.145
REMARK UNBOUND:                -3.005
REMARK SMILES CCCCCCCCCCCCCCCCCC(=O)[O-]
REMARK SMILES IDX 10 1 11 2 12 3 13 4 14 5 15 6 16 7 17 8 18 9 19 10 20 11
REMARK SMILES IDX 9 12 8 13 7 14 6 15 5 16 4 17 3 18 2 19 1 20
REMARK H PARENT
REMARK Flexibility Score: inf
ROOT
ATOM      1  C   UNL     1       9.875 -20.674  20.463  1.00  0.00     0.000 C 
ENDROOT
BRANCH   1   2
ATOM      2  C   UNL     1       9.003 -21.035  21.682  1.00  0.00     0.000 C 
BRANCH   2   3
ATOM      3  C   UNL     1       7.493 -21.116  21.397  1.00  0.00     0.000 C 
BRANCH   3   4
ATOM      4  C   UNL     1       6.686 -20.037  22.141  1.00  0.00     0.000 C 
BRANCH   4   5
ATOM      5  C   UNL     1       6.945 -20.049  23.655  1.00  0.00     0.000 C 
BRANCH   5   6
ATOM      6  C   UNL     1       6.816 -18.651  24.286  1.00  0.00     0.000 C 
BRANCH   6   7
ATOM      7  C   UNL     1       8.070 -18.241  25.073  1.00  0.00     0.006 C 
BRANCH   7   8
ATOM      8  C   UNL     1       7.963 -16.828  25.657  1.00  0.00     0.053 C 
BRANCH   8   9
ATOM      9  C   UNL     1       9.270 -16.109  25.529  1.00  0.00     0.041 C 
ATOM     10  O   UNL     1       9.368 -15.101  24.782  1.00  0.00    -0.550 OA
ATOM     11  O   UNL     1      10.392 -16.583  26.197  1.00  0.00    -0.550 OA
ENDBRANCH   8   9
ENDBRANCH   7   8
ENDBRANCH   6   7
ENDBRANCH   5   6
ENDBRANCH   4   5
ENDBRANCH   3   4
ENDBRANCH   2   3
ENDBRANCH   1   2
BRANCH   1  12
ATOM     12  C   UNL     1       9.146 -20.714  19.106  1.00  0.00     0.000 C 
BRANCH  12  13
ATOM     13  C   UNL     1       9.620 -19.666  18.079  1.00  0.00    -0.000 C 
BRANCH  13  14
ATOM     14  C   UNL     1       8.882 -18.316  18.132  1.00  0.00    -0.000 C 
BRANCH  14  15
ATOM     15  C   UNL     1       7.440 -18.442  18.651  1.00  0.00    -0.000 C 
BRANCH  15  16
ATOM     16  C   UNL     1       7.131 -17.469  19.803  1.00  0.00    -0.000 C 
BRANCH  16  17
ATOM     17  C   UNL     1       8.327 -16.623  20.287  1.00  0.00    -0.000 C 
BRANCH  17  18
ATOM     18  C   UNL     1       8.911 -17.036  21.653  1.00  0.00    -0.000 C 
BRANCH  18  19
ATOM     19  C   UNL     1      10.444 -17.170  21.686  1.00  0.00    -0.003 C 
ATOM     20  C   UNL     1      10.938 -18.076  22.813  1.00  0.00     0.004 C 
ENDBRANCH  18  19
ENDBRANCH  17  18
ENDBRANCH  16  17
ENDBRANCH  15  16
ENDBRANCH  14  15
ENDBRANCH  13  14
ENDBRANCH  12  13
ENDBRANCH   1  12
TORSDOF 16
ENDMDL
