MODEL 1
REMARK VINA RESULT:    -3.588      0.000      0.000
REMARK INTER + INTRA:          -4.618
REMARK INTER:                  -4.427
REMARK INTRA:                  -0.191
REMARK UNBOUND:                -0.191
REMARK SMILES CCCCCC(=O)[O-]
REMARK SMILES IDX 4 1 5 2 6 3 7 4 8 5 3 6 2 7 1 8
REMARK H PARENT
REMARK Flexibility Score: inf
ROOT
ATOM      1  C   UNL     1      11.343  -8.625 -44.732  1.00  0.00     0.006 C 
ENDROOT
BRANCH   1   2
ATOM      2  C   UNL     1      12.099  -9.849 -44.185  1.00  0.00     0.053 C 
BRANCH   2   3
ATOM      3  C   UNL     1      11.207 -11.039 -43.999  1.00  0.00     0.041 C 
ATOM      4  O   UNL     1      10.955 -11.467 -42.843  1.00  0.00    -0.550 OA
ATOM      5  O   UNL     1      10.620 -11.651 -45.100  1.00  0.00    -0.550 OA
ENDBRANCH   2   3
ENDBRANCH   1   2
BRANCH   1   6
ATOM      6  C   UNL     1       9.942  -8.430 -44.123  1.00  0.00     0.000 C 
BRANCH   6   7
ATOM      7  C   UNL     1       9.882  -7.488 -42.908  1.00  0.00    -0.003 C 
ATOM      8  C   UNL     1      10.160  -8.202 -41.585  1.00  0.00     0.004 C 
ENDBRANCH   6   7
ENDBRANCH   1   6
TORSDOF 4
ENDMDL
MODEL 2
REMARK VINA RESULT:    -3.556      1.206      1.666
REMARK INTER + INTRA:          -4.578
REMARK INTER:                  -4.497
REMARK INTRA:                  -0.081
REMARK UNBOUND:                -0.191
REMARK SMILES CCCCCC(=O)[O-]
REMARK SMILES IDX 4 1 5 2 6 3 7 4 8 5 3 6 2 7 1 8
REMARK H PARENT
REMARK Flexibility Score: inf
ROOT
ATOM      1  C   UNL     1      12.126  -9.590 -44.261  1.00  0.00     0.006 C 
ENDROOT
BRANCH   1   2
ATOM      2  C   UNL     1      11.379 -10.936 -44.264  1.00  0.00     0.053 C 
BRANCH   2   3
ATOM      3  C   UNL     1      11.981 -11.930 -43.317  1.00  0.00     0.041 C 
ATOM      4  O   UNL     1      13.202 -11.862 -43.020  1.00  0.00    -0.550 OA
ATOM      5  O   UNL     1      11.186 -12.907 -42.730  1.00  0.00    -0.550 OA
ENDBRANCH   2   3
ENDBRANCH   1   2
BRANCH   1   6
ATOM      6  C   UNL     1      11.273  -8.398 -44.735  1.00  0.00     0.000 C 
BRANCH   6   7
ATOM      7  C   UNL     1      10.052  -8.077 -43.857  1.00  0.00    -0.003 C 
ATOM      8  C   UNL     1      10.384  -8.030 -42.365  1.00  0.00     0.004 C 
ENDBRANCH   6   7
ENDBRANCH   1   6
TORSDOF 4
ENDMDL
MODEL 3
REMARK VINA RESULT:    -3.460      1.468      1.984
REMARK INTER + INTRA:          -4.461
REMARK INTER:                  -4.361
REMARK INTRA:                  -0.099
REMARK UNBOUND:                -0.191
REMARK SMILES CCCCCC(=O)[O-]
REMARK SMILES IDX 4 1 5 2 6 3 7 4 8 5 3 6 2 7 1 8
REMARK H PARENT
REMARK Flexibility Score: inf
ROOT
ATOM      1  C   UNL     1      11.325 -10.272 -44.499  1.00  0.00     0.006 C 
ENDROOT
BRANCH   1   2
ATOM      2  C   UNL     1      11.287 -11.026 -43.157  1.00  0.00     0.053 C 
BRANCH   2   3
ATOM      3  C   UNL     1      12.292 -12.137 -43.095  1.00  0.00     0.041 C 
ATOM      4  O   UNL     1      11.910 -13.334 -43.023  1.00  0.00    -0.550 OA
ATOM      5  O   UNL     1      13.651 -11.854 -43.158  1.00  0.00    -0.550 OA
ENDBRANCH   2   3
ENDBRANCH   1   2
BRANCH   1   6
ATOM      6  C   UNL     1      11.393  -8.739 -44.354  1.00  0.00     0.000 C 
BRANCH   6   7
ATOM      7  C   UNL     1      10.064  -8.056 -43.990  1.00  0.00    -0.003 C 
ATOM      8  C   UNL     1       9.989  -7.641 -42.520  1.00  0.00     0.004 C 
ENDBRANCH   6   7
ENDBRANCH   1   6
TORSDOF 4
ENDMDL
MODEL 4
REMARK VINA RESULT:    -3.448      2.444      3.670
REMARK INTER + INTRA:          -4.446
REMARK INTER:                  -4.237
REMARK INTRA:                  -0.209
REMARK UNBOUND:                -0.191
REMARK SMILES CCCCCC(=O)[O-]
REMARK SMILES IDX 4 1 5 2 6 3 7 4 8 5 3 6 2 7 1 8
REMARK H PARENT
REMARK Flexibility Score: inf
ROOT
ATOM      1  C   UNL     1      11.566 -10.063 -44.271  1.00  0.00     0.006 C 
ENDROOT
BRANCH   1   2
ATOM      2  C   UNL     1      11.244  -8.563 -44.406  1.00  0.00     0.053 C 
BRANCH   2   3
ATOM      3  C   UNL     1      10.366  -8.063 -43.299  1.00  0.00     0.041 C 
ATOM      4  O   UNL     1       9.388  -7.313 -43.555  1.00  0.00    -0.550 OA
ATOM      5  O   UNL     1      10.603  -8.456 -41.987  1.00  0.00    -0.550 OA
ENDBRANCH   2   3
ENDBRANCH   1   2
BRANCH   1   6
ATOM      6  C   UNL     1      10.330 -10.979 -44.354  1.00  0.00     0.000 C 
BRANCH   6   7
ATOM      7  C   UNL     1       9.610 -10.986 -45.713  1.00  0.00    -0.003 C 
ATOM      8  C   UNL     1       8.140 -10.579 -45.613  1.00  0.00     0.004 C 
ENDBRANCH   6   7
ENDBRANCH   1   6
TORSDOF 4
ENDMDL
MODEL 5
REMARK VINA RESULT:    -3.428      1.318      1.832
REMARK INTER + INTRA:          -4.421
REMARK INTER:                  -4.263
REMARK INTRA:                  -0.158
REMARK UNBOUND:                -0.191
REMARK SMILES CCCCCC(=O)[O-]
REMARK SMILES IDX 4 1 5 2 6 3 7 4 8 5 3 6 2 7 1 8
REMARK H PARENT
REMARK Flexibility Score: inf
ROOT
ATOM      1  C   UNL     1      11.821  -9.883 -44.237  1.00  0.00     0.006 C 
ENDROOT
BRANCH   1   2
ATOM      2  C   UNL     1      10.743 -10.965 -44.046  1.00  0.00     0.053 C 
BRANCH   2   3
ATOM      3  C   UNL     1      10.330 -11.600 -45.340  1.00  0.00     0.041 C 
ATOM      4  O   UNL     1       9.424 -11.079 -46.040  1.00  0.00    -0.550 OA
ATOM      5  O   UNL     1      10.975 -12.744 -45.794  1.00  0.00    -0.550 OA
ENDBRANCH   2   3
ENDBRANCH   1   2
BRANCH   1   6
ATOM      6  C   UNL     1      11.259  -8.492 -44.585  1.00  0.00     0.000 C 
BRANCH   6   7
ATOM      7  C   UNL     1       9.927  -8.136 -43.904  1.00  0.00    -0.003 C 
ATOM      8  C   UNL     1      10.089  -7.769 -42.429  1.00  0.00     0.004 C 
ENDBRANCH   6   7
ENDBRANCH   1   6
TORSDOF 4
ENDMDL
MODEL 6
REMARK VINA RESULT:    -3.365      2.312      3.833
REMARK INTER + INTRA:          -4.343
REMARK INTER:                  -4.180
REMARK INTRA:                  -0.163
REMARK UNBOUND:                -0.191
REMARK SMILES CCCCCC(=O)[O-]
REMARK SMILES IDX 4 1 5 2 6 3 7 4 8 5 3 6 2 7 1 8
REMARK H PARENT
REMARK Flexibility Score: inf
ROOT
ATOM      1  C   UNL     1      10.482 -10.087 -44.635  1.00  0.00     0.006 C 
ENDROOT
BRANCH   1   2
ATOM      2  C   UNL     1      11.222  -8.866 -44.058  1.00  0.00     0.053 C 
BRANCH   2   3
ATOM      3  C   UNL     1      10.389  -8.103 -43.073  1.00  0.00     0.041 C 
ATOM      4  O   UNL     1       9.556  -7.250 -43.474  1.00  0.00    -0.550 OA
ATOM      5  O   UNL     1      10.503  -8.363 -41.712  1.00  0.00    -0.550 OA
ENDBRANCH   2   3
ENDBRANCH   1   2
BRANCH   1   6
ATOM      6  C   UNL     1      11.232 -11.420 -44.448  1.00  0.00     0.000 C 
BRANCH   6   7
ATOM      7  C   UNL     1      12.078 -11.521 -43.168  1.00  0.00    -0.003 C 
ATOM      8  C   UNL     1      13.537 -11.888 -43.444  1.00  0.00     0.004 C 
ENDBRANCH   6   7
ENDBRANCH   1   6
TORSDOF 4
ENDMDL
MODEL 7
REMARK VINA RESULT:    -3.352      1.791      2.658
REMARK INTER + INTRA:          -4.327
REMARK INTER:                  -4.116
REMARK INTRA:                  -0.211
REMARK UNBOUND:                -0.191
REMARK SMILES CCCCCC(=O)[O-]
REMARK SMILES IDX 4 1 5 2 6 3 7 4 8 5 3 6 2 7 1 8
REMARK H PARENT
REMARK Flexibility Score: inf
ROOT
ATOM      1  C   UNL     1      10.867 -10.606 -43.895  1.00  0.00     0.006 C 
ENDROOT
BRANCH   1   2
ATOM      2  C   UNL     1      10.623 -11.666 -44.985  1.00  0.00     0.053 C 
BRANCH   2   3
ATOM      3  C   UNL     1       9.297 -11.496 -45.664  1.00  0.00     0.041 C 
ATOM      4  O   UNL     1       8.887 -12.363 -46.478  1.00  0.00    -0.550 OA
ATOM      5  O   UNL     1       8.495 -10.401 -45.366  1.00  0.00    -0.550 OA
ENDBRANCH   2   3
ENDBRANCH   1   2
BRANCH   1   6
ATOM      6  C   UNL     1      11.847  -9.492 -44.312  1.00  0.00     0.000 C 
BRANCH   6   7
ATOM      7  C   UNL     1      11.197  -8.135 -44.630  1.00  0.00    -0.003 C 
ATOM      8  C   UNL     1      10.060  -7.778 -43.672  1.00  0.00     0.004 C 
ENDBRANCH   6   7
ENDBRANCH   1   6
TORSDOF 4
ENDMDL
MODEL 8
REMARK VINA RESULT:    -3.342      2.171      2.825
REMARK INTER + INTRA:          -4.315
REMARK INTER:                  -4.214
REMARK INTRA:                  -0.101
REMARK UNBOUND:                -0.191
REMARK SMILES CCCCCC(=O)[O-]
REMARK SMILES IDX 4 1 5 2 6 3 7 4 8 5 3 6 2 7 1 8
REMARK H PARENT
REMARK Flexibility Score: inf
ROOT
ATOM      1  C   UNL     1      11.638 -10.751 -44.305  1.00  0.00     0.006 C 
ENDROOT
BRANCH   1   2
ATOM      2  C   UNL     1      12.352 -11.616 -43.249  1.00  0.00     0.053 C 
BRANCH   2   3
ATOM      3  C   UNL     1      13.696 -12.093 -43.712  1.00  0.00     0.041 C 
ATOM      4  O   UNL     1      13.800 -12.763 -44.772  1.00  0.00    -0.550 OA
ATOM      5  O   UNL     1      14.839 -11.764 -42.994  1.00  0.00    -0.550 OA
ENDBRANCH   2   3
ENDBRANCH   1   2
BRANCH   1   6
ATOM      6  C   UNL     1      11.965  -9.249 -44.208  1.00  0.00     0.000 C 
BRANCH   6   7
ATOM      7  C   UNL     1      10.793  -8.303 -44.519  1.00  0.00    -0.003 C 
ATOM      8  C   UNL     1      10.068  -7.818 -43.263  1.00  0.00     0.004 C 
ENDBRANCH   6   7
ENDBRANCH   1   6
TORSDOF 4
ENDMDL
MODEL 9
REMARK VINA RESULT:    -3.336      2.804      4.371
REMARK INTER + INTRA:          -4.307
REMARK INTER:                  -4.170
REMARK INTRA:                  -0.137
REMARK UNBOUND:                -0.191
REMARK SMILES CCCCCC(=O)[O-]
REMARK SMILES IDX 4 1 5 2 6 3 7 4 8 5 3 6 2 7 1 8
REMARK H PARENT
REMARK Flexibility Score: inf
ROOT
ATOM      1  C   UNL     1      11.996 -11.389 -44.098  1.00  0.00     0.006 C 
ENDROOT
BRANCH   1   2
ATOM      2  C   UNL     1      11.312 -10.167 -43.457  1.00  0.00     0.053 C 
BRANCH   2   3
ATOM      3  C   UNL     1      11.567  -8.901 -44.219  1.00  0.00     0.041 C 
ATOM      4  O   UNL     1      12.668  -8.723 -44.802  1.00  0.00    -0.550 OA
ATOM      5  O   UNL     1      10.573  -7.935 -44.321  1.00  0.00    -0.550 OA
ENDBRANCH   2   3
ENDBRANCH   1   2
BRANCH   1   6
ATOM      6  C   UNL     1      13.196 -11.928 -43.296  1.00  0.00     0.000 C 
BRANCH   6   7
ATOM      7  C   UNL     1      14.578 -11.603 -43.888  1.00  0.00    -0.003 C 
ATOM      8  C   UNL     1      15.724 -11.870 -42.911  1.00  0.00     0.004 C 
ENDBRANCH   6   7
ENDBRANCH   1   6
TORSDOF 4
ENDMDL
