MODEL 1
REMARK VINA RESULT:    -3.393      0.000      0.000
REMARK INTER + INTRA:         -12.838
REMARK INTER:                  -8.551
REMARK INTRA:                  -4.287
REMARK UNBOUND:                -4.287
REMARK SMILES CCCCCCCCCCCCCCCCCCCCCCCCCCCC(=O)[O-]
REMARK SMILES IDX 15 1 16 2 17 3 18 4 19 5 20 6 21 7 22 8 23 9 24 10 25 11
REMARK SMILES IDX 26 12 27 13 28 14 29 15 30 16 14 17 13 18 12 19 11 20 10 21
REMARK SMILES IDX 9 22 8 23 7 24 6 25 5 26 4 27 3 28 2 29 1 30
REMARK H PARENT
REMARK Flexibility Score: inf
ROOT
ATOM      1  C   UNL     1      57.326   1.668  92.464  1.00  0.00     0.000 C 
ENDROOT
BRANCH   1   2
ATOM      2  C   UNL     1      57.618   0.171  92.700  1.00  0.00     0.000 C 
BRANCH   2   3
ATOM      3  C   UNL     1      59.104  -0.183  92.902  1.00  0.00     0.000 C 
BRANCH   3   4
ATOM      4  C   UNL     1      59.385  -1.680  93.146  1.00  0.00     0.000 C 
BRANCH   4   5
ATOM      5  C   UNL     1      60.492  -1.971  94.172  1.00  0.00     0.000 C 
BRANCH   5   6
ATOM      6  C   UNL     1      61.079  -0.687  94.783  1.00  0.00     0.000 C 
BRANCH   6   7
ATOM      7  C   UNL     1      60.737  -0.516  96.275  1.00  0.00     0.000 C 
BRANCH   7   8
ATOM      8  C   UNL     1      60.323   0.909  96.695  1.00  0.00     0.000 C 
BRANCH   8   9
ATOM      9  C   UNL     1      58.858   1.234  96.342  1.00  0.00     0.000 C 
BRANCH   9  10
ATOM     10  C   UNL     1      57.945   0.001  96.362  1.00  0.00     0.000 C 
BRANCH  10  11
ATOM     11  C   UNL     1      56.464   0.363  96.586  1.00  0.00     0.000 C 
BRANCH  11  12
ATOM     12  C   UNL     1      55.514  -0.628  95.875  1.00  0.00     0.006 C 
BRANCH  12  13
ATOM     13  C   UNL     1      55.764  -2.097  96.257  1.00  0.00     0.053 C 
BRANCH  13  14
ATOM     14  C   UNL     1      55.688  -3.013  95.073  1.00  0.00     0.041 C 
ATOM     15  O   UNL     1      56.747  -3.470  94.570  1.00  0.00    -0.550 OA
ATOM     16  O   UNL     1      54.455  -3.434  94.592  1.00  0.00    -0.550 OA
ENDBRANCH  13  14
ENDBRANCH  12  13
ENDBRANCH  11  12
ENDBRANCH  10  11
ENDBRANCH   9  10
ENDBRANCH   8   9
ENDBRANCH   7   8
ENDBRANCH   6   7
ENDBRANCH   5   6
ENDBRANCH   4   5
ENDBRANCH   3   4
ENDBRANCH   2   3
ENDBRANCH   1   2
BRANCH   1  17
ATOM     17  C   UNL     1      56.382   2.324  93.490  1.00  0.00     0.000 C 
BRANCH  17  18
ATOM     18  C   UNL     1      56.993   3.565  94.168  1.00  0.00     0.000 C 
BRANCH  18  19
ATOM     19  C   UNL     1      56.267   3.943  95.468  1.00  0.00     0.000 C 
BRANCH  19  20
ATOM     20  C   UNL     1      57.199   4.605  96.500  1.00  0.00     0.000 C 
BRANCH  20  21
ATOM     21  C   UNL     1      58.599   4.890  95.942  1.00  0.00     0.000 C 
BRANCH  21  22
ATOM     22  C   UNL     1      59.363   5.944  96.768  1.00  0.00    -0.000 C 
BRANCH  22  23
ATOM     23  C   UNL     1      60.721   6.332  96.144  1.00  0.00    -0.000 C 
BRANCH  23  24
ATOM     24  C   UNL     1      61.117   7.810  96.345  1.00  0.00    -0.000 C 
BRANCH  24  25
ATOM     25  C   UNL     1      60.947   8.712  95.112  1.00  0.00    -0.000 C 
BRANCH  25  26
ATOM     26  C   UNL     1      59.473   8.973  94.758  1.00  0.00    -0.000 C 
BRANCH  26  27
ATOM     27  C   UNL     1      59.138   8.610  93.299  1.00  0.00    -0.000 C 
BRANCH  27  28
ATOM     28  C   UNL     1      58.433   7.252  93.115  1.00  0.00    -0.000 C 
BRANCH  28  29
ATOM     29  C   UNL     1      58.585   6.686  91.695  1.00  0.00    -0.003 C 
ATOM     30  C   UNL     1      57.471   5.696  91.375  1.00  0.00     0.004 C 
ENDBRANCH  28  29
ENDBRANCH  27  28
ENDBRANCH  26  27
ENDBRANCH  25  26
ENDBRANCH  24  25
ENDBRANCH  23  24
ENDBRANCH  22  23
ENDBRANCH  21  22
ENDBRANCH  20  21
ENDBRANCH  19  20
ENDBRANCH  18  19
ENDBRANCH  17  18
ENDBRANCH   1  17
TORSDOF 26
ENDMDL
MODEL 2
REMARK VINA RESULT:    -3.360      3.643      7.396
REMARK INTER + INTRA:         -12.755
REMARK INTER:                  -7.491
REMARK INTRA:                  -5.264
REMARK UNBOUND:                -4.287
REMARK SMILES CCCCCCCCCCCCCCCCCCCCCCCCCCCC(=O)[O-]
REMARK SMILES IDX 15 1 16 2 17 3 18 4 19 5 20 6 21 7 22 8 23 9 24 10 25 11
REMARK SMILES IDX 26 12 27 13 28 14 29 15 30 16 14 17 13 18 12 19 11 20 10 21
REMARK SMILES IDX 9 22 8 23 7 24 6 25 5 26 4 27 3 28 2 29 1 30
REMARK H PARENT
REMARK Flexibility Score: inf
ROOT
ATOM      1  C   UNL     1      59.637  -1.746  93.416  1.00  0.00     0.000 C 
ENDROOT
BRANCH   1   2
ATOM      2  C   UNL     1      60.094  -0.446  94.112  1.00  0.00     0.000 C 
BRANCH   2   3
ATOM      3  C   UNL     1      61.062  -0.642  95.295  1.00  0.00     0.000 C 
BRANCH   3   4
ATOM      4  C   UNL     1      60.519  -0.172  96.660  1.00  0.00     0.000 C 
BRANCH   4   5
ATOM      5  C   UNL     1      60.342   1.348  96.798  1.00  0.00     0.000 C 
BRANCH   5   6
ATOM      6  C   UNL     1      58.880   1.749  97.055  1.00  0.00     0.000 C 
BRANCH   6   7
ATOM      7  C   UNL     1      58.055   1.893  95.762  1.00  0.00     0.000 C 
BRANCH   7   8
ATOM      8  C   UNL     1      56.757   1.062  95.715  1.00  0.00     0.000 C 
BRANCH   8   9
ATOM      9  C   UNL     1      56.742  -0.083  96.746  1.00  0.00     0.000 C 
BRANCH   9  10
ATOM     10  C   UNL     1      57.239  -1.418  96.173  1.00  0.00     0.000 C 
BRANCH  10  11
ATOM     11  C   UNL     1      56.270  -2.582  96.453  1.00  0.00     0.000 C 
BRANCH  11  12
ATOM     12  C   UNL     1      55.166  -2.686  95.376  1.00  0.00     0.006 C 
BRANCH  12  13
ATOM     13  C   UNL     1      53.992  -3.591  95.788  1.00  0.00     0.053 C 
BRANCH  13  14
ATOM     14  C   UNL     1      54.143  -4.989  95.269  1.00  0.00     0.041 C 
ATOM     15  O   UNL     1      53.421  -5.381  94.316  1.00  0.00    -0.550 OA
ATOM     16  O   UNL     1      55.136  -5.819  95.772  1.00  0.00    -0.550 OA
ENDBRANCH  13  14
ENDBRANCH  12  13
ENDBRANCH  11  12
ENDBRANCH  10  11
ENDBRANCH   9  10
ENDBRANCH   8   9
ENDBRANCH   7   8
ENDBRANCH   6   7
ENDBRANCH   5   6
ENDBRANCH   4   5
ENDBRANCH   3   4
ENDBRANCH   2   3
ENDBRANCH   1   2
BRANCH   1  17
ATOM     17  C   UNL     1      60.681  -2.878  93.384  1.00  0.00     0.000 C 
BRANCH  17  18
ATOM     18  C   UNL     1      60.947  -3.417  91.965  1.00  0.00     0.000 C 
BRANCH  18  19
ATOM     19  C   UNL     1      60.952  -4.953  91.910  1.00  0.00     0.000 C 
BRANCH  19  20
ATOM     20  C   UNL     1      60.120  -5.593  93.037  1.00  0.00     0.000 C 
BRANCH  20  21
ATOM     21  C   UNL     1      58.675  -5.889  92.615  1.00  0.00     0.000 C 
BRANCH  21  22
ATOM     22  C   UNL     1      57.651  -4.992  93.340  1.00  0.00    -0.000 C 
BRANCH  22  23
ATOM     23  C   UNL     1      56.495  -4.533  92.426  1.00  0.00    -0.000 C 
BRANCH  23  24
ATOM     24  C   UNL     1      56.744  -3.191  91.708  1.00  0.00    -0.000 C 
BRANCH  24  25
ATOM     25  C   UNL     1      57.326  -3.298  90.289  1.00  0.00    -0.000 C 
BRANCH  25  26
ATOM     26  C   UNL     1      58.328  -2.175  89.965  1.00  0.00    -0.000 C 
BRANCH  26  27
ATOM     27  C   UNL     1      57.669  -0.784  89.921  1.00  0.00    -0.000 C 
BRANCH  27  28
ATOM     28  C   UNL     1      58.501   0.347  90.555  1.00  0.00    -0.000 C 
BRANCH  28  29
ATOM     29  C   UNL     1      57.691   1.210  91.535  1.00  0.00    -0.003 C 
ATOM     30  C   UNL     1      56.665   0.371  92.288  1.00  0.00     0.004 C 
ENDBRANCH  28  29
ENDBRANCH  27  28
ENDBRANCH  26  27
ENDBRANCH  25  26
ENDBRANCH  24  25
ENDBRANCH  23  24
ENDBRANCH  22  23
ENDBRANCH  21  22
ENDBRANCH  20  21
ENDBRANCH  19  20
ENDBRANCH  18  19
ENDBRANCH  17  18
ENDBRANCH   1  17
TORSDOF 26
ENDMDL
MODEL 3
REMARK VINA RESULT:    -3.340      3.375      8.245
REMARK INTER + INTRA:         -12.703
REMARK INTER:                  -8.139
REMARK INTRA:                  -4.565
REMARK UNBOUND:                -4.287
REMARK SMILES CCCCCCCCCCCCCCCCCCCCCCCCCCCC(=O)[O-]
REMARK SMILES IDX 15 1 16 2 17 3 18 4 19 5 20 6 21 7 22 8 23 9 24 10 25 11
REMARK SMILES IDX 26 12 27 13 28 14 29 15 30 16 14 17 13 18 12 19 11 20 10 21
REMARK SMILES IDX 9 22 8 23 7 24 6 25 5 26 4 27 3 28 2 29 1 30
REMARK H PARENT
REMARK Flexibility Score: inf
ROOT
ATOM      1  C   UNL     1      59.626  -0.128  92.264  1.00  0.00     0.000 C 
ENDROOT
BRANCH   1   2
ATOM      2  C   UNL     1      58.198   0.169  91.761  1.00  0.00     0.000 C 
BRANCH   2   3
ATOM      3  C   UNL     1      57.389   1.153  92.627  1.00  0.00     0.000 C 
BRANCH   3   4
ATOM      4  C   UNL     1      56.974   2.455  91.910  1.00  0.00     0.000 C 
BRANCH   4   5
ATOM      5  C   UNL     1      56.610   3.619  92.845  1.00  0.00     0.000 C 
BRANCH   5   6
ATOM      6  C   UNL     1      56.088   3.137  94.209  1.00  0.00     0.000 C 
BRANCH   6   7
ATOM      7  C   UNL     1      56.903   3.684  95.396  1.00  0.00     0.000 C 
BRANCH   7   8
ATOM      8  C   UNL     1      57.995   4.709  95.026  1.00  0.00     0.000 C 
BRANCH   8   9
ATOM      9  C   UNL     1      58.801   5.190  96.249  1.00  0.00     0.000 C 
BRANCH   9  10
ATOM     10  C   UNL     1      58.962   6.716  96.302  1.00  0.00     0.000 C 
BRANCH  10  11
ATOM     11  C   UNL     1      60.406   7.149  96.621  1.00  0.00     0.000 C 
BRANCH  11  12
ATOM     12  C   UNL     1      61.098   7.792  95.398  1.00  0.00     0.006 C 
BRANCH  12  13
ATOM     13  C   UNL     1      60.957   6.964  94.110  1.00  0.00     0.053 C 
BRANCH  13  14
ATOM     14  C   UNL     1      60.230   7.709  93.031  1.00  0.00     0.041 C 
ATOM     15  O   UNL     1      59.558   8.731  93.324  1.00  0.00    -0.550 OA
ATOM     16  O   UNL     1      60.371   7.331  91.703  1.00  0.00    -0.550 OA
ENDBRANCH  13  14
ENDBRANCH  12  13
ENDBRANCH  11  12
ENDBRANCH  10  11
ENDBRANCH   9  10
ENDBRANCH   8   9
ENDBRANCH   7   8
ENDBRANCH   6   7
ENDBRANCH   5   6
ENDBRANCH   4   5
ENDBRANCH   3   4
ENDBRANCH   2   3
ENDBRANCH   1   2
BRANCH   1  17
ATOM     17  C   UNL     1      59.933  -1.612  92.537  1.00  0.00     0.000 C 
BRANCH  17  18
ATOM     18  C   UNL     1      60.243  -1.904  94.018  1.00  0.00     0.000 C 
BRANCH  18  19
ATOM     19  C   UNL     1      60.926  -0.721  94.721  1.00  0.00     0.000 C 
BRANCH  19  20
ATOM     20  C   UNL     1      60.226  -0.323  96.034  1.00  0.00     0.000 C 
BRANCH  20  21
ATOM     21  C   UNL     1      59.095   0.692  95.823  1.00  0.00     0.000 C 
BRANCH  21  22
ATOM     22  C   UNL     1      57.705   0.104  96.141  1.00  0.00    -0.000 C 
BRANCH  22  23
ATOM     23  C   UNL     1      57.759  -1.380  96.561  1.00  0.00    -0.000 C 
BRANCH  23  24
ATOM     24  C   UNL     1      56.385  -2.001  96.888  1.00  0.00    -0.000 C 
BRANCH  24  25
ATOM     25  C   UNL     1      55.880  -3.052  95.888  1.00  0.00    -0.000 C 
BRANCH  25  26
ATOM     26  C   UNL     1      56.657  -3.038  94.559  1.00  0.00    -0.000 C 
BRANCH  26  27
ATOM     27  C   UNL     1      55.942  -2.229  93.460  1.00  0.00    -0.000 C 
BRANCH  27  28
ATOM     28  C   UNL     1      54.520  -1.760  93.823  1.00  0.00    -0.000 C 
BRANCH  28  29
ATOM     29  C   UNL     1      54.399  -0.231  93.915  1.00  0.00    -0.003 C 
ATOM     30  C   UNL     1      53.904   0.200  95.291  1.00  0.00     0.004 C 
ENDBRANCH  28  29
ENDBRANCH  27  28
ENDBRANCH  26  27
ENDBRANCH  25  26
ENDBRANCH  24  25
ENDBRANCH  23  24
ENDBRANCH  22  23
ENDBRANCH  21  22
ENDBRANCH  20  21
ENDBRANCH  19  20
ENDBRANCH  18  19
ENDBRANCH  17  18
ENDBRANCH   1  17
TORSDOF 26
ENDMDL
MODEL 4
REMARK VINA RESULT:    -3.336      1.712      3.344
REMARK INTER + INTRA:         -12.693
REMARK INTER:                  -8.385
REMARK INTRA:                  -4.308
REMARK UNBOUND:                -4.287
REMARK SMILES CCCCCCCCCCCCCCCCCCCCCCCCCCCC(=O)[O-]
REMARK SMILES IDX 15 1 16 2 17 3 18 4 19 5 20 6 21 7 22 8 23 9 24 10 25 11
REMARK SMILES IDX 26 12 27 13 28 14 29 15 30 16 14 17 13 18 12 19 11 20 10 21
REMARK SMILES IDX 9 22 8 23 7 24 6 25 5 26 4 27 3 28 2 29 1 30
REMARK H PARENT
REMARK Flexibility Score: inf
ROOT
ATOM      1  C   UNL     1      55.294   0.202  93.555  1.00  0.00     0.000 C 
ENDROOT
BRANCH   1   2
ATOM      2  C   UNL     1      55.799  -1.252  93.659  1.00  0.00     0.000 C 
BRANCH   2   3
ATOM      3  C   UNL     1      55.993  -1.778  95.094  1.00  0.00     0.000 C 
BRANCH   3   4
ATOM      4  C   UNL     1      57.083  -1.050  95.908  1.00  0.00     0.000 C 
BRANCH   4   5
ATOM      5  C   UNL     1      56.575   0.118  96.768  1.00  0.00     0.000 C 
BRANCH   5   6
ATOM      6  C   UNL     1      57.549   1.308  96.776  1.00  0.00     0.000 C 
BRANCH   6   7
ATOM      7  C   UNL     1      58.832   1.045  95.965  1.00  0.00     0.000 C 
BRANCH   7   8
ATOM      8  C   UNL     1      60.092   0.757  96.805  1.00  0.00     0.000 C 
BRANCH   8   9
ATOM      9  C   UNL     1      60.934  -0.404  96.240  1.00  0.00     0.000 C 
BRANCH   9  10
ATOM     10  C   UNL     1      60.869  -0.507  94.710  1.00  0.00     0.000 C 
BRANCH  10  11
ATOM     11  C   UNL     1      60.785  -1.965  94.217  1.00  0.00     0.000 C 
BRANCH  11  12
ATOM     12  C   UNL     1      59.535  -2.206  93.341  1.00  0.00     0.006 C 
BRANCH  12  13
ATOM     13  C   UNL     1      59.112  -0.972  92.525  1.00  0.00     0.053 C 
BRANCH  13  14
ATOM     14  C   UNL     1      58.556  -1.341  91.183  1.00  0.00     0.041 C 
ATOM     15  O   UNL     1      58.056  -2.482  91.007  1.00  0.00    -0.550 OA
ATOM     16  O   UNL     1      58.504  -0.399  90.164  1.00  0.00    -0.550 OA
ENDBRANCH  13  14
ENDBRANCH  12  13
ENDBRANCH  11  12
ENDBRANCH  10  11
ENDBRANCH   9  10
ENDBRANCH   8   9
ENDBRANCH   7   8
ENDBRANCH   6   7
ENDBRANCH   5   6
ENDBRANCH   4   5
ENDBRANCH   3   4
ENDBRANCH   2   3
ENDBRANCH   1   2
BRANCH   1  17
ATOM     17  C   UNL     1      56.078   1.104  92.582  1.00  0.00     0.000 C 
BRANCH  17  18
ATOM     18  C   UNL     1      56.742   2.309  93.275  1.00  0.00     0.000 C 
BRANCH  18  19
ATOM     19  C   UNL     1      55.739   3.153  94.078  1.00  0.00     0.000 C 
BRANCH  19  20
ATOM     20  C   UNL     1      56.279   4.553  94.422  1.00  0.00     0.000 C 
BRANCH  20  21
ATOM     21  C   UNL     1      57.708   4.519  94.982  1.00  0.00     0.000 C 
BRANCH  21  22
ATOM     22  C   UNL     1      57.761   4.844  96.488  1.00  0.00    -0.000 C 
BRANCH  22  23
ATOM     23  C   UNL     1      59.197   5.063  97.009  1.00  0.00    -0.000 C 
BRANCH  23  24
ATOM     24  C   UNL     1      59.773   6.466  96.724  1.00  0.00    -0.000 C 
BRANCH  24  25
ATOM     25  C   UNL     1      60.889   6.521  95.669  1.00  0.00    -0.000 C 
BRANCH  25  26
ATOM     26  C   UNL     1      61.065   7.921  95.054  1.00  0.00    -0.000 C 
BRANCH  26  27
ATOM     27  C   UNL     1      60.684   7.968  93.562  1.00  0.00    -0.000 C 
BRANCH  27  28
ATOM     28  C   UNL     1      59.320   7.338  93.223  1.00  0.00    -0.000 C 
BRANCH  28  29
ATOM     29  C   UNL     1      59.157   7.033  91.726  1.00  0.00    -0.003 C 
ATOM     30  C   UNL     1      60.408   7.421  90.946  1.00  0.00     0.004 C 
ENDBRANCH  28  29
ENDBRANCH  27  28
ENDBRANCH  26  27
ENDBRANCH  25  26
ENDBRANCH  24  25
ENDBRANCH  23  24
ENDBRANCH  22  23
ENDBRANCH  21  22
ENDBRANCH  20  21
ENDBRANCH  19  20
ENDBRANCH  18  19
ENDBRANCH  17  18
ENDBRANCH   1  17
TORSDOF 26
ENDMDL
MODEL 5
REMARK VINA RESULT:    -3.304      1.817      3.706
REMARK INTER + INTRA:         -12.613
REMARK INTER:                  -8.336
REMARK INTRA:                  -4.277
REMARK UNBOUND:                -4.287
REMARK SMILES CCCCCCCCCCCCCCCCCCCCCCCCCCCC(=O)[O-]
REMARK SMILES IDX 15 1 16 2 17 3 18 4 19 5 20 6 21 7 22 8 23 9 24 10 25 11
REMARK SMILES IDX 26 12 27 13 28 14 29 15 30 16 14 17 13 18 12 19 11 20 10 21
REMARK SMILES IDX 9 22 8 23 7 24 6 25 5 26 4 27 3 28 2 29 1 30
REMARK H PARENT
REMARK Flexibility Score: inf
ROOT
ATOM      1  C   UNL     1      56.913  -1.511  92.888  1.00  0.00     0.000 C 
ENDROOT
BRANCH   1   2
ATOM      2  C   UNL     1      57.089  -2.407  94.132  1.00  0.00     0.000 C 
BRANCH   2   3
ATOM      3  C   UNL     1      56.607  -1.790  95.458  1.00  0.00     0.000 C 
BRANCH   3   4
ATOM      4  C   UNL     1      57.731  -1.262  96.373  1.00  0.00     0.000 C 
BRANCH   4   5
ATOM      5  C   UNL     1      57.871   0.268  96.409  1.00  0.00     0.000 C 
BRANCH   5   6
ATOM      6  C   UNL     1      59.265   0.741  95.964  1.00  0.00     0.000 C 
BRANCH   6   7
ATOM      7  C   UNL     1      60.382  -0.262  96.307  1.00  0.00     0.000 C 
BRANCH   7   8
ATOM      8  C   UNL     1      61.125  -0.859  95.094  1.00  0.00     0.000 C 
BRANCH   8   9
ATOM      9  C   UNL     1      60.387  -0.618  93.763  1.00  0.00     0.000 C 
BRANCH   9  10
ATOM     10  C   UNL     1      60.508  -1.794  92.785  1.00  0.00     0.000 C 
BRANCH  10  11
ATOM     11  C   UNL     1      60.717  -3.143  93.500  1.00  0.00     0.000 C 
BRANCH  11  12
ATOM     12  C   UNL     1      60.722  -4.327  92.507  1.00  0.00     0.006 C 
BRANCH  12  13
ATOM     13  C   UNL     1      59.402  -5.118  92.491  1.00  0.00     0.053 C 
BRANCH  13  14
ATOM     14  C   UNL     1      58.449  -4.612  91.451  1.00  0.00     0.041 C 
ATOM     15  O   UNL     1      58.891  -3.991  90.449  1.00  0.00    -0.550 OA
ATOM     16  O   UNL     1      57.095  -4.907  91.540  1.00  0.00    -0.550 OA
ENDBRANCH  13  14
ENDBRANCH  12  13
ENDBRANCH  11  12
ENDBRANCH  10  11
ENDBRANCH   9  10
ENDBRANCH   8   9
ENDBRANCH   7   8
ENDBRANCH   6   7
ENDBRANCH   5   6
ENDBRANCH   4   5
ENDBRANCH   3   4
ENDBRANCH   2   3
ENDBRANCH   1   2
BRANCH   1  17
ATOM     17  C   UNL     1      56.110  -0.217  93.117  1.00  0.00     0.000 C 
BRANCH  17  18
ATOM     18  C   UNL     1      56.965   1.058  92.982  1.00  0.00     0.000 C 
BRANCH  18  19
ATOM     19  C   UNL     1      56.205   2.324  93.408  1.00  0.00     0.000 C 
BRANCH  19  20
ATOM     20  C   UNL     1      57.047   3.252  94.302  1.00  0.00     0.000 C 
BRANCH  20  21
ATOM     21  C   UNL     1      56.381   3.543  95.654  1.00  0.00     0.000 C 
BRANCH  21  22
ATOM     22  C   UNL     1      57.267   4.401  96.579  1.00  0.00    -0.000 C 
BRANCH  22  23
ATOM     23  C   UNL     1      58.308   5.241  95.808  1.00  0.00    -0.000 C 
BRANCH  23  24
ATOM     24  C   UNL     1      59.677   5.361  96.510  1.00  0.00    -0.000 C 
BRANCH  24  25
ATOM     25  C   UNL     1      60.412   6.695  96.301  1.00  0.00    -0.000 C 
BRANCH  25  26
ATOM     26  C   UNL     1      60.942   6.869  94.867  1.00  0.00    -0.000 C 
BRANCH  26  27
ATOM     27  C   UNL     1      60.523   8.211  94.236  1.00  0.00    -0.000 C 
BRANCH  27  28
ATOM     28  C   UNL     1      59.195   8.786  94.763  1.00  0.00    -0.000 C 
BRANCH  28  29
ATOM     29  C   UNL     1      57.983   8.373  93.914  1.00  0.00    -0.003 C 
ATOM     30  C   UNL     1      56.685   8.902  94.512  1.00  0.00     0.004 C 
ENDBRANCH  28  29
ENDBRANCH  27  28
ENDBRANCH  26  27
ENDBRANCH  25  26
ENDBRANCH  24  25
ENDBRANCH  23  24
ENDBRANCH  22  23
ENDBRANCH  21  22
ENDBRANCH  20  21
ENDBRANCH  19  20
ENDBRANCH  18  19
ENDBRANCH  17  18
ENDBRANCH   1  17
TORSDOF 26
ENDMDL
MODEL 6
REMARK VINA RESULT:    -3.246      5.197      9.134
REMARK INTER + INTRA:         -12.466
REMARK INTER:                  -9.308
REMARK INTRA:                  -3.159
REMARK UNBOUND:                -4.287
REMARK SMILES CCCCCCCCCCCCCCCCCCCCCCCCCCCC(=O)[O-]
REMARK SMILES IDX 15 1 16 2 17 3 18 4 19 5 20 6 21 7 22 8 23 9 24 10 25 11
REMARK SMILES IDX 26 12 27 13 28 14 29 15 30 16 14 17 13 18 12 19 11 20 10 21
REMARK SMILES IDX 9 22 8 23 7 24 6 25 5 26 4 27 3 28 2 29 1 30
REMARK H PARENT
REMARK Flexibility Score: inf
ROOT
ATOM      1  C   UNL     1      57.886   3.759  95.639  1.00  0.00     0.000 C 
ENDROOT
BRANCH   1   2
ATOM      2  C   UNL     1      57.890   4.932  96.642  1.00  0.00     0.000 C 
BRANCH   2   3
ATOM      3  C   UNL     1      59.219   5.705  96.740  1.00  0.00     0.000 C 
BRANCH   3   4
ATOM      4  C   UNL     1      59.078   7.241  96.697  1.00  0.00     0.000 C 
BRANCH   4   5
ATOM      5  C   UNL     1      59.498   7.893  95.371  1.00  0.00     0.000 C 
BRANCH   5   6
ATOM      6  C   UNL     1      58.557   7.525  94.211  1.00  0.00     0.000 C 
BRANCH   6   7
ATOM      7  C   UNL     1      57.505   8.611  93.919  1.00  0.00     0.000 C 
BRANCH   7   8
ATOM      8  C   UNL     1      56.237   8.551  94.794  1.00  0.00     0.000 C 
BRANCH   8   9
ATOM      9  C   UNL     1      55.023   9.233  94.135  1.00  0.00     0.000 C 
BRANCH   9  10
ATOM     10  C   UNL     1      54.665  10.581  94.778  1.00  0.00     0.000 C 
BRANCH  10  11
ATOM     11  C   UNL     1      53.534  10.461  95.817  1.00  0.00     0.000 C 
BRANCH  11  12
ATOM     12  C   UNL     1      52.487  11.587  95.662  1.00  0.00     0.006 C 
BRANCH  12  13
ATOM     13  C   UNL     1      51.551  11.725  96.875  1.00  0.00     0.053 C 
BRANCH  13  14
ATOM     14  C   UNL     1      50.185  11.169  96.606  1.00  0.00     0.041 C 
ATOM     15  O   UNL     1      49.168  11.854  96.888  1.00  0.00    -0.550 OA
ATOM     16  O   UNL     1      50.041   9.948  95.962  1.00  0.00    -0.550 OA
ENDBRANCH  13  14
ENDBRANCH  12  13
ENDBRANCH  11  12
ENDBRANCH  10  11
ENDBRANCH   9  10
ENDBRANCH   8   9
ENDBRANCH   7   8
ENDBRANCH   6   7
ENDBRANCH   5   6
ENDBRANCH   4   5
ENDBRANCH   3   4
ENDBRANCH   2   3
ENDBRANCH   1   2
BRANCH   1  17
ATOM     17  C   UNL     1      57.070   2.526  96.072  1.00  0.00     0.000 C 
BRANCH  17  18
ATOM     18  C   UNL     1      57.947   1.377  96.606  1.00  0.00     0.000 C 
BRANCH  18  19
ATOM     19  C   UNL     1      59.337   1.856  97.053  1.00  0.00     0.000 C 
BRANCH  19  20
ATOM     20  C   UNL     1      60.444   0.825  96.764  1.00  0.00     0.000 C 
BRANCH  20  21
ATOM     21  C   UNL     1      59.921  -0.422  96.039  1.00  0.00     0.000 C 
BRANCH  21  22
ATOM     22  C   UNL     1      60.768  -0.787  94.803  1.00  0.00    -0.000 C 
BRANCH  22  23
ATOM     23  C   UNL     1      59.923  -0.973  93.526  1.00  0.00    -0.000 C 
BRANCH  23  24
ATOM     24  C   UNL     1      58.910   0.159  93.260  1.00  0.00    -0.000 C 
BRANCH  24  25
ATOM     25  C   UNL     1      57.429  -0.245  93.346  1.00  0.00    -0.000 C 
BRANCH  25  26
ATOM     26  C   UNL     1      56.491   0.763  92.659  1.00  0.00    -0.000 C 
BRANCH  26  27
ATOM     27  C   UNL     1      57.252   1.922  91.986  1.00  0.00    -0.000 C 
BRANCH  27  28
ATOM     28  C   UNL     1      56.396   3.166  91.680  1.00  0.00    -0.000 C 
BRANCH  28  29
ATOM     29  C   UNL     1      57.004   4.462  92.236  1.00  0.00    -0.003 C 
ATOM     30  C   UNL     1      55.934   5.344  92.871  1.00  0.00     0.004 C 
ENDBRANCH  28  29
ENDBRANCH  27  28
ENDBRANCH  26  27
ENDBRANCH  25  26
ENDBRANCH  24  25
ENDBRANCH  23  24
ENDBRANCH  22  23
ENDBRANCH  21  22
ENDBRANCH  20  21
ENDBRANCH  19  20
ENDBRANCH  18  19
ENDBRANCH  17  18
ENDBRANCH   1  17
TORSDOF 26
ENDMDL
MODEL 7
REMARK VINA RESULT:    -3.224      1.330      2.391
REMARK INTER + INTRA:         -12.412
REMARK INTER:                  -7.583
REMARK INTRA:                  -4.829
REMARK UNBOUND:                -4.287
REMARK SMILES CCCCCCCCCCCCCCCCCCCCCCCCCCCC(=O)[O-]
REMARK SMILES IDX 15 1 16 2 17 3 18 4 19 5 20 6 21 7 22 8 23 9 24 10 25 11
REMARK SMILES IDX 26 12 27 13 28 14 29 15 30 16 14 17 13 18 12 19 11 20 10 21
REMARK SMILES IDX 9 22 8 23 7 24 6 25 5 26 4 27 3 28 2 29 1 30
REMARK H PARENT
REMARK Flexibility Score: inf
ROOT
ATOM      1  C   UNL     1      57.785  -0.317  91.821  1.00  0.00     0.000 C 
ENDROOT
BRANCH   1   2
ATOM      2  C   UNL     1      59.156   0.050  92.427  1.00  0.00     0.000 C 
BRANCH   2   3
ATOM      3  C   UNL     1      60.066  -1.147  92.764  1.00  0.00     0.000 C 
BRANCH   3   4
ATOM      4  C   UNL     1      60.177  -1.472  94.268  1.00  0.00     0.000 C 
BRANCH   4   5
ATOM      5  C   UNL     1      60.763  -0.344  95.131  1.00  0.00     0.000 C 
BRANCH   5   6
ATOM      6  C   UNL     1      59.896  -0.036  96.364  1.00  0.00     0.000 C 
BRANCH   6   7
ATOM      7  C   UNL     1      59.043   1.235  96.200  1.00  0.00     0.000 C 
BRANCH   7   8
ATOM      8  C   UNL     1      57.529   1.045  96.423  1.00  0.00     0.000 C 
BRANCH   8   9
ATOM      9  C   UNL     1      57.140  -0.428  96.653  1.00  0.00     0.000 C 
BRANCH   9  10
ATOM     10  C   UNL     1      56.135  -0.956  95.620  1.00  0.00     0.000 C 
BRANCH  10  11
ATOM     11  C   UNL     1      56.716  -2.088  94.751  1.00  0.00     0.000 C 
BRANCH  11  12
ATOM     12  C   UNL     1      55.606  -2.897  94.041  1.00  0.00     0.006 C 
BRANCH  12  13
ATOM     13  C   UNL     1      54.354  -3.110  94.908  1.00  0.00     0.053 C 
BRANCH  13  14
ATOM     14  C   UNL     1      54.405  -4.397  95.674  1.00  0.00     0.041 C 
ATOM     15  O   UNL     1      55.130  -4.485  96.698  1.00  0.00    -0.550 OA
ATOM     16  O   UNL     1      53.585  -5.458  95.314  1.00  0.00    -0.550 OA
ENDBRANCH  13  14
ENDBRANCH  12  13
ENDBRANCH  11  12
ENDBRANCH  10  11
ENDBRANCH   9  10
ENDBRANCH   8   9
ENDBRANCH   7   8
ENDBRANCH   6   7
ENDBRANCH   5   6
ENDBRANCH   4   5
ENDBRANCH   3   4
ENDBRANCH   2   3
ENDBRANCH   1   2
BRANCH   1  17
ATOM     17  C   UNL     1      56.643   0.668  92.132  1.00  0.00     0.000 C 
BRANCH  17  18
ATOM     18  C   UNL     1      57.088   1.854  93.008  1.00  0.00     0.000 C 
BRANCH  18  19
ATOM     19  C   UNL     1      55.900   2.672  93.541  1.00  0.00     0.000 C 
BRANCH  19  20
ATOM     20  C   UNL     1      56.252   4.153  93.772  1.00  0.00     0.000 C 
BRANCH  20  21
ATOM     21  C   UNL     1      57.432   4.341  94.734  1.00  0.00     0.000 C 
BRANCH  21  22
ATOM     22  C   UNL     1      57.005   4.958  96.082  1.00  0.00    -0.000 C 
BRANCH  22  23
ATOM     23  C   UNL     1      58.128   5.775  96.755  1.00  0.00    -0.000 C 
BRANCH  23  24
ATOM     24  C   UNL     1      59.482   5.041  96.849  1.00  0.00    -0.000 C 
BRANCH  24  25
ATOM     25  C   UNL     1      60.687   5.801  96.271  1.00  0.00    -0.000 C 
BRANCH  25  26
ATOM     26  C   UNL     1      60.301   7.162  95.663  1.00  0.00    -0.000 C 
BRANCH  26  27
ATOM     27  C   UNL     1      60.592   7.243  94.152  1.00  0.00    -0.000 C 
BRANCH  27  28
ATOM     28  C   UNL     1      59.356   7.075  93.246  1.00  0.00    -0.000 C 
BRANCH  28  29
ATOM     29  C   UNL     1      58.444   8.310  93.243  1.00  0.00    -0.003 C 
ATOM     30  C   UNL     1      57.090   7.996  93.870  1.00  0.00     0.004 C 
ENDBRANCH  28  29
ENDBRANCH  27  28
ENDBRANCH  26  27
ENDBRANCH  25  26
ENDBRANCH  24  25
ENDBRANCH  23  24
ENDBRANCH  22  23
ENDBRANCH  21  22
ENDBRANCH  20  21
ENDBRANCH  19  20
ENDBRANCH  18  19
ENDBRANCH  17  18
ENDBRANCH   1  17
TORSDOF 26
ENDMDL
MODEL 8
REMARK VINA RESULT:    -3.198      3.741      7.329
REMARK INTER + INTRA:         -12.347
REMARK INTER:                  -7.110
REMARK INTRA:                  -5.237
REMARK UNBOUND:                -4.287
REMARK SMILES CCCCCCCCCCCCCCCCCCCCCCCCCCCC(=O)[O-]
REMARK SMILES IDX 15 1 16 2 17 3 18 4 19 5 20 6 21 7 22 8 23 9 24 10 25 11
REMARK SMILES IDX 26 12 27 13 28 14 29 15 30 16 14 17 13 18 12 19 11 20 10 21
REMARK SMILES IDX 9 22 8 23 7 24 6 25 5 26 4 27 3 28 2 29 1 30
REMARK H PARENT
REMARK Flexibility Score: inf
ROOT
ATOM      1  C   UNL     1      57.289  -3.726  92.417  1.00  0.00     0.000 C 
ENDROOT
BRANCH   1   2
ATOM      2  C   UNL     1      56.662  -2.321  92.531  1.00  0.00     0.000 C 
BRANCH   2   3
ATOM      3  C   UNL     1      55.699  -1.938  91.391  1.00  0.00     0.000 C 
BRANCH   3   4
ATOM      4  C   UNL     1      56.205  -0.808  90.470  1.00  0.00     0.000 C 
BRANCH   4   5
ATOM      5  C   UNL     1      57.734  -0.673  90.391  1.00  0.00     0.000 C 
BRANCH   5   6
ATOM      6  C   UNL     1      58.226   0.709  90.853  1.00  0.00     0.000 C 
BRANCH   6   7
ATOM      7  C   UNL     1      57.724   1.090  92.259  1.00  0.00     0.000 C 
BRANCH   7   8
ATOM      8  C   UNL     1      57.030   2.464  92.358  1.00  0.00     0.000 C 
BRANCH   8   9
ATOM      9  C   UNL     1      55.743   2.423  93.205  1.00  0.00     0.000 C 
BRANCH   9  10
ATOM     10  C   UNL     1      55.578   3.650  94.112  1.00  0.00     0.000 C 
BRANCH  10  11
ATOM     11  C   UNL     1      56.928   4.229  94.579  1.00  0.00     0.000 C 
BRANCH  11  12
ATOM     12  C   UNL     1      56.786   5.038  95.888  1.00  0.00     0.006 C 
BRANCH  12  13
ATOM     13  C   UNL     1      55.523   5.916  95.931  1.00  0.00     0.053 C 
BRANCH  13  14
ATOM     14  C   UNL     1      55.736   7.252  95.285  1.00  0.00     0.041 C 
ATOM     15  O   UNL     1      56.394   8.138  95.889  1.00  0.00    -0.550 OA
ATOM     16  O   UNL     1      55.293   7.481  93.990  1.00  0.00    -0.550 OA
ENDBRANCH  13  14
ENDBRANCH  12  13
ENDBRANCH  11  12
ENDBRANCH  10  11
ENDBRANCH   9  10
ENDBRANCH   8   9
ENDBRANCH   7   8
ENDBRANCH   6   7
ENDBRANCH   5   6
ENDBRANCH   4   5
ENDBRANCH   3   4
ENDBRANCH   2   3
ENDBRANCH   1   2
BRANCH   1  17
ATOM     17  C   UNL     1      58.711  -3.862  92.994  1.00  0.00     0.000 C 
BRANCH  17  18
ATOM     18  C   UNL     1      59.796  -3.270  92.074  1.00  0.00     0.000 C 
BRANCH  18  19
ATOM     19  C   UNL     1      60.388  -1.963  92.626  1.00  0.00     0.000 C 
BRANCH  19  20
ATOM     20  C   UNL     1      60.134  -1.784  94.134  1.00  0.00     0.000 C 
BRANCH  20  21
ATOM     21  C   UNL     1      60.298  -0.330  94.596  1.00  0.00     0.000 C 
BRANCH  21  22
ATOM     22  C   UNL     1      60.647  -0.221  96.095  1.00  0.00    -0.000 C 
BRANCH  22  23
ATOM     23  C   UNL     1      60.096   1.062  96.751  1.00  0.00    -0.000 C 
BRANCH  23  24
ATOM     24  C   UNL     1      58.792   1.593  96.120  1.00  0.00    -0.000 C 
BRANCH  24  25
ATOM     25  C   UNL     1      57.555   1.556  97.031  1.00  0.00    -0.000 C 
BRANCH  25  26
ATOM     26  C   UNL     1      56.360   0.827  96.391  1.00  0.00    -0.000 C 
BRANCH  26  27
ATOM     27  C   UNL     1      56.770  -0.472  95.672  1.00  0.00    -0.000 C 
BRANCH  27  28
ATOM     28  C   UNL     1      57.238  -1.607  96.604  1.00  0.00    -0.000 C 
BRANCH  28  29
ATOM     29  C   UNL     1      56.182  -2.708  96.783  1.00  0.00    -0.003 C 
ATOM     30  C   UNL     1      55.050  -2.555  95.773  1.00  0.00     0.004 C 
ENDBRANCH  28  29
ENDBRANCH  27  28
ENDBRANCH  26  27
ENDBRANCH  25  26
ENDBRANCH  24  25
ENDBRANCH  23  24
ENDBRANCH  22  23
ENDBRANCH  21  22
ENDBRANCH  20  21
ENDBRANCH  19  20
ENDBRANCH  18  19
ENDBRANCH  17  18
ENDBRANCH   1  17
TORSDOF 26
ENDMDL
MODEL 9
REMARK VINA RESULT:    -3.151      3.081      7.896
REMARK INTER + INTRA:         -12.227
REMARK INTER:                  -7.140
REMARK INTRA:                  -5.086
REMARK UNBOUND:                -4.287
REMARK SMILES CCCCCCCCCCCCCCCCCCCCCCCCCCCC(=O)[O-]
REMARK SMILES IDX 15 1 16 2 17 3 18 4 19 5 20 6 21 7 22 8 23 9 24 10 25 11
REMARK SMILES IDX 26 12 27 13 28 14 29 15 30 16 14 17 13 18 12 19 11 20 10 21
REMARK SMILES IDX 9 22 8 23 7 24 6 25 5 26 4 27 3 28 2 29 1 30
REMARK H PARENT
REMARK Flexibility Score: inf
ROOT
ATOM      1  C   UNL     1      57.447   0.918  96.716  1.00  0.00     0.000 C 
ENDROOT
BRANCH   1   2
ATOM      2  C   UNL     1      58.665   1.719  96.210  1.00  0.00     0.000 C 
BRANCH   2   3
ATOM      3  C   UNL     1      60.037   1.100  96.535  1.00  0.00     0.000 C 
BRANCH   3   4
ATOM      4  C   UNL     1      60.106  -0.434  96.390  1.00  0.00     0.000 C 
BRANCH   4   5
ATOM      5  C   UNL     1      61.094  -0.940  95.327  1.00  0.00     0.000 C 
BRANCH   5   6
ATOM      6  C   UNL     1      60.385  -1.605  94.135  1.00  0.00     0.000 C 
BRANCH   6   7
ATOM      7  C   UNL     1      59.968  -0.602  93.044  1.00  0.00     0.000 C 
BRANCH   7   8
ATOM      8  C   UNL     1      58.472  -0.226  93.033  1.00  0.00     0.000 C 
BRANCH   8   9
ATOM      9  C   UNL     1      58.100   0.713  91.870  1.00  0.00     0.000 C 
BRANCH   9  10
ATOM     10  C   UNL     1      56.761   1.433  92.080  1.00  0.00     0.000 C 
BRANCH  10  11
ATOM     11  C   UNL     1      56.913   2.966  92.128  1.00  0.00     0.000 C 
BRANCH  11  12
ATOM     12  C   UNL     1      56.727   3.520  93.559  1.00  0.00     0.006 C 
BRANCH  12  13
ATOM     13  C   UNL     1      57.246   4.958  93.731  1.00  0.00     0.053 C 
BRANCH  13  14
ATOM     14  C   UNL     1      57.698   5.235  95.133  1.00  0.00     0.041 C 
ATOM     15  O   UNL     1      56.979   4.878  96.102  1.00  0.00    -0.550 OA
ATOM     16  O   UNL     1      58.945   5.799  95.368  1.00  0.00    -0.550 OA
ENDBRANCH  13  14
ENDBRANCH  12  13
ENDBRANCH  11  12
ENDBRANCH  10  11
ENDBRANCH   9  10
ENDBRANCH   8   9
ENDBRANCH   7   8
ENDBRANCH   6   7
ENDBRANCH   5   6
ENDBRANCH   4   5
ENDBRANCH   3   4
ENDBRANCH   2   3
ENDBRANCH   1   2
BRANCH   1  17
ATOM     17  C   UNL     1      56.228   0.907  95.775  1.00  0.00     0.000 C 
BRANCH  17  18
ATOM     18  C   UNL     1      55.712  -0.512  95.469  1.00  0.00     0.000 C 
BRANCH  18  19
ATOM     19  C   UNL     1      56.680  -1.607  95.945  1.00  0.00     0.000 C 
BRANCH  19  20
ATOM     20  C   UNL     1      55.960  -2.909  96.340  1.00  0.00     0.000 C 
BRANCH  20  21
ATOM     21  C   UNL     1      56.033  -3.985  95.248  1.00  0.00     0.000 C 
BRANCH  21  22
ATOM     22  C   UNL     1      57.034  -3.627  94.131  1.00  0.00    -0.000 C 
BRANCH  22  23
ATOM     23  C   UNL     1      57.531  -4.861  93.348  1.00  0.00    -0.000 C 
BRANCH  23  24
ATOM     24  C   UNL     1      58.969  -4.733  92.802  1.00  0.00    -0.000 C 
BRANCH  24  25
ATOM     25  C   UNL     1      59.094  -4.699  91.271  1.00  0.00    -0.000 C 
BRANCH  25  26
ATOM     26  C   UNL     1      59.836  -3.452  90.757  1.00  0.00    -0.000 C 
BRANCH  26  27
ATOM     27  C   UNL     1      58.910  -2.475  90.008  1.00  0.00    -0.000 C 
BRANCH  27  28
ATOM     28  C   UNL     1      57.421  -2.570  90.393  1.00  0.00    -0.000 C 
BRANCH  28  29
ATOM     29  C   UNL     1      56.478  -2.296  89.212  1.00  0.00    -0.003 C 
ATOM     30  C   UNL     1      56.375  -0.802  88.926  1.00  0.00     0.004 C 
ENDBRANCH  28  29
ENDBRANCH  27  28
ENDBRANCH  26  27
ENDBRANCH  25  26
ENDBRANCH  24  25
ENDBRANCH  23  24
ENDBRANCH  22  23
ENDBRANCH  21  22
ENDBRANCH  20  21
ENDBRANCH  19  20
ENDBRANCH  18  19
ENDBRANCH  17  18
ENDBRANCH   1  17
TORSDOF 26
ENDMDL
