MODEL 1
REMARK VINA RESULT:    -3.802      0.000      0.000
REMARK INTER + INTRA:          -5.849
REMARK INTER:                  -5.358
REMARK INTRA:                  -0.491
REMARK UNBOUND:                -0.491
REMARK SMILES CCCCCCCCC(=O)[O-]
REMARK SMILES IDX 6 1 7 2 8 3 9 4 10 5 11 6 5 7 4 8 3 9 2 10 1 11
REMARK H PARENT
REMARK Flexibility Score: inf
ROOT
ATOM      1  C   UNL     1     173.615 175.823 182.510  1.00  0.00     0.000 C 
ENDROOT
BRANCH   1   2
ATOM      2  C   UNL     1     173.305 177.331 182.487  1.00  0.00     0.006 C 
BRANCH   2   3
ATOM      3  C   UNL     1     171.802 177.614 182.604  1.00  0.00     0.053 C 
BRANCH   3   4
ATOM      4  C   UNL     1     171.143 177.684 181.261  1.00  0.00     0.041 C 
ATOM      5  O   UNL     1     169.892 177.578 181.162  1.00  0.00    -0.550 OA
ATOM      6  O   UNL     1     171.913 177.829 180.114  1.00  0.00    -0.550 OA
ENDBRANCH   3   4
ENDBRANCH   2   3
ENDBRANCH   1   2
BRANCH   1   7
ATOM      7  C   UNL     1     175.124 175.530 182.508  1.00  0.00     0.000 C 
BRANCH   7   8
ATOM      8  C   UNL     1     175.909 176.465 183.440  1.00  0.00    -0.000 C 
BRANCH   8   9
ATOM      9  C   UNL     1     176.996 177.223 182.669  1.00  0.00    -0.000 C 
BRANCH   9  10
ATOM     10  C   UNL     1     177.068 176.751 181.212  1.00  0.00    -0.003 C 
ATOM     11  C   UNL     1     177.101 177.934 180.249  1.00  0.00     0.004 C 
ENDBRANCH   9  10
ENDBRANCH   8   9
ENDBRANCH   7   8
ENDBRANCH   1   7
TORSDOF 7
ENDMDL
MODEL 2
REMARK VINA RESULT:    -3.797      0.688      1.475
REMARK INTER + INTRA:          -5.842
REMARK INTER:                  -5.275
REMARK INTRA:                  -0.567
REMARK UNBOUND:                -0.491
REMARK SMILES CCCCCCCCC(=O)[O-]
REMARK SMILES IDX 6 1 7 2 8 3 9 4 10 5 11 6 5 7 4 8 3 9 2 10 1 11
REMARK H PARENT
REMARK Flexibility Score: inf
ROOT
ATOM      1  C   UNL     1     174.481 176.039 182.550  1.00  0.00     0.000 C 
ENDROOT
BRANCH   1   2
ATOM      2  C   UNL     1     173.578 177.286 182.558  1.00  0.00     0.006 C 
BRANCH   2   3
ATOM      3  C   UNL     1     172.091 176.923 182.454  1.00  0.00     0.053 C 
BRANCH   3   4
ATOM      4  C   UNL     1     171.483 177.432 181.183  1.00  0.00     0.041 C 
ATOM      5  O   UNL     1     172.214 177.698 180.193  1.00  0.00    -0.550 OA
ATOM      6  O   UNL     1     170.113 177.646 181.104  1.00  0.00    -0.550 OA
ENDBRANCH   3   4
ENDBRANCH   2   3
ENDBRANCH   1   2
BRANCH   1   7
ATOM      7  C   UNL     1     175.791 176.253 183.326  1.00  0.00     0.000 C 
BRANCH   7   8
ATOM      8  C   UNL     1     176.764 177.191 182.595  1.00  0.00    -0.000 C 
BRANCH   8   9
ATOM      9  C   UNL     1     177.053 176.686 181.177  1.00  0.00    -0.000 C 
BRANCH   9  10
ATOM     10  C   UNL     1     176.853 177.801 180.144  1.00  0.00    -0.003 C 
ATOM     11  C   UNL     1     175.576 177.586 179.337  1.00  0.00     0.004 C 
ENDBRANCH   9  10
ENDBRANCH   8   9
ENDBRANCH   7   8
ENDBRANCH   1   7
TORSDOF 7
ENDMDL
MODEL 3
REMARK VINA RESULT:    -3.768      2.795      4.756
REMARK INTER + INTRA:          -5.801
REMARK INTER:                  -5.073
REMARK INTRA:                  -0.728
REMARK UNBOUND:                -0.491
REMARK SMILES CCCCCCCCC(=O)[O-]
REMARK SMILES IDX 6 1 7 2 8 3 9 4 10 5 11 6 5 7 4 8 3 9 2 10 1 11
REMARK H PARENT
REMARK Flexibility Score: inf
ROOT
ATOM      1  C   UNL     1     177.235 177.700 181.411  1.00  0.00     0.000 C 
ENDROOT
BRANCH   1   2
ATOM      2  C   UNL     1     176.770 177.694 179.944  1.00  0.00     0.006 C 
BRANCH   2   3
ATOM      3  C   UNL     1     176.559 176.271 179.410  1.00  0.00     0.053 C 
BRANCH   3   4
ATOM      4  C   UNL     1     176.537 176.237 177.913  1.00  0.00     0.041 C 
ATOM      5  O   UNL     1     175.475 175.946 177.301  1.00  0.00    -0.550 OA
ATOM      6  O   UNL     1     177.698 176.491 177.193  1.00  0.00    -0.550 OA
ENDBRANCH   3   4
ENDBRANCH   2   3
ENDBRANCH   1   2
BRANCH   1   7
ATOM      7  C   UNL     1     176.964 176.365 182.122  1.00  0.00     0.000 C 
BRANCH   7   8
ATOM      8  C   UNL     1     175.860 176.474 183.186  1.00  0.00    -0.000 C 
BRANCH   8   9
ATOM      9  C   UNL     1     174.548 175.865 182.679  1.00  0.00    -0.000 C 
BRANCH   9  10
ATOM     10  C   UNL     1     173.511 176.955 182.386  1.00  0.00    -0.003 C 
ATOM     11  C   UNL     1     173.184 177.021 180.898  1.00  0.00     0.004 C 
ENDBRANCH   9  10
ENDBRANCH   8   9
ENDBRANCH   7   8
ENDBRANCH   1   7
TORSDOF 7
ENDMDL
MODEL 4
REMARK VINA RESULT:    -3.753      3.231      4.444
REMARK INTER + INTRA:          -5.780
REMARK INTER:                  -4.941
REMARK INTRA:                  -0.838
REMARK UNBOUND:                -0.491
REMARK SMILES CCCCCCCCC(=O)[O-]
REMARK SMILES IDX 6 1 7 2 8 3 9 4 10 5 11 6 5 7 4 8 3 9 2 10 1 11
REMARK H PARENT
REMARK Flexibility Score: inf
ROOT
ATOM      1  C   UNL     1     177.204 177.544 181.878  1.00  0.00     0.000 C 
ENDROOT
BRANCH   1   2
ATOM      2  C   UNL     1     176.964 177.772 180.375  1.00  0.00     0.006 C 
BRANCH   2   3
ATOM      3  C   UNL     1     175.689 177.077 179.881  1.00  0.00     0.053 C 
BRANCH   3   4
ATOM      4  C   UNL     1     176.000 175.906 179.001  1.00  0.00     0.041 C 
ATOM      5  O   UNL     1     177.197 175.597 178.756  1.00  0.00    -0.550 OA
ATOM      6  O   UNL     1     174.970 175.176 178.422  1.00  0.00    -0.550 OA
ENDBRANCH   3   4
ENDBRANCH   2   3
ENDBRANCH   1   2
BRANCH   1   7
ATOM      7  C   UNL     1     175.975 176.958 182.590  1.00  0.00     0.000 C 
BRANCH   7   8
ATOM      8  C   UNL     1     176.257 175.588 183.226  1.00  0.00    -0.000 C 
BRANCH   8   9
ATOM      9  C   UNL     1     175.297 174.523 182.684  1.00  0.00    -0.000 C 
BRANCH   9  10
ATOM     10  C   UNL     1     176.043 173.494 181.827  1.00  0.00    -0.003 C 
ATOM     11  C   UNL     1     177.545 173.763 181.823  1.00  0.00     0.004 C 
ENDBRANCH   9  10
ENDBRANCH   8   9
ENDBRANCH   7   8
ENDBRANCH   1   7
TORSDOF 7
ENDMDL
MODEL 5
REMARK VINA RESULT:    -3.752      1.784      2.885
REMARK INTER + INTRA:          -5.779
REMARK INTER:                  -5.006
REMARK INTRA:                  -0.773
REMARK UNBOUND:                -0.491
REMARK SMILES CCCCCCCCC(=O)[O-]
REMARK SMILES IDX 6 1 7 2 8 3 9 4 10 5 11 6 5 7 4 8 3 9 2 10 1 11
REMARK H PARENT
REMARK Flexibility Score: inf
ROOT
ATOM      1  C   UNL     1     175.447 177.583 179.527  1.00  0.00     0.000 C 
ENDROOT
BRANCH   1   2
ATOM      2  C   UNL     1     174.012 177.050 179.365  1.00  0.00     0.006 C 
BRANCH   2   3
ATOM      3  C   UNL     1     173.492 176.389 180.649  1.00  0.00     0.053 C 
BRANCH   3   4
ATOM      4  C   UNL     1     172.789 177.372 181.534  1.00  0.00     0.041 C 
ATOM      5  O   UNL     1     171.863 178.090 181.073  1.00  0.00    -0.550 OA
ATOM      6  O   UNL     1     173.180 177.521 182.858  1.00  0.00    -0.550 OA
ENDBRANCH   3   4
ENDBRANCH   2   3
ENDBRANCH   1   2
BRANCH   1   7
ATOM      7  C   UNL     1     176.504 176.470 179.447  1.00  0.00     0.000 C 
BRANCH   7   8
ATOM      8  C   UNL     1     177.076 176.099 180.824  1.00  0.00    -0.000 C 
BRANCH   8   9
ATOM      9  C   UNL     1     177.013 177.293 181.784  1.00  0.00    -0.000 C 
BRANCH   9  10
ATOM     10  C   UNL     1     176.589 176.848 183.188  1.00  0.00    -0.003 C 
ATOM     11  C   UNL     1     176.073 175.412 183.181  1.00  0.00     0.004 C 
ENDBRANCH   9  10
ENDBRANCH   8   9
ENDBRANCH   7   8
ENDBRANCH   1   7
TORSDOF 7
ENDMDL
MODEL 6
REMARK VINA RESULT:    -3.739      2.304      3.661
REMARK INTER + INTRA:          -5.760
REMARK INTER:                  -4.973
REMARK INTRA:                  -0.787
REMARK UNBOUND:                -0.491
REMARK SMILES CCCCCCCCC(=O)[O-]
REMARK SMILES IDX 6 1 7 2 8 3 9 4 10 5 11 6 5 7 4 8 3 9 2 10 1 11
REMARK H PARENT
REMARK Flexibility Score: inf
ROOT
ATOM      1  C   UNL     1     177.336 177.081 181.239  1.00  0.00     0.000 C 
ENDROOT
BRANCH   1   2
ATOM      2  C   UNL     1     176.647 177.693 180.006  1.00  0.00     0.006 C 
BRANCH   2   3
ATOM      3  C   UNL     1     175.600 176.750 179.401  1.00  0.00     0.053 C 
BRANCH   3   4
ATOM      4  C   UNL     1     174.222 177.333 179.470  1.00  0.00     0.041 C 
ATOM      5  O   UNL     1     173.690 177.825 178.439  1.00  0.00    -0.550 OA
ATOM      6  O   UNL     1     173.539 177.365 180.679  1.00  0.00    -0.550 OA
ENDBRANCH   3   4
ENDBRANCH   2   3
ENDBRANCH   1   2
BRANCH   1   7
ATOM      7  C   UNL     1     176.606 177.415 182.550  1.00  0.00     0.000 C 
BRANCH   7   8
ATOM      8  C   UNL     1     176.154 176.159 183.311  1.00  0.00    -0.000 C 
BRANCH   8   9
ATOM      9  C   UNL     1     176.638 174.886 182.606  1.00  0.00    -0.000 C 
BRANCH   9  10
ATOM     10  C   UNL     1     175.457 173.992 182.213  1.00  0.00    -0.003 C 
ATOM     11  C   UNL     1     174.147 174.518 182.793  1.00  0.00     0.004 C 
ENDBRANCH   9  10
ENDBRANCH   8   9
ENDBRANCH   7   8
ENDBRANCH   1   7
TORSDOF 7
ENDMDL
MODEL 7
REMARK VINA RESULT:    -3.725      1.786      4.071
REMARK INTER + INTRA:          -5.741
REMARK INTER:                  -4.988
REMARK INTRA:                  -0.753
REMARK UNBOUND:                -0.491
REMARK SMILES CCCCCCCCC(=O)[O-]
REMARK SMILES IDX 6 1 7 2 8 3 9 4 10 5 11 6 5 7 4 8 3 9 2 10 1 11
REMARK H PARENT
REMARK Flexibility Score: inf
ROOT
ATOM      1  C   UNL     1     177.155 177.272 182.260  1.00  0.00     0.000 C 
ENDROOT
BRANCH   1   2
ATOM      2  C   UNL     1     177.001 176.752 180.819  1.00  0.00     0.006 C 
BRANCH   2   3
ATOM      3  C   UNL     1     176.305 177.773 179.908  1.00  0.00     0.053 C 
BRANCH   3   4
ATOM      4  C   UNL     1     175.091 177.192 179.250  1.00  0.00     0.041 C 
ATOM      5  O   UNL     1     174.957 175.943 179.157  1.00  0.00    -0.550 OA
ATOM      6  O   UNL     1     174.126 178.030 178.707  1.00  0.00    -0.550 OA
ENDBRANCH   3   4
ENDBRANCH   2   3
ENDBRANCH   1   2
BRANCH   1   7
ATOM      7  C   UNL     1     175.998 176.835 183.172  1.00  0.00     0.000 C 
BRANCH   7   8
ATOM      8  C   UNL     1     175.363 175.508 182.728  1.00  0.00    -0.000 C 
BRANCH   8   9
ATOM      9  C   UNL     1     173.856 175.670 182.502  1.00  0.00    -0.000 C 
BRANCH   9  10
ATOM     10  C   UNL     1     173.448 177.147 182.542  1.00  0.00    -0.003 C 
ATOM     11  C   UNL     1     171.931 177.303 182.505  1.00  0.00     0.004 C 
ENDBRANCH   9  10
ENDBRANCH   8   9
ENDBRANCH   7   8
ENDBRANCH   1   7
TORSDOF 7
ENDMDL
MODEL 8
REMARK VINA RESULT:    -3.672      3.944      5.000
REMARK INTER + INTRA:          -5.665
REMARK INTER:                  -5.021
REMARK INTRA:                  -0.644
REMARK UNBOUND:                -0.491
REMARK SMILES CCCCCCCCC(=O)[O-]
REMARK SMILES IDX 6 1 7 2 8 3 9 4 10 5 11 6 5 7 4 8 3 9 2 10 1 11
REMARK H PARENT
REMARK Flexibility Score: inf
ROOT
ATOM      1  C   UNL     1     176.164 175.875 183.201  1.00  0.00     0.000 C 
ENDROOT
BRANCH   1   2
ATOM      2  C   UNL     1     176.911 174.766 182.438  1.00  0.00     0.006 C 
BRANCH   2   3
ATOM      3  C   UNL     1     175.989 173.599 182.063  1.00  0.00     0.053 C 
BRANCH   3   4
ATOM      4  C   UNL     1     176.619 172.698 181.046  1.00  0.00     0.041 C 
ATOM      5  O   UNL     1     177.490 171.858 181.397  1.00  0.00    -0.550 OA
ATOM      6  O   UNL     1     176.271 172.809 179.706  1.00  0.00    -0.550 OA
ENDBRANCH   3   4
ENDBRANCH   2   3
ENDBRANCH   1   2
BRANCH   1   7
ATOM      7  C   UNL     1     175.970 177.145 182.358  1.00  0.00     0.000 C 
BRANCH   7   8
ATOM      8  C   UNL     1     177.297 177.713 181.831  1.00  0.00    -0.000 C 
BRANCH   8   9
ATOM      9  C   UNL     1     177.187 178.075 180.345  1.00  0.00    -0.000 C 
BRANCH   9  10
ATOM     10  C   UNL     1     176.038 177.312 179.676  1.00  0.00    -0.003 C 
ATOM     11  C   UNL     1     176.564 176.189 178.786  1.00  0.00     0.004 C 
ENDBRANCH   9  10
ENDBRANCH   8   9
ENDBRANCH   7   8
ENDBRANCH   1   7
TORSDOF 7
ENDMDL
MODEL 9
REMARK VINA RESULT:    -3.671      1.464      2.199
REMARK INTER + INTRA:          -5.664
REMARK INTER:                  -4.854
REMARK INTRA:                  -0.810
REMARK UNBOUND:                -0.491
REMARK SMILES CCCCCCCCC(=O)[O-]
REMARK SMILES IDX 6 1 7 2 8 3 9 4 10 5 11 6 5 7 4 8 3 9 2 10 1 11
REMARK H PARENT
REMARK Flexibility Score: inf
ROOT
ATOM      1  C   UNL     1     174.862 174.080 182.363  1.00  0.00     0.000 C 
ENDROOT
BRANCH   1   2
ATOM      2  C   UNL     1     173.690 174.894 181.785  1.00  0.00     0.006 C 
BRANCH   2   3
ATOM      3  C   UNL     1     173.517 176.243 182.495  1.00  0.00     0.053 C 
BRANCH   3   4
ATOM      4  C   UNL     1     173.066 177.314 181.550  1.00  0.00     0.041 C 
ATOM      5  O   UNL     1     172.166 178.124 181.893  1.00  0.00    -0.550 OA
ATOM      6  O   UNL     1     173.616 177.395 180.277  1.00  0.00    -0.550 OA
ENDBRANCH   3   4
ENDBRANCH   2   3
ENDBRANCH   1   2
BRANCH   1   7
ATOM      7  C   UNL     1     176.041 173.965 181.384  1.00  0.00     0.000 C 
BRANCH   7   8
ATOM      8  C   UNL     1     177.100 175.056 181.603  1.00  0.00    -0.000 C 
BRANCH   8   9
ATOM      9  C   UNL     1     176.918 176.205 180.604  1.00  0.00    -0.000 C 
BRANCH   9  10
ATOM     10  C   UNL     1     177.096 177.564 181.289  1.00  0.00    -0.003 C 
ATOM     11  C   UNL     1     176.974 177.439 182.805  1.00  0.00     0.004 C 
ENDBRANCH   9  10
ENDBRANCH   8   9
ENDBRANCH   7   8
ENDBRANCH   1   7
TORSDOF 7
ENDMDL
