MODEL 1
REMARK VINA RESULT:    -3.571      0.000      0.000
REMARK INTER + INTRA:          -7.312
REMARK INTER:                  -6.077
REMARK INTRA:                  -1.236
REMARK UNBOUND:                -1.236
REMARK SMILES CCCCCCCCCCCCCC(=O)[O-]
REMARK SMILES IDX 8 1 9 2 10 3 11 4 12 5 13 6 14 7 15 8 16 9 7 10 6 11 5 12
REMARK SMILES IDX 4 13 3 14 2 15 1 16
REMARK H PARENT
REMARK Flexibility Score: inf
ROOT
ATOM      1  C   UNL     1     -93.728 147.966 236.751  1.00  0.00     0.000 C 
ENDROOT
BRANCH   1   2
ATOM      2  C   UNL     1     -94.634 148.073 235.513  1.00  0.00     0.000 C 
BRANCH   2   3
ATOM      3  C   UNL     1     -95.226 149.481 235.335  1.00  0.00     0.000 C 
BRANCH   3   4
ATOM      4  C   UNL     1     -96.711 149.452 234.934  1.00  0.00     0.000 C 
BRANCH   4   5
ATOM      5  C   UNL     1     -96.999 150.270 233.666  1.00  0.00     0.006 C 
BRANCH   5   6
ATOM      6  C   UNL     1     -95.714 150.893 233.112  1.00  0.00     0.053 C 
BRANCH   6   7
ATOM      7  C   UNL     1     -96.015 152.185 232.419  1.00  0.00     0.041 C 
ATOM      8  O   UNL     1     -96.471 153.161 233.069  1.00  0.00    -0.550 OA
ATOM      9  O   UNL     1     -95.743 152.326 231.064  1.00  0.00    -0.550 OA
ENDBRANCH   6   7
ENDBRANCH   5   6
ENDBRANCH   4   5
ENDBRANCH   3   4
ENDBRANCH   2   3
ENDBRANCH   1   2
BRANCH   1  10
ATOM     10  C   UNL     1     -94.285 148.728 237.962  1.00  0.00     0.000 C 
BRANCH  10  11
ATOM     11  C   UNL     1     -95.140 147.809 238.842  1.00  0.00    -0.000 C 
BRANCH  11  12
ATOM     12  C   UNL     1     -96.482 148.471 239.190  1.00  0.00    -0.000 C 
BRANCH  12  13
ATOM     13  C   UNL     1     -96.491 149.979 238.898  1.00  0.00    -0.000 C 
BRANCH  13  14
ATOM     14  C   UNL     1     -97.845 150.636 239.219  1.00  0.00    -0.000 C 
BRANCH  14  15
ATOM     15  C   UNL     1     -98.807 150.617 238.022  1.00  0.00    -0.003 C 
ATOM     16  C   UNL     1    -100.255 150.351 238.432  1.00  0.00     0.004 C 
ENDBRANCH  14  15
ENDBRANCH  13  14
ENDBRANCH  12  13
ENDBRANCH  11  12
ENDBRANCH  10  11
ENDBRANCH   1  10
TORSDOF 12
ENDMDL
MODEL 2
REMARK VINA RESULT:    -3.565      4.094      6.138
REMARK INTER + INTRA:          -7.301
REMARK INTER:                  -5.483
REMARK INTRA:                  -1.818
REMARK UNBOUND:                -1.236
REMARK SMILES CCCCCCCCCCCCCC(=O)[O-]
REMARK SMILES IDX 8 1 9 2 10 3 11 4 12 5 13 6 14 7 15 8 16 9 7 10 6 11 5 12
REMARK SMILES IDX 4 13 3 14 2 15 1 16
REMARK H PARENT
REMARK Flexibility Score: inf
ROOT
ATOM      1  C   UNL     1     -95.251 147.663 239.173  1.00  0.00     0.000 C 
ENDROOT
BRANCH   1   2
ATOM      2  C   UNL     1     -96.517 148.452 238.805  1.00  0.00     0.000 C 
BRANCH   2   3
ATOM      3  C   UNL     1     -96.322 149.973 238.924  1.00  0.00     0.000 C 
BRANCH   3   4
ATOM      4  C   UNL     1     -97.654 150.736 239.011  1.00  0.00     0.000 C 
BRANCH   4   5
ATOM      5  C   UNL     1     -98.867 149.801 239.131  1.00  0.00     0.006 C 
BRANCH   5   6
ATOM      6  C   UNL     1     -99.688 150.129 240.381  1.00  0.00     0.053 C 
BRANCH   6   7
ATOM      7  C   UNL     1     -98.881 149.884 241.617  1.00  0.00     0.041 C 
ATOM      8  O   UNL     1     -98.319 148.773 241.798  1.00  0.00    -0.550 OA
ATOM      9  O   UNL     1     -98.709 150.902 242.547  1.00  0.00    -0.550 OA
ENDBRANCH   6   7
ENDBRANCH   5   6
ENDBRANCH   4   5
ENDBRANCH   3   4
ENDBRANCH   2   3
ENDBRANCH   1   2
BRANCH   1  10
ATOM     10  C   UNL     1     -94.611 146.967 237.962  1.00  0.00     0.000 C 
BRANCH  10  11
ATOM     11  C   UNL     1     -93.769 147.954 237.144  1.00  0.00    -0.000 C 
BRANCH  11  12
ATOM     12  C   UNL     1     -93.811 147.606 235.649  1.00  0.00    -0.000 C 
BRANCH  12  13
ATOM     13  C   UNL     1     -95.200 147.822 235.029  1.00  0.00    -0.000 C 
BRANCH  13  14
ATOM     14  C   UNL     1     -95.698 149.270 235.184  1.00  0.00    -0.000 C 
BRANCH  14  15
ATOM     15  C   UNL     1     -97.226 149.356 235.316  1.00  0.00    -0.003 C 
ATOM     16  C   UNL     1     -97.886 147.982 235.442  1.00  0.00     0.004 C 
ENDBRANCH  14  15
ENDBRANCH  13  14
ENDBRANCH  12  13
ENDBRANCH  11  12
ENDBRANCH  10  11
ENDBRANCH   1  10
TORSDOF 12
ENDMDL
MODEL 3
REMARK VINA RESULT:    -3.540      4.649      7.298
REMARK INTER + INTRA:          -7.260
REMARK INTER:                  -5.971
REMARK INTRA:                  -1.289
REMARK UNBOUND:                -1.236
REMARK SMILES CCCCCCCCCCCCCC(=O)[O-]
REMARK SMILES IDX 8 1 9 2 10 3 11 4 12 5 13 6 14 7 15 8 16 9 7 10 6 11 5 12
REMARK SMILES IDX 4 13 3 14 2 15 1 16
REMARK H PARENT
REMARK Flexibility Score: inf
ROOT
ATOM      1  C   UNL     1     -96.813 148.393 239.427  1.00  0.00     0.000 C 
ENDROOT
BRANCH   1   2
ATOM      2  C   UNL     1     -97.142 149.783 238.860  1.00  0.00     0.000 C 
BRANCH   2   3
ATOM      3  C   UNL     1     -98.143 150.557 239.735  1.00  0.00     0.000 C 
BRANCH   3   4
ATOM      4  C   UNL     1     -98.366 149.896 241.105  1.00  0.00     0.000 C 
BRANCH   4   5
ATOM      5  C   UNL     1     -99.380 150.655 241.974  1.00  0.00     0.006 C 
BRANCH   5   6
ATOM      6  C   UNL     1     -98.731 151.143 243.272  1.00  0.00     0.053 C 
BRANCH   6   7
ATOM      7  C   UNL     1     -99.533 152.255 243.873  1.00  0.00     0.041 C 
ATOM      8  O   UNL     1     -99.014 153.021 244.726  1.00  0.00    -0.550 OA
ATOM      9  O   UNL     1    -100.839 152.475 243.454  1.00  0.00    -0.550 OA
ENDBRANCH   6   7
ENDBRANCH   5   6
ENDBRANCH   4   5
ENDBRANCH   3   4
ENDBRANCH   2   3
ENDBRANCH   1   2
BRANCH   1  10
ATOM     10  C   UNL     1     -95.430 147.886 238.993  1.00  0.00     0.000 C 
BRANCH  10  11
ATOM     11  C   UNL     1     -94.663 148.973 238.231  1.00  0.00    -0.000 C 
BRANCH  11  12
ATOM     12  C   UNL     1     -93.832 148.364 237.091  1.00  0.00    -0.000 C 
BRANCH  12  13
ATOM     13  C   UNL     1     -94.668 148.088 235.832  1.00  0.00    -0.000 C 
BRANCH  13  14
ATOM     14  C   UNL     1     -95.342 149.356 235.279  1.00  0.00    -0.000 C 
BRANCH  14  15
ATOM     15  C   UNL     1     -96.872 149.231 235.219  1.00  0.00    -0.003 C 
ATOM     16  C   UNL     1     -97.368 147.850 235.646  1.00  0.00     0.004 C 
ENDBRANCH  14  15
ENDBRANCH  13  14
ENDBRANCH  12  13
ENDBRANCH  11  12
ENDBRANCH  10  11
ENDBRANCH   1  10
TORSDOF 12
ENDMDL
MODEL 4
REMARK VINA RESULT:    -3.533      1.464      2.363
REMARK INTER + INTRA:          -7.248
REMARK INTER:                  -6.403
REMARK INTRA:                  -0.845
REMARK UNBOUND:                -1.236
REMARK SMILES CCCCCCCCCCCCCC(=O)[O-]
REMARK SMILES IDX 8 1 9 2 10 3 11 4 12 5 13 6 14 7 15 8 16 9 7 10 6 11 5 12
REMARK SMILES IDX 4 13 3 14 2 15 1 16
REMARK H PARENT
REMARK Flexibility Score: inf
ROOT
ATOM      1  C   UNL     1     -94.905 148.190 234.878  1.00  0.00     0.000 C 
ENDROOT
BRANCH   1   2
ATOM      2  C   UNL     1     -95.341 148.822 233.546  1.00  0.00     0.000 C 
BRANCH   2   3
ATOM      3  C   UNL     1     -95.829 150.271 233.712  1.00  0.00     0.000 C 
BRANCH   3   4
ATOM      4  C   UNL     1     -95.573 151.129 232.462  1.00  0.00     0.000 C 
BRANCH   4   5
ATOM      5  C   UNL     1     -96.114 152.560 232.602  1.00  0.00     0.006 C 
BRANCH   5   6
ATOM      6  C   UNL     1     -97.596 152.549 232.987  1.00  0.00     0.053 C 
BRANCH   6   7
ATOM      7  C   UNL     1     -98.061 153.931 233.325  1.00  0.00     0.041 C 
ATOM      8  O   UNL     1     -97.226 154.860 233.476  1.00  0.00    -0.550 OA
ATOM      9  O   UNL     1     -99.420 154.202 233.423  1.00  0.00    -0.550 OA
ENDBRANCH   6   7
ENDBRANCH   5   6
ENDBRANCH   4   5
ENDBRANCH   3   4
ENDBRANCH   2   3
ENDBRANCH   1   2
BRANCH   1  10
ATOM     10  C   UNL     1     -94.982 149.173 236.055  1.00  0.00     0.000 C 
BRANCH  10  11
ATOM     11  C   UNL     1     -94.130 148.684 237.233  1.00  0.00    -0.000 C 
BRANCH  11  12
ATOM     12  C   UNL     1     -94.944 148.678 238.536  1.00  0.00    -0.000 C 
BRANCH  12  13
ATOM     13  C   UNL     1     -96.412 149.077 238.319  1.00  0.00    -0.000 C 
BRANCH  13  14
ATOM     14  C   UNL     1     -96.831 150.283 239.177  1.00  0.00    -0.000 C 
BRANCH  14  15
ATOM     15  C   UNL     1     -98.225 150.813 238.809  1.00  0.00    -0.003 C 
ATOM     16  C   UNL     1     -98.768 150.196 237.520  1.00  0.00     0.004 C 
ENDBRANCH  14  15
ENDBRANCH  13  14
ENDBRANCH  12  13
ENDBRANCH  11  12
ENDBRANCH  10  11
ENDBRANCH   1  10
TORSDOF 12
ENDMDL
MODEL 5
REMARK VINA RESULT:    -3.492      1.377      1.717
REMARK INTER + INTRA:          -7.177
REMARK INTER:                  -5.797
REMARK INTRA:                  -1.380
REMARK UNBOUND:                -1.236
REMARK SMILES CCCCCCCCCCCCCC(=O)[O-]
REMARK SMILES IDX 8 1 9 2 10 3 11 4 12 5 13 6 14 7 15 8 16 9 7 10 6 11 5 12
REMARK SMILES IDX 4 13 3 14 2 15 1 16
REMARK H PARENT
REMARK Flexibility Score: inf
ROOT
ATOM      1  C   UNL     1     -94.691 149.098 236.128  1.00  0.00     0.000 C 
ENDROOT
BRANCH   1   2
ATOM      2  C   UNL     1     -95.148 148.091 235.059  1.00  0.00     0.000 C 
BRANCH   2   3
ATOM      3  C   UNL     1     -95.819 148.772 233.855  1.00  0.00     0.000 C 
BRANCH   3   4
ATOM      4  C   UNL     1     -95.667 150.302 233.879  1.00  0.00     0.000 C 
BRANCH   4   5
ATOM      5  C   UNL     1     -96.562 151.005 232.847  1.00  0.00     0.006 C 
BRANCH   5   6
ATOM      6  C   UNL     1     -96.144 152.467 232.667  1.00  0.00     0.053 C 
BRANCH   6   7
ATOM      7  C   UNL     1     -97.288 153.381 232.978  1.00  0.00     0.041 C 
ATOM      8  O   UNL     1     -97.071 154.546 233.401  1.00  0.00    -0.550 OA
ATOM      9  O   UNL     1     -98.594 152.961 232.754  1.00  0.00    -0.550 OA
ENDBRANCH   6   7
ENDBRANCH   5   6
ENDBRANCH   4   5
ENDBRANCH   3   4
ENDBRANCH   2   3
ENDBRANCH   1   2
BRANCH   1  10
ATOM     10  C   UNL     1     -94.115 148.416 237.378  1.00  0.00     0.000 C 
BRANCH  10  11
ATOM     11  C   UNL     1     -95.107 148.487 238.546  1.00  0.00    -0.000 C 
BRANCH  11  12
ATOM     12  C   UNL     1     -95.726 149.888 238.659  1.00  0.00    -0.000 C 
BRANCH  12  13
ATOM     13  C   UNL     1     -97.109 149.871 239.329  1.00  0.00    -0.000 C 
BRANCH  13  14
ATOM     14  C   UNL     1     -98.235 150.300 238.372  1.00  0.00    -0.000 C 
BRANCH  14  15
ATOM     15  C   UNL     1     -98.396 149.339 237.184  1.00  0.00    -0.003 C 
ATOM     16  C   UNL     1     -98.760 150.060 235.886  1.00  0.00     0.004 C 
ENDBRANCH  14  15
ENDBRANCH  13  14
ENDBRANCH  12  13
ENDBRANCH  11  12
ENDBRANCH  10  11
ENDBRANCH   1  10
TORSDOF 12
ENDMDL
MODEL 6
REMARK VINA RESULT:    -3.472      3.923      5.872
REMARK INTER + INTRA:          -7.144
REMARK INTER:                  -5.149
REMARK INTRA:                  -1.994
REMARK UNBOUND:                -1.236
REMARK SMILES CCCCCCCCCCCCCC(=O)[O-]
REMARK SMILES IDX 8 1 9 2 10 3 11 4 12 5 13 6 14 7 15 8 16 9 7 10 6 11 5 12
REMARK SMILES IDX 4 13 3 14 2 15 1 16
REMARK H PARENT
REMARK Flexibility Score: inf
ROOT
ATOM      1  C   UNL     1     -94.113 147.918 237.007  1.00  0.00     0.000 C 
ENDROOT
BRANCH   1   2
ATOM      2  C   UNL     1     -94.613 147.228 238.287  1.00  0.00     0.000 C 
BRANCH   2   3
ATOM      3  C   UNL     1     -95.737 148.016 238.982  1.00  0.00     0.000 C 
BRANCH   3   4
ATOM      4  C   UNL     1     -95.734 149.507 238.607  1.00  0.00     0.000 C 
BRANCH   4   5
ATOM      5  C   UNL     1     -96.846 150.299 239.310  1.00  0.00     0.006 C 
BRANCH   5   6
ATOM      6  C   UNL     1     -98.011 149.382 239.694  1.00  0.00     0.053 C 
BRANCH   6   7
ATOM      7  C   UNL     1     -98.354 149.547 241.141  1.00  0.00     0.041 C 
ATOM      8  O   UNL     1     -98.863 150.622 241.553  1.00  0.00    -0.550 OA
ATOM      9  O   UNL     1     -98.156 148.495 242.026  1.00  0.00    -0.550 OA
ENDBRANCH   6   7
ENDBRANCH   5   6
ENDBRANCH   4   5
ENDBRANCH   3   4
ENDBRANCH   2   3
ENDBRANCH   1   2
BRANCH   1  10
ATOM     10  C   UNL     1     -94.591 147.215 235.728  1.00  0.00     0.000 C 
BRANCH  10  11
ATOM     11  C   UNL     1     -94.642 148.196 234.550  1.00  0.00    -0.000 C 
BRANCH  11  12
ATOM     12  C   UNL     1     -95.478 149.436 234.902  1.00  0.00    -0.000 C 
BRANCH  12  13
ATOM     13  C   UNL     1     -96.963 149.270 234.540  1.00  0.00    -0.000 C 
BRANCH  13  14
ATOM     14  C   UNL     1     -97.881 149.328 235.774  1.00  0.00    -0.000 C 
BRANCH  14  15
ATOM     15  C   UNL     1     -98.265 147.932 236.288  1.00  0.00    -0.003 C 
ATOM     16  C   UNL     1     -98.265 146.876 235.184  1.00  0.00     0.004 C 
ENDBRANCH  14  15
ENDBRANCH  13  14
ENDBRANCH  12  13
ENDBRANCH  11  12
ENDBRANCH  10  11
ENDBRANCH   1  10
TORSDOF 12
ENDMDL
MODEL 7
REMARK VINA RESULT:    -3.466      2.837      6.000
REMARK INTER + INTRA:          -7.133
REMARK INTER:                  -6.246
REMARK INTRA:                  -0.887
REMARK UNBOUND:                -1.236
REMARK SMILES CCCCCCCCCCCCCC(=O)[O-]
REMARK SMILES IDX 8 1 9 2 10 3 11 4 12 5 13 6 14 7 15 8 16 9 7 10 6 11 5 12
REMARK SMILES IDX 4 13 3 14 2 15 1 16
REMARK H PARENT
REMARK Flexibility Score: inf
ROOT
ATOM      1  C   UNL     1     -95.041 148.299 234.792  1.00  0.00     0.000 C 
ENDROOT
BRANCH   1   2
ATOM      2  C   UNL     1     -94.084 147.942 235.941  1.00  0.00     0.000 C 
BRANCH   2   3
ATOM      3  C   UNL     1     -94.322 148.798 237.196  1.00  0.00     0.000 C 
BRANCH   3   4
ATOM      4  C   UNL     1     -94.833 147.971 238.388  1.00  0.00     0.000 C 
BRANCH   4   5
ATOM      5  C   UNL     1     -96.197 148.453 238.905  1.00  0.00     0.006 C 
BRANCH   5   6
ATOM      6  C   UNL     1     -96.277 149.983 238.889  1.00  0.00     0.053 C 
BRANCH   6   7
ATOM      7  C   UNL     1     -97.619 150.442 239.368  1.00  0.00     0.041 C 
ATOM      8  O   UNL     1     -98.381 151.082 238.599  1.00  0.00    -0.550 OA
ATOM      9  O   UNL     1     -98.047 150.119 240.650  1.00  0.00    -0.550 OA
ENDBRANCH   6   7
ENDBRANCH   5   6
ENDBRANCH   4   5
ENDBRANCH   3   4
ENDBRANCH   2   3
ENDBRANCH   1   2
BRANCH   1  10
ATOM     10  C   UNL     1     -95.748 149.645 235.005  1.00  0.00     0.000 C 
BRANCH  10  11
ATOM     11  C   UNL     1     -96.402 150.132 233.706  1.00  0.00    -0.000 C 
BRANCH  11  12
ATOM     12  C   UNL     1     -95.346 150.642 232.715  1.00  0.00    -0.000 C 
BRANCH  12  13
ATOM     13  C   UNL     1     -95.736 151.982 232.071  1.00  0.00    -0.000 C 
BRANCH  13  14
ATOM     14  C   UNL     1     -97.081 152.518 232.591  1.00  0.00    -0.000 C 
BRANCH  14  15
ATOM     15  C   UNL     1     -96.949 153.899 233.251  1.00  0.00    -0.003 C 
ATOM     16  C   UNL     1     -98.005 154.890 232.763  1.00  0.00     0.004 C 
ENDBRANCH  14  15
ENDBRANCH  13  14
ENDBRANCH  12  13
ENDBRANCH  11  12
ENDBRANCH  10  11
ENDBRANCH   1  10
TORSDOF 12
ENDMDL
MODEL 8
REMARK VINA RESULT:    -3.428      2.029      4.507
REMARK INTER + INTRA:          -7.068
REMARK INTER:                  -5.559
REMARK INTRA:                  -1.509
REMARK UNBOUND:                -1.236
REMARK SMILES CCCCCCCCCCCCCC(=O)[O-]
REMARK SMILES IDX 8 1 9 2 10 3 11 4 12 5 13 6 14 7 15 8 16 9 7 10 6 11 5 12
REMARK SMILES IDX 4 13 3 14 2 15 1 16
REMARK H PARENT
REMARK Flexibility Score: inf
ROOT
ATOM      1  C   UNL     1     -96.301 150.000 239.001  1.00  0.00     0.000 C 
ENDROOT
BRANCH   1   2
ATOM      2  C   UNL     1     -97.708 150.618 238.985  1.00  0.00     0.000 C 
BRANCH   2   3
ATOM      3  C   UNL     1     -98.815 149.564 238.822  1.00  0.00     0.000 C 
BRANCH   3   4
ATOM      4  C   UNL     1     -99.949 150.035 237.895  1.00  0.00     0.000 C 
BRANCH   4   5
ATOM      5  C   UNL     1     -99.570 151.279 237.079  1.00  0.00     0.006 C 
BRANCH   5   6
ATOM      6  C   UNL     1    -100.731 151.720 236.183  1.00  0.00     0.053 C 
BRANCH   6   7
ATOM      7  C   UNL     1    -100.326 152.884 235.334  1.00  0.00     0.041 C 
ATOM      8  O   UNL     1    -100.979 153.959 235.380  1.00  0.00    -0.550 OA
ATOM      9  O   UNL     1     -99.197 152.798 234.529  1.00  0.00    -0.550 OA
ENDBRANCH   6   7
ENDBRANCH   5   6
ENDBRANCH   4   5
ENDBRANCH   3   4
ENDBRANCH   2   3
ENDBRANCH   1   2
BRANCH   1  10
ATOM     10  C   UNL     1     -96.328 148.464 239.020  1.00  0.00     0.000 C 
BRANCH  10  11
ATOM     11  C   UNL     1     -94.936 147.888 238.733  1.00  0.00    -0.000 C 
BRANCH  11  12
ATOM     12  C   UNL     1     -94.220 148.695 237.639  1.00  0.00    -0.000 C 
BRANCH  12  13
ATOM     13  C   UNL     1     -93.825 147.832 236.430  1.00  0.00    -0.000 C 
BRANCH  13  14
ATOM     14  C   UNL     1     -94.675 148.137 235.184  1.00  0.00    -0.000 C 
BRANCH  14  15
ATOM     15  C   UNL     1     -95.574 149.368 235.371  1.00  0.00    -0.003 C 
ATOM     16  C   UNL     1     -97.063 149.020 235.340  1.00  0.00     0.004 C 
ENDBRANCH  14  15
ENDBRANCH  13  14
ENDBRANCH  12  13
ENDBRANCH  11  12
ENDBRANCH  10  11
ENDBRANCH   1  10
TORSDOF 12
ENDMDL
MODEL 9
REMARK VINA RESULT:    -3.409      1.385      2.031
REMARK INTER + INTRA:          -7.035
REMARK INTER:                  -5.191
REMARK INTRA:                  -1.844
REMARK UNBOUND:                -1.236
REMARK SMILES CCCCCCCCCCCCCC(=O)[O-]
REMARK SMILES IDX 8 1 9 2 10 3 11 4 12 5 13 6 14 7 15 8 16 9 7 10 6 11 5 12
REMARK SMILES IDX 4 13 3 14 2 15 1 16
REMARK H PARENT
REMARK Flexibility Score: inf
ROOT
ATOM      1  C   UNL     1     -94.706 147.671 237.981  1.00  0.00     0.000 C 
ENDROOT
BRANCH   1   2
ATOM      2  C   UNL     1     -94.170 148.689 236.962  1.00  0.00     0.000 C 
BRANCH   2   3
ATOM      3  C   UNL     1     -94.584 148.354 235.519  1.00  0.00     0.000 C 
BRANCH   3   4
ATOM      4  C   UNL     1     -95.380 149.490 234.853  1.00  0.00     0.000 C 
BRANCH   4   5
ATOM      5  C   UNL     1     -95.550 149.288 233.340  1.00  0.00     0.006 C 
BRANCH   5   6
ATOM      6  C   UNL     1     -96.856 149.920 232.847  1.00  0.00     0.053 C 
BRANCH   6   7
ATOM      7  C   UNL     1     -96.737 151.411 232.815  1.00  0.00     0.041 C 
ATOM      8  O   UNL     1     -97.644 152.129 233.310  1.00  0.00    -0.550 OA
ATOM      9  O   UNL     1     -95.601 152.006 232.282  1.00  0.00    -0.550 OA
ENDBRANCH   6   7
ENDBRANCH   5   6
ENDBRANCH   4   5
ENDBRANCH   3   4
ENDBRANCH   2   3
ENDBRANCH   1   2
BRANCH   1  10
ATOM     10  C   UNL     1     -95.659 148.303 239.006  1.00  0.00     0.000 C 
BRANCH  10  11
ATOM     11  C   UNL     1     -95.885 149.789 238.702  1.00  0.00    -0.000 C 
BRANCH  11  12
ATOM     12  C   UNL     1     -97.230 150.269 239.267  1.00  0.00    -0.000 C 
BRANCH  12  13
ATOM     13  C   UNL     1     -98.432 149.691 238.505  1.00  0.00    -0.000 C 
BRANCH  13  14
ATOM     14  C   UNL     1     -98.295 149.843 236.980  1.00  0.00    -0.000 C 
BRANCH  14  15
ATOM     15  C   UNL     1     -98.917 148.667 236.212  1.00  0.00    -0.003 C 
ATOM     16  C   UNL     1     -98.083 147.390 236.311  1.00  0.00     0.004 C 
ENDBRANCH  14  15
ENDBRANCH  13  14
ENDBRANCH  12  13
ENDBRANCH  11  12
ENDBRANCH  10  11
ENDBRANCH   1  10
TORSDOF 12
ENDMDL
