MODEL 1
REMARK VINA RESULT:    -3.327      0.000      0.000
REMARK INTER + INTRA:          -6.330
REMARK INTER:                  -5.271
REMARK INTRA:                  -1.059
REMARK UNBOUND:                -1.059
REMARK SMILES CCCCCCCCCCCC(=O)[O-]
REMARK SMILES IDX 7 1 8 2 9 3 10 4 11 5 12 6 13 7 14 8 6 9 5 10 4 11 3 12 2 13
REMARK SMILES IDX 1 14
REMARK H PARENT
REMARK Flexibility Score: inf
ROOT
ATOM      1  C   UNL     1     -93.844 146.895 239.562  1.00  0.00     0.000 C 
ENDROOT
BRANCH   1   2
ATOM      2  C   UNL     1     -94.435 148.301 239.356  1.00  0.00     0.000 C 
BRANCH   2   3
ATOM      3  C   UNL     1     -95.936 148.269 239.027  1.00  0.00     0.000 C 
BRANCH   3   4
ATOM      4  C   UNL     1     -96.233 148.699 237.583  1.00  0.00     0.006 C 
BRANCH   4   5
ATOM      5  C   UNL     1     -96.763 150.135 237.539  1.00  0.00     0.053 C 
BRANCH   5   6
ATOM      6  C   UNL     1     -95.745 151.052 236.936  1.00  0.00     0.041 C 
ATOM      7  O   UNL     1     -94.698 150.581 236.417  1.00  0.00    -0.550 OA
ATOM      8  O   UNL     1     -95.929 152.427 236.991  1.00  0.00    -0.550 OA
ENDBRANCH   5   6
ENDBRANCH   4   5
ENDBRANCH   3   4
ENDBRANCH   2   3
ENDBRANCH   1   2
BRANCH   1   9
ATOM      9  C   UNL     1     -92.951 146.806 240.810  1.00  0.00     0.000 C 
BRANCH   9  10
ATOM     10  C   UNL     1     -93.636 147.364 242.067  1.00  0.00    -0.000 C 
BRANCH  10  11
ATOM     11  C   UNL     1     -94.714 146.401 242.578  1.00  0.00    -0.000 C 
BRANCH  11  12
ATOM     12  C   UNL     1     -96.048 147.133 242.790  1.00  0.00    -0.000 C 
BRANCH  12  13
ATOM     13  C   UNL     1     -95.888 148.662 242.790  1.00  0.00    -0.003 C 
ATOM     14  C   UNL     1     -97.193 149.394 243.102  1.00  0.00     0.004 C 
ENDBRANCH  12  13
ENDBRANCH  11  12
ENDBRANCH  10  11
ENDBRANCH   9  10
ENDBRANCH   1   9
TORSDOF 10
ENDMDL
MODEL 2
REMARK VINA RESULT:    -3.306      3.556      5.334
REMARK INTER + INTRA:          -6.297
REMARK INTER:                  -4.868
REMARK INTRA:                  -1.429
REMARK UNBOUND:                -1.059
REMARK SMILES CCCCCCCCCCCC(=O)[O-]
REMARK SMILES IDX 7 1 8 2 9 3 10 4 11 5 12 6 13 7 14 8 6 9 5 10 4 11 3 12 2 13
REMARK SMILES IDX 1 14
REMARK H PARENT
REMARK Flexibility Score: inf
ROOT
ATOM      1  C   UNL     1     -93.684 147.342 242.110  1.00  0.00     0.000 C 
ENDROOT
BRANCH   1   2
ATOM      2  C   UNL     1     -94.823 146.405 242.551  1.00  0.00     0.000 C 
BRANCH   2   3
ATOM      3  C   UNL     1     -96.100 147.167 242.937  1.00  0.00     0.000 C 
BRANCH   3   4
ATOM      4  C   UNL     1     -95.912 148.691 242.902  1.00  0.00     0.006 C 
BRANCH   4   5
ATOM      5  C   UNL     1     -97.256 149.411 243.039  1.00  0.00     0.053 C 
BRANCH   5   6
ATOM      6  C   UNL     1     -98.020 148.876 244.209  1.00  0.00     0.041 C 
ATOM      7  O   UNL     1     -99.157 148.361 244.041  1.00  0.00    -0.550 OA
ATOM      8  O   UNL     1     -97.499 148.990 245.491  1.00  0.00    -0.550 OA
ENDBRANCH   5   6
ENDBRANCH   4   5
ENDBRANCH   3   4
ENDBRANCH   2   3
ENDBRANCH   1   2
BRANCH   1   9
ATOM      9  C   UNL     1     -92.968 146.847 240.844  1.00  0.00     0.000 C 
BRANCH   9  10
ATOM     10  C   UNL     1     -93.851 146.945 239.590  1.00  0.00    -0.000 C 
BRANCH  10  11
ATOM     11  C   UNL     1     -94.452 148.349 239.450  1.00  0.00    -0.000 C 
BRANCH  11  12
ATOM     12  C   UNL     1     -95.726 148.317 238.592  1.00  0.00    -0.000 C 
BRANCH  12  13
ATOM     13  C   UNL     1     -97.007 148.421 239.436  1.00  0.00    -0.003 C 
ATOM     14  C   UNL     1     -97.696 147.071 239.634  1.00  0.00     0.004 C 
ENDBRANCH  12  13
ENDBRANCH  11  12
ENDBRANCH  10  11
ENDBRANCH   9  10
ENDBRANCH   1   9
TORSDOF 10
ENDMDL
MODEL 3
REMARK VINA RESULT:    -3.282      4.083      5.825
REMARK INTER + INTRA:          -6.260
REMARK INTER:                  -5.276
REMARK INTRA:                  -0.984
REMARK UNBOUND:                -1.059
REMARK SMILES CCCCCCCCCCCC(=O)[O-]
REMARK SMILES IDX 7 1 8 2 9 3 10 4 11 5 12 6 13 7 14 8 6 9 5 10 4 11 3 12 2 13
REMARK SMILES IDX 1 14
REMARK H PARENT
REMARK Flexibility Score: inf
ROOT
ATOM      1  C   UNL     1     -95.522 145.375 243.010  1.00  0.00     0.000 C 
ENDROOT
BRANCH   1   2
ATOM      2  C   UNL     1     -96.570 146.502 243.026  1.00  0.00     0.000 C 
BRANCH   2   3
ATOM      3  C   UNL     1     -96.015 147.834 242.498  1.00  0.00     0.000 C 
BRANCH   3   4
ATOM      4  C   UNL     1     -96.460 149.036 243.344  1.00  0.00     0.006 C 
BRANCH   4   5
ATOM      5  C   UNL     1     -97.960 148.967 243.645  1.00  0.00     0.053 C 
BRANCH   5   6
ATOM      6  C   UNL     1     -98.201 148.995 245.122  1.00  0.00     0.041 C 
ATOM      7  O   UNL     1     -97.413 148.399 245.903  1.00  0.00    -0.550 OA
ATOM      8  O   UNL     1     -99.321 149.638 245.631  1.00  0.00    -0.550 OA
ENDBRANCH   5   6
ENDBRANCH   4   5
ENDBRANCH   3   4
ENDBRANCH   2   3
ENDBRANCH   1   2
BRANCH   1   9
ATOM      9  C   UNL     1     -94.092 145.901 242.809  1.00  0.00     0.000 C 
BRANCH   9  10
ATOM     10  C   UNL     1     -93.180 144.879 242.115  1.00  0.00    -0.000 C 
BRANCH  10  11
ATOM     11  C   UNL     1     -92.452 145.513 240.923  1.00  0.00    -0.000 C 
BRANCH  11  12
ATOM     12  C   UNL     1     -93.042 146.892 240.590  1.00  0.00    -0.000 C 
BRANCH  12  13
ATOM     13  C   UNL     1     -93.887 146.876 239.306  1.00  0.00    -0.003 C 
ATOM     14  C   UNL     1     -94.740 148.134 239.144  1.00  0.00     0.004 C 
ENDBRANCH  12  13
ENDBRANCH  11  12
ENDBRANCH  10  11
ENDBRANCH   9  10
ENDBRANCH   1   9
TORSDOF 10
ENDMDL
MODEL 4
REMARK VINA RESULT:    -3.279      1.345      1.962
REMARK INTER + INTRA:          -6.254
REMARK INTER:                  -5.014
REMARK INTRA:                  -1.240
REMARK UNBOUND:                -1.059
REMARK SMILES CCCCCCCCCCCC(=O)[O-]
REMARK SMILES IDX 7 1 8 2 9 3 10 4 11 5 12 6 13 7 14 8 6 9 5 10 4 11 3 12 2 13
REMARK SMILES IDX 1 14
REMARK H PARENT
REMARK Flexibility Score: inf
ROOT
ATOM      1  C   UNL     1     -92.317 145.350 240.659  1.00  0.00     0.000 C 
ENDROOT
BRANCH   1   2
ATOM      2  C   UNL     1     -92.989 146.626 240.123  1.00  0.00     0.000 C 
BRANCH   2   3
ATOM      3  C   UNL     1     -93.766 146.382 238.819  1.00  0.00     0.000 C 
BRANCH   3   4
ATOM      4  C   UNL     1     -95.058 147.207 238.738  1.00  0.00     0.006 C 
BRANCH   4   5
ATOM      5  C   UNL     1     -94.750 148.707 238.738  1.00  0.00     0.053 C 
BRANCH   5   6
ATOM      6  C   UNL     1     -95.082 149.311 237.410  1.00  0.00     0.041 C 
ATOM      7  O   UNL     1     -94.377 149.047 236.400  1.00  0.00    -0.550 OA
ATOM      8  O   UNL     1     -96.141 150.203 237.297  1.00  0.00    -0.550 OA
ENDBRANCH   5   6
ENDBRANCH   4   5
ENDBRANCH   3   4
ENDBRANCH   2   3
ENDBRANCH   1   2
BRANCH   1   9
ATOM      9  C   UNL     1     -92.924 144.875 241.988  1.00  0.00     0.000 C 
BRANCH   9  10
ATOM     10  C   UNL     1     -93.771 145.959 242.671  1.00  0.00    -0.000 C 
BRANCH  10  11
ATOM     11  C   UNL     1     -95.241 145.531 242.763  1.00  0.00    -0.000 C 
BRANCH  11  12
ATOM     12  C   UNL     1     -96.172 146.655 242.285  1.00  0.00    -0.000 C 
BRANCH  12  13
ATOM     13  C   UNL     1     -95.518 148.043 242.382  1.00  0.00    -0.003 C 
ATOM     14  C   UNL     1     -96.395 149.060 243.113  1.00  0.00     0.004 C 
ENDBRANCH  12  13
ENDBRANCH  11  12
ENDBRANCH  10  11
ENDBRANCH   9  10
ENDBRANCH   1   9
TORSDOF 10
ENDMDL
MODEL 5
REMARK VINA RESULT:    -3.248      2.097      3.029
REMARK INTER + INTRA:          -6.206
REMARK INTER:                  -5.004
REMARK INTRA:                  -1.202
REMARK UNBOUND:                -1.059
REMARK SMILES CCCCCCCCCCCC(=O)[O-]
REMARK SMILES IDX 7 1 8 2 9 3 10 4 11 5 12 6 13 7 14 8 6 9 5 10 4 11 3 12 2 13
REMARK SMILES IDX 1 14
REMARK H PARENT
REMARK Flexibility Score: inf
ROOT
ATOM      1  C   UNL     1     -93.056 145.020 241.989  1.00  0.00     0.000 C 
ENDROOT
BRANCH   1   2
ATOM      2  C   UNL     1     -92.531 145.593 240.661  1.00  0.00     0.000 C 
BRANCH   2   3
ATOM      3  C   UNL     1     -93.103 146.986 240.351  1.00  0.00     0.000 C 
BRANCH   3   4
ATOM      4  C   UNL     1     -94.036 146.982 239.131  1.00  0.00     0.006 C 
BRANCH   4   5
ATOM      5  C   UNL     1     -94.821 148.293 239.040  1.00  0.00     0.053 C 
BRANCH   5   6
ATOM      6  C   UNL     1     -96.293 148.023 239.034  1.00  0.00     0.041 C 
ATOM      7  O   UNL     1     -96.721 146.852 238.852  1.00  0.00    -0.550 OA
ATOM      8  O   UNL     1     -97.193 149.070 239.181  1.00  0.00    -0.550 OA
ENDBRANCH   5   6
ENDBRANCH   4   5
ENDBRANCH   3   4
ENDBRANCH   2   3
ENDBRANCH   1   2
BRANCH   1   9
ATOM      9  C   UNL     1     -93.906 146.031 242.775  1.00  0.00     0.000 C 
BRANCH   9  10
ATOM     10  C   UNL     1     -95.363 145.575 242.941  1.00  0.00    -0.000 C 
BRANCH  10  11
ATOM     11  C   UNL     1     -96.336 146.701 242.570  1.00  0.00    -0.000 C 
BRANCH  11  12
ATOM     12  C   UNL     1     -95.637 148.068 242.615  1.00  0.00    -0.000 C 
BRANCH  12  13
ATOM     13  C   UNL     1     -96.523 149.164 243.228  1.00  0.00    -0.003 C 
ATOM     14  C   UNL     1     -97.304 148.679 244.450  1.00  0.00     0.004 C 
ENDBRANCH  12  13
ENDBRANCH  11  12
ENDBRANCH  10  11
ENDBRANCH   9  10
ENDBRANCH   1   9
TORSDOF 10
ENDMDL
MODEL 6
REMARK VINA RESULT:    -3.237      2.123      3.679
REMARK INTER + INTRA:          -6.189
REMARK INTER:                  -5.236
REMARK INTRA:                  -0.953
REMARK UNBOUND:                -1.059
REMARK SMILES CCCCCCCCCCCC(=O)[O-]
REMARK SMILES IDX 7 1 8 2 9 3 10 4 11 5 12 6 13 7 14 8 6 9 5 10 4 11 3 12 2 13
REMARK SMILES IDX 1 14
REMARK H PARENT
REMARK Flexibility Score: inf
ROOT
ATOM      1  C   UNL     1     -94.682 146.449 242.676  1.00  0.00     0.000 C 
ENDROOT
BRANCH   1   2
ATOM      2  C   UNL     1     -93.640 147.420 242.094  1.00  0.00     0.000 C 
BRANCH   2   3
ATOM      3  C   UNL     1     -92.979 146.880 240.816  1.00  0.00     0.000 C 
BRANCH   3   4
ATOM      4  C   UNL     1     -93.924 146.908 239.605  1.00  0.00     0.006 C 
BRANCH   4   5
ATOM      5  C   UNL     1     -94.507 148.310 239.400  1.00  0.00     0.053 C 
BRANCH   5   6
ATOM      6  C   UNL     1     -95.949 148.225 239.008  1.00  0.00     0.041 C 
ATOM      7  O   UNL     1     -96.494 149.178 238.391  1.00  0.00    -0.550 OA
ATOM      8  O   UNL     1     -96.703 147.116 239.368  1.00  0.00    -0.550 OA
ENDBRANCH   5   6
ENDBRANCH   4   5
ENDBRANCH   3   4
ENDBRANCH   2   3
ENDBRANCH   1   2
BRANCH   1   9
ATOM      9  C   UNL     1     -96.079 147.079 242.788  1.00  0.00     0.000 C 
BRANCH   9  10
ATOM     10  C   UNL     1     -96.039 148.614 242.756  1.00  0.00    -0.000 C 
BRANCH  10  11
ATOM     11  C   UNL     1     -97.172 149.211 243.600  1.00  0.00    -0.000 C 
BRANCH  11  12
ATOM     12  C   UNL     1     -97.415 148.372 244.864  1.00  0.00    -0.000 C 
BRANCH  12  13
ATOM     13  C   UNL     1     -98.446 149.013 245.808  1.00  0.00    -0.003 C 
ATOM     14  C   UNL     1     -97.799 149.714 247.003  1.00  0.00     0.004 C 
ENDBRANCH  12  13
ENDBRANCH  11  12
ENDBRANCH  10  11
ENDBRANCH   9  10
ENDBRANCH   1   9
TORSDOF 10
ENDMDL
MODEL 7
REMARK VINA RESULT:    -3.229      3.047      4.564
REMARK INTER + INTRA:          -6.176
REMARK INTER:                  -5.228
REMARK INTRA:                  -0.948
REMARK UNBOUND:                -1.059
REMARK SMILES CCCCCCCCCCCC(=O)[O-]
REMARK SMILES IDX 7 1 8 2 9 3 10 4 11 5 12 6 13 7 14 8 6 9 5 10 4 11 3 12 2 13
REMARK SMILES IDX 1 14
REMARK H PARENT
REMARK Flexibility Score: inf
ROOT
ATOM      1  C   UNL     1     -91.669 145.268 240.840  1.00  0.00     0.000 C 
ENDROOT
BRANCH   1   2
ATOM      2  C   UNL     1     -91.293 144.920 239.389  1.00  0.00     0.000 C 
BRANCH   2   3
ATOM      3  C   UNL     1     -92.454 145.145 238.408  1.00  0.00     0.000 C 
BRANCH   3   4
ATOM      4  C   UNL     1     -91.993 145.162 236.943  1.00  0.00     0.006 C 
BRANCH   4   5
ATOM      5  C   UNL     1     -92.920 146.032 236.088  1.00  0.00     0.053 C 
BRANCH   5   6
ATOM      6  C   UNL     1     -92.144 146.720 235.008  1.00  0.00     0.041 C 
ATOM      7  O   UNL     1     -92.705 147.025 233.923  1.00  0.00    -0.550 OA
ATOM      8  O   UNL     1     -90.791 146.980 235.182  1.00  0.00    -0.550 OA
ENDBRANCH   5   6
ENDBRANCH   4   5
ENDBRANCH   3   4
ENDBRANCH   2   3
ENDBRANCH   1   2
BRANCH   1   9
ATOM      9  C   UNL     1     -93.137 145.701 240.983  1.00  0.00     0.000 C 
BRANCH   9  10
ATOM     10  C   UNL     1     -93.280 147.127 241.537  1.00  0.00    -0.000 C 
BRANCH  10  11
ATOM     11  C   UNL     1     -94.524 147.817 240.962  1.00  0.00    -0.000 C 
BRANCH  11  12
ATOM     12  C   UNL     1     -94.352 148.098 239.462  1.00  0.00    -0.000 C 
BRANCH  12  13
ATOM     13  C   UNL     1     -95.552 147.617 238.630  1.00  0.00    -0.003 C 
ATOM     14  C   UNL     1     -96.893 148.059 239.216  1.00  0.00     0.004 C 
ENDBRANCH  12  13
ENDBRANCH  11  12
ENDBRANCH  10  11
ENDBRANCH   9  10
ENDBRANCH   1   9
TORSDOF 10
ENDMDL
MODEL 8
REMARK VINA RESULT:    -3.219      3.522      5.326
REMARK INTER + INTRA:          -6.160
REMARK INTER:                  -4.527
REMARK INTRA:                  -1.633
REMARK UNBOUND:                -1.059
REMARK SMILES CCCCCCCCCCCC(=O)[O-]
REMARK SMILES IDX 7 1 8 2 9 3 10 4 11 5 12 6 13 7 14 8 6 9 5 10 4 11 3 12 2 13
REMARK SMILES IDX 1 14
REMARK H PARENT
REMARK Flexibility Score: inf
ROOT
ATOM      1  C   UNL     1     -92.672 145.321 241.234  1.00  0.00     0.000 C 
ENDROOT
BRANCH   1   2
ATOM      2  C   UNL     1     -93.607 146.065 242.204  1.00  0.00     0.000 C 
BRANCH   2   3
ATOM      3  C   UNL     1     -93.587 147.587 241.993  1.00  0.00     0.000 C 
BRANCH   3   4
ATOM      4  C   UNL     1     -94.973 148.225 242.168  1.00  0.00     0.006 C 
BRANCH   4   5
ATOM      5  C   UNL     1     -96.045 147.154 242.388  1.00  0.00     0.053 C 
BRANCH   5   6
ATOM      6  C   UNL     1     -96.735 147.364 243.700  1.00  0.00     0.041 C 
ATOM      7  O   UNL     1     -97.132 146.376 244.372  1.00  0.00    -0.550 OA
ATOM      8  O   UNL     1     -96.984 148.652 244.155  1.00  0.00    -0.550 OA
ENDBRANCH   5   6
ENDBRANCH   4   5
ENDBRANCH   3   4
ENDBRANCH   2   3
ENDBRANCH   1   2
BRANCH   1   9
ATOM      9  C   UNL     1     -93.037 145.561 239.760  1.00  0.00     0.000 C 
BRANCH   9  10
ATOM     10  C   UNL     1     -94.454 145.077 239.417  1.00  0.00    -0.000 C 
BRANCH  10  11
ATOM     11  C   UNL     1     -95.272 146.196 238.760  1.00  0.00    -0.000 C 
BRANCH  11  12
ATOM     12  C   UNL     1     -94.363 147.352 238.316  1.00  0.00    -0.000 C 
BRANCH  12  13
ATOM     13  C   UNL     1     -95.032 148.726 238.484  1.00  0.00    -0.003 C 
ATOM     14  C   UNL     1     -96.524 148.623 238.800  1.00  0.00     0.004 C 
ENDBRANCH  12  13
ENDBRANCH  11  12
ENDBRANCH  10  11
ENDBRANCH   9  10
ENDBRANCH   1   9
TORSDOF 10
ENDMDL
MODEL 9
REMARK VINA RESULT:    -3.204      3.489      5.359
REMARK INTER + INTRA:          -6.136
REMARK INTER:                  -4.995
REMARK INTRA:                  -1.141
REMARK UNBOUND:                -1.059
REMARK SMILES CCCCCCCCCCCC(=O)[O-]
REMARK SMILES IDX 7 1 8 2 9 3 10 4 11 5 12 6 13 7 14 8 6 9 5 10 4 11 3 12 2 13
REMARK SMILES IDX 1 14
REMARK H PARENT
REMARK Flexibility Score: inf
ROOT
ATOM      1  C   UNL     1     -93.868 146.136 242.783  1.00  0.00     0.000 C 
ENDROOT
BRANCH   1   2
ATOM      2  C   UNL     1     -95.378 145.878 242.929  1.00  0.00     0.000 C 
BRANCH   2   3
ATOM      3  C   UNL     1     -96.231 146.986 242.293  1.00  0.00     0.000 C 
BRANCH   3   4
ATOM      4  C   UNL     1     -95.831 148.389 242.775  1.00  0.00     0.006 C 
BRANCH   4   5
ATOM      5  C   UNL     1     -97.045 149.322 242.809  1.00  0.00     0.053 C 
BRANCH   5   6
ATOM      6  C   UNL     1     -97.855 149.083 244.045  1.00  0.00     0.041 C 
ATOM      7  O   UNL     1     -99.089 149.335 244.051  1.00  0.00    -0.550 OA
ATOM      8  O   UNL     1     -97.239 148.628 245.203  1.00  0.00    -0.550 OA
ENDBRANCH   5   6
ENDBRANCH   4   5
ENDBRANCH   3   4
ENDBRANCH   2   3
ENDBRANCH   1   2
BRANCH   1   9
ATOM      9  C   UNL     1     -93.218 145.248 241.709  1.00  0.00     0.000 C 
BRANCH   9  10
ATOM     10  C   UNL     1     -92.604 146.064 240.561  1.00  0.00    -0.000 C 
BRANCH  10  11
ATOM     11  C   UNL     1     -93.262 145.707 239.222  1.00  0.00    -0.000 C 
BRANCH  11  12
ATOM     12  C   UNL     1     -94.550 146.517 239.009  1.00  0.00    -0.000 C 
BRANCH  12  13
ATOM     13  C   UNL     1     -94.381 148.000 239.377  1.00  0.00    -0.003 C 
ATOM     14  C   UNL     1     -94.911 148.942 238.296  1.00  0.00     0.004 C 
ENDBRANCH  12  13
ENDBRANCH  11  12
ENDBRANCH  10  11
ENDBRANCH   9  10
ENDBRANCH   1   9
TORSDOF 10
ENDMDL
