MODEL 1
REMARK VINA RESULT:    -3.562      0.000      0.000
REMARK INTER + INTRA:          -4.931
REMARK INTER:                  -5.228
REMARK INTRA:                   0.297
REMARK UNBOUND:                 0.297
REMARK SMILES C=C1CC=CC(C)(C)CC=C(C)CCC1
REMARK SMILES IDX 2 1 1 2 15 3 14 4 13 5 11 6 12 7 10 8 3 10 4 11 5 12 6 13
REMARK SMILES IDX 7 14 8 15 9 16
REMARK H PARENT
REMARK Flexibility Score: 60.00
ROOT
ATOM      1  C   UNL     1     163.002 167.640 200.807  1.00  0.00    -0.074 C 
ATOM      2  C   UNL     1     163.801 168.443 201.533  1.00  0.00     0.008 C 
ENDROOT
BRANCH   1   3
ATOM      3  C   UNL     1     162.242 168.221 199.624  1.00  0.00     0.031 C 
BRANCH   3   4
ATOM      4  C   UNL     1     163.111 169.102 198.712  1.00  0.00     0.009 C 
BRANCH   4   5
ATOM      5  C   UNL     1     163.825 168.315 197.594  1.00  0.00     0.030 C 
BRANCH   5   6
ATOM      6  C   UNL     1     165.188 167.819 198.056  1.00  0.00    -0.077 C 
ATOM      7  C   UNL     1     166.196 168.824 198.553  1.00  0.00     0.039 C 
ATOM      8  C   UNL     1     165.534 166.508 198.064  1.00  0.00    -0.027 CG0
ATOM      9  G   UNL     1     164.656 165.381 197.561  1.00  0.00     0.000 G0
ENDBRANCH   5   6
ENDBRANCH   4   5
ENDBRANCH   3   4
ENDBRANCH   1   3
BRANCH   1  10
ATOM     10  C   UNL     1     162.997 166.135 201.032  1.00  0.00     0.057 C 
BRANCH  10  11
ATOM     11  C   UNL     1     162.254 165.322 199.987  1.00  0.00    -0.026 C 
ATOM     12  C   UNL     1     162.752 164.547 198.990  1.00  0.00    -0.024 C 
BRANCH  12  13
ATOM     13  C   UNL     1     164.214 164.308 198.585  1.00  0.00    -0.014 C 
ATOM     14  C   UNL     1     165.125 164.251 199.837  1.00  0.00     0.016 C 
ATOM     15  C   UNL     1     164.292 162.916 197.911  1.00  0.00     0.016 C 
BRANCH  13  16
ATOM     16  C   UNL     1     164.647 165.378 197.538  1.00  0.00     0.038 CG0
ATOM     17  G   UNL     1     165.519 166.488 198.087  1.00  0.00     0.000 G0
ENDBRANCH  13  16
ENDBRANCH  12  13
ENDBRANCH  10  11
ENDBRANCH   1  10
TORSDOF 0
ENDMDL
MODEL 2
REMARK VINA RESULT:    -3.460      1.751      4.282
REMARK INTER + INTRA:          -4.781
REMARK INTER:                  -5.088
REMARK INTRA:                   0.307
REMARK UNBOUND:                 0.297
REMARK SMILES C=C1CC=CC(C)(C)CC=C(C)CCC1
REMARK SMILES IDX 2 1 1 2 15 3 14 4 13 5 11 6 12 7 10 8 3 10 4 11 5 12 6 13
REMARK SMILES IDX 7 14 8 15 9 16
REMARK H PARENT
REMARK Flexibility Score: 60.00
ROOT
ATOM      1  C   UNL     1     164.028 163.115 199.902  1.00  0.00    -0.074 C 
ATOM      2  C   UNL     1     164.712 162.141 199.277  1.00  0.00     0.008 C 
ENDROOT
BRANCH   1   3
ATOM      3  C   UNL     1     164.405 163.491 201.327  1.00  0.00     0.031 C 
BRANCH   3   4
ATOM      4  C   UNL     1     165.921 163.487 201.580  1.00  0.00     0.009 C 
BRANCH   4   5
ATOM      5  C   UNL     1     166.547 164.896 201.599  1.00  0.00     0.030 C 
BRANCH   5   6
ATOM      6  C   UNL     1     166.752 165.426 200.188  1.00  0.00    -0.077 C 
ATOM      7  C   UNL     1     167.881 164.867 199.359  1.00  0.00     0.039 C 
ATOM      8  C   UNL     1     165.951 166.364 199.626  1.00  0.00    -0.027 CG0
ATOM      9  G   UNL     1     164.804 167.055 200.334  1.00  0.00     0.000 G0
ENDBRANCH   5   6
ENDBRANCH   4   5
ENDBRANCH   3   4
ENDBRANCH   1   3
BRANCH   1  10
ATOM     10  C   UNL     1     163.020 163.970 199.145  1.00  0.00     0.057 C 
BRANCH  10  11
ATOM     11  C   UNL     1     162.241 164.961 199.991  1.00  0.00    -0.026 C 
ATOM     12  C   UNL     1     162.417 166.300 200.123  1.00  0.00    -0.024 C 
BRANCH  12  13
ATOM     13  C   UNL     1     163.493 167.203 199.501  1.00  0.00    -0.014 C 
ATOM     14  C   UNL     1     163.661 166.893 197.993  1.00  0.00     0.016 C 
ATOM     15  C   UNL     1     162.995 168.666 199.606  1.00  0.00     0.016 C 
BRANCH  13  16
ATOM     16  C   UNL     1     164.813 167.081 200.321  1.00  0.00     0.038 CG0
ATOM     17  G   UNL     1     165.942 166.369 199.606  1.00  0.00     0.000 G0
ENDBRANCH  13  16
ENDBRANCH  12  13
ENDBRANCH  10  11
ENDBRANCH   1  10
TORSDOF 0
ENDMDL
MODEL 3
REMARK VINA RESULT:    -3.433      3.061      4.658
REMARK INTER + INTRA:          -4.742
REMARK INTER:                  -5.226
REMARK INTRA:                   0.484
REMARK UNBOUND:                 0.297
REMARK SMILES C=C1CC=CC(C)(C)CC=C(C)CCC1
REMARK SMILES IDX 2 1 1 2 15 3 14 4 13 5 11 6 12 7 10 8 3 10 4 11 5 12 6 13
REMARK SMILES IDX 7 14 8 15 9 16
REMARK H PARENT
REMARK Flexibility Score: 60.00
ROOT
ATOM      1  C   UNL     1     168.277 163.396 201.375  1.00  0.00    -0.074 C 
ATOM      2  C   UNL     1     168.628 163.738 202.627  1.00  0.00     0.008 C 
ENDROOT
BRANCH   1   3
ATOM      3  C   UNL     1     169.231 163.692 200.228  1.00  0.00     0.031 C 
BRANCH   3   4
ATOM      4  C   UNL     1     169.327 165.186 199.882  1.00  0.00     0.009 C 
BRANCH   4   5
ATOM      5  C   UNL     1     167.968 165.916 199.915  1.00  0.00     0.030 C 
BRANCH   5   6
ATOM      6  C   UNL     1     167.340 165.972 198.530  1.00  0.00    -0.077 C 
ATOM      7  C   UNL     1     168.029 166.772 197.453  1.00  0.00     0.039 C 
ATOM      8  C   UNL     1     166.199 165.316 198.208  1.00  0.00    -0.027 CG0
ATOM      9  G   UNL     1     165.366 164.507 199.180  1.00  0.00     0.000 G0
ENDBRANCH   5   6
ENDBRANCH   4   5
ENDBRANCH   3   4
ENDBRANCH   1   3
BRANCH   1  10
ATOM     10  C   UNL     1     167.035 162.553 201.117  1.00  0.00     0.057 C 
BRANCH  10  11
ATOM     11  C   UNL     1     166.962 161.906 199.745  1.00  0.00    -0.026 C 
ATOM     12  C   UNL     1     166.096 162.147 198.728  1.00  0.00    -0.024 C 
BRANCH  12  13
ATOM     13  C   UNL     1     164.896 163.105 198.683  1.00  0.00    -0.014 C 
ATOM     14  C   UNL     1     164.254 163.109 197.273  1.00  0.00     0.016 C 
ATOM     15  C   UNL     1     163.826 162.563 199.662  1.00  0.00     0.016 C 
BRANCH  13  16
ATOM     16  C   UNL     1     165.336 164.516 199.179  1.00  0.00     0.038 CG0
ATOM     17  G   UNL     1     166.209 165.287 198.211  1.00  0.00     0.000 G0
ENDBRANCH  13  16
ENDBRANCH  12  13
ENDBRANCH  10  11
ENDBRANCH   1  10
TORSDOF 0
ENDMDL
MODEL 4
REMARK VINA RESULT:    -3.350      2.632      5.581
REMARK INTER + INTRA:          -4.619
REMARK INTER:                  -5.085
REMARK INTRA:                   0.466
REMARK UNBOUND:                 0.297
REMARK SMILES C=C1CC=CC(C)(C)CC=C(C)CCC1
REMARK SMILES IDX 2 1 1 2 15 3 14 4 13 5 11 6 12 7 10 8 3 10 4 11 5 12 6 13
REMARK SMILES IDX 7 14 8 15 9 16
REMARK H PARENT
REMARK Flexibility Score: 60.00
ROOT
ATOM      1  C   UNL     1     168.844 163.915 200.271  1.00  0.00    -0.074 C 
ATOM      2  C   UNL     1     169.765 163.396 199.440  1.00  0.00     0.008 C 
ENDROOT
BRANCH   1   3
ATOM      3  C   UNL     1     167.876 162.983 200.983  1.00  0.00     0.031 C 
BRANCH   3   4
ATOM      4  C   UNL     1     167.166 162.000 200.039  1.00  0.00     0.009 C 
BRANCH   4   5
ATOM      5  C   UNL     1     166.313 162.691 198.956  1.00  0.00     0.030 C 
BRANCH   5   6
ATOM      6  C   UNL     1     165.142 163.441 199.574  1.00  0.00    -0.077 C 
ATOM      7  C   UNL     1     164.179 162.685 200.453  1.00  0.00     0.039 C 
ATOM      8  C   UNL     1     164.935 164.768 199.392  1.00  0.00    -0.027 CG0
ATOM      9  G   UNL     1     165.782 165.660 198.508  1.00  0.00     0.000 G0
ENDBRANCH   5   6
ENDBRANCH   4   5
ENDBRANCH   3   4
ENDBRANCH   1   3
BRANCH   1  10
ATOM     10  C   UNL     1     168.881 165.389 200.652  1.00  0.00     0.057 C 
BRANCH  10  11
ATOM     11  C   UNL     1     168.910 166.362 199.487  1.00  0.00    -0.026 C 
ATOM     12  C   UNL     1     167.882 167.023 198.896  1.00  0.00    -0.024 C 
BRANCH  12  13
ATOM     13  C   UNL     1     166.377 166.939 199.192  1.00  0.00    -0.014 C 
ATOM     14  C   UNL     1     166.116 166.997 200.718  1.00  0.00     0.016 C 
ATOM     15  C   UNL     1     165.707 168.191 198.574  1.00  0.00     0.016 C 
BRANCH  13  16
ATOM     16  C   UNL     1     165.779 165.678 198.498  1.00  0.00     0.038 CG0
ATOM     17  G   UNL     1     164.944 164.792 199.399  1.00  0.00     0.000 G0
ENDBRANCH  13  16
ENDBRANCH  12  13
ENDBRANCH  10  11
ENDBRANCH   1  10
TORSDOF 0
ENDMDL
MODEL 5
REMARK VINA RESULT:    -3.341      2.779      5.735
REMARK INTER + INTRA:          -4.606
REMARK INTER:                  -4.918
REMARK INTRA:                   0.312
REMARK UNBOUND:                 0.297
REMARK SMILES C=C1CC=CC(C)(C)CC=C(C)CCC1
REMARK SMILES IDX 2 1 1 2 15 3 14 4 13 5 11 6 12 7 10 8 3 10 4 11 5 12 6 13
REMARK SMILES IDX 7 14 8 15 9 16
REMARK H PARENT
REMARK Flexibility Score: 60.00
ROOT
ATOM      1  C   UNL     1     169.150 164.433 199.271  1.00  0.00    -0.074 C 
ATOM      2  C   UNL     1     169.345 163.241 199.864  1.00  0.00     0.008 C 
ENDROOT
BRANCH   1   3
ATOM      3  C   UNL     1     168.553 164.478 197.872  1.00  0.00     0.031 C 
BRANCH   3   4
ATOM      4  C   UNL     1     167.161 163.833 197.781  1.00  0.00     0.009 C 
BRANCH   4   5
ATOM      5  C   UNL     1     166.005 164.853 197.808  1.00  0.00     0.030 C 
BRANCH   5   6
ATOM      6  C   UNL     1     165.685 165.284 199.232  1.00  0.00    -0.077 C 
ATOM      7  C   UNL     1     165.056 164.285 200.169  1.00  0.00     0.039 C 
ATOM      8  C   UNL     1     165.962 166.522 199.710  1.00  0.00    -0.027 CG0
ATOM      9  G   UNL     1     166.553 167.651 198.890  1.00  0.00     0.000 G0
ENDBRANCH   5   6
ENDBRANCH   4   5
ENDBRANCH   3   4
ENDBRANCH   1   3
BRANCH   1  10
ATOM     10  C   UNL     1     169.338 165.729 200.047  1.00  0.00     0.057 C 
BRANCH  10  11
ATOM     11  C   UNL     1     169.711 166.940 199.210  1.00  0.00    -0.026 C 
ATOM     12  C   UNL     1     169.032 168.102 199.032  1.00  0.00    -0.024 C 
BRANCH  12  13
ATOM     13  C   UNL     1     167.656 168.514 199.577  1.00  0.00    -0.014 C 
ATOM     14  C   UNL     1     167.633 168.429 201.124  1.00  0.00     0.016 C 
ATOM     15  C   UNL     1     167.431 170.001 199.207  1.00  0.00     0.016 C 
BRANCH  13  16
ATOM     16  C   UNL     1     166.545 167.669 198.883  1.00  0.00     0.038 CG0
ATOM     17  G   UNL     1     165.981 166.545 199.726  1.00  0.00     0.000 G0
ENDBRANCH  13  16
ENDBRANCH  12  13
ENDBRANCH  10  11
ENDBRANCH   1  10
TORSDOF 0
ENDMDL
MODEL 6
REMARK VINA RESULT:    -3.330      2.342      4.960
REMARK INTER + INTRA:          -4.591
REMARK INTER:                  -4.961
REMARK INTRA:                   0.370
REMARK UNBOUND:                 0.297
REMARK SMILES C=C1CC=CC(C)(C)CC=C(C)CCC1
REMARK SMILES IDX 2 1 1 2 15 3 14 4 13 5 11 6 12 7 10 8 3 10 4 11 5 12 6 13
REMARK SMILES IDX 7 14 8 15 9 16
REMARK H PARENT
REMARK Flexibility Score: 60.00
ROOT
ATOM      1  C   UNL     1     169.024 167.892 199.594  1.00  0.00    -0.074 C 
ATOM      2  C   UNL     1     169.696 166.760 199.873  1.00  0.00     0.008 C 
ENDROOT
BRANCH   1   3
ATOM      3  C   UNL     1     169.185 168.533 198.224  1.00  0.00     0.031 C 
BRANCH   3   4
ATOM      4  C   UNL     1     169.289 167.513 197.080  1.00  0.00     0.009 C 
BRANCH   4   5
ATOM      5  C   UNL     1     167.952 167.261 196.353  1.00  0.00     0.030 C 
BRANCH   5   6
ATOM      6  C   UNL     1     167.076 166.293 197.134  1.00  0.00    -0.077 C 
ATOM      7  C   UNL     1     167.496 164.848 197.230  1.00  0.00     0.039 C 
ATOM      8  C   UNL     1     165.942 166.672 197.772  1.00  0.00    -0.027 CG0
ATOM      9  G   UNL     1     165.361 168.070 197.741  1.00  0.00     0.000 G0
ENDBRANCH   5   6
ENDBRANCH   4   5
ENDBRANCH   3   4
ENDBRANCH   1   3
BRANCH   1  10
ATOM     10  C   UNL     1     167.969 168.427 200.552  1.00  0.00     0.057 C 
BRANCH  10  11
ATOM     11  C   UNL     1     167.223 169.661 200.075  1.00  0.00    -0.026 C 
ATOM     12  C   UNL     1     165.988 169.755 199.521  1.00  0.00    -0.024 C 
BRANCH  12  13
ATOM     13  C   UNL     1     165.000 168.637 199.157  1.00  0.00    -0.014 C 
ATOM     14  C   UNL     1     164.951 167.565 200.275  1.00  0.00     0.016 C 
ATOM     15  C   UNL     1     163.587 169.266 199.076  1.00  0.00     0.016 C 
BRANCH  13  16
ATOM     16  C   UNL     1     165.355 168.064 197.751  1.00  0.00     0.038 CG0
ATOM     17  G   UNL     1     165.943 166.669 197.762  1.00  0.00     0.000 G0
ENDBRANCH  13  16
ENDBRANCH  12  13
ENDBRANCH  10  11
ENDBRANCH   1  10
TORSDOF 0
ENDMDL
MODEL 7
REMARK VINA RESULT:    -3.216      3.292      6.151
REMARK INTER + INTRA:          -4.423
REMARK INTER:                  -4.910
REMARK INTRA:                   0.487
REMARK UNBOUND:                 0.297
REMARK SMILES C=C1CC=CC(C)(C)CC=C(C)CCC1
REMARK SMILES IDX 2 1 1 2 15 3 14 4 13 5 11 6 12 7 10 8 3 10 4 11 5 12 6 13
REMARK SMILES IDX 7 14 8 15 9 16
REMARK H PARENT
REMARK Flexibility Score: 60.00
ROOT
ATOM      1  C   UNL     1     168.884 163.717 199.418  1.00  0.00    -0.074 C 
ATOM      2  C   UNL     1     169.139 162.791 198.477  1.00  0.00     0.008 C 
ENDROOT
BRANCH   1   3
ATOM      3  C   UNL     1     168.570 163.269 200.837  1.00  0.00     0.031 C 
BRANCH   3   4
ATOM      4  C   UNL     1     167.141 162.727 201.006  1.00  0.00     0.009 C 
BRANCH   4   5
ATOM      5  C   UNL     1     166.049 163.712 200.540  1.00  0.00     0.030 C 
BRANCH   5   6
ATOM      6  C   UNL     1     165.719 164.723 201.628  1.00  0.00    -0.077 C 
ATOM      7  C   UNL     1     165.129 164.227 202.924  1.00  0.00     0.039 C 
ATOM      8  C   UNL     1     165.952 166.051 201.499  1.00  0.00    -0.027 CG0
ATOM      9  G   UNL     1     166.498 166.714 200.251  1.00  0.00     0.000 G0
ENDBRANCH   5   6
ENDBRANCH   4   5
ENDBRANCH   3   4
ENDBRANCH   1   3
BRANCH   1  10
ATOM     10  C   UNL     1     169.092 165.198 199.130  1.00  0.00     0.057 C 
BRANCH  10  11
ATOM     11  C   UNL     1     169.538 166.035 200.316  1.00  0.00    -0.026 C 
ATOM     12  C   UNL     1     168.918 167.092 200.901  1.00  0.00    -0.024 C 
BRANCH  12  13
ATOM     13  C   UNL     1     167.611 167.793 200.501  1.00  0.00    -0.014 C 
ATOM     14  C   UNL     1     167.217 168.856 201.557  1.00  0.00     0.016 C 
ATOM     15  C   UNL     1     167.872 168.552 199.176  1.00  0.00     0.016 C 
BRANCH  13  16
ATOM     16  C   UNL     1     166.506 166.725 200.238  1.00  0.00     0.038 CG0
ATOM     17  G   UNL     1     165.961 166.054 201.481  1.00  0.00     0.000 G0
ENDBRANCH  13  16
ENDBRANCH  12  13
ENDBRANCH  10  11
ENDBRANCH   1  10
TORSDOF 0
ENDMDL
MODEL 8
REMARK VINA RESULT:    -3.202      2.701      5.247
REMARK INTER + INTRA:          -4.403
REMARK INTER:                  -4.729
REMARK INTRA:                   0.326
REMARK UNBOUND:                 0.297
REMARK SMILES C=C1CC=CC(C)(C)CC=C(C)CCC1
REMARK SMILES IDX 2 1 1 2 15 3 14 4 13 5 11 6 12 7 10 8 3 10 4 11 5 12 6 13
REMARK SMILES IDX 7 14 8 15 9 16
REMARK H PARENT
REMARK Flexibility Score: 60.00
ROOT
ATOM      1  C   UNL     1     168.837 167.309 201.130  1.00  0.00    -0.074 C 
ATOM      2  C   UNL     1     168.905 166.768 202.360  1.00  0.00     0.008 C 
ENDROOT
BRANCH   1   3
ATOM      3  C   UNL     1     169.658 166.700 200.004  1.00  0.00     0.031 C 
BRANCH   3   4
ATOM      4  C   UNL     1     169.415 165.195 199.814  1.00  0.00     0.009 C 
BRANCH   4   5
ATOM      5  C   UNL     1     168.540 164.861 198.589  1.00  0.00     0.030 C 
BRANCH   5   6
ATOM      6  C   UNL     1     167.060 164.898 198.943  1.00  0.00    -0.077 C 
ATOM      7  C   UNL     1     166.505 163.835 199.855  1.00  0.00     0.039 C 
ATOM      8  C   UNL     1     166.217 165.861 198.495  1.00  0.00    -0.027 CG0
ATOM      9  G   UNL     1     166.605 166.972 197.542  1.00  0.00     0.000 G0
ENDBRANCH   5   6
ENDBRANCH   4   5
ENDBRANCH   3   4
ENDBRANCH   1   3
BRANCH   1  10
ATOM     10  C   UNL     1     167.813 168.390 200.810  1.00  0.00     0.057 C 
BRANCH  10  11
ATOM     11  C   UNL     1     168.085 169.190 199.549  1.00  0.00    -0.026 C 
ATOM     12  C   UNL     1     167.387 169.219 198.385  1.00  0.00    -0.024 C 
BRANCH  12  13
ATOM     13  C   UNL     1     166.148 168.408 197.976  1.00  0.00    -0.014 C 
ATOM     14  C   UNL     1     165.090 168.418 199.107  1.00  0.00     0.016 C 
ATOM     15  C   UNL     1     165.507 169.114 196.755  1.00  0.00     0.016 C 
BRANCH  13  16
ATOM     16  C   UNL     1     166.585 166.978 197.533  1.00  0.00     0.038 CG0
ATOM     17  G   UNL     1     166.229 165.875 198.507  1.00  0.00     0.000 G0
ENDBRANCH  13  16
ENDBRANCH  12  13
ENDBRANCH  10  11
ENDBRANCH   1  10
TORSDOF 0
ENDMDL
MODEL 9
REMARK VINA RESULT:    -3.194      2.000      3.517
REMARK INTER + INTRA:          -4.391
REMARK INTER:                  -4.662
REMARK INTRA:                   0.271
REMARK UNBOUND:                 0.297
REMARK SMILES C=C1CC=CC(C)(C)CC=C(C)CCC1
REMARK SMILES IDX 2 1 1 2 15 3 14 4 13 5 11 6 12 7 10 8 3 10 4 11 5 12 6 13
REMARK SMILES IDX 7 14 8 15 9 16
REMARK H PARENT
REMARK Flexibility Score: 60.00
ROOT
ATOM      1  C   UNL     1     163.702 167.769 201.934  1.00  0.00    -0.074 C 
ATOM      2  C   UNL     1     163.835 166.843 202.901  1.00  0.00     0.008 C 
ENDROOT
BRANCH   1   3
ATOM      3  C   UNL     1     164.455 169.085 202.058  1.00  0.00     0.031 C 
BRANCH   3   4
ATOM      4  C   UNL     1     165.949 168.907 202.372  1.00  0.00     0.009 C 
BRANCH   4   5
ATOM      5  C   UNL     1     166.857 169.008 201.129  1.00  0.00     0.030 C 
BRANCH   5   6
ATOM      6  C   UNL     1     166.911 167.686 200.378  1.00  0.00    -0.077 C 
ATOM      7  C   UNL     1     167.578 166.504 201.035  1.00  0.00     0.039 C 
ATOM      8  C   UNL     1     166.364 167.511 199.150  1.00  0.00    -0.027 CG0
ATOM      9  G   UNL     1     165.697 168.602 198.339  1.00  0.00     0.000 G0
ENDBRANCH   5   6
ENDBRANCH   4   5
ENDBRANCH   3   4
ENDBRANCH   1   3
BRANCH   1  10
ATOM     10  C   UNL     1     162.970 167.445 200.640  1.00  0.00     0.057 C 
BRANCH  10  11
ATOM     11  C   UNL     1     162.677 168.635 199.742  1.00  0.00    -0.026 C 
ATOM     12  C   UNL     1     163.205 168.946 198.532  1.00  0.00    -0.024 C 
BRANCH  12  13
ATOM     13  C   UNL     1     164.299 168.220 197.735  1.00  0.00    -0.014 C 
ATOM     14  C   UNL     1     164.024 166.696 197.693  1.00  0.00     0.016 C 
ATOM     15  C   UNL     1     164.231 168.728 196.273  1.00  0.00     0.016 C 
BRANCH  13  16
ATOM     16  C   UNL     1     165.699 168.592 198.311  1.00  0.00     0.038 CG0
ATOM     17  G   UNL     1     166.352 167.510 199.145  1.00  0.00     0.000 G0
ENDBRANCH  13  16
ENDBRANCH  12  13
ENDBRANCH  10  11
ENDBRANCH   1  10
TORSDOF 0
ENDMDL
