MODEL 1
REMARK VINA RESULT:    -6.341      0.000      0.000
REMARK INTER + INTRA:          -6.341
REMARK INTER:                  -6.341
REMARK INTRA:                   0.000
REMARK UNBOUND:                 0.000
REMARK SMILES C=C1CC[C@@H]2C[C@H]1C2(C)C
REMARK SMILES IDX 9 1 8 2 5 3 4 4 3 5 2 6 1 7 7 8 6 9 10 10
REMARK H PARENT
REMARK Flexibility Score: inf
ROOT
ATOM      1  C   UNL     1      -4.112 -16.135  10.640  1.00  0.00     0.012 C 
ATOM      2  C   UNL     1      -3.012 -15.531   9.726  1.00  0.00    -0.026 C 
ATOM      3  C   UNL     1      -3.445 -14.697   8.492  1.00  0.00    -0.004 C 
ATOM      4  C   UNL     1      -4.734 -15.289   7.839  1.00  0.00     0.008 C 
ATOM      5  C   UNL     1      -4.610 -16.833   7.546  1.00  0.00     0.031 C 
ATOM      6  C   UNL     1      -3.320 -17.434   8.123  1.00  0.00    -0.074 C 
ATOM      7  C   UNL     1      -3.096 -18.752   8.101  1.00  0.00     0.008 C 
ATOM      8  C   UNL     1      -2.304 -16.462   8.714  1.00  0.00     0.021 C 
ATOM      9  C   UNL     1      -2.253 -15.288   7.722  1.00  0.00     0.012 C 
ATOM     10  C   UNL     1      -2.003 -14.766  10.617  1.00  0.00     0.012 C 
ENDROOT
TORSDOF 0
ENDMDL
MODEL 2
REMARK VINA RESULT:    -6.179      1.170      2.437
REMARK INTER + INTRA:          -6.179
REMARK INTER:                  -6.179
REMARK INTRA:                   0.000
REMARK UNBOUND:                 0.000
REMARK SMILES C=C1CC[C@@H]2C[C@H]1C2(C)C
REMARK SMILES IDX 9 1 8 2 5 3 4 4 3 5 2 6 1 7 7 8 6 9 10 10
REMARK H PARENT
REMARK Flexibility Score: inf
ROOT
ATOM      1  C   UNL     1      -3.311 -14.317   8.644  1.00  0.00     0.012 C 
ATOM      2  C   UNL     1      -2.788 -15.767   8.455  1.00  0.00    -0.026 C 
ATOM      3  C   UNL     1      -3.473 -16.673   7.400  1.00  0.00    -0.004 C 
ATOM      4  C   UNL     1      -5.011 -16.408   7.345  1.00  0.00     0.008 C 
ATOM      5  C   UNL     1      -5.687 -16.472   8.767  1.00  0.00     0.031 C 
ATOM      6  C   UNL     1      -4.656 -16.612   9.898  1.00  0.00    -0.074 C 
ATOM      7  C   UNL     1      -5.019 -16.545  11.183  1.00  0.00     0.008 C 
ATOM      8  C   UNL     1      -3.204 -16.839   9.490  1.00  0.00     0.021 C 
ATOM      9  C   UNL     1      -3.268 -17.867   8.347  1.00  0.00     0.012 C 
ATOM     10  C   UNL     1      -1.253 -15.711   8.262  1.00  0.00     0.012 C 
ENDROOT
TORSDOF 0
ENDMDL
MODEL 3
REMARK VINA RESULT:    -6.162      1.165      3.212
REMARK INTER + INTRA:          -6.162
REMARK INTER:                  -6.162
REMARK INTRA:                   0.000
REMARK UNBOUND:                 0.000
REMARK SMILES C=C1CC[C@@H]2C[C@H]1C2(C)C
REMARK SMILES IDX 9 1 8 2 5 3 4 4 3 5 2 6 1 7 7 8 6 9 10 10
REMARK H PARENT
REMARK Flexibility Score: inf
ROOT
ATOM      1  C   UNL     1      -4.564 -14.018   7.700  1.00  0.00     0.012 C 
ATOM      2  C   UNL     1      -4.545 -15.510   7.270  1.00  0.00    -0.026 C 
ATOM      3  C   UNL     1      -5.128 -16.571   8.238  1.00  0.00    -0.004 C 
ATOM      4  C   UNL     1      -4.817 -16.206   9.724  1.00  0.00     0.008 C 
ATOM      5  C   UNL     1      -3.289 -15.902   9.966  1.00  0.00     0.031 C 
ATOM      6  C   UNL     1      -2.487 -15.867   8.656  1.00  0.00    -0.074 C 
ATOM      7  C   UNL     1      -1.205 -15.490   8.635  1.00  0.00     0.008 C 
ATOM      8  C   UNL     1      -3.214 -16.291   7.384  1.00  0.00     0.021 C 
ATOM      9  C   UNL     1      -4.022 -17.537   7.783  1.00  0.00     0.012 C 
ATOM     10  C   UNL     1      -5.162 -15.617   5.853  1.00  0.00     0.012 C 
ENDROOT
TORSDOF 0
ENDMDL
MODEL 4
REMARK VINA RESULT:    -6.124      1.024      2.743
REMARK INTER + INTRA:          -6.124
REMARK INTER:                  -6.124
REMARK INTRA:                   0.000
REMARK UNBOUND:                 0.000
REMARK SMILES C=C1CC[C@@H]2C[C@H]1C2(C)C
REMARK SMILES IDX 9 1 8 2 5 3 4 4 3 5 2 6 1 7 7 8 6 9 10 10
REMARK H PARENT
REMARK Flexibility Score: inf
ROOT
ATOM      1  C   UNL     1      -1.682 -15.977   8.706  1.00  0.00     0.012 C 
ATOM      2  C   UNL     1      -2.756 -16.170   9.811  1.00  0.00    -0.026 C 
ATOM      3  C   UNL     1      -3.344 -17.587  10.037  1.00  0.00    -0.004 C 
ATOM      4  C   UNL     1      -3.500 -18.353   8.685  1.00  0.00     0.008 C 
ATOM      5  C   UNL     1      -4.275 -17.513   7.599  1.00  0.00     0.031 C 
ATOM      6  C   UNL     1      -4.550 -16.074   8.062  1.00  0.00    -0.074 C 
ATOM      7  C   UNL     1      -5.073 -15.165   7.233  1.00  0.00     0.008 C 
ATOM      8  C   UNL     1      -4.209 -15.732   9.508  1.00  0.00     0.021 C 
ATOM      9  C   UNL     1      -4.705 -16.933  10.330  1.00  0.00     0.012 C 
ATOM     10  C   UNL     1      -2.223 -15.548  11.124  1.00  0.00     0.012 C 
ENDROOT
TORSDOF 0
ENDMDL
MODEL 5
REMARK VINA RESULT:    -6.109      0.992      3.228
REMARK INTER + INTRA:          -6.109
REMARK INTER:                  -6.109
REMARK INTRA:                   0.000
REMARK UNBOUND:                 0.000
REMARK SMILES C=C1CC[C@@H]2C[C@H]1C2(C)C
REMARK SMILES IDX 9 1 8 2 5 3 4 4 3 5 2 6 1 7 7 8 6 9 10 10
REMARK H PARENT
REMARK Flexibility Score: inf
ROOT
ATOM      1  C   UNL     1      -3.025 -17.728   8.494  1.00  0.00     0.012 C 
ATOM      2  C   UNL     1      -3.626 -16.327   8.201  1.00  0.00    -0.026 C 
ATOM      3  C   UNL     1      -2.733 -15.263   7.512  1.00  0.00    -0.004 C 
ATOM      4  C   UNL     1      -1.254 -15.367   8.004  1.00  0.00     0.008 C 
ATOM      5  C   UNL     1      -1.138 -15.367   9.577  1.00  0.00     0.031 C 
ATOM      6  C   UNL     1      -2.512 -15.436  10.263  1.00  0.00    -0.074 C 
ATOM      7  C   UNL     1      -2.621 -15.585  11.587  1.00  0.00     0.008 C 
ATOM      8  C   UNL     1      -3.742 -15.318   9.369  1.00  0.00     0.021 C 
ATOM      9  C   UNL     1      -3.409 -14.189   8.380  1.00  0.00     0.012 C 
ATOM     10  C   UNL     1      -4.974 -16.518   7.463  1.00  0.00     0.012 C 
ENDROOT
TORSDOF 0
ENDMDL
MODEL 6
REMARK VINA RESULT:    -6.067      1.104      2.371
REMARK INTER + INTRA:          -6.067
REMARK INTER:                  -6.067
REMARK INTRA:                   0.000
REMARK UNBOUND:                 0.000
REMARK SMILES C=C1CC[C@@H]2C[C@H]1C2(C)C
REMARK SMILES IDX 9 1 8 2 5 3 4 4 3 5 2 6 1 7 7 8 6 9 10 10
REMARK H PARENT
REMARK Flexibility Score: inf
ROOT
ATOM      1  C   UNL     1      -2.065 -17.355   8.352  1.00  0.00     0.012 C 
ATOM      2  C   UNL     1      -2.015 -15.812   8.516  1.00  0.00    -0.026 C 
ATOM      3  C   UNL     1      -2.826 -15.160   9.665  1.00  0.00    -0.004 C 
ATOM      4  C   UNL     1      -4.182 -15.904   9.888  1.00  0.00     0.008 C 
ATOM      5  C   UNL     1      -5.003 -16.078   8.554  1.00  0.00     0.031 C 
ATOM      6  C   UNL     1      -4.210 -15.629   7.318  1.00  0.00    -0.074 C 
ATOM      7  C   UNL     1      -4.679 -15.826   6.081  1.00  0.00     0.008 C 
ATOM      8  C   UNL     1      -2.870 -14.943   7.563  1.00  0.00     0.021 C 
ATOM      9  C   UNL     1      -3.126 -13.976   8.730  1.00  0.00     0.012 C 
ATOM     10  C   UNL     1      -0.531 -15.370   8.531  1.00  0.00     0.012 C 
ENDROOT
TORSDOF 0
ENDMDL
MODEL 7
REMARK VINA RESULT:    -6.064      1.058      2.740
REMARK INTER + INTRA:          -6.064
REMARK INTER:                  -6.064
REMARK INTRA:                   0.000
REMARK UNBOUND:                 0.000
REMARK SMILES C=C1CC[C@@H]2C[C@H]1C2(C)C
REMARK SMILES IDX 9 1 8 2 5 3 4 4 3 5 2 6 1 7 7 8 6 9 10 10
REMARK H PARENT
REMARK Flexibility Score: inf
ROOT
ATOM      1  C   UNL     1      -2.259 -15.298   7.730  1.00  0.00     0.012 C 
ATOM      2  C   UNL     1      -3.791 -15.536   7.808  1.00  0.00    -0.026 C 
ATOM      3  C   UNL     1      -4.475 -15.532   9.199  1.00  0.00    -0.004 C 
ATOM      4  C   UNL     1      -3.551 -16.178  10.281  1.00  0.00     0.008 C 
ATOM      5  C   UNL     1      -3.008 -17.593   9.847  1.00  0.00     0.031 C 
ATOM      6  C   UNL     1      -3.373 -17.937   8.394  1.00  0.00    -0.074 C 
ATOM      7  C   UNL     1      -2.889 -19.030   7.796  1.00  0.00     0.008 C 
ATOM      8  C   UNL     1      -4.318 -16.984   7.671  1.00  0.00     0.021 C 
ATOM      9  C   UNL     1      -5.410 -16.646   8.700  1.00  0.00     0.012 C 
ATOM     10  C   UNL     1      -4.486 -14.568   6.819  1.00  0.00     0.012 C 
ENDROOT
TORSDOF 0
ENDMDL
MODEL 8
REMARK VINA RESULT:    -6.052      1.052      2.978
REMARK INTER + INTRA:          -6.052
REMARK INTER:                  -6.052
REMARK INTRA:                   0.000
REMARK UNBOUND:                 0.000
REMARK SMILES C=C1CC[C@@H]2C[C@H]1C2(C)C
REMARK SMILES IDX 9 1 8 2 5 3 4 4 3 5 2 6 1 7 7 8 6 9 10 10
REMARK H PARENT
REMARK Flexibility Score: inf
ROOT
ATOM      1  C   UNL     1      -5.575 -16.193   8.471  1.00  0.00     0.012 C 
ATOM      2  C   UNL     1      -4.092 -15.910   8.110  1.00  0.00    -0.026 C 
ATOM      3  C   UNL     1      -3.145 -17.110   7.853  1.00  0.00    -0.004 C 
ATOM      4  C   UNL     1      -3.480 -18.303   8.804  1.00  0.00     0.008 C 
ATOM      5  C   UNL     1      -3.551 -17.867  10.318  1.00  0.00     0.031 C 
ATOM      6  C   UNL     1      -3.444 -16.345  10.492  1.00  0.00    -0.074 C 
ATOM      7  C   UNL     1      -3.621 -15.767  11.685  1.00  0.00     0.008 C 
ATOM      8  C   UNL     1      -3.118 -15.524   9.249  1.00  0.00     0.021 C 
ATOM      9  C   UNL     1      -2.015 -16.315   8.527  1.00  0.00     0.012 C 
ATOM     10  C   UNL     1      -4.059 -14.887   6.947  1.00  0.00     0.012 C 
ENDROOT
TORSDOF 0
ENDMDL
MODEL 9
REMARK VINA RESULT:    -6.010      1.187      2.804
REMARK INTER + INTRA:          -6.010
REMARK INTER:                  -6.010
REMARK INTRA:                   0.000
REMARK UNBOUND:                 0.000
REMARK SMILES C=C1CC[C@@H]2C[C@H]1C2(C)C
REMARK SMILES IDX 9 1 8 2 5 3 4 4 3 5 2 6 1 7 7 8 6 9 10 10
REMARK H PARENT
REMARK Flexibility Score: inf
ROOT
ATOM      1  C   UNL     1      -2.382 -13.847  10.217  1.00  0.00     0.012 C 
ATOM      2  C   UNL     1      -2.921 -15.302  10.180  1.00  0.00    -0.026 C 
ATOM      3  C   UNL     1      -2.076 -16.391   9.472  1.00  0.00    -0.004 C 
ATOM      4  C   UNL     1      -1.362 -15.814   8.208  1.00  0.00     0.008 C 
ATOM      5  C   UNL     1      -2.355 -15.058   7.244  1.00  0.00     0.031 C 
ATOM      6  C   UNL     1      -3.760 -14.916   7.849  1.00  0.00    -0.074 C 
ATOM      7  C   UNL     1      -4.705 -14.186   7.249  1.00  0.00     0.008 C 
ATOM      8  C   UNL     1      -4.030 -15.650   9.159  1.00  0.00     0.021 C 
ATOM      9  C   UNL     1      -3.384 -17.033   8.981  1.00  0.00     0.012 C 
ATOM     10  C   UNL     1      -3.309 -15.716  11.621  1.00  0.00     0.012 C 
ENDROOT
TORSDOF 0
ENDMDL
