MODEL 1
REMARK VINA RESULT:    -2.883      0.000      0.000
REMARK INTER + INTRA:         -13.016
REMARK INTER:                  -7.601
REMARK INTRA:                  -5.415
REMARK UNBOUND:                -5.415
REMARK SMILES CCCCCCCCCCCCCCCCCCCCCCCCCCCCCC(=O)[O-]
REMARK SMILES IDX 16 1 17 2 18 3 19 4 20 5 21 6 22 7 23 8 24 9 25 10 26 11
REMARK SMILES IDX 27 12 28 13 29 14 30 15 31 16 32 17 15 18 14 19 13 20 12 21
REMARK SMILES IDX 11 22 10 23 9 24 8 25 7 26 6 27 5 28 4 29 3 30 2 31 1 32
REMARK H PARENT
REMARK Flexibility Score: inf
ROOT
ATOM      1  C   UNL     1       3.706 -19.825   7.547  1.00  0.00     0.000 C 
ENDROOT
BRANCH   1   2
ATOM      2  C   UNL     1       4.039 -18.889   6.369  1.00  0.00     0.000 C 
BRANCH   2   3
ATOM      3  C   UNL     1       2.796 -18.214   5.769  1.00  0.00     0.000 C 
BRANCH   3   4
ATOM      4  C   UNL     1       1.888 -19.205   5.020  1.00  0.00     0.000 C 
BRANCH   4   5
ATOM      5  C   UNL     1       1.704 -18.846   3.534  1.00  0.00     0.000 C 
BRANCH   5   6
ATOM      6  C   UNL     1       2.816 -17.922   3.012  1.00  0.00     0.000 C 
BRANCH   6   7
ATOM      7  C   UNL     1       3.847 -18.670   2.146  1.00  0.00     0.000 C 
BRANCH   7   8
ATOM      8  C   UNL     1       3.359 -20.058   1.695  1.00  0.00     0.000 C 
BRANCH   8   9
ATOM      9  C   UNL     1       4.297 -21.211   2.101  1.00  0.00     0.000 C 
BRANCH   9  10
ATOM     10  C   UNL     1       4.693 -21.154   3.582  1.00  0.00     0.000 C 
BRANCH  10  11
ATOM     11  C   UNL     1       6.209 -21.313   3.751  1.00  0.00     0.000 C 
BRANCH  11  12
ATOM     12  C   UNL     1       6.836 -20.047   4.344  1.00  0.00     0.000 C 
BRANCH  12  13
ATOM     13  C   UNL     1       7.266 -19.074   3.241  1.00  0.00     0.006 C 
BRANCH  13  14
ATOM     14  C   UNL     1       8.644 -18.478   3.548  1.00  0.00     0.053 C 
BRANCH  14  15
ATOM     15  C   UNL     1       9.681 -19.016   2.613  1.00  0.00     0.041 C 
ATOM     16  O   UNL     1       9.410 -19.976   1.845  1.00  0.00    -0.550 OA
ATOM     17  O   UNL     1      10.947 -18.440   2.573  1.00  0.00    -0.550 OA
ENDBRANCH  14  15
ENDBRANCH  13  14
ENDBRANCH  12  13
ENDBRANCH  11  12
ENDBRANCH  10  11
ENDBRANCH   9  10
ENDBRANCH   8   9
ENDBRANCH   7   8
ENDBRANCH   6   7
ENDBRANCH   5   6
ENDBRANCH   4   5
ENDBRANCH   3   4
ENDBRANCH   2   3
ENDBRANCH   1   2
BRANCH   1  18
ATOM     18  C   UNL     1       4.065 -21.310   7.333  1.00  0.00     0.000 C 
BRANCH  18  19
ATOM     19  C   UNL     1       5.559 -21.658   7.486  1.00  0.00     0.000 C 
BRANCH  19  20
ATOM     20  C   UNL     1       6.328 -20.775   8.487  1.00  0.00     0.000 C 
BRANCH  20  21
ATOM     21  C   UNL     1       7.654 -20.196   7.955  1.00  0.00     0.000 C 
BRANCH  21  22
ATOM     22  C   UNL     1       7.711 -18.656   7.876  1.00  0.00     0.000 C 
BRANCH  22  23
ATOM     23  C   UNL     1       6.584 -17.919   8.623  1.00  0.00     0.000 C 
BRANCH  23  24
ATOM     24  C   UNL     1       7.034 -16.728   9.495  1.00  0.00    -0.000 C 
BRANCH  24  25
ATOM     25  C   UNL     1       8.114 -17.077  10.539  1.00  0.00    -0.000 C 
BRANCH  25  26
ATOM     26  C   UNL     1       9.323 -16.123  10.495  1.00  0.00    -0.000 C 
BRANCH  26  27
ATOM     27  C   UNL     1      10.428 -16.602   9.528  1.00  0.00    -0.000 C 
BRANCH  27  28
ATOM     28  C   UNL     1      10.792 -15.578   8.432  1.00  0.00    -0.000 C 
BRANCH  28  29
ATOM     29  C   UNL     1       9.655 -14.633   8.013  1.00  0.00    -0.000 C 
BRANCH  29  30
ATOM     30  C   UNL     1       8.868 -15.156   6.800  1.00  0.00    -0.000 C 
BRANCH  30  31
ATOM     31  C   UNL     1       9.707 -16.131   5.965  1.00  0.00    -0.003 C 
ATOM     32  C   UNL     1      10.358 -15.420   4.782  1.00  0.00     0.004 C 
ENDBRANCH  30  31
ENDBRANCH  29  30
ENDBRANCH  28  29
ENDBRANCH  27  28
ENDBRANCH  26  27
ENDBRANCH  25  26
ENDBRANCH  24  25
ENDBRANCH  23  24
ENDBRANCH  22  23
ENDBRANCH  21  22
ENDBRANCH  20  21
ENDBRANCH  19  20
ENDBRANCH  18  19
ENDBRANCH   1  18
TORSDOF 28
ENDMDL
MODEL 2
REMARK VINA RESULT:    -2.858      3.054      8.338
REMARK INTER + INTRA:         -12.950
REMARK INTER:                  -8.210
REMARK INTRA:                  -4.740
REMARK UNBOUND:                -5.415
REMARK SMILES CCCCCCCCCCCCCCCCCCCCCCCCCCCCCC(=O)[O-]
REMARK SMILES IDX 16 1 17 2 18 3 19 4 20 5 21 6 22 7 23 8 24 9 25 10 26 11
REMARK SMILES IDX 27 12 28 13 29 14 30 15 31 16 32 17 15 18 14 19 13 20 12 21
REMARK SMILES IDX 11 22 10 23 9 24 8 25 7 26 6 27 5 28 4 29 3 30 2 31 1 32
REMARK H PARENT
REMARK Flexibility Score: inf
ROOT
ATOM      1  C   UNL     1       5.367 -20.002   6.880  1.00  0.00     0.000 C 
ENDROOT
BRANCH   1   2
ATOM      2  C   UNL     1       6.606 -19.574   6.068  1.00  0.00     0.000 C 
BRANCH   2   3
ATOM      3  C   UNL     1       7.239 -20.734   5.284  1.00  0.00     0.000 C 
BRANCH   3   4
ATOM      4  C   UNL     1       7.179 -20.520   3.761  1.00  0.00     0.000 C 
BRANCH   4   5
ATOM      5  C   UNL     1       7.342 -19.044   3.356  1.00  0.00     0.000 C 
BRANCH   5   6
ATOM      6  C   UNL     1       8.804 -18.673   3.066  1.00  0.00     0.000 C 
BRANCH   6   7
ATOM      7  C   UNL     1       9.271 -17.440   3.862  1.00  0.00     0.000 C 
BRANCH   7   8
ATOM      8  C   UNL     1      10.228 -17.796   5.013  1.00  0.00     0.000 C 
BRANCH   8   9
ATOM      9  C   UNL     1       9.931 -17.043   6.325  1.00  0.00     0.000 C 
BRANCH   9  10
ATOM     10  C   UNL     1       9.510 -15.587   6.087  1.00  0.00     0.000 C 
BRANCH  10  11
ATOM     11  C   UNL     1       8.279 -15.227   6.928  1.00  0.00     0.000 C 
BRANCH  11  12
ATOM     12  C   UNL     1       8.077 -16.229   8.070  1.00  0.00     0.000 C 
BRANCH  12  13
ATOM     13  C   UNL     1       6.588 -16.500   8.309  1.00  0.00     0.006 C 
BRANCH  13  14
ATOM     14  C   UNL     1       6.396 -17.531   9.426  1.00  0.00     0.053 C 
BRANCH  14  15
ATOM     15  C   UNL     1       6.232 -16.860  10.753  1.00  0.00     0.041 C 
ATOM     16  O   UNL     1       7.229 -16.666  11.496  1.00  0.00    -0.550 OA
ATOM     17  O   UNL     1       4.974 -16.429  11.164  1.00  0.00    -0.550 OA
ENDBRANCH  14  15
ENDBRANCH  13  14
ENDBRANCH  12  13
ENDBRANCH  11  12
ENDBRANCH  10  11
ENDBRANCH   9  10
ENDBRANCH   8   9
ENDBRANCH   7   8
ENDBRANCH   6   7
ENDBRANCH   5   6
ENDBRANCH   4   5
ENDBRANCH   3   4
ENDBRANCH   2   3
ENDBRANCH   1   2
BRANCH   1  18
ATOM     18  C   UNL     1       4.048 -19.305   6.486  1.00  0.00     0.000 C 
BRANCH  18  19
ATOM     19  C   UNL     1       3.733 -19.289   4.977  1.00  0.00     0.000 C 
BRANCH  19  20
ATOM     20  C   UNL     1       2.670 -18.258   4.551  1.00  0.00     0.000 C 
BRANCH  20  21
ATOM     21  C   UNL     1       2.756 -17.810   3.079  1.00  0.00     0.000 C 
BRANCH  21  22
ATOM     22  C   UNL     1       3.918 -18.426   2.273  1.00  0.00     0.000 C 
BRANCH  22  23
ATOM     23  C   UNL     1       3.499 -19.413   1.168  1.00  0.00     0.000 C 
BRANCH  23  24
ATOM     24  C   UNL     1       3.159 -20.840   1.645  1.00  0.00    -0.000 C 
BRANCH  24  25
ATOM     25  C   UNL     1       1.655 -21.181   1.611  1.00  0.00    -0.000 C 
BRANCH  25  26
ATOM     26  C   UNL     1       1.020 -21.240   3.012  1.00  0.00    -0.000 C 
BRANCH  26  27
ATOM     27  C   UNL     1      -0.151 -20.248   3.182  1.00  0.00    -0.000 C 
BRANCH  27  28
ATOM     28  C   UNL     1      -0.871 -20.352   4.543  1.00  0.00    -0.000 C 
BRANCH  28  29
ATOM     29  C   UNL     1       0.045 -20.580   5.756  1.00  0.00    -0.000 C 
BRANCH  29  30
ATOM     30  C   UNL     1      -0.515 -19.957   7.045  1.00  0.00    -0.000 C 
BRANCH  30  31
ATOM     31  C   UNL     1       0.534 -19.091   7.752  1.00  0.00    -0.003 C 
ATOM     32  C   UNL     1       1.231 -19.872   8.863  1.00  0.00     0.004 C 
ENDBRANCH  30  31
ENDBRANCH  29  30
ENDBRANCH  28  29
ENDBRANCH  27  28
ENDBRANCH  26  27
ENDBRANCH  25  26
ENDBRANCH  24  25
ENDBRANCH  23  24
ENDBRANCH  22  23
ENDBRANCH  21  22
ENDBRANCH  20  21
ENDBRANCH  19  20
ENDBRANCH  18  19
ENDBRANCH   1  18
TORSDOF 28
ENDMDL
MODEL 3
REMARK VINA RESULT:    -2.798      1.419      6.334
REMARK INTER + INTRA:         -12.793
REMARK INTER:                  -7.015
REMARK INTRA:                  -5.778
REMARK UNBOUND:                -5.415
REMARK SMILES CCCCCCCCCCCCCCCCCCCCCCCCCCCCCC(=O)[O-]
REMARK SMILES IDX 16 1 17 2 18 3 19 4 20 5 21 6 22 7 23 8 24 9 25 10 26 11
REMARK SMILES IDX 27 12 28 13 29 14 30 15 31 16 32 17 15 18 14 19 13 20 12 21
REMARK SMILES IDX 11 22 10 23 9 24 8 25 7 26 6 27 5 28 4 29 3 30 2 31 1 32
REMARK H PARENT
REMARK Flexibility Score: inf
ROOT
ATOM      1  C   UNL     1       4.765 -20.699   2.923  1.00  0.00     0.000 C 
ENDROOT
BRANCH   1   2
ATOM      2  C   UNL     1       5.709 -19.879   3.825  1.00  0.00     0.000 C 
BRANCH   2   3
ATOM      3  C   UNL     1       6.336 -20.715   4.953  1.00  0.00     0.000 C 
BRANCH   3   4
ATOM      4  C   UNL     1       6.881 -19.845   6.099  1.00  0.00     0.000 C 
BRANCH   4   5
ATOM      5  C   UNL     1       7.166 -20.651   7.380  1.00  0.00     0.000 C 
BRANCH   5   6
ATOM      6  C   UNL     1       8.302 -20.041   8.217  1.00  0.00     0.000 C 
BRANCH   6   7
ATOM      7  C   UNL     1       8.906 -18.783   7.565  1.00  0.00     0.000 C 
BRANCH   7   8
ATOM      8  C   UNL     1       8.731 -17.519   8.424  1.00  0.00     0.000 C 
BRANCH   8   9
ATOM      9  C   UNL     1       7.907 -16.410   7.741  1.00  0.00     0.000 C 
BRANCH   9  10
ATOM     10  C   UNL     1       8.714 -15.123   7.528  1.00  0.00     0.000 C 
BRANCH  10  11
ATOM     11  C   UNL     1       9.193 -15.010   6.076  1.00  0.00     0.000 C 
BRANCH  11  12
ATOM     12  C   UNL     1      10.539 -15.715   5.881  1.00  0.00     0.000 C 
BRANCH  12  13
ATOM     13  C   UNL     1      10.570 -16.490   4.559  1.00  0.00     0.006 C 
BRANCH  13  14
ATOM     14  C   UNL     1       9.264 -17.264   4.350  1.00  0.00     0.053 C 
BRANCH  14  15
ATOM     15  C   UNL     1       9.429 -18.324   3.308  1.00  0.00     0.041 C 
ATOM     16  O   UNL     1       9.511 -18.013   2.091  1.00  0.00    -0.550 OA
ATOM     17  O   UNL     1       9.513 -19.661   3.683  1.00  0.00    -0.550 OA
ENDBRANCH  14  15
ENDBRANCH  13  14
ENDBRANCH  12  13
ENDBRANCH  11  12
ENDBRANCH  10  11
ENDBRANCH   9  10
ENDBRANCH   8   9
ENDBRANCH   7   8
ENDBRANCH   6   7
ENDBRANCH   5   6
ENDBRANCH   4   5
ENDBRANCH   3   4
ENDBRANCH   2   3
ENDBRANCH   1   2
BRANCH   1  18
ATOM     18  C   UNL     1       3.922 -19.874   1.929  1.00  0.00     0.000 C 
BRANCH  18  19
ATOM     19  C   UNL     1       3.768 -18.379   2.273  1.00  0.00     0.000 C 
BRANCH  19  20
ATOM     20  C   UNL     1       2.485 -18.025   3.050  1.00  0.00     0.000 C 
BRANCH  20  21
ATOM     21  C   UNL     1       1.399 -19.119   3.039  1.00  0.00     0.000 C 
BRANCH  21  22
ATOM     22  C   UNL     1       1.032 -19.690   4.425  1.00  0.00     0.000 C 
BRANCH  22  23
ATOM     23  C   UNL     1       1.886 -20.883   4.890  1.00  0.00     0.000 C 
BRANCH  23  24
ATOM     24  C   UNL     1       2.743 -20.637   6.150  1.00  0.00    -0.000 C 
BRANCH  24  25
ATOM     25  C   UNL     1       2.523 -19.258   6.808  1.00  0.00    -0.000 C 
BRANCH  25  26
ATOM     26  C   UNL     1       3.626 -18.242   6.456  1.00  0.00    -0.000 C 
BRANCH  26  27
ATOM     27  C   UNL     1       4.447 -17.799   7.686  1.00  0.00    -0.000 C 
BRANCH  27  28
ATOM     28  C   UNL     1       4.404 -18.796   8.863  1.00  0.00    -0.000 C 
BRANCH  28  29
ATOM     29  C   UNL     1       5.444 -18.553   9.968  1.00  0.00    -0.000 C 
BRANCH  29  30
ATOM     30  C   UNL     1       5.458 -17.096  10.456  1.00  0.00    -0.000 C 
BRANCH  30  31
ATOM     31  C   UNL     1       6.610 -16.843  11.438  1.00  0.00    -0.003 C 
ATOM     32  C   UNL     1       7.313 -18.147  11.804  1.00  0.00     0.004 C 
ENDBRANCH  30  31
ENDBRANCH  29  30
ENDBRANCH  28  29
ENDBRANCH  27  28
ENDBRANCH  26  27
ENDBRANCH  25  26
ENDBRANCH  24  25
ENDBRANCH  23  24
ENDBRANCH  22  23
ENDBRANCH  21  22
ENDBRANCH  20  21
ENDBRANCH  19  20
ENDBRANCH  18  19
ENDBRANCH   1  18
TORSDOF 28
ENDMDL
MODEL 4
REMARK VINA RESULT:    -2.795      2.891      6.005
REMARK INTER + INTRA:         -12.786
REMARK INTER:                  -6.845
REMARK INTRA:                  -5.941
REMARK UNBOUND:                -5.415
REMARK SMILES CCCCCCCCCCCCCCCCCCCCCCCCCCCCCC(=O)[O-]
REMARK SMILES IDX 16 1 17 2 18 3 19 4 20 5 21 6 22 7 23 8 24 9 25 10 26 11
REMARK SMILES IDX 27 12 28 13 29 14 30 15 31 16 32 17 15 18 14 19 13 20 12 21
REMARK SMILES IDX 11 22 10 23 9 24 8 25 7 26 6 27 5 28 4 29 3 30 2 31 1 32
REMARK H PARENT
REMARK Flexibility Score: inf
ROOT
ATOM      1  C   UNL     1       9.436 -17.404   4.332  1.00  0.00     0.000 C 
ENDROOT
BRANCH   1   2
ATOM      2  C   UNL     1       8.803 -17.963   3.042  1.00  0.00     0.000 C 
BRANCH   2   3
ATOM      3  C   UNL     1       9.726 -18.938   2.295  1.00  0.00     0.000 C 
BRANCH   3   4
ATOM      4  C   UNL     1       9.517 -20.399   2.728  1.00  0.00     0.000 C 
BRANCH   4   5
ATOM      5  C   UNL     1      10.617 -20.905   3.680  1.00  0.00     0.000 C 
BRANCH   5   6
ATOM      6  C   UNL     1      10.046 -21.463   4.993  1.00  0.00     0.000 C 
BRANCH   6   7
ATOM      7  C   UNL     1       8.511 -21.350   5.065  1.00  0.00     0.000 C 
BRANCH   7   8
ATOM      8  C   UNL     1       8.033 -20.361   6.142  1.00  0.00     0.000 C 
BRANCH   8   9
ATOM      9  C   UNL     1       6.644 -19.754   5.858  1.00  0.00     0.000 C 
BRANCH   9  10
ATOM     10  C   UNL     1       6.179 -19.999   4.416  1.00  0.00     0.000 C 
BRANCH  10  11
ATOM     11  C   UNL     1       4.651 -19.918   4.312  1.00  0.00     0.000 C 
BRANCH  11  12
ATOM     12  C   UNL     1       4.039 -19.341   5.593  1.00  0.00     0.000 C 
BRANCH  12  13
ATOM     13  C   UNL     1       2.832 -18.452   5.276  1.00  0.00     0.006 C 
BRANCH  13  14
ATOM     14  C   UNL     1       2.559 -18.420   3.769  1.00  0.00     0.053 C 
BRANCH  14  15
ATOM     15  C   UNL     1       1.300 -19.156   3.436  1.00  0.00     0.041 C 
ATOM     16  O   UNL     1       0.585 -18.789   2.467  1.00  0.00    -0.550 OA
ATOM     17  O   UNL     1       0.922 -20.265   4.187  1.00  0.00    -0.550 OA
ENDBRANCH  14  15
ENDBRANCH  13  14
ENDBRANCH  12  13
ENDBRANCH  11  12
ENDBRANCH  10  11
ENDBRANCH   9  10
ENDBRANCH   8   9
ENDBRANCH   7   8
ENDBRANCH   6   7
ENDBRANCH   5   6
ENDBRANCH   4   5
ENDBRANCH   3   4
ENDBRANCH   2   3
ENDBRANCH   1   2
BRANCH   1  18
ATOM     18  C   UNL     1      10.964 -17.195   4.280  1.00  0.00     0.000 C 
BRANCH  18  19
ATOM     19  C   UNL     1      11.726 -17.569   5.567  1.00  0.00     0.000 C 
BRANCH  19  20
ATOM     20  C   UNL     1      10.901 -18.361   6.599  1.00  0.00     0.000 C 
BRANCH  20  21
ATOM     21  C   UNL     1      11.466 -18.341   8.033  1.00  0.00     0.000 C 
BRANCH  21  22
ATOM     22  C   UNL     1      10.411 -18.436   9.154  1.00  0.00     0.000 C 
BRANCH  22  23
ATOM     23  C   UNL     1      10.708 -17.593  10.408  1.00  0.00     0.000 C 
BRANCH  23  24
ATOM     24  C   UNL     1      10.061 -16.192  10.434  1.00  0.00    -0.000 C 
BRANCH  24  25
ATOM     25  C   UNL     1      10.888 -15.097   9.728  1.00  0.00    -0.000 C 
BRANCH  25  26
ATOM     26  C   UNL     1      10.051 -14.250   8.751  1.00  0.00    -0.000 C 
BRANCH  26  27
ATOM     27  C   UNL     1       9.741 -14.989   7.431  1.00  0.00    -0.000 C 
BRANCH  27  28
ATOM     28  C   UNL     1       8.238 -15.247   7.193  1.00  0.00    -0.000 C 
BRANCH  28  29
ATOM     29  C   UNL     1       7.756 -16.670   7.514  1.00  0.00    -0.000 C 
BRANCH  29  30
ATOM     30  C   UNL     1       6.853 -16.721   8.757  1.00  0.00    -0.000 C 
BRANCH  30  31
ATOM     31  C   UNL     1       5.408 -17.080   8.388  1.00  0.00    -0.003 C 
ATOM     32  C   UNL     1       4.992 -18.403   9.025  1.00  0.00     0.004 C 
ENDBRANCH  30  31
ENDBRANCH  29  30
ENDBRANCH  28  29
ENDBRANCH  27  28
ENDBRANCH  26  27
ENDBRANCH  25  26
ENDBRANCH  24  25
ENDBRANCH  23  24
ENDBRANCH  22  23
ENDBRANCH  21  22
ENDBRANCH  20  21
ENDBRANCH  19  20
ENDBRANCH  18  19
ENDBRANCH   1  18
TORSDOF 28
ENDMDL
MODEL 5
REMARK VINA RESULT:    -2.787      1.651      6.596
REMARK INTER + INTRA:         -12.764
REMARK INTER:                  -7.638
REMARK INTRA:                  -5.127
REMARK UNBOUND:                -5.415
REMARK SMILES CCCCCCCCCCCCCCCCCCCCCCCCCCCCCC(=O)[O-]
REMARK SMILES IDX 16 1 17 2 18 3 19 4 20 5 21 6 22 7 23 8 24 9 25 10 26 11
REMARK SMILES IDX 27 12 28 13 29 14 30 15 31 16 32 17 15 18 14 19 13 20 12 21
REMARK SMILES IDX 11 22 10 23 9 24 8 25 7 26 6 27 5 28 4 29 3 30 2 31 1 32
REMARK H PARENT
REMARK Flexibility Score: inf
ROOT
ATOM      1  C   UNL     1       9.068 -16.362   9.898  1.00  0.00     0.000 C 
ENDROOT
BRANCH   1   2
ATOM      2  C   UNL     1      10.150 -15.293   9.650  1.00  0.00     0.000 C 
BRANCH   2   3
ATOM      3  C   UNL     1       9.949 -14.532   8.330  1.00  0.00     0.000 C 
BRANCH   3   4
ATOM      4  C   UNL     1       8.817 -15.124   7.473  1.00  0.00     0.000 C 
BRANCH   4   5
ATOM      5  C   UNL     1       9.233 -15.356   6.008  1.00  0.00     0.000 C 
BRANCH   5   6
ATOM      6  C   UNL     1      10.754 -15.275   5.810  1.00  0.00     0.000 C 
BRANCH   6   7
ATOM      7  C   UNL     1      11.314 -16.478   5.029  1.00  0.00     0.000 C 
BRANCH   7   8
ATOM      8  C   UNL     1      12.203 -17.392   5.890  1.00  0.00     0.000 C 
BRANCH   8   9
ATOM      9  C   UNL     1      11.519 -17.895   7.176  1.00  0.00     0.000 C 
BRANCH   9  10
ATOM     10  C   UNL     1      10.654 -19.140   6.935  1.00  0.00     0.000 C 
BRANCH  10  11
ATOM     11  C   UNL     1       9.163 -18.796   7.022  1.00  0.00     0.000 C 
BRANCH  11  12
ATOM     12  C   UNL     1       8.432 -19.169   5.728  1.00  0.00     0.000 C 
BRANCH  12  13
ATOM     13  C   UNL     1       9.414 -19.662   4.660  1.00  0.00     0.006 C 
BRANCH  13  14
ATOM     14  C   UNL     1       8.766 -19.642   3.272  1.00  0.00     0.053 C 
BRANCH  14  15
ATOM     15  C   UNL     1       9.301 -18.514   2.447  1.00  0.00     0.041 C 
ATOM     16  O   UNL     1      10.174 -18.729   1.566  1.00  0.00    -0.550 OA
ATOM     17  O   UNL     1       8.819 -17.223   2.637  1.00  0.00    -0.550 OA
ENDBRANCH  14  15
ENDBRANCH  13  14
ENDBRANCH  12  13
ENDBRANCH  11  12
ENDBRANCH  10  11
ENDBRANCH   9  10
ENDBRANCH   8   9
ENDBRANCH   7   8
ENDBRANCH   6   7
ENDBRANCH   5   6
ENDBRANCH   4   5
ENDBRANCH   3   4
ENDBRANCH   2   3
ENDBRANCH   1   2
BRANCH   1  18
ATOM     18  C   UNL     1       9.110 -17.034  11.286  1.00  0.00     0.000 C 
BRANCH  18  19
ATOM     19  C   UNL     1       7.738 -17.416  11.878  1.00  0.00     0.000 C 
BRANCH  19  20
ATOM     20  C   UNL     1       6.900 -16.226  12.382  1.00  0.00     0.000 C 
BRANCH  20  21
ATOM     21  C   UNL     1       5.459 -16.173  11.838  1.00  0.00     0.000 C 
BRANCH  21  22
ATOM     22  C   UNL     1       5.168 -17.125  10.659  1.00  0.00     0.000 C 
BRANCH  22  23
ATOM     23  C   UNL     1       5.406 -16.528   9.260  1.00  0.00     0.000 C 
BRANCH  23  24
ATOM     24  C   UNL     1       5.947 -17.512   8.201  1.00  0.00    -0.000 C 
BRANCH  24  25
ATOM     25  C   UNL     1       5.842 -18.998   8.602  1.00  0.00    -0.000 C 
BRANCH  25  26
ATOM     26  C   UNL     1       4.658 -19.719   7.931  1.00  0.00    -0.000 C 
BRANCH  26  27
ATOM     27  C   UNL     1       4.974 -20.179   6.492  1.00  0.00    -0.000 C 
BRANCH  27  28
ATOM     28  C   UNL     1       4.346 -19.292   5.396  1.00  0.00    -0.000 C 
BRANCH  28  29
ATOM     29  C   UNL     1       2.833 -19.058   5.527  1.00  0.00    -0.000 C 
BRANCH  29  30
ATOM     30  C   UNL     1       2.143 -18.875   4.165  1.00  0.00    -0.000 C 
BRANCH  30  31
ATOM     31  C   UNL     1       2.988 -18.011   3.220  1.00  0.00    -0.003 C 
ATOM     32  C   UNL     1       3.347 -18.779   1.950  1.00  0.00     0.004 C 
ENDBRANCH  30  31
ENDBRANCH  29  30
ENDBRANCH  28  29
ENDBRANCH  27  28
ENDBRANCH  26  27
ENDBRANCH  25  26
ENDBRANCH  24  25
ENDBRANCH  23  24
ENDBRANCH  22  23
ENDBRANCH  21  22
ENDBRANCH  20  21
ENDBRANCH  19  20
ENDBRANCH  18  19
ENDBRANCH   1  18
TORSDOF 28
ENDMDL
MODEL 6
REMARK VINA RESULT:    -2.772      1.631      3.100
REMARK INTER + INTRA:         -12.723
REMARK INTER:                  -7.418
REMARK INTRA:                  -5.305
REMARK UNBOUND:                -5.415
REMARK SMILES CCCCCCCCCCCCCCCCCCCCCCCCCCCCCC(=O)[O-]
REMARK SMILES IDX 16 1 17 2 18 3 19 4 20 5 21 6 22 7 23 8 24 9 25 10 26 11
REMARK SMILES IDX 27 12 28 13 29 14 30 15 31 16 32 17 15 18 14 19 13 20 12 21
REMARK SMILES IDX 11 22 10 23 9 24 8 25 7 26 6 27 5 28 4 29 3 30 2 31 1 32
REMARK H PARENT
REMARK Flexibility Score: inf
ROOT
ATOM      1  C   UNL     1       2.971 -19.378   6.578  1.00  0.00     0.000 C 
ENDROOT
BRANCH   1   2
ATOM      2  C   UNL     1       2.886 -18.233   5.551  1.00  0.00     0.000 C 
BRANCH   2   3
ATOM      3  C   UNL     1       2.278 -18.673   4.210  1.00  0.00     0.000 C 
BRANCH   3   4
ATOM      4  C   UNL     1       2.803 -17.847   3.023  1.00  0.00     0.000 C 
BRANCH   4   5
ATOM      5  C   UNL     1       3.977 -18.525   2.294  1.00  0.00     0.000 C 
BRANCH   5   6
ATOM      6  C   UNL     1       3.883 -20.058   2.328  1.00  0.00     0.000 C 
BRANCH   6   7
ATOM      7  C   UNL     1       5.123 -20.712   2.967  1.00  0.00     0.000 C 
BRANCH   7   8
ATOM      8  C   UNL     1       5.931 -19.739   3.843  1.00  0.00     0.000 C 
BRANCH   8   9
ATOM      9  C   UNL     1       7.458 -19.897   3.706  1.00  0.00     0.000 C 
BRANCH   9  10
ATOM     10  C   UNL     1       8.139 -18.621   3.194  1.00  0.00     0.000 C 
BRANCH  10  11
ATOM     11  C   UNL     1       8.923 -17.930   4.316  1.00  0.00     0.000 C 
BRANCH  11  12
ATOM     12  C   UNL     1       9.661 -18.954   5.186  1.00  0.00     0.000 C 
BRANCH  12  13
ATOM     13  C   UNL     1      10.951 -18.360   5.764  1.00  0.00     0.006 C 
BRANCH  13  14
ATOM     14  C   UNL     1      11.615 -17.417   4.755  1.00  0.00     0.053 C 
BRANCH  14  15
ATOM     15  C   UNL     1      12.591 -18.154   3.894  1.00  0.00     0.041 C 
ATOM     16  O   UNL     1      12.239 -18.599   2.770  1.00  0.00    -0.550 OA
ATOM     17  O   UNL     1      13.902 -18.332   4.323  1.00  0.00    -0.550 OA
ENDBRANCH  14  15
ENDBRANCH  13  14
ENDBRANCH  12  13
ENDBRANCH  11  12
ENDBRANCH  10  11
ENDBRANCH   9  10
ENDBRANCH   8   9
ENDBRANCH   7   8
ENDBRANCH   6   7
ENDBRANCH   5   6
ENDBRANCH   4   5
ENDBRANCH   3   4
ENDBRANCH   2   3
ENDBRANCH   1   2
BRANCH   1  18
ATOM     18  C   UNL     1       2.691 -20.789   6.019  1.00  0.00     0.000 C 
BRANCH  18  19
ATOM     19  C   UNL     1       3.832 -21.810   6.198  1.00  0.00     0.000 C 
BRANCH  19  20
ATOM     20  C   UNL     1       4.730 -21.566   7.426  1.00  0.00     0.000 C 
BRANCH  20  21
ATOM     21  C   UNL     1       6.224 -21.362   7.105  1.00  0.00     0.000 C 
BRANCH  21  22
ATOM     22  C   UNL     1       6.881 -20.147   7.792  1.00  0.00     0.000 C 
BRANCH  22  23
ATOM     23  C   UNL     1       6.544 -18.780   7.169  1.00  0.00     0.000 C 
BRANCH  23  24
ATOM     24  C   UNL     1       5.921 -17.747   8.131  1.00  0.00    -0.000 C 
BRANCH  24  25
ATOM     25  C   UNL     1       6.917 -16.702   8.674  1.00  0.00    -0.000 C 
BRANCH  25  26
ATOM     26  C   UNL     1       8.241 -16.668   7.887  1.00  0.00    -0.000 C 
BRANCH  26  27
ATOM     27  C   UNL     1       8.445 -15.348   7.113  1.00  0.00    -0.000 C 
BRANCH  27  28
ATOM     28  C   UNL     1       9.916 -14.888   7.031  1.00  0.00    -0.000 C 
BRANCH  28  29
ATOM     29  C   UNL     1      10.853 -15.490   8.090  1.00  0.00    -0.000 C 
BRANCH  29  30
ATOM     30  C   UNL     1      11.882 -14.475   8.614  1.00  0.00    -0.000 C 
BRANCH  30  31
ATOM     31  C   UNL     1      11.649 -14.152  10.095  1.00  0.00    -0.003 C 
ATOM     32  C   UNL     1      11.947 -12.684  10.389  1.00  0.00     0.004 C 
ENDBRANCH  30  31
ENDBRANCH  29  30
ENDBRANCH  28  29
ENDBRANCH  27  28
ENDBRANCH  26  27
ENDBRANCH  25  26
ENDBRANCH  24  25
ENDBRANCH  23  24
ENDBRANCH  22  23
ENDBRANCH  21  22
ENDBRANCH  20  21
ENDBRANCH  19  20
ENDBRANCH  18  19
ENDBRANCH   1  18
TORSDOF 28
ENDMDL
MODEL 7
REMARK VINA RESULT:    -2.751      3.382      7.793
REMARK INTER + INTRA:         -12.670
REMARK INTER:                  -7.575
REMARK INTRA:                  -5.095
REMARK UNBOUND:                -5.415
REMARK SMILES CCCCCCCCCCCCCCCCCCCCCCCCCCCCCC(=O)[O-]
REMARK SMILES IDX 16 1 17 2 18 3 19 4 20 5 21 6 22 7 23 8 24 9 25 10 26 11
REMARK SMILES IDX 27 12 28 13 29 14 30 15 31 16 32 17 15 18 14 19 13 20 12 21
REMARK SMILES IDX 11 22 10 23 9 24 8 25 7 26 6 27 5 28 4 29 3 30 2 31 1 32
REMARK H PARENT
REMARK Flexibility Score: inf
ROOT
ATOM      1  C   UNL     1       5.179 -19.164   2.990  1.00  0.00     0.000 C 
ENDROOT
BRANCH   1   2
ATOM      2  C   UNL     1       5.074 -20.630   3.454  1.00  0.00     0.000 C 
BRANCH   2   3
ATOM      3  C   UNL     1       6.371 -21.153   4.091  1.00  0.00     0.000 C 
BRANCH   3   4
ATOM      4  C   UNL     1       6.832 -20.294   5.282  1.00  0.00     0.000 C 
BRANCH   4   5
ATOM      5  C   UNL     1       8.263 -20.627   5.744  1.00  0.00     0.000 C 
BRANCH   5   6
ATOM      6  C   UNL     1       9.167 -19.385   5.792  1.00  0.00     0.000 C 
BRANCH   6   7
ATOM      7  C   UNL     1       8.682 -18.264   4.854  1.00  0.00     0.000 C 
BRANCH   7   8
ATOM      8  C   UNL     1       9.670 -17.088   4.763  1.00  0.00     0.000 C 
BRANCH   8   9
ATOM      9  C   UNL     1      10.026 -16.467   6.129  1.00  0.00     0.000 C 
BRANCH   9  10
ATOM     10  C   UNL     1       9.469 -15.046   6.291  1.00  0.00     0.000 C 
BRANCH  10  11
ATOM     11  C   UNL     1       8.130 -15.064   7.038  1.00  0.00     0.000 C 
BRANCH  11  12
ATOM     12  C   UNL     1       8.081 -16.205   8.059  1.00  0.00     0.000 C 
BRANCH  12  13
ATOM     13  C   UNL     1       6.741 -16.947   7.995  1.00  0.00     0.006 C 
BRANCH  13  14
ATOM     14  C   UNL     1       6.887 -18.381   8.516  1.00  0.00     0.053 C 
BRANCH  14  15
ATOM     15  C   UNL     1       5.901 -18.659   9.605  1.00  0.00     0.041 C 
ATOM     16  O   UNL     1       5.727 -19.835  10.021  1.00  0.00    -0.550 OA
ATOM     17  O   UNL     1       5.185 -17.614  10.180  1.00  0.00    -0.550 OA
ENDBRANCH  14  15
ENDBRANCH  13  14
ENDBRANCH  12  13
ENDBRANCH  11  12
ENDBRANCH  10  11
ENDBRANCH   9  10
ENDBRANCH   8   9
ENDBRANCH   7   8
ENDBRANCH   6   7
ENDBRANCH   5   6
ENDBRANCH   4   5
ENDBRANCH   3   4
ENDBRANCH   2   3
ENDBRANCH   1   2
BRANCH   1  18
ATOM     18  C   UNL     1       4.010 -18.662   2.119  1.00  0.00     0.000 C 
BRANCH  18  19
ATOM     19  C   UNL     1       2.872 -17.955   2.883  1.00  0.00     0.000 C 
BRANCH  19  20
ATOM     20  C   UNL     1       1.765 -18.891   3.404  1.00  0.00     0.000 C 
BRANCH  20  21
ATOM     21  C   UNL     1       1.833 -19.198   4.913  1.00  0.00     0.000 C 
BRANCH  21  22
ATOM     22  C   UNL     1       2.702 -18.228   5.740  1.00  0.00     0.000 C 
BRANCH  22  23
ATOM     23  C   UNL     1       3.682 -18.899   6.720  1.00  0.00     0.000 C 
BRANCH  23  24
ATOM     24  C   UNL     1       3.541 -20.429   6.857  1.00  0.00    -0.000 C 
BRANCH  24  25
ATOM     25  C   UNL     1       2.923 -20.894   8.193  1.00  0.00    -0.000 C 
BRANCH  25  26
ATOM     26  C   UNL     1       2.137 -19.780   8.910  1.00  0.00    -0.000 C 
BRANCH  26  27
ATOM     27  C   UNL     1       0.608 -19.982   8.834  1.00  0.00    -0.000 C 
BRANCH  27  28
ATOM     28  C   UNL     1      -0.130 -18.896   8.023  1.00  0.00    -0.000 C 
BRANCH  28  29
ATOM     29  C   UNL     1      -0.967 -17.910   8.852  1.00  0.00    -0.000 C 
BRANCH  29  30
ATOM     30  C   UNL     1      -1.231 -18.414  10.280  1.00  0.00    -0.000 C 
BRANCH  30  31
ATOM     31  C   UNL     1      -0.671 -17.447  11.330  1.00  0.00    -0.003 C 
ATOM     32  C   UNL     1       0.225 -18.178  12.327  1.00  0.00     0.004 C 
ENDBRANCH  30  31
ENDBRANCH  29  30
ENDBRANCH  28  29
ENDBRANCH  27  28
ENDBRANCH  26  27
ENDBRANCH  25  26
ENDBRANCH  24  25
ENDBRANCH  23  24
ENDBRANCH  22  23
ENDBRANCH  21  22
ENDBRANCH  20  21
ENDBRANCH  19  20
ENDBRANCH  18  19
ENDBRANCH   1  18
TORSDOF 28
ENDMDL
MODEL 8
REMARK VINA RESULT:    -2.730      1.466      6.139
REMARK INTER + INTRA:         -12.613
REMARK INTER:                  -7.204
REMARK INTRA:                  -5.409
REMARK UNBOUND:                -5.415
REMARK SMILES CCCCCCCCCCCCCCCCCCCCCCCCCCCCCC(=O)[O-]
REMARK SMILES IDX 16 1 17 2 18 3 19 4 20 5 21 6 22 7 23 8 24 9 25 10 26 11
REMARK SMILES IDX 27 12 28 13 29 14 30 15 31 16 32 17 15 18 14 19 13 20 12 21
REMARK SMILES IDX 11 22 10 23 9 24 8 25 7 26 6 27 5 28 4 29 3 30 2 31 1 32
REMARK H PARENT
REMARK Flexibility Score: inf
ROOT
ATOM      1  C   UNL     1       3.780 -19.496   7.837  1.00  0.00     0.000 C 
ENDROOT
BRANCH   1   2
ATOM      2  C   UNL     1       4.842 -18.390   7.689  1.00  0.00     0.000 C 
BRANCH   2   3
ATOM      3  C   UNL     1       5.759 -18.271   8.917  1.00  0.00     0.000 C 
BRANCH   3   4
ATOM      4  C   UNL     1       6.500 -16.923   8.973  1.00  0.00     0.000 C 
BRANCH   4   5
ATOM      5  C   UNL     1       7.410 -16.688   7.753  1.00  0.00     0.000 C 
BRANCH   5   6
ATOM      6  C   UNL     1       8.721 -15.981   8.127  1.00  0.00     0.000 C 
BRANCH   6   7
ATOM      7  C   UNL     1       9.149 -14.937   7.079  1.00  0.00     0.000 C 
BRANCH   7   8
ATOM      8  C   UNL     1      10.500 -15.267   6.420  1.00  0.00     0.000 C 
BRANCH   8   9
ATOM      9  C   UNL     1      11.074 -16.637   6.828  1.00  0.00     0.000 C 
BRANCH   9  10
ATOM     10  C   UNL     1      10.918 -17.693   5.726  1.00  0.00     0.000 C 
BRANCH  10  11
ATOM     11  C   UNL     1      10.223 -17.101   4.494  1.00  0.00     0.000 C 
BRANCH  11  12
ATOM     12  C   UNL     1       8.837 -17.722   4.288  1.00  0.00     0.000 C 
BRANCH  12  13
ATOM     13  C   UNL     1       8.686 -18.276   2.867  1.00  0.00     0.006 C 
BRANCH  13  14
ATOM     14  C   UNL     1       9.383 -19.634   2.735  1.00  0.00     0.053 C 
BRANCH  14  15
ATOM     15  C   UNL     1      10.457 -19.587   1.695  1.00  0.00     0.041 C 
ATOM     16  O   UNL     1      10.544 -18.604   0.913  1.00  0.00    -0.550 OA
ATOM     17  O   UNL     1      11.380 -20.625   1.600  1.00  0.00    -0.550 OA
ENDBRANCH  14  15
ENDBRANCH  13  14
ENDBRANCH  12  13
ENDBRANCH  11  12
ENDBRANCH  10  11
ENDBRANCH   9  10
ENDBRANCH   8   9
ENDBRANCH   7   8
ENDBRANCH   6   7
ENDBRANCH   5   6
ENDBRANCH   4   5
ENDBRANCH   3   4
ENDBRANCH   2   3
ENDBRANCH   1   2
BRANCH   1  18
ATOM     18  C   UNL     1       2.416 -19.194   7.181  1.00  0.00     0.000 C 
BRANCH  18  19
ATOM     19  C   UNL     1       2.482 -18.641   5.743  1.00  0.00     0.000 C 
BRANCH  19  20
ATOM     20  C   UNL     1       1.645 -19.423   4.713  1.00  0.00     0.000 C 
BRANCH  20  21
ATOM     21  C   UNL     1       1.621 -18.810   3.299  1.00  0.00     0.000 C 
BRANCH  21  22
ATOM     22  C   UNL     1       2.754 -17.805   3.002  1.00  0.00     0.000 C 
BRANCH  22  23
ATOM     23  C   UNL     1       3.913 -18.357   2.151  1.00  0.00     0.000 C 
BRANCH  23  24
ATOM     24  C   UNL     1       4.454 -19.737   2.581  1.00  0.00    -0.000 C 
BRANCH  24  25
ATOM     25  C   UNL     1       5.554 -19.680   3.661  1.00  0.00    -0.000 C 
BRANCH  25  26
ATOM     26  C   UNL     1       5.382 -20.755   4.751  1.00  0.00    -0.000 C 
BRANCH  26  27
ATOM     27  C   UNL     1       6.721 -21.390   5.184  1.00  0.00    -0.000 C 
BRANCH  27  28
ATOM     28  C   UNL     1       7.116 -21.090   6.646  1.00  0.00    -0.000 C 
BRANCH  28  29
ATOM     29  C   UNL     1       8.300 -20.126   6.822  1.00  0.00    -0.000 C 
BRANCH  29  30
ATOM     30  C   UNL     1       9.279 -20.588   7.913  1.00  0.00    -0.000 C 
BRANCH  30  31
ATOM     31  C   UNL     1       9.645 -19.440   8.862  1.00  0.00    -0.003 C 
ATOM     32  C   UNL     1       8.949 -19.602  10.211  1.00  0.00     0.004 C 
ENDBRANCH  30  31
ENDBRANCH  29  30
ENDBRANCH  28  29
ENDBRANCH  27  28
ENDBRANCH  26  27
ENDBRANCH  25  26
ENDBRANCH  24  25
ENDBRANCH  23  24
ENDBRANCH  22  23
ENDBRANCH  21  22
ENDBRANCH  20  21
ENDBRANCH  19  20
ENDBRANCH  18  19
ENDBRANCH   1  18
TORSDOF 28
ENDMDL
MODEL 9
REMARK VINA RESULT:    -2.727      1.942      6.068
REMARK INTER + INTRA:         -12.606
REMARK INTER:                  -6.440
REMARK INTRA:                  -6.166
REMARK UNBOUND:                -5.415
REMARK SMILES CCCCCCCCCCCCCCCCCCCCCCCCCCCCCC(=O)[O-]
REMARK SMILES IDX 16 1 17 2 18 3 19 4 20 5 21 6 22 7 23 8 24 9 25 10 26 11
REMARK SMILES IDX 27 12 28 13 29 14 30 15 31 16 32 17 15 18 14 19 13 20 12 21
REMARK SMILES IDX 11 22 10 23 9 24 8 25 7 26 6 27 5 28 4 29 3 30 2 31 1 32
REMARK H PARENT
REMARK Flexibility Score: inf
ROOT
ATOM      1  C   UNL     1       8.652 -14.895   7.049  1.00  0.00     0.000 C 
ENDROOT
BRANCH   1   2
ATOM      2  C   UNL     1       7.772 -16.118   7.373  1.00  0.00     0.000 C 
BRANCH   2   3
ATOM      3  C   UNL     1       6.368 -15.733   7.866  1.00  0.00     0.000 C 
BRANCH   3   4
ATOM      4  C   UNL     1       5.589 -16.935   8.428  1.00  0.00     0.000 C 
BRANCH   4   5
ATOM      5  C   UNL     1       5.689 -17.050   9.960  1.00  0.00     0.000 C 
BRANCH   5   6
ATOM      6  C   UNL     1       5.529 -18.498  10.451  1.00  0.00     0.000 C 
BRANCH   6   7
ATOM      7  C   UNL     1       6.227 -19.515   9.529  1.00  0.00     0.000 C 
BRANCH   7   8
ATOM      8  C   UNL     1       5.247 -20.505   8.876  1.00  0.00     0.000 C 
BRANCH   8   9
ATOM      9  C   UNL     1       3.767 -20.218   9.196  1.00  0.00     0.000 C 
BRANCH   9  10
ATOM     10  C   UNL     1       2.988 -19.712   7.974  1.00  0.00     0.000 C 
BRANCH  10  11
ATOM     11  C   UNL     1       3.726 -20.053   6.674  1.00  0.00     0.000 C 
BRANCH  11  12
ATOM     12  C   UNL     1       3.787 -18.841   5.738  1.00  0.00     0.000 C 
BRANCH  12  13
ATOM     13  C   UNL     1       2.508 -18.722   4.903  1.00  0.00     0.006 C 
BRANCH  13  14
ATOM     14  C   UNL     1       2.637 -19.507   3.594  1.00  0.00     0.053 C 
BRANCH  14  15
ATOM     15  C   UNL     1       3.692 -18.915   2.714  1.00  0.00     0.041 C 
ATOM     16  O   UNL     1       3.598 -17.722   2.322  1.00  0.00    -0.550 OA
ATOM     17  O   UNL     1       4.795 -19.676   2.341  1.00  0.00    -0.550 OA
ENDBRANCH  14  15
ENDBRANCH  13  14
ENDBRANCH  12  13
ENDBRANCH  11  12
ENDBRANCH  10  11
ENDBRANCH   9  10
ENDBRANCH   8   9
ENDBRANCH   7   8
ENDBRANCH   6   7
ENDBRANCH   5   6
ENDBRANCH   4   5
ENDBRANCH   3   4
ENDBRANCH   2   3
ENDBRANCH   1   2
BRANCH   1  18
ATOM     18  C   UNL     1      10.089 -14.949   7.609  1.00  0.00     0.000 C 
BRANCH  18  19
ATOM     19  C   UNL     1      11.196 -15.197   6.565  1.00  0.00     0.000 C 
BRANCH  19  20
ATOM     20  C   UNL     1      10.690 -15.420   5.128  1.00  0.00     0.000 C 
BRANCH  20  21
ATOM     21  C   UNL     1      10.620 -16.895   4.687  1.00  0.00     0.000 C 
BRANCH  21  22
ATOM     22  C   UNL     1       9.235 -17.367   4.198  1.00  0.00     0.000 C 
BRANCH  22  23
ATOM     23  C   UNL     1       9.173 -18.828   3.715  1.00  0.00     0.000 C 
BRANCH  23  24
ATOM     24  C   UNL     1       7.872 -19.586   4.053  1.00  0.00    -0.000 C 
BRANCH  24  25
ATOM     25  C   UNL     1       7.453 -19.499   5.535  1.00  0.00    -0.000 C 
BRANCH  25  26
ATOM     26  C   UNL     1       7.926 -20.708   6.364  1.00  0.00    -0.000 C 
BRANCH  26  27
ATOM     27  C   UNL     1       9.249 -20.439   7.113  1.00  0.00    -0.000 C 
BRANCH  27  28
ATOM     28  C   UNL     1       9.404 -18.989   7.617  1.00  0.00    -0.000 C 
BRANCH  28  29
ATOM     29  C   UNL     1      10.817 -18.601   8.080  1.00  0.00    -0.000 C 
BRANCH  29  30
ATOM     30  C   UNL     1      10.849 -18.123   9.541  1.00  0.00    -0.000 C 
BRANCH  30  31
ATOM     31  C   UNL     1       9.436 -17.871  10.081  1.00  0.00    -0.003 C 
ATOM     32  C   UNL     1       9.351 -16.519  10.784  1.00  0.00     0.004 C 
ENDBRANCH  30  31
ENDBRANCH  29  30
ENDBRANCH  28  29
ENDBRANCH  27  28
ENDBRANCH  26  27
ENDBRANCH  25  26
ENDBRANCH  24  25
ENDBRANCH  23  24
ENDBRANCH  22  23
ENDBRANCH  21  22
ENDBRANCH  20  21
ENDBRANCH  19  20
ENDBRANCH  18  19
ENDBRANCH   1  18
TORSDOF 28
ENDMDL
