MODEL 1
REMARK VINA RESULT:    -6.468      0.000      0.000
REMARK INTER + INTRA:          -9.315
REMARK INTER:                  -8.737
REMARK INTRA:                  -0.578
REMARK UNBOUND:                -0.578
REMARK SMILES COc1ccc(-c2cc(=O)c3c(OC)c(OC)c(OC)c(OC)c3o2)cc1
REMARK SMILES IDX 7 1 8 2 9 3 10 4 11 5 24 6 25 7 21 8 18 9 15 10 12 11 6 12
REMARK SMILES IDX 3 13 4 14 27 15 5 16 26 17 2 18 1 19 22 20 23 21 13 22 14 23
REMARK SMILES IDX 19 24 20 25 16 26 17 27
REMARK H PARENT
REMARK Flexibility Score: inf
ROOT
ATOM      1  C   UNL     1     128.228 114.600 100.902  1.00  0.00     0.138 A 
ATOM      2  C   UNL     1     127.835 113.281 100.661  1.00  0.00     0.100 A 
ATOM      3  C   UNL     1     128.713 112.414 100.017  1.00  0.00     0.197 A 
ATOM      4  O   UNL     1     128.334 111.231  99.801  1.00  0.00    -0.289 OA
ATOM      5  C   UNL     1     129.995 112.871  99.622  1.00  0.00     0.115 A 
ATOM      6  C   UNL     1     130.335 114.209  99.931  1.00  0.00     0.188 A 
ATOM      7  O   UNL     1     129.448 114.992 100.543  1.00  0.00    -0.452 OA
ATOM      8  C   UNL     1     131.601 114.723  99.572  1.00  0.00     0.209 A 
ATOM      9  C   UNL     1     132.532 113.894  98.911  1.00  0.00     0.211 A 
ATOM     10  C   UNL     1     132.187 112.560  98.568  1.00  0.00     0.208 A 
ATOM     11  C   UNL     1     130.915 112.045  98.933  1.00  0.00     0.179 A 
ENDROOT
BRANCH   1  12
ATOM     12  C   UNL     1     127.316 115.578 101.548  1.00  0.00     0.018 A 
ATOM     13  C   UNL     1     125.533 117.376 102.798  1.00  0.00     0.118 A 
ATOM     14  C   UNL     1     126.849 117.251 103.254  1.00  0.00     0.047 A 
ATOM     15  C   UNL     1     125.110 116.599 101.704  1.00  0.00     0.047 A 
ATOM     16  C   UNL     1     127.733 116.359 102.643  1.00  0.00     0.016 A 
ATOM     17  C   UNL     1     125.994 115.709 101.088  1.00  0.00     0.016 A 
BRANCH  13  18
ATOM     18  O   UNL     1     124.681 118.271 103.461  1.00  0.00    -0.497 OA
ATOM     19  C   UNL     1     123.327 117.988 103.802  1.00  0.00     0.278 C 
ENDBRANCH  13  18
ENDBRANCH   1  12
BRANCH   8  20
ATOM     20  O   UNL     1     131.968 116.061  99.810  1.00  0.00    -0.490 OA
ATOM     21  C   UNL     1     132.502 116.602 101.012  1.00  0.00     0.278 C 
ENDBRANCH   8  20
BRANCH  11  22
ATOM     22  O   UNL     1     130.513 110.724  98.632  1.00  0.00    -0.492 OA
ATOM     23  C   UNL     1     130.145 110.189  97.365  1.00  0.00     0.278 C 
ENDBRANCH  11  22
BRANCH   9  24
ATOM     24  O   UNL     1     133.806 114.374  98.565  1.00  0.00    -0.490 OA
ATOM     25  C   UNL     1     134.125 115.105  97.386  1.00  0.00     0.279 C 
ENDBRANCH   9  24
BRANCH  10  26
ATOM     26  O   UNL     1     133.070 111.708  97.874  1.00  0.00    -0.490 OA
ATOM     27  C   UNL     1     133.289 111.629  96.469  1.00  0.00     0.278 C 
ENDBRANCH  10  26
TORSDOF 6
ENDMDL
MODEL 2
REMARK VINA RESULT:    -6.026      1.488      3.715
REMARK INTER + INTRA:          -8.718
REMARK INTER:                  -8.082
REMARK INTRA:                  -0.635
REMARK UNBOUND:                -0.578
REMARK SMILES COc1ccc(-c2cc(=O)c3c(OC)c(OC)c(OC)c(OC)c3o2)cc1
REMARK SMILES IDX 7 1 8 2 9 3 10 4 11 5 24 6 25 7 21 8 18 9 15 10 12 11 6 12
REMARK SMILES IDX 3 13 4 14 27 15 5 16 26 17 2 18 1 19 22 20 23 21 13 22 14 23
REMARK SMILES IDX 19 24 20 25 16 26 17 27
REMARK H PARENT
REMARK Flexibility Score: inf
ROOT
ATOM      1  C   UNL     1     128.127 115.386 101.495  1.00  0.00     0.138 A 
ATOM      2  C   UNL     1     129.473 115.764 101.464  1.00  0.00     0.100 A 
ATOM      3  C   UNL     1     130.384 114.987 100.755  1.00  0.00     0.197 A 
ATOM      4  O   UNL     1     131.593 115.341 100.748  1.00  0.00    -0.289 OA
ATOM      5  C   UNL     1     129.941 113.831 100.065  1.00  0.00     0.115 A 
ATOM      6  C   UNL     1     128.559 113.531 100.114  1.00  0.00     0.188 A 
ATOM      7  O   UNL     1     127.738 114.310 100.816  1.00  0.00    -0.452 OA
ATOM      8  C   UNL     1     128.052 112.397  99.441  1.00  0.00     0.209 A 
ATOM      9  C   UNL     1     128.929 111.568  98.709  1.00  0.00     0.211 A 
ATOM     10  C   UNL     1     130.321 111.842  98.683  1.00  0.00     0.208 A 
ATOM     11  C   UNL     1     130.828 112.984  99.358  1.00  0.00     0.179 A 
ENDROOT
BRANCH   1  12
ATOM     12  C   UNL     1     127.121 116.155 102.270  1.00  0.00     0.018 A 
ATOM     13  C   UNL     1     125.159 117.553 103.742  1.00  0.00     0.118 A 
ATOM     14  C   UNL     1     126.408 117.280 104.309  1.00  0.00     0.047 A 
ATOM     15  C   UNL     1     124.894 117.129 102.428  1.00  0.00     0.047 A 
ATOM     16  C   UNL     1     127.379 116.583 103.587  1.00  0.00     0.016 A 
ATOM     17  C   UNL     1     125.867 116.436 101.702  1.00  0.00     0.016 A 
BRANCH  13  18
ATOM     18  O   UNL     1     124.212 118.238 104.518  1.00  0.00    -0.497 OA
ATOM     19  C   UNL     1     123.534 117.676 105.639  1.00  0.00     0.278 C 
ENDBRANCH  13  18
ENDBRANCH   1  12
BRANCH   8  20
ATOM     20  O   UNL     1     126.696 112.027  99.501  1.00  0.00    -0.490 OA
ATOM     21  C   UNL     1     126.079 111.186 100.470  1.00  0.00     0.278 C 
ENDBRANCH   8  20
BRANCH  11  22
ATOM     22  O   UNL     1     132.199 113.321  99.361  1.00  0.00    -0.492 OA
ATOM     23  C   UNL     1     133.002 113.730  98.260  1.00  0.00     0.278 C 
ENDBRANCH  11  22
BRANCH   9  24
ATOM     24  O   UNL     1     128.446 110.449  98.011  1.00  0.00    -0.490 OA
ATOM     25  C   UNL     1     128.089 110.421  96.632  1.00  0.00     0.279 C 
ENDBRANCH   9  24
BRANCH  10  26
ATOM     26  O   UNL     1     131.238 111.019  97.998  1.00  0.00    -0.490 OA
ATOM     27  C   UNL     1     131.885 109.842  98.472  1.00  0.00     0.278 C 
ENDBRANCH  10  26
TORSDOF 6
ENDMDL
MODEL 3
REMARK VINA RESULT:    -5.906      5.045      7.338
REMARK INTER + INTRA:          -8.555
REMARK INTER:                  -7.987
REMARK INTRA:                  -0.568
REMARK UNBOUND:                -0.578
REMARK SMILES COc1ccc(-c2cc(=O)c3c(OC)c(OC)c(OC)c(OC)c3o2)cc1
REMARK SMILES IDX 7 1 8 2 9 3 10 4 11 5 24 6 25 7 21 8 18 9 15 10 12 11 6 12
REMARK SMILES IDX 3 13 4 14 27 15 5 16 26 17 2 18 1 19 22 20 23 21 13 22 14 23
REMARK SMILES IDX 19 24 20 25 16 26 17 27
REMARK H PARENT
REMARK Flexibility Score: inf
ROOT
ATOM      1  C   UNL     1     131.228 115.519  96.740  1.00  0.00     0.138 A 
ATOM      2  C   UNL     1     131.850 114.779  95.730  1.00  0.00     0.100 A 
ATOM      3  C   UNL     1     131.161 114.525  94.548  1.00  0.00     0.197 A 
ATOM      4  O   UNL     1     131.738 113.848  93.655  1.00  0.00    -0.289 OA
ATOM      5  C   UNL     1     129.846 115.023  94.374  1.00  0.00     0.115 A 
ATOM      6  C   UNL     1     129.296 115.793  95.426  1.00  0.00     0.188 A 
ATOM      7  O   UNL     1     130.003 115.996  96.536  1.00  0.00    -0.452 OA
ATOM      8  C   UNL     1     127.993 116.326  95.312  1.00  0.00     0.209 A 
ATOM      9  C   UNL     1     127.243 116.096  94.139  1.00  0.00     0.211 A 
ATOM     10  C   UNL     1     127.774 115.298  93.092  1.00  0.00     0.208 A 
ATOM     11  C   UNL     1     129.085 114.766  93.209  1.00  0.00     0.179 A 
ENDROOT
BRANCH   1  12
ATOM     12  C   UNL     1     131.901 115.784  98.036  1.00  0.00     0.018 A 
ATOM     13  C   UNL     1     133.130 116.350 100.516  1.00  0.00     0.118 A 
ATOM     14  C   UNL     1     132.500 115.119 100.301  1.00  0.00     0.047 A 
ATOM     15  C   UNL     1     133.149 117.299  99.479  1.00  0.00     0.047 A 
ATOM     16  C   UNL     1     131.886 114.838  99.079  1.00  0.00     0.016 A 
ATOM     17  C   UNL     1     132.539 117.018  98.253  1.00  0.00     0.016 A 
BRANCH  13  18
ATOM     18  O   UNL     1     133.712 116.589 101.769  1.00  0.00    -0.497 OA
ATOM     19  C   UNL     1     134.064 115.569 102.700  1.00  0.00     0.278 C 
ENDBRANCH  13  18
ENDBRANCH   1  12
BRANCH   8  20
ATOM     20  O   UNL     1     127.380 117.054  96.350  1.00  0.00    -0.490 OA
ATOM     21  C   UNL     1     126.711 116.524  97.488  1.00  0.00     0.278 C 
ENDBRANCH   8  20
BRANCH  11  22
ATOM     22  O   UNL     1     129.678 113.973  92.201  1.00  0.00    -0.492 OA
ATOM     23  C   UNL     1     129.395 112.617  91.875  1.00  0.00     0.278 C 
ENDBRANCH  11  22
BRANCH   9  24
ATOM     24  O   UNL     1     125.954 116.636  93.991  1.00  0.00    -0.490 OA
ATOM     25  C   UNL     1     124.740 116.008  94.393  1.00  0.00     0.279 C 
ENDBRANCH   9  24
BRANCH  10  26
ATOM     26  O   UNL     1     127.046 115.010  91.920  1.00  0.00    -0.490 OA
ATOM     27  C   UNL     1     126.095 113.971  91.712  1.00  0.00     0.278 C 
ENDBRANCH  10  26
TORSDOF 6
ENDMDL
MODEL 4
REMARK VINA RESULT:    -5.762      5.131      5.999
REMARK INTER + INTRA:          -8.362
REMARK INTER:                  -7.743
REMARK INTRA:                  -0.619
REMARK UNBOUND:                -0.578
REMARK SMILES COc1ccc(-c2cc(=O)c3c(OC)c(OC)c(OC)c(OC)c3o2)cc1
REMARK SMILES IDX 7 1 8 2 9 3 10 4 11 5 24 6 25 7 21 8 18 9 15 10 12 11 6 12
REMARK SMILES IDX 3 13 4 14 27 15 5 16 26 17 2 18 1 19 22 20 23 21 13 22 14 23
REMARK SMILES IDX 19 24 20 25 16 26 17 27
REMARK H PARENT
REMARK Flexibility Score: inf
ROOT
ATOM      1  C   UNL     1     125.624 116.576  98.946  1.00  0.00     0.138 A 
ATOM      2  C   UNL     1     124.335 116.276  98.495  1.00  0.00     0.100 A 
ATOM      3  C   UNL     1     124.139 115.952  97.156  1.00  0.00     0.197 A 
ATOM      4  O   UNL     1     122.968 115.695  96.769  1.00  0.00    -0.289 OA
ATOM      5  C   UNL     1     125.243 115.920  96.267  1.00  0.00     0.115 A 
ATOM      6  C   UNL     1     126.521 116.201  96.804  1.00  0.00     0.188 A 
ATOM      7  O   UNL     1     126.643 116.511  98.093  1.00  0.00    -0.452 OA
ATOM      8  C   UNL     1     127.664 116.176  95.973  1.00  0.00     0.209 A 
ATOM      9  C   UNL     1     127.527 115.860  94.604  1.00  0.00     0.211 A 
ATOM     10  C   UNL     1     126.244 115.609  94.050  1.00  0.00     0.208 A 
ATOM     11  C   UNL     1     125.098 115.632  94.889  1.00  0.00     0.179 A 
ENDROOT
BRANCH   1  12
ATOM     12  C   UNL     1     125.883 116.968 100.354  1.00  0.00     0.018 A 
ATOM     13  C   UNL     1     126.455 117.725 103.014  1.00  0.00     0.118 A 
ATOM     14  C   UNL     1     125.582 118.489 102.232  1.00  0.00     0.047 A 
ATOM     15  C   UNL     1     127.039 116.572 102.461  1.00  0.00     0.047 A 
ATOM     16  C   UNL     1     125.302 118.122 100.914  1.00  0.00     0.016 A 
ATOM     17  C   UNL     1     126.756 116.200 101.144  1.00  0.00     0.016 A 
BRANCH  13  18
ATOM     18  O   UNL     1     126.719 118.150 104.325  1.00  0.00    -0.497 OA
ATOM     19  C   UNL     1     125.986 117.724 105.470  1.00  0.00     0.278 C 
ENDBRANCH  13  18
ENDBRANCH   1  12
BRANCH   8  20
ATOM     20  O   UNL     1     128.949 116.499  96.446  1.00  0.00    -0.490 OA
ATOM     21  C   UNL     1     129.934 115.596  96.936  1.00  0.00     0.278 C 
ENDBRANCH   8  20
BRANCH  11  22
ATOM     22  O   UNL     1     123.795 115.380  94.405  1.00  0.00    -0.492 OA
ATOM     23  C   UNL     1     123.033 116.166  93.495  1.00  0.00     0.278 C 
ENDBRANCH  11  22
BRANCH   9  24
ATOM     24  O   UNL     1     128.650 115.805  93.762  1.00  0.00    -0.490 OA
ATOM     25  C   UNL     1     129.196 116.901  93.035  1.00  0.00     0.279 C 
ENDBRANCH   9  24
BRANCH  10  26
ATOM     26  O   UNL     1     126.056 115.328  92.682  1.00  0.00    -0.490 OA
ATOM     27  C   UNL     1     126.102 114.062  92.033  1.00  0.00     0.278 C 
ENDBRANCH  10  26
TORSDOF 6
ENDMDL
MODEL 5
REMARK VINA RESULT:    -5.703      2.055      8.671
REMARK INTER + INTRA:          -8.282
REMARK INTER:                  -7.817
REMARK INTRA:                  -0.465
REMARK UNBOUND:                -0.578
REMARK SMILES COc1ccc(-c2cc(=O)c3c(OC)c(OC)c(OC)c(OC)c3o2)cc1
REMARK SMILES IDX 7 1 8 2 9 3 10 4 11 5 24 6 25 7 21 8 18 9 15 10 12 11 6 12
REMARK SMILES IDX 3 13 4 14 27 15 5 16 26 17 2 18 1 19 22 20 23 21 13 22 14 23
REMARK SMILES IDX 19 24 20 25 16 26 17 27
REMARK H PARENT
REMARK Flexibility Score: inf
ROOT
ATOM      1  C   UNL     1     128.332 114.969 101.030  1.00  0.00     0.138 A 
ATOM      2  C   UNL     1     128.680 115.749 102.136  1.00  0.00     0.100 A 
ATOM      3  C   UNL     1     127.705 116.525 102.757  1.00  0.00     0.197 A 
ATOM      4  O   UNL     1     128.042 117.228 103.747  1.00  0.00    -0.289 OA
ATOM      5  C   UNL     1     126.374 116.511 102.271  1.00  0.00     0.115 A 
ATOM      6  C   UNL     1     126.091 115.669 101.169  1.00  0.00     0.188 A 
ATOM      7  O   UNL     1     127.069 114.956 100.614  1.00  0.00    -0.452 OA
ATOM      8  C   UNL     1     124.782 115.602 100.641  1.00  0.00     0.209 A 
ATOM      9  C   UNL     1     123.752 116.371 101.225  1.00  0.00     0.211 A 
ATOM     10  C   UNL     1     124.034 117.243 102.310  1.00  0.00     0.208 A 
ATOM     11  C   UNL     1     125.350 117.306 102.839  1.00  0.00     0.179 A 
ENDROOT
BRANCH   1  12
ATOM     12  C   UNL     1     129.341 114.155 100.305  1.00  0.00     0.018 A 
ATOM     13  C   UNL     1     131.210 112.605  98.863  1.00  0.00     0.118 A 
ATOM     14  C   UNL     1     131.539 113.896  99.290  1.00  0.00     0.047 A 
ATOM     15  C   UNL     1     129.939 112.086  99.167  1.00  0.00     0.047 A 
ATOM     16  C   UNL     1     130.615 114.668  99.998  1.00  0.00     0.016 A 
ATOM     17  C   UNL     1     129.015 112.855  99.880  1.00  0.00     0.016 A 
BRANCH  13  18
ATOM     18  O   UNL     1     132.167 111.881  98.137  1.00  0.00    -0.497 OA
ATOM     19  C   UNL     1     133.451 112.382  97.778  1.00  0.00     0.278 C 
ENDBRANCH  13  18
ENDBRANCH   1  12
BRANCH   8  20
ATOM     20  O   UNL     1     124.460 114.822  99.515  1.00  0.00    -0.490 OA
ATOM     21  C   UNL     1     124.617 115.185  98.148  1.00  0.00     0.278 C 
ENDBRANCH   8  20
BRANCH  11  22
ATOM     22  O   UNL     1     125.696 118.142 103.924  1.00  0.00    -0.492 OA
ATOM     23  C   UNL     1     125.544 117.878 105.315  1.00  0.00     0.278 C 
ENDBRANCH  11  22
BRANCH   9  24
ATOM     24  O   UNL     1     122.438 116.304 100.735  1.00  0.00    -0.490 OA
ATOM     25  C   UNL     1     121.883 117.144  99.728  1.00  0.00     0.279 C 
ENDBRANCH   9  24
BRANCH  10  26
ATOM     26  O   UNL     1     123.046 118.057 102.897  1.00  0.00    -0.490 OA
ATOM     27  C   UNL     1     122.205 117.755 104.007  1.00  0.00     0.278 C 
ENDBRANCH  10  26
TORSDOF 6
ENDMDL
MODEL 6
REMARK VINA RESULT:    -5.698      2.929      4.102
REMARK INTER + INTRA:          -8.274
REMARK INTER:                  -7.593
REMARK INTRA:                  -0.682
REMARK UNBOUND:                -0.578
REMARK SMILES COc1ccc(-c2cc(=O)c3c(OC)c(OC)c(OC)c(OC)c3o2)cc1
REMARK SMILES IDX 7 1 8 2 9 3 10 4 11 5 24 6 25 7 21 8 18 9 15 10 12 11 6 12
REMARK SMILES IDX 3 13 4 14 27 15 5 16 26 17 2 18 1 19 22 20 23 21 13 22 14 23
REMARK SMILES IDX 19 24 20 25 16 26 17 27
REMARK H PARENT
REMARK Flexibility Score: inf
ROOT
ATOM      1  C   UNL     1     127.100 115.878 101.518  1.00  0.00     0.138 A 
ATOM      2  C   UNL     1     128.279 115.185 101.808  1.00  0.00     0.100 A 
ATOM      3  C   UNL     1     128.961 114.539 100.781  1.00  0.00     0.197 A 
ATOM      4  O   UNL     1     130.017 113.913 101.067  1.00  0.00    -0.289 OA
ATOM      5  C   UNL     1     128.465 114.598  99.455  1.00  0.00     0.115 A 
ATOM      6  C   UNL     1     127.285 115.348  99.233  1.00  0.00     0.188 A 
ATOM      7  O   UNL     1     126.674 115.937 100.259  1.00  0.00    -0.452 OA
ATOM      8  C   UNL     1     126.743 115.453  97.933  1.00  0.00     0.209 A 
ATOM      9  C   UNL     1     127.388 114.815  96.852  1.00  0.00     0.211 A 
ATOM     10  C   UNL     1     128.553 114.034  97.071  1.00  0.00     0.208 A 
ATOM     11  C   UNL     1     129.097 113.932  98.378  1.00  0.00     0.179 A 
ENDROOT
BRANCH   1  12
ATOM     12  C   UNL     1     126.310 116.548 102.581  1.00  0.00     0.018 A 
ATOM     13  C   UNL     1     124.756 117.761 104.604  1.00  0.00     0.118 A 
ATOM     14  C   UNL     1     126.086 117.403 104.850  1.00  0.00     0.047 A 
ATOM     15  C   UNL     1     124.205 117.516 103.334  1.00  0.00     0.047 A 
ATOM     16  C   UNL     1     126.856 116.798 103.855  1.00  0.00     0.016 A 
ATOM     17  C   UNL     1     124.975 116.914 102.335  1.00  0.00     0.016 A 
BRANCH  13  18
ATOM     18  O   UNL     1     124.021 118.347 105.645  1.00  0.00    -0.497 OA
ATOM     19  C   UNL     1     123.249 117.616 106.594  1.00  0.00     0.278 C 
ENDBRANCH  13  18
ENDBRANCH   1  12
BRANCH   8  20
ATOM     20  O   UNL     1     125.545 116.143  97.668  1.00  0.00    -0.490 OA
ATOM     21  C   UNL     1     124.223 115.622  97.740  1.00  0.00     0.278 C 
ENDBRANCH   8  20
BRANCH  11  22
ATOM     22  O   UNL     1     130.259 113.182  98.664  1.00  0.00    -0.492 OA
ATOM     23  C   UNL     1     130.409 111.766  98.661  1.00  0.00     0.278 C 
ENDBRANCH  11  22
BRANCH   9  24
ATOM     24  O   UNL     1     126.882 114.925  95.546  1.00  0.00    -0.490 OA
ATOM     25  C   UNL     1     127.205 115.954  94.615  1.00  0.00     0.279 C 
ENDBRANCH   9  24
BRANCH  10  26
ATOM     26  O   UNL     1     129.207 113.348  96.028  1.00  0.00    -0.490 OA
ATOM     27  C   UNL     1     130.260 113.820  95.193  1.00  0.00     0.278 C 
ENDBRANCH  10  26
TORSDOF 6
ENDMDL
MODEL 7
REMARK VINA RESULT:    -5.628      2.692      2.948
REMARK INTER + INTRA:          -8.180
REMARK INTER:                  -7.538
REMARK INTRA:                  -0.642
REMARK UNBOUND:                -0.578
REMARK SMILES COc1ccc(-c2cc(=O)c3c(OC)c(OC)c(OC)c(OC)c3o2)cc1
REMARK SMILES IDX 7 1 8 2 9 3 10 4 11 5 24 6 25 7 21 8 18 9 15 10 12 11 6 12
REMARK SMILES IDX 3 13 4 14 27 15 5 16 26 17 2 18 1 19 22 20 23 21 13 22 14 23
REMARK SMILES IDX 19 24 20 25 16 26 17 27
REMARK H PARENT
REMARK Flexibility Score: inf
ROOT
ATOM      1  C   UNL     1     128.012 114.583 100.322  1.00  0.00     0.138 A 
ATOM      2  C   UNL     1     128.250 113.236 100.614  1.00  0.00     0.100 A 
ATOM      3  C   UNL     1     128.808 112.415  99.639  1.00  0.00     0.197 A 
ATOM      4  O   UNL     1     129.005 111.202  99.921  1.00  0.00    -0.289 OA
ATOM      5  C   UNL     1     129.138 112.949  98.369  1.00  0.00     0.115 A 
ATOM      6  C   UNL     1     128.901 114.328  98.159  1.00  0.00     0.188 A 
ATOM      7  O   UNL     1     128.357 115.060  99.130  1.00  0.00    -0.452 OA
ATOM      8  C   UNL     1     129.216 114.925  96.918  1.00  0.00     0.209 A 
ATOM      9  C   UNL     1     129.778 114.141  95.888  1.00  0.00     0.211 A 
ATOM     10  C   UNL     1     129.989 112.750  96.078  1.00  0.00     0.208 A 
ATOM     11  C   UNL     1     129.675 112.154  97.328  1.00  0.00     0.179 A 
ENDROOT
BRANCH   1  12
ATOM     12  C   UNL     1     127.381 115.493 101.311  1.00  0.00     0.018 A 
ATOM     13  C   UNL     1     126.129 117.164 103.212  1.00  0.00     0.118 A 
ATOM     14  C   UNL     1     127.476 116.816 103.353  1.00  0.00     0.047 A 
ATOM     15  C   UNL     1     125.407 116.677 102.108  1.00  0.00     0.047 A 
ATOM     16  C   UNL     1     128.098 115.985 102.419  1.00  0.00     0.016 A 
ATOM     17  C   UNL     1     126.029 115.849 101.169  1.00  0.00     0.016 A 
BRANCH  13  18
ATOM     18  O   UNL     1     125.548 117.985 104.190  1.00  0.00    -0.497 OA
ATOM     19  C   UNL     1     125.278 117.573 105.527  1.00  0.00     0.278 C 
ENDBRANCH  13  18
ENDBRANCH   1  12
BRANCH   8  20
ATOM     20  O   UNL     1     128.951 116.279  96.641  1.00  0.00    -0.490 OA
ATOM     21  C   UNL     1     127.719 116.838  96.199  1.00  0.00     0.278 C 
ENDBRANCH   8  20
BRANCH  11  22
ATOM     22  O   UNL     1     129.870 110.779  97.587  1.00  0.00    -0.492 OA
ATOM     23  C   UNL     1     131.101 110.066  97.643  1.00  0.00     0.278 C 
ENDBRANCH  11  22
BRANCH   9  24
ATOM     24  O   UNL     1     130.123 114.715  94.653  1.00  0.00    -0.490 OA
ATOM     25  C   UNL     1     129.281 114.785  93.506  1.00  0.00     0.279 C 
ENDBRANCH   9  24
BRANCH  10  26
ATOM     26  O   UNL     1     130.513 111.922  95.064  1.00  0.00    -0.490 OA
ATOM     27  C   UNL     1     129.796 111.123  94.128  1.00  0.00     0.278 C 
ENDBRANCH  10  26
TORSDOF 6
ENDMDL
MODEL 8
REMARK VINA RESULT:    -5.618      2.666      3.411
REMARK INTER + INTRA:          -8.166
REMARK INTER:                  -7.482
REMARK INTRA:                  -0.685
REMARK UNBOUND:                -0.578
REMARK SMILES COc1ccc(-c2cc(=O)c3c(OC)c(OC)c(OC)c(OC)c3o2)cc1
REMARK SMILES IDX 7 1 8 2 9 3 10 4 11 5 24 6 25 7 21 8 18 9 15 10 12 11 6 12
REMARK SMILES IDX 3 13 4 14 27 15 5 16 26 17 2 18 1 19 22 20 23 21 13 22 14 23
REMARK SMILES IDX 19 24 20 25 16 26 17 27
REMARK H PARENT
REMARK Flexibility Score: inf
ROOT
ATOM      1  C   UNL     1     126.624 115.880 100.589  1.00  0.00     0.138 A 
ATOM      2  C   UNL     1     125.786 115.994  99.476  1.00  0.00     0.100 A 
ATOM      3  C   UNL     1     126.181 115.436  98.264  1.00  0.00     0.197 A 
ATOM      4  O   UNL     1     125.414 115.560  97.272  1.00  0.00    -0.289 OA
ATOM      5  C   UNL     1     127.418 114.751  98.170  1.00  0.00     0.115 A 
ATOM      6  C   UNL     1     128.196 114.646  99.348  1.00  0.00     0.188 A 
ATOM      7  O   UNL     1     127.767 115.208 100.476  1.00  0.00    -0.452 OA
ATOM      8  C   UNL     1     129.435 113.968  99.324  1.00  0.00     0.209 A 
ATOM      9  C   UNL     1     129.891 113.386  98.121  1.00  0.00     0.211 A 
ATOM     10  C   UNL     1     129.133 113.515  96.928  1.00  0.00     0.208 A 
ATOM     11  C   UNL     1     127.886 114.194  96.956  1.00  0.00     0.179 A 
ENDROOT
BRANCH   1  12
ATOM     12  C   UNL     1     126.272 116.492 101.895  1.00  0.00     0.018 A 
ATOM     13  C   UNL     1     125.551 117.594 104.393  1.00  0.00     0.118 A 
ATOM     14  C   UNL     1     126.876 117.222 104.138  1.00  0.00     0.047 A 
ATOM     15  C   UNL     1     124.585 117.419 103.387  1.00  0.00     0.047 A 
ATOM     16  C   UNL     1     127.235 116.671 102.906  1.00  0.00     0.016 A 
ATOM     17  C   UNL     1     124.943 116.872 102.152  1.00  0.00     0.016 A 
BRANCH  13  18
ATOM     18  O   UNL     1     125.240 118.123 105.654  1.00  0.00    -0.497 OA
ATOM     19  C   UNL     1     124.000 117.922 106.327  1.00  0.00     0.278 C 
ENDBRANCH  13  18
ENDBRANCH   1  12
BRANCH   8  20
ATOM     20  O   UNL     1     130.271 113.880 100.453  1.00  0.00    -0.490 OA
ATOM     21  C   UNL     1     131.281 114.803 100.845  1.00  0.00     0.278 C 
ENDBRANCH   8  20
BRANCH  11  22
ATOM     22  O   UNL     1     127.077 114.349  95.809  1.00  0.00    -0.492 OA
ATOM     23  C   UNL     1     127.347 115.124  94.646  1.00  0.00     0.278 C 
ENDBRANCH  11  22
BRANCH   9  24
ATOM     24  O   UNL     1     131.108 112.686  98.077  1.00  0.00    -0.490 OA
ATOM     25  C   UNL     1     131.282 111.304  98.379  1.00  0.00     0.279 C 
ENDBRANCH   9  24
BRANCH  10  26
ATOM     26  O   UNL     1     129.568 112.984  95.698  1.00  0.00    -0.490 OA
ATOM     27  C   UNL     1     129.314 111.689  95.162  1.00  0.00     0.278 C 
ENDBRANCH  10  26
TORSDOF 6
ENDMDL
MODEL 9
REMARK VINA RESULT:    -5.519      5.839      8.289
REMARK INTER + INTRA:          -8.034
REMARK INTER:                  -7.385
REMARK INTRA:                  -0.649
REMARK UNBOUND:                -0.578
REMARK SMILES COc1ccc(-c2cc(=O)c3c(OC)c(OC)c(OC)c(OC)c3o2)cc1
REMARK SMILES IDX 7 1 8 2 9 3 10 4 11 5 24 6 25 7 21 8 18 9 15 10 12 11 6 12
REMARK SMILES IDX 3 13 4 14 27 15 5 16 26 17 2 18 1 19 22 20 23 21 13 22 14 23
REMARK SMILES IDX 19 24 20 25 16 26 17 27
REMARK H PARENT
REMARK Flexibility Score: inf
ROOT
ATOM      1  C   UNL     1     123.528 117.440  99.206  1.00  0.00     0.138 A 
ATOM      2  C   UNL     1     122.348 118.095  98.840  1.00  0.00     0.100 A 
ATOM      3  C   UNL     1     121.808 117.871  97.577  1.00  0.00     0.197 A 
ATOM      4  O   UNL     1     120.749 118.479  97.264  1.00  0.00    -0.289 OA
ATOM      5  C   UNL     1     122.449 116.979  96.681  1.00  0.00     0.115 A 
ATOM      6  C   UNL     1     123.619 116.327  97.136  1.00  0.00     0.188 A 
ATOM      7  O   UNL     1     124.091 116.589  98.353  1.00  0.00    -0.452 OA
ATOM      8  C   UNL     1     124.301 115.419  96.295  1.00  0.00     0.209 A 
ATOM      9  C   UNL     1     123.804 115.157  95.000  1.00  0.00     0.211 A 
ATOM     10  C   UNL     1     122.649 115.831  94.524  1.00  0.00     0.208 A 
ATOM     11  C   UNL     1     121.964 116.740  95.372  1.00  0.00     0.179 A 
ENDROOT
BRANCH   1  12
ATOM     12  C   UNL     1     124.169 117.674 100.524  1.00  0.00     0.018 A 
ATOM     13  C   UNL     1     125.388 118.039 103.045  1.00  0.00     0.118 A 
ATOM     14  C   UNL     1     126.062 118.400 101.874  1.00  0.00     0.047 A 
ATOM     15  C   UNL     1     124.094 117.498 102.953  1.00  0.00     0.047 A 
ATOM     16  C   UNL     1     125.465 118.215 100.624  1.00  0.00     0.016 A 
ATOM     17  C   UNL     1     123.493 117.317 101.704  1.00  0.00     0.016 A 
BRANCH  13  18
ATOM     18  O   UNL     1     126.041 118.226 104.272  1.00  0.00    -0.497 OA
ATOM     19  C   UNL     1     125.804 117.440 105.437  1.00  0.00     0.278 C 
ENDBRANCH  13  18
ENDBRANCH   1  12
BRANCH   8  20
ATOM     20  O   UNL     1     125.497 114.786  96.679  1.00  0.00    -0.490 OA
ATOM     21  C   UNL     1     126.813 115.323  96.609  1.00  0.00     0.278 C 
ENDBRANCH   8  20
BRANCH  11  22
ATOM     22  O   UNL     1     120.804 117.435  94.966  1.00  0.00    -0.492 OA
ATOM     23  C   UNL     1     119.519 116.896  94.672  1.00  0.00     0.278 C 
ENDBRANCH  11  22
BRANCH   9  24
ATOM     24  O   UNL     1     124.450 114.240  94.154  1.00  0.00    -0.490 OA
ATOM     25  C   UNL     1     125.459 114.559  93.200  1.00  0.00     0.279 C 
ENDBRANCH   9  24
BRANCH  10  26
ATOM     26  O   UNL     1     122.141 115.628  93.225  1.00  0.00    -0.490 OA
ATOM     27  C   UNL     1     122.375 116.412  92.059  1.00  0.00     0.278 C 
ENDBRANCH  10  26
TORSDOF 6
ENDMDL
