MODEL 1
REMARK VINA RESULT:    -4.145      0.000      0.000
REMARK INTER + INTRA:          -4.890
REMARK INTER:                  -4.872
REMARK INTRA:                  -0.018
REMARK UNBOUND:                -0.018
REMARK SMILES [NH3+][C@@H](CO)C(=O)[O-]
REMARK SMILES IDX 3 1 2 2 1 3 5 7 6 8 7 9 4 10
REMARK H PARENT 1 4 1 5 1 6 4 11
REMARK Flexibility Score: inf
ROOT
ATOM      1  C   UNL     1      13.818  35.957  12.910  1.00  0.00     0.227 C 
ENDROOT
BRANCH   1   2
ATOM      2  C   UNL     1      13.620  34.531  13.456  1.00  0.00     0.253 C 
BRANCH   2   3
ATOM      3  N   UNL     1      12.716  34.543  14.613  1.00  0.00    -0.348 N 
ATOM      4  H   UNL     1      12.396  33.569  14.822  1.00  0.00     0.345 HD
ATOM      5  H   UNL     1      11.873  35.124  14.396  1.00  0.00     0.345 HD
ATOM      6  H   UNL     1      13.196  34.937  15.454  1.00  0.00     0.345 HD
ENDBRANCH   2   3
BRANCH   2   7
ATOM      7  C   UNL     1      14.943  33.922  13.836  1.00  0.00     0.102 C 
ATOM      8  O   UNL     1      15.793  34.600  14.471  1.00  0.00    -0.544 OA
ATOM      9  O   UNL     1      15.234  32.605  13.497  1.00  0.00    -0.544 OA
ENDBRANCH   2   7
ENDBRANCH   1   2
BRANCH   1  10
ATOM     10  O   UNL     1      12.794  36.806  13.355  1.00  0.00    -0.390 OA
ATOM     11  H   UNL     1      12.575  36.527  14.282  1.00  0.00     0.210 HD
ENDBRANCH   1  10
TORSDOF 4
ENDMDL
MODEL 2
REMARK VINA RESULT:    -3.917      1.742      2.001
REMARK INTER + INTRA:          -4.622
REMARK INTER:                  -4.585
REMARK INTRA:                  -0.037
REMARK UNBOUND:                -0.018
REMARK SMILES [NH3+][C@@H](CO)C(=O)[O-]
REMARK SMILES IDX 3 1 2 2 1 3 5 7 6 8 7 9 4 10
REMARK H PARENT 1 4 1 5 1 6 4 11
REMARK Flexibility Score: inf
ROOT
ATOM      1  C   UNL     1      13.721  35.492  13.193  1.00  0.00     0.227 C 
ENDROOT
BRANCH   1   2
ATOM      2  C   UNL     1      14.408  34.329  13.932  1.00  0.00     0.253 C 
BRANCH   2   3
ATOM      3  N   UNL     1      15.831  34.621  14.145  1.00  0.00    -0.348 N 
ATOM      4  H   UNL     1      16.356  34.493  13.249  1.00  0.00     0.345 HD
ATOM      5  H   UNL     1      16.225  33.959  14.853  1.00  0.00     0.345 HD
ATOM      6  H   UNL     1      15.961  35.602  14.483  1.00  0.00     0.345 HD
ENDBRANCH   2   3
BRANCH   2   7
ATOM      7  C   UNL     1      14.249  33.046  13.161  1.00  0.00     0.102 C 
ATOM      8  O   UNL     1      13.166  32.793  12.571  1.00  0.00    -0.544 OA
ATOM      9  O   UNL     1      15.298  32.136  13.087  1.00  0.00    -0.544 OA
ENDBRANCH   2   7
ENDBRANCH   1   2
BRANCH   1  10
ATOM     10  O   UNL     1      12.643  35.988  13.941  1.00  0.00    -0.390 OA
ATOM     11  H   UNL     1      11.820  35.775  13.429  1.00  0.00     0.210 HD
ENDBRANCH   1  10
TORSDOF 4
ENDMDL
MODEL 3
REMARK VINA RESULT:    -3.800     14.015     14.869
REMARK INTER + INTRA:          -4.484
REMARK INTER:                  -4.246
REMARK INTRA:                  -0.238
REMARK UNBOUND:                -0.018
REMARK SMILES [NH3+][C@@H](CO)C(=O)[O-]
REMARK SMILES IDX 3 1 2 2 1 3 5 7 6 8 7 9 4 10
REMARK H PARENT 1 4 1 5 1 6 4 11
REMARK Flexibility Score: inf
ROOT
ATOM      1  C   UNL     1       3.594  44.128  12.478  1.00  0.00     0.227 C 
ENDROOT
BRANCH   1   2
ATOM      2  C   UNL     1       3.560  44.099  10.939  1.00  0.00     0.253 C 
BRANCH   2   3
ATOM      3  N   UNL     1       4.612  43.219  10.416  1.00  0.00    -0.348 N 
ATOM      4  H   UNL     1       5.402  43.168  11.099  1.00  0.00     0.345 HD
ATOM      5  H   UNL     1       4.980  43.605   9.517  1.00  0.00     0.345 HD
ATOM      6  H   UNL     1       4.238  42.256  10.248  1.00  0.00     0.345 HD
ENDBRANCH   2   3
BRANCH   2   7
ATOM      7  C   UNL     1       3.718  45.489  10.382  1.00  0.00     0.102 C 
ATOM      8  O   UNL     1       3.228  46.475  10.992  1.00  0.00    -0.544 OA
ATOM      9  O   UNL     1       4.414  45.694   9.196  1.00  0.00    -0.544 OA
ENDBRANCH   2   7
ENDBRANCH   1   2
BRANCH   1  10
ATOM     10  O   UNL     1       4.738  44.797  12.938  1.00  0.00    -0.390 OA
ATOM     11  H   UNL     1       5.518  44.248  12.664  1.00  0.00     0.210 HD
ENDBRANCH   1  10
TORSDOF 4
ENDMDL
MODEL 4
REMARK VINA RESULT:    -3.750     14.490     14.861
REMARK INTER + INTRA:          -4.425
REMARK INTER:                  -4.033
REMARK INTRA:                  -0.392
REMARK UNBOUND:                -0.018
REMARK SMILES [NH3+][C@@H](CO)C(=O)[O-]
REMARK SMILES IDX 3 1 2 2 1 3 5 7 6 8 7 9 4 10
REMARK H PARENT 1 4 1 5 1 6 4 11
REMARK Flexibility Score: inf
ROOT
ATOM      1  C   UNL     1       4.070  44.845   9.672  1.00  0.00     0.227 C 
ENDROOT
BRANCH   1   2
ATOM      2  C   UNL     1       3.419  45.499  10.904  1.00  0.00     0.253 C 
BRANCH   2   3
ATOM      3  N   UNL     1       4.151  46.711  11.292  1.00  0.00    -0.348 N 
ATOM      4  H   UNL     1       3.517  47.354  11.819  1.00  0.00     0.345 HD
ATOM      5  H   UNL     1       4.486  47.210  10.436  1.00  0.00     0.345 HD
ATOM      6  H   UNL     1       4.974  46.470  11.892  1.00  0.00     0.345 HD
ENDBRANCH   2   3
BRANCH   2   7
ATOM      7  C   UNL     1       3.370  44.529  12.054  1.00  0.00     0.102 C 
ATOM      8  O   UNL     1       4.282  44.530  12.922  1.00  0.00    -0.544 OA
ATOM      9  O   UNL     1       2.313  43.632  12.172  1.00  0.00    -0.544 OA
ENDBRANCH   2   7
ENDBRANCH   1   2
BRANCH   1  10
ATOM     10  O   UNL     1       4.574  43.575   9.992  1.00  0.00    -0.390 OA
ATOM     11  H   UNL     1       5.540  43.694  10.189  1.00  0.00     0.210 HD
ENDBRANCH   1  10
TORSDOF 4
ENDMDL
MODEL 5
REMARK VINA RESULT:    -3.653     13.946     14.743
REMARK INTER + INTRA:          -4.312
REMARK INTER:                  -3.920
REMARK INTRA:                  -0.392
REMARK UNBOUND:                -0.018
REMARK SMILES [NH3+][C@@H](CO)C(=O)[O-]
REMARK SMILES IDX 3 1 2 2 1 3 5 7 6 8 7 9 4 10
REMARK H PARENT 1 4 1 5 1 6 4 11
REMARK Flexibility Score: inf
ROOT
ATOM      1  C   UNL     1       4.287  46.105  10.416  1.00  0.00     0.227 C 
ENDROOT
BRANCH   1   2
ATOM      2  C   UNL     1       3.719  45.090  11.424  1.00  0.00     0.253 C 
BRANCH   2   3
ATOM      3  N   UNL     1       4.683  44.839  12.502  1.00  0.00    -0.348 N 
ATOM      4  H   UNL     1       4.350  44.046  13.098  1.00  0.00     0.345 HD
ATOM      5  H   UNL     1       4.767  45.689  13.105  1.00  0.00     0.345 HD
ATOM      6  H   UNL     1       5.624  44.603  12.109  1.00  0.00     0.345 HD
ENDBRANCH   2   3
BRANCH   2   7
ATOM      7  C   UNL     1       3.364  43.801  10.732  1.00  0.00     0.102 C 
ATOM      8  O   UNL     1       4.228  42.896  10.598  1.00  0.00    -0.544 OA
ATOM      9  O   UNL     1       2.077  43.597  10.244  1.00  0.00    -0.544 OA
ENDBRANCH   2   7
ENDBRANCH   1   2
BRANCH   1  10
ATOM     10  O   UNL     1       4.199  45.609   9.107  1.00  0.00    -0.390 OA
ATOM     11  H   UNL     1       3.232  45.514   8.903  1.00  0.00     0.210 HD
ENDBRANCH   1  10
TORSDOF 4
ENDMDL
MODEL 6
REMARK VINA RESULT:    -3.644      1.927      3.180
REMARK INTER + INTRA:          -4.301
REMARK INTER:                  -4.071
REMARK INTRA:                  -0.230
REMARK UNBOUND:                -0.018
REMARK SMILES [NH3+][C@@H](CO)C(=O)[O-]
REMARK SMILES IDX 3 1 2 2 1 3 5 7 6 8 7 9 4 10
REMARK H PARENT 1 4 1 5 1 6 4 11
REMARK Flexibility Score: inf
ROOT
ATOM      1  C   UNL     1      14.931  32.548  13.426  1.00  0.00     0.227 C 
ENDROOT
BRANCH   1   2
ATOM      2  C   UNL     1      15.270  34.042  13.573  1.00  0.00     0.253 C 
BRANCH   2   3
ATOM      3  N   UNL     1      16.066  34.274  14.784  1.00  0.00    -0.348 N 
ATOM      4  H   UNL     1      17.083  34.164  14.565  1.00  0.00     0.345 HD
ATOM      5  H   UNL     1      15.810  33.571  15.515  1.00  0.00     0.345 HD
ATOM      6  H   UNL     1      15.896  35.236  15.160  1.00  0.00     0.345 HD
ENDBRANCH   2   3
BRANCH   2   7
ATOM      7  C   UNL     1      14.011  34.868  13.611  1.00  0.00     0.102 C 
ATOM      8  O   UNL     1      13.090  34.579  14.418  1.00  0.00    -0.544 OA
ATOM      9  O   UNL     1      13.862  35.960  12.763  1.00  0.00    -0.544 OA
ENDBRANCH   2   7
ENDBRANCH   1   2
BRANCH   1  10
ATOM     10  O   UNL     1      13.657  32.380  12.864  1.00  0.00    -0.390 OA
ATOM     11  H   UNL     1      13.014  32.816  13.482  1.00  0.00     0.210 HD
ENDBRANCH   1  10
TORSDOF 4
ENDMDL
MODEL 7
REMARK VINA RESULT:    -3.641     14.601     15.261
REMARK INTER + INTRA:          -4.297
REMARK INTER:                  -3.903
REMARK INTRA:                  -0.394
REMARK UNBOUND:                -0.018
REMARK SMILES [NH3+][C@@H](CO)C(=O)[O-]
REMARK SMILES IDX 3 1 2 2 1 3 5 7 6 8 7 9 4 10
REMARK H PARENT 1 4 1 5 1 6 4 11
REMARK Flexibility Score: inf
ROOT
ATOM      1  C   UNL     1       4.516  46.342  10.118  1.00  0.00     0.227 C 
ENDROOT
BRANCH   1   2
ATOM      2  C   UNL     1       4.080  44.880  10.325  1.00  0.00     0.253 C 
BRANCH   2   3
ATOM      3  N   UNL     1       3.211  44.441   9.227  1.00  0.00    -0.348 N 
ATOM      4  H   UNL     1       3.085  43.403   9.269  1.00  0.00     0.345 HD
ATOM      5  H   UNL     1       3.653  44.680   8.310  1.00  0.00     0.345 HD
ATOM      6  H   UNL     1       2.275  44.904   9.287  1.00  0.00     0.345 HD
ENDBRANCH   2   3
BRANCH   2   7
ATOM      7  C   UNL     1       3.373  44.722  11.645  1.00  0.00     0.102 C 
ATOM      8  O   UNL     1       2.121  44.832  11.709  1.00  0.00    -0.544 OA
ATOM      9  O   UNL     1       4.096  44.443  12.800  1.00  0.00    -0.544 OA
ENDBRANCH   2   7
ENDBRANCH   1   2
BRANCH   1  10
ATOM     10  O   UNL     1       4.244  47.109  11.262  1.00  0.00    -0.390 OA
ATOM     11  H   UNL     1       5.031  47.016  11.860  1.00  0.00     0.210 HD
ENDBRANCH   1  10
TORSDOF 4
ENDMDL
MODEL 8
REMARK VINA RESULT:    -3.578     13.975     14.781
REMARK INTER + INTRA:          -4.223
REMARK INTER:                  -3.856
REMARK INTRA:                  -0.367
REMARK UNBOUND:                -0.018
REMARK SMILES [NH3+][C@@H](CO)C(=O)[O-]
REMARK SMILES IDX 3 1 2 2 1 3 5 7 6 8 7 9 4 10
REMARK H PARENT 1 4 1 5 1 6 4 11
REMARK Flexibility Score: inf
ROOT
ATOM      1  C   UNL     1       3.812  43.343   9.581  1.00  0.00     0.227 C 
ENDROOT
BRANCH   1   2
ATOM      2  C   UNL     1       3.242  44.673  10.107  1.00  0.00     0.253 C 
BRANCH   2   3
ATOM      3  N   UNL     1       3.240  45.688   9.046  1.00  0.00    -0.348 N 
ATOM      4  H   UNL     1       4.077  46.307   9.148  1.00  0.00     0.345 HD
ATOM      5  H   UNL     1       2.382  46.281   9.127  1.00  0.00     0.345 HD
ATOM      6  H   UNL     1       3.258  45.237   8.103  1.00  0.00     0.345 HD
ENDBRANCH   2   3
BRANCH   2   7
ATOM      7  C   UNL     1       4.035  45.157  11.291  1.00  0.00     0.102 C 
ATOM      8  O   UNL     1       4.870  46.089  11.155  1.00  0.00    -0.544 OA
ATOM      9  O   UNL     1       3.845  44.585  12.545  1.00  0.00    -0.544 OA
ENDBRANCH   2   7
ENDBRANCH   1   2
BRANCH   1  10
ATOM     10  O   UNL     1       4.935  42.954  10.328  1.00  0.00    -0.390 OA
ATOM     11  H   UNL     1       4.967  43.547  11.123  1.00  0.00     0.210 HD
ENDBRANCH   1  10
TORSDOF 4
ENDMDL
MODEL 9
REMARK VINA RESULT:    -3.556     14.238     14.863
REMARK INTER + INTRA:          -4.197
REMARK INTER:                  -3.826
REMARK INTRA:                  -0.371
REMARK UNBOUND:                -0.018
REMARK SMILES [NH3+][C@@H](CO)C(=O)[O-]
REMARK SMILES IDX 3 1 2 2 1 3 5 7 6 8 7 9 4 10
REMARK H PARENT 1 4 1 5 1 6 4 11
REMARK Flexibility Score: inf
ROOT
ATOM      1  C   UNL     1       4.544  46.011  10.993  1.00  0.00     0.227 C 
ENDROOT
BRANCH   1   2
ATOM      2  C   UNL     1       4.060  45.180   9.791  1.00  0.00     0.253 C 
BRANCH   2   3
ATOM      3  N   UNL     1       2.939  45.849   9.119  1.00  0.00    -0.348 N 
ATOM      4  H   UNL     1       2.899  46.852   9.412  1.00  0.00     0.345 HD
ATOM      5  H   UNL     1       2.039  45.391   9.393  1.00  0.00     0.345 HD
ATOM      6  H   UNL     1       3.047  45.797   8.080  1.00  0.00     0.345 HD
ENDBRANCH   2   3
BRANCH   2   7
ATOM      7  C   UNL     1       3.653  43.799  10.233  1.00  0.00     0.102 C 
ATOM      8  O   UNL     1       4.499  42.867  10.256  1.00  0.00    -0.544 OA
ATOM      9  O   UNL     1       2.344  43.546  10.630  1.00  0.00    -0.544 OA
ENDBRANCH   2   7
ENDBRANCH   1   2
BRANCH   1  10
ATOM     10  O   UNL     1       4.669  45.207  12.136  1.00  0.00    -0.390 OA
ATOM     11  H   UNL     1       4.149  44.380  11.960  1.00  0.00     0.210 HD
ENDBRANCH   1  10
TORSDOF 4
ENDMDL
