MODEL 1
REMARK VINA RESULT:    -3.866      0.000      0.000
REMARK INTER + INTRA:          -6.203
REMARK INTER:                  -5.900
REMARK INTRA:                  -0.303
REMARK UNBOUND:                -0.303
REMARK SMILES CC1=CCC[C@H](C)C(=O)C[C@H](C(C)C)C(=O)C1
REMARK SMILES IDX 8 1 9 2 6 3 7 4 5 5 4 6 3 7 2 8 1 9 10 11 11 12 15 13 16 14
REMARK SMILES IDX 17 15 12 17 13 18 14 19
REMARK H PARENT
REMARK Flexibility Score: 70.00
ROOT
ATOM      1  C   UNL     1      15.687 -20.461 -21.248  1.00  0.00     0.136 C 
ATOM      2  O   UNL     1      15.421 -21.590 -21.638  1.00  0.00    -0.299 OA
ENDROOT
BRANCH   1   3
ATOM      3  C   UNL     1      16.779 -19.663 -21.965  1.00  0.00     0.053 C 
ATOM      4  C   UNL     1      18.083 -20.467 -22.105  1.00  0.00     0.016 C 
BRANCH   3   5
ATOM      5  C   UNL     1      16.322 -19.158 -23.363  1.00  0.00     0.015 C 
BRANCH   5   6
ATOM      6  C   UNL     1      14.806 -19.232 -23.651  1.00  0.00     0.028 C 
BRANCH   6   7
ATOM      7  C   UNL     1      13.995 -17.954 -23.585  1.00  0.00    -0.028 C 
ATOM      8  C   UNL     1      12.984 -17.656 -22.730  1.00  0.00    -0.070 CG0
ATOM      9  C   UNL     1      12.212 -16.384 -22.983  1.00  0.00     0.039 C 
ATOM     10  G   UNL     1      12.647 -18.454 -21.481  1.00  0.00     0.000 G0
ENDBRANCH   6   7
ENDBRANCH   5   6
ENDBRANCH   3   5
ENDBRANCH   1   3
BRANCH   1  11
ATOM     11  C   UNL     1      14.969 -19.962 -19.998  1.00  0.00     0.087 C 
BRANCH  11  12
ATOM     12  C   UNL     1      14.806 -18.422 -19.911  1.00  0.00     0.066 C 
BRANCH  12  13
ATOM     13  C   UNL     1      13.393 -17.971 -20.246  1.00  0.00     0.140 C 
ATOM     14  O   UNL     1      12.814 -17.254 -19.441  1.00  0.00    -0.299 OA
BRANCH  13  15
ATOM     15  C   UNL     1      12.646 -18.461 -21.476  1.00  0.00     0.106 CG0
ATOM     16  G   UNL     1      13.002 -17.637 -22.703  1.00  0.00     0.000 G0
ENDBRANCH  13  15
ENDBRANCH  12  13
BRANCH  12  17
ATOM     17  C   UNL     1      15.243 -17.852 -18.523  1.00  0.00    -0.006 C 
ATOM     18  C   UNL     1      16.745 -17.505 -18.508  1.00  0.00     0.008 C 
ATOM     19  C   UNL     1      14.949 -18.825 -17.367  1.00  0.00     0.008 C 
ENDBRANCH  12  17
ENDBRANCH  11  12
ENDBRANCH   1  11
TORSDOF 1
ENDMDL
MODEL 2
REMARK VINA RESULT:    -3.848      1.700      3.997
REMARK INTER + INTRA:          -6.176
REMARK INTER:                  -6.486
REMARK INTRA:                   0.310
REMARK UNBOUND:                -0.303
REMARK SMILES CC1=CCC[C@H](C)C(=O)C[C@H](C(C)C)C(=O)C1
REMARK SMILES IDX 8 1 9 2 6 3 7 4 5 5 4 6 3 7 2 8 1 9 10 11 11 12 15 13 16 14
REMARK SMILES IDX 17 15 12 17 13 18 14 19
REMARK H PARENT
REMARK Flexibility Score: 70.00
ROOT
ATOM      1  C   UNL     1      11.525 -17.810 -19.947  1.00  0.00     0.136 C 
ATOM      2  O   UNL     1      10.850 -17.823 -18.927  1.00  0.00    -0.299 OA
ENDROOT
BRANCH   1   3
ATOM      3  C   UNL     1      10.899 -18.286 -21.262  1.00  0.00     0.053 C 
ATOM      4  C   UNL     1       9.387 -18.534 -21.123  1.00  0.00     0.016 C 
BRANCH   3   5
ATOM      5  C   UNL     1      11.163 -17.299 -22.434  1.00  0.00     0.015 C 
BRANCH   5   6
ATOM      6  C   UNL     1      12.485 -17.499 -23.206  1.00  0.00     0.028 C 
BRANCH   6   7
ATOM      7  C   UNL     1      13.062 -18.897 -23.302  1.00  0.00    -0.028 C 
ATOM      8  C   UNL     1      14.204 -19.363 -22.737  1.00  0.00    -0.070 CG0
ATOM      9  C   UNL     1      14.658 -20.748 -23.129  1.00  0.00     0.039 C 
ATOM     10  G   UNL     1      14.996 -18.634 -21.664  1.00  0.00     0.000 G0
ENDBRANCH   6   7
ENDBRANCH   5   6
ENDBRANCH   3   5
ENDBRANCH   1   3
BRANCH   1  11
ATOM     11  C   UNL     1      12.991 -17.408 -19.816  1.00  0.00     0.087 C 
BRANCH  11  12
ATOM     12  C   UNL     1      13.914 -18.497 -19.212  1.00  0.00     0.066 C 
BRANCH  12  13
ATOM     13  C   UNL     1      14.719 -19.227 -20.275  1.00  0.00     0.140 C 
ATOM     14  O   UNL     1      15.234 -20.295 -19.973  1.00  0.00    -0.299 OA
BRANCH  13  15
ATOM     15  C   UNL     1      14.995 -18.632 -21.647  1.00  0.00     0.106 CG0
ATOM     16  G   UNL     1      14.229 -19.371 -22.732  1.00  0.00     0.000 G0
ENDBRANCH  13  15
ENDBRANCH  12  13
BRANCH  12  17
ATOM     17  C   UNL     1      14.863 -17.931 -18.107  1.00  0.00    -0.006 C 
ATOM     18  C   UNL     1      16.230 -17.527 -18.695  1.00  0.00     0.008 C 
ATOM     19  C   UNL     1      15.095 -18.932 -16.960  1.00  0.00     0.008 C 
ENDBRANCH  12  17
ENDBRANCH  11  12
ENDBRANCH   1  11
TORSDOF 1
ENDMDL
MODEL 3
REMARK VINA RESULT:    -3.844      2.766      4.834
REMARK INTER + INTRA:          -6.170
REMARK INTER:                  -6.006
REMARK INTRA:                  -0.163
REMARK UNBOUND:                -0.303
REMARK SMILES CC1=CCC[C@H](C)C(=O)C[C@H](C(C)C)C(=O)C1
REMARK SMILES IDX 8 1 9 2 6 3 7 4 5 5 4 6 3 7 2 8 1 9 10 11 11 12 15 13 16 14
REMARK SMILES IDX 17 15 12 17 13 18 14 19
REMARK H PARENT
REMARK Flexibility Score: 70.00
ROOT
ATOM      1  C   UNL     1      10.753 -18.172 -20.763  1.00  0.00     0.136 C 
ATOM      2  O   UNL     1      10.212 -18.346 -19.679  1.00  0.00    -0.299 OA
ENDROOT
BRANCH   1   3
ATOM      3  C   UNL     1       9.902 -18.212 -22.036  1.00  0.00     0.053 C 
ATOM      4  C   UNL     1       8.453 -18.642 -21.747  1.00  0.00     0.016 C 
BRANCH   3   5
ATOM      5  C   UNL     1       9.905 -16.854 -22.793  1.00  0.00     0.015 C 
BRANCH   5   6
ATOM      6  C   UNL     1      10.263 -16.913 -24.294  1.00  0.00     0.028 C 
BRANCH   6   7
ATOM      7  C   UNL     1      11.360 -16.004 -24.812  1.00  0.00    -0.028 C 
ATOM      8  C   UNL     1      12.701 -16.204 -24.749  1.00  0.00    -0.070 CG0
ATOM      9  C   UNL     1      13.594 -15.064 -25.175  1.00  0.00     0.039 C 
ATOM     10  G   UNL     1      13.360 -17.523 -24.383  1.00  0.00     0.000 G0
ENDBRANCH   6   7
ENDBRANCH   5   6
ENDBRANCH   3   5
ENDBRANCH   1   3
BRANCH   1  11
ATOM     11  C   UNL     1      12.271 -18.024 -20.775  1.00  0.00     0.087 C 
BRANCH  11  12
ATOM     12  C   UNL     1      12.979 -18.666 -21.997  1.00  0.00     0.066 C 
BRANCH  12  13
ATOM     13  C   UNL     1      13.649 -17.631 -22.886  1.00  0.00     0.140 C 
ATOM     14  O   UNL     1      14.364 -16.793 -22.354  1.00  0.00    -0.299 OA
BRANCH  13  15
ATOM     15  C   UNL     1      13.378 -17.535 -24.380  1.00  0.00     0.106 CG0
ATOM     16  G   UNL     1      12.695 -16.225 -24.734  1.00  0.00     0.000 G0
ENDBRANCH  13  15
ENDBRANCH  12  13
BRANCH  12  17
ATOM     17  C   UNL     1      14.004 -19.769 -21.581  1.00  0.00    -0.006 C 
ATOM     18  C   UNL     1      14.403 -20.645 -22.786  1.00  0.00     0.008 C 
ATOM     19  C   UNL     1      13.467 -20.682 -20.464  1.00  0.00     0.008 C 
ENDBRANCH  12  17
ENDBRANCH  11  12
ENDBRANCH   1  11
TORSDOF 1
ENDMDL
MODEL 4
REMARK VINA RESULT:    -3.812      1.693      4.071
REMARK INTER + INTRA:          -6.121
REMARK INTER:                  -5.729
REMARK INTRA:                  -0.392
REMARK UNBOUND:                -0.303
REMARK SMILES CC1=CCC[C@H](C)C(=O)C[C@H](C(C)C)C(=O)C1
REMARK SMILES IDX 8 1 9 2 6 3 7 4 5 5 4 6 3 7 2 8 1 9 10 11 11 12 15 13 16 14
REMARK SMILES IDX 17 15 12 17 13 18 14 19
REMARK H PARENT
REMARK Flexibility Score: 70.00
ROOT
ATOM      1  C   UNL     1      15.397 -19.726 -20.449  1.00  0.00     0.136 C 
ATOM      2  O   UNL     1      14.986 -20.861 -20.248  1.00  0.00    -0.299 OA
ENDROOT
BRANCH   1   3
ATOM      3  C   UNL     1      15.791 -18.854 -19.253  1.00  0.00     0.053 C 
ATOM      4  C   UNL     1      16.568 -17.598 -19.686  1.00  0.00     0.016 C 
BRANCH   3   5
ATOM      5  C   UNL     1      14.563 -18.440 -18.392  1.00  0.00     0.015 C 
BRANCH   5   6
ATOM      6  C   UNL     1      13.588 -17.432 -19.040  1.00  0.00     0.028 C 
BRANCH   6   7
ATOM      7  C   UNL     1      12.313 -17.961 -19.665  1.00  0.00    -0.028 C 
ATOM      8  C   UNL     1      11.956 -17.929 -20.974  1.00  0.00    -0.070 CG0
ATOM      9  C   UNL     1      10.552 -18.360 -21.323  1.00  0.00     0.039 C 
ATOM     10  G   UNL     1      12.900 -17.593 -22.118  1.00  0.00     0.000 G0
ENDBRANCH   6   7
ENDBRANCH   5   6
ENDBRANCH   3   5
ENDBRANCH   1   3
BRANCH   1  11
ATOM     11  C   UNL     1      15.397 -19.221 -21.888  1.00  0.00     0.087 C 
BRANCH  11  12
ATOM     12  C   UNL     1      14.265 -19.794 -22.779  1.00  0.00     0.066 C 
BRANCH  12  13
ATOM     13  C   UNL     1      13.166 -18.777 -23.044  1.00  0.00     0.140 C 
ATOM     14  O   UNL     1      12.520 -18.886 -24.077  1.00  0.00    -0.299 OA
BRANCH  13  15
ATOM     15  C   UNL     1      12.919 -17.583 -22.136  1.00  0.00     0.106 CG0
ATOM     16  G   UNL     1      11.986 -17.943 -20.991  1.00  0.00     0.000 G0
ENDBRANCH  13  15
ENDBRANCH  12  13
BRANCH  12  17
ATOM     17  C   UNL     1      14.802 -20.375 -24.127  1.00  0.00    -0.006 C 
ATOM     18  C   UNL     1      14.849 -21.916 -24.094  1.00  0.00     0.008 C 
ATOM     19  C   UNL     1      16.204 -19.846 -24.481  1.00  0.00     0.008 C 
ENDBRANCH  12  17
ENDBRANCH  11  12
ENDBRANCH   1  11
TORSDOF 1
ENDMDL
MODEL 5
REMARK VINA RESULT:    -3.636      2.387      4.575
REMARK INTER + INTRA:          -5.853
REMARK INTER:                  -5.296
REMARK INTRA:                  -0.556
REMARK UNBOUND:                -0.303
REMARK SMILES CC1=CCC[C@H](C)C(=O)C[C@H](C(C)C)C(=O)C1
REMARK SMILES IDX 8 1 9 2 6 3 7 4 5 5 4 6 3 7 2 8 1 9 10 11 11 12 15 13 16 14
REMARK SMILES IDX 17 15 12 17 13 18 14 19
REMARK H PARENT
REMARK Flexibility Score: 70.00
ROOT
ATOM      1  C   UNL     1      12.254 -16.848 -23.205  1.00  0.00     0.136 C 
ATOM      2  O   UNL     1      12.130 -15.663 -23.480  1.00  0.00    -0.299 OA
ENDROOT
BRANCH   1   3
ATOM      3  C   UNL     1      11.849 -17.900 -24.241  1.00  0.00     0.053 C 
ATOM      4  C   UNL     1      10.482 -17.588 -24.875  1.00  0.00     0.016 C 
BRANCH   3   5
ATOM      5  C   UNL     1      12.918 -18.074 -25.357  1.00  0.00     0.015 C 
BRANCH   5   6
ATOM      6  C   UNL     1      14.345 -18.427 -24.883  1.00  0.00     0.028 C 
BRANCH   6   7
ATOM      7  C   UNL     1      14.609 -19.828 -24.367  1.00  0.00    -0.028 C 
ATOM      8  C   UNL     1      14.947 -20.196 -23.105  1.00  0.00    -0.070 CG0
ATOM      9  C   UNL     1      15.334 -21.638 -22.883  1.00  0.00     0.039 C 
ATOM     10  G   UNL     1      14.863 -19.289 -21.889  1.00  0.00     0.000 G0
ENDBRANCH   6   7
ENDBRANCH   5   6
ENDBRANCH   3   5
ENDBRANCH   1   3
BRANCH   1  11
ATOM     11  C   UNL     1      12.719 -17.198 -21.794  1.00  0.00     0.087 C 
BRANCH  11  12
ATOM     12  C   UNL     1      12.344 -18.626 -21.320  1.00  0.00     0.066 C 
BRANCH  12  13
ATOM     13  C   UNL     1      13.567 -19.504 -21.109  1.00  0.00     0.140 C 
ATOM     14  O   UNL     1      13.519 -20.353 -20.229  1.00  0.00    -0.299 OA
BRANCH  13  15
ATOM     15  C   UNL     1      14.867 -19.296 -21.870  1.00  0.00     0.106 CG0
ATOM     16  G   UNL     1      14.940 -20.193 -23.094  1.00  0.00     0.000 G0
ENDBRANCH  13  15
ENDBRANCH  12  13
BRANCH  12  17
ATOM     17  C   UNL     1      11.456 -18.615 -20.034  1.00  0.00    -0.006 C 
ATOM     18  C   UNL     1       9.962 -18.471 -20.386  1.00  0.00     0.008 C 
ATOM     19  C   UNL     1      11.845 -17.488 -19.059  1.00  0.00     0.008 C 
ENDBRANCH  12  17
ENDBRANCH  11  12
ENDBRANCH   1  11
TORSDOF 1
ENDMDL
MODEL 6
REMARK VINA RESULT:    -3.570      1.692      4.045
REMARK INTER + INTRA:          -5.752
REMARK INTER:                  -5.627
REMARK INTRA:                  -0.125
REMARK UNBOUND:                -0.303
REMARK SMILES CC1=CCC[C@H](C)C(=O)C[C@H](C(C)C)C(=O)C1
REMARK SMILES IDX 8 1 9 2 6 3 7 4 5 5 4 6 3 7 2 8 1 9 10 11 11 12 15 13 16 14
REMARK SMILES IDX 17 15 12 17 13 18 14 19
REMARK H PARENT
REMARK Flexibility Score: 70.00
ROOT
ATOM      1  C   UNL     1      15.593 -18.888 -20.113  1.00  0.00     0.136 C 
ATOM      2  O   UNL     1      16.189 -17.830 -20.266  1.00  0.00    -0.299 OA
ENDROOT
BRANCH   1   3
ATOM      3  C   UNL     1      14.496 -18.977 -19.049  1.00  0.00     0.053 C 
ATOM      4  C   UNL     1      15.059 -18.815 -17.626  1.00  0.00     0.016 C 
BRANCH   3   5
ATOM      5  C   UNL     1      13.358 -17.945 -19.283  1.00  0.00     0.015 C 
BRANCH   5   6
ATOM      6  C   UNL     1      12.535 -18.121 -20.578  1.00  0.00     0.028 C 
BRANCH   6   7
ATOM      7  C   UNL     1      12.854 -17.231 -21.763  1.00  0.00    -0.028 C 
ATOM      8  C   UNL     1      13.369 -17.601 -22.963  1.00  0.00    -0.070 CG0
ATOM      9  C   UNL     1      13.766 -16.502 -23.918  1.00  0.00     0.039 C 
ATOM     10  G   UNL     1      13.476 -19.037 -23.451  1.00  0.00     0.000 G0
ENDBRANCH   6   7
ENDBRANCH   5   6
ENDBRANCH   3   5
ENDBRANCH   1   3
BRANCH   1  11
ATOM     11  C   UNL     1      16.059 -20.083 -20.938  1.00  0.00     0.087 C 
BRANCH  11  12
ATOM     12  C   UNL     1      15.023 -20.611 -21.964  1.00  0.00     0.066 C 
BRANCH  12  13
ATOM     13  C   UNL     1      14.824 -19.656 -23.129  1.00  0.00     0.140 C 
ATOM     14  O   UNL     1      15.813 -19.307 -23.760  1.00  0.00    -0.299 OA
BRANCH  13  15
ATOM     15  C   UNL     1      13.474 -19.043 -23.466  1.00  0.00     0.106 CG0
ATOM     16  G   UNL     1      13.383 -17.607 -22.978  1.00  0.00     0.000 G0
ENDBRANCH  13  15
ENDBRANCH  12  13
BRANCH  12  17
ATOM     17  C   UNL     1      15.375 -22.041 -22.488  1.00  0.00    -0.006 C 
ATOM     18  C   UNL     1      16.896 -22.293 -22.446  1.00  0.00     0.008 C 
ATOM     19  C   UNL     1      14.874 -22.282 -23.924  1.00  0.00     0.008 C 
ENDBRANCH  12  17
ENDBRANCH  11  12
ENDBRANCH   1  11
TORSDOF 1
ENDMDL
MODEL 7
REMARK VINA RESULT:    -3.539      1.839      4.587
REMARK INTER + INTRA:          -5.705
REMARK INTER:                  -5.659
REMARK INTRA:                  -0.045
REMARK UNBOUND:                -0.303
REMARK SMILES CC1=CCC[C@H](C)C(=O)C[C@H](C(C)C)C(=O)C1
REMARK SMILES IDX 8 1 9 2 6 3 7 4 5 5 4 6 3 7 2 8 1 9 10 11 11 12 15 13 16 14
REMARK SMILES IDX 17 15 12 17 13 18 14 19
REMARK H PARENT
REMARK Flexibility Score: 70.00
ROOT
ATOM      1  C   UNL     1      13.098 -18.161 -19.933  1.00  0.00     0.136 C 
ATOM      2  O   UNL     1      12.803 -17.128 -19.347  1.00  0.00    -0.299 OA
ENDROOT
BRANCH   1   3
ATOM      3  C   UNL     1      14.301 -18.976 -19.448  1.00  0.00     0.053 C 
ATOM      4  C   UNL     1      14.475 -18.892 -17.921  1.00  0.00     0.016 C 
BRANCH   3   5
ATOM      5  C   UNL     1      14.221 -20.466 -19.885  1.00  0.00     0.015 C 
BRANCH   5   6
ATOM      6  C   UNL     1      14.918 -20.822 -21.217  1.00  0.00     0.028 C 
BRANCH   6   7
ATOM      7  C   UNL     1      15.934 -19.849 -21.783  1.00  0.00    -0.028 C 
ATOM      8  C   UNL     1      15.787 -19.025 -22.851  1.00  0.00    -0.070 CG0
ATOM      9  C   UNL     1      17.010 -18.281 -23.328  1.00  0.00     0.039 C 
ATOM     10  G   UNL     1      14.461 -18.720 -23.530  1.00  0.00     0.000 G0
ENDBRANCH   6   7
ENDBRANCH   5   6
ENDBRANCH   3   5
ENDBRANCH   1   3
BRANCH   1  11
ATOM     11  C   UNL     1      12.294 -18.517 -21.180  1.00  0.00     0.087 C 
BRANCH  11  12
ATOM     12  C   UNL     1      12.405 -17.495 -22.340  1.00  0.00     0.066 C 
BRANCH  12  13
ATOM     13  C   UNL     1      13.790 -17.478 -22.966  1.00  0.00     0.140 C 
ATOM     14  O   UNL     1      14.350 -16.398 -23.094  1.00  0.00    -0.299 OA
BRANCH  13  15
ATOM     15  C   UNL     1      14.450 -18.727 -23.530  1.00  0.00     0.106 CG0
ATOM     16  G   UNL     1      15.782 -19.002 -22.851  1.00  0.00     0.000 G0
ENDBRANCH  13  15
ENDBRANCH  12  13
BRANCH  12  17
ATOM     17  C   UNL     1      11.317 -17.718 -23.440  1.00  0.00    -0.006 C 
ATOM     18  C   UNL     1      11.361 -16.605 -24.505  1.00  0.00     0.008 C 
ATOM     19  C   UNL     1       9.894 -17.786 -22.855  1.00  0.00     0.008 C 
ENDBRANCH  12  17
ENDBRANCH  11  12
ENDBRANCH   1  11
TORSDOF 1
ENDMDL
MODEL 8
REMARK VINA RESULT:    -3.478      2.205      3.301
REMARK INTER + INTRA:          -5.611
REMARK INTER:                  -5.260
REMARK INTRA:                  -0.351
REMARK UNBOUND:                -0.303
REMARK SMILES CC1=CCC[C@H](C)C(=O)C[C@H](C(C)C)C(=O)C1
REMARK SMILES IDX 8 1 9 2 6 3 7 4 5 5 4 6 3 7 2 8 1 9 10 11 11 12 15 13 16 14
REMARK SMILES IDX 17 15 12 17 13 18 14 19
REMARK H PARENT
REMARK Flexibility Score: 70.00
ROOT
ATOM      1  C   UNL     1      15.023 -20.988 -21.496  1.00  0.00     0.136 C 
ATOM      2  O   UNL     1      15.103 -21.343 -20.328  1.00  0.00    -0.299 OA
ENDROOT
BRANCH   1   3
ATOM      3  C   UNL     1      15.749 -21.800 -22.573  1.00  0.00     0.053 C 
ATOM      4  C   UNL     1      16.051 -23.235 -22.107  1.00  0.00     0.016 C 
BRANCH   3   5
ATOM      5  C   UNL     1      14.963 -21.839 -23.915  1.00  0.00     0.015 C 
BRANCH   5   6
ATOM      6  C   UNL     1      15.620 -21.111 -25.109  1.00  0.00     0.028 C 
BRANCH   6   7
ATOM      7  C   UNL     1      16.722 -20.110 -24.826  1.00  0.00    -0.028 C 
ATOM      8  C   UNL     1      16.589 -18.798 -24.504  1.00  0.00    -0.070 CG0
ATOM      9  C   UNL     1      17.846 -17.966 -24.447  1.00  0.00     0.039 C 
ATOM     10  G   UNL     1      15.281 -18.139 -24.096  1.00  0.00     0.000 G0
ENDBRANCH   6   7
ENDBRANCH   5   6
ENDBRANCH   3   5
ENDBRANCH   1   3
BRANCH   1  11
ATOM     11  C   UNL     1      14.277 -19.690 -21.788  1.00  0.00     0.087 C 
BRANCH  11  12
ATOM     12  C   UNL     1      15.060 -18.396 -21.446  1.00  0.00     0.066 C 
BRANCH  12  13
ATOM     13  C   UNL     1      15.375 -17.567 -22.680  1.00  0.00     0.140 C 
ATOM     14  O   UNL     1      15.627 -16.380 -22.526  1.00  0.00    -0.299 OA
BRANCH  13  15
ATOM     15  C   UNL     1      15.283 -18.129 -24.090  1.00  0.00     0.106 CG0
ATOM     16  G   UNL     1      16.585 -18.795 -24.506  1.00  0.00     0.000 G0
ENDBRANCH  13  15
ENDBRANCH  12  13
BRANCH  12  17
ATOM     17  C   UNL     1      14.330 -17.520 -20.376  1.00  0.00    -0.006 C 
ATOM     18  C   UNL     1      14.799 -17.871 -18.950  1.00  0.00     0.008 C 
ATOM     19  C   UNL     1      12.798 -17.665 -20.443  1.00  0.00     0.008 C 
ENDBRANCH  12  17
ENDBRANCH  11  12
ENDBRANCH   1  11
TORSDOF 1
ENDMDL
MODEL 9
REMARK VINA RESULT:    -3.427      2.057      4.798
REMARK INTER + INTRA:          -5.534
REMARK INTER:                  -5.384
REMARK INTRA:                  -0.150
REMARK UNBOUND:                -0.303
REMARK SMILES CC1=CCC[C@H](C)C(=O)C[C@H](C(C)C)C(=O)C1
REMARK SMILES IDX 8 1 9 2 6 3 7 4 5 5 4 6 3 7 2 8 1 9 10 11 11 12 15 13 16 14
REMARK SMILES IDX 17 15 12 17 13 18 14 19
REMARK H PARENT
REMARK Flexibility Score: 70.00
ROOT
ATOM      1  C   UNL     1      12.954 -19.200 -23.136  1.00  0.00     0.136 C 
ATOM      2  O   UNL     1      12.531 -19.383 -24.269  1.00  0.00    -0.299 OA
ENDROOT
BRANCH   1   3
ATOM      3  C   UNL     1      12.745 -17.834 -22.475  1.00  0.00     0.053 C 
ATOM      4  C   UNL     1      12.373 -16.748 -23.500  1.00  0.00     0.016 C 
BRANCH   3   5
ATOM      5  C   UNL     1      11.675 -17.879 -21.347  1.00  0.00     0.015 C 
BRANCH   5   6
ATOM      6  C   UNL     1      12.100 -18.573 -20.035  1.00  0.00     0.028 C 
BRANCH   6   7
ATOM      7  C   UNL     1      13.349 -18.082 -19.329  1.00  0.00    -0.028 C 
ATOM      8  C   UNL     1      14.500 -18.767 -19.109  1.00  0.00    -0.070 CG0
ATOM      9  C   UNL     1      15.536 -18.118 -18.224  1.00  0.00     0.039 C 
ATOM     10  G   UNL     1      14.860 -20.085 -19.774  1.00  0.00     0.000 G0
ENDBRANCH   6   7
ENDBRANCH   5   6
ENDBRANCH   3   5
ENDBRANCH   1   3
BRANCH   1  11
ATOM     11  C   UNL     1      13.754 -20.328 -22.493  1.00  0.00     0.087 C 
BRANCH  11  12
ATOM     12  C   UNL     1      15.283 -20.080 -22.414  1.00  0.00     0.066 C 
BRANCH  12  13
ATOM     13  C   UNL     1      15.762 -19.871 -20.986  1.00  0.00     0.140 C 
ATOM     14  O   UNL     1      16.942 -19.603 -20.810  1.00  0.00    -0.299 OA
BRANCH  13  15
ATOM     15  C   UNL     1      14.862 -20.088 -19.779  1.00  0.00     0.106 CG0
ATOM     16  G   UNL     1      14.504 -18.769 -19.114  1.00  0.00     0.000 G0
ENDBRANCH  13  15
ENDBRANCH  12  13
BRANCH  12  17
ATOM     17  C   UNL     1      16.109 -21.214 -23.102  1.00  0.00    -0.006 C 
ATOM     18  C   UNL     1      16.374 -20.891 -24.586  1.00  0.00     0.008 C 
ATOM     19  C   UNL     1      15.415 -22.586 -23.011  1.00  0.00     0.008 C 
ENDBRANCH  12  17
ENDBRANCH  11  12
ENDBRANCH   1  11
TORSDOF 1
ENDMDL
