MODEL 1
REMARK VINA RESULT:    -6.209      0.000      0.000
REMARK INTER + INTRA:          -9.368
REMARK INTER:                  -9.113
REMARK INTRA:                  -0.255
REMARK UNBOUND:                -0.255
REMARK SMILES O=C([O-])CCCCCCCC(=O)[O-]
REMARK SMILES IDX 7 1 6 2 5 3 4 4 2 5 1 6 3 7 8 8 9 9 10 10 11 11 12 12 13 13
REMARK H PARENT
REMARK Flexibility Score: inf
ROOT
ATOM      1  C   UNL     1     -21.832 -21.539  31.613  1.00  0.00     0.000 C 
ENDROOT
BRANCH   1   2
ATOM      2  C   UNL     1     -22.230 -20.744  30.361  1.00  0.00     0.000 C 
BRANCH   2   3
ATOM      3  C   UNL     1     -21.287 -19.563  30.084  1.00  0.00     0.006 C 
BRANCH   3   4
ATOM      4  C   UNL     1     -20.539 -19.098  31.341  1.00  0.00     0.053 C 
BRANCH   4   5
ATOM      5  C   UNL     1     -19.317 -18.322  30.963  1.00  0.00     0.041 C 
ATOM      6  O   UNL     1     -18.845 -18.411  29.799  1.00  0.00    -0.550 OA
ATOM      7  O   UNL     1     -18.670 -17.539  31.910  1.00  0.00    -0.550 OA
ENDBRANCH   4   5
ENDBRANCH   3   4
ENDBRANCH   2   3
ENDBRANCH   1   2
BRANCH   1   8
ATOM      8  C   UNL     1     -22.837 -22.662  31.893  1.00  0.00     0.000 C 
BRANCH   8   9
ATOM      9  C   UNL     1     -22.712 -23.786  30.856  1.00  0.00     0.006 C 
BRANCH   9  10
ATOM     10  C   UNL     1     -23.557 -24.999  31.254  1.00  0.00     0.053 C 
BRANCH  10  11
ATOM     11  C   UNL     1     -24.173 -25.628  30.046  1.00  0.00     0.041 C 
ATOM     12  O   UNL     1     -25.420 -25.586  29.876  1.00  0.00    -0.550 OA
ATOM     13  O   UNL     1     -23.376 -26.304  29.130  1.00  0.00    -0.550 OA
ENDBRANCH  10  11
ENDBRANCH   9  10
ENDBRANCH   8   9
ENDBRANCH   1   8
TORSDOF 8
ENDMDL
MODEL 2
REMARK VINA RESULT:    -6.173      1.133      7.341
REMARK INTER + INTRA:          -9.315
REMARK INTER:                  -9.046
REMARK INTRA:                  -0.269
REMARK UNBOUND:                -0.255
REMARK SMILES O=C([O-])CCCCCCCC(=O)[O-]
REMARK SMILES IDX 7 1 6 2 5 3 4 4 2 5 1 6 3 7 8 8 9 9 10 10 11 11 12 12 13 13
REMARK H PARENT
REMARK Flexibility Score: inf
ROOT
ATOM      1  C   UNL     1     -22.580 -22.475  31.615  1.00  0.00     0.000 C 
ENDROOT
BRANCH   1   2
ATOM      2  C   UNL     1     -22.373 -23.182  30.267  1.00  0.00     0.000 C 
BRANCH   2   3
ATOM      3  C   UNL     1     -22.863 -24.638  30.281  1.00  0.00     0.006 C 
BRANCH   3   4
ATOM      4  C   UNL     1     -23.761 -24.948  31.486  1.00  0.00     0.053 C 
BRANCH   4   5
ATOM      5  C   UNL     1     -24.933 -25.777  31.064  1.00  0.00     0.041 C 
ATOM      6  O   UNL     1     -25.522 -26.512  31.899  1.00  0.00    -0.550 OA
ATOM      7  O   UNL     1     -25.344 -25.775  29.737  1.00  0.00    -0.550 OA
ENDBRANCH   4   5
ENDBRANCH   3   4
ENDBRANCH   2   3
ENDBRANCH   1   2
BRANCH   1   8
ATOM      8  C   UNL     1     -21.502 -21.410  31.848  1.00  0.00     0.000 C 
BRANCH   8   9
ATOM      9  C   UNL     1     -21.665 -20.237  30.873  1.00  0.00     0.006 C 
BRANCH   9  10
ATOM     10  C   UNL     1     -20.805 -19.044  31.298  1.00  0.00     0.053 C 
BRANCH  10  11
ATOM     11  C   UNL     1     -20.144 -18.424  30.109  1.00  0.00     0.041 C 
ATOM     12  O   UNL     1     -18.934 -18.667  29.859  1.00  0.00    -0.550 OA
ATOM     13  O   UNL     1     -20.850 -17.539  29.303  1.00  0.00    -0.550 OA
ENDBRANCH  10  11
ENDBRANCH   9  10
ENDBRANCH   8   9
ENDBRANCH   1   8
TORSDOF 8
ENDMDL
MODEL 3
REMARK VINA RESULT:    -6.156      0.387      1.265
REMARK INTER + INTRA:          -9.290
REMARK INTER:                  -9.006
REMARK INTRA:                  -0.284
REMARK UNBOUND:                -0.255
REMARK SMILES O=C([O-])CCCCCCCC(=O)[O-]
REMARK SMILES IDX 7 1 6 2 5 3 4 4 2 5 1 6 3 7 8 8 9 9 10 10 11 11 12 12 13 13
REMARK H PARENT
REMARK Flexibility Score: inf
ROOT
ATOM      1  C   UNL     1     -21.733 -21.457  31.628  1.00  0.00     0.000 C 
ENDROOT
BRANCH   1   2
ATOM      2  C   UNL     1     -22.102 -20.728  30.327  1.00  0.00     0.000 C 
BRANCH   2   3
ATOM      3  C   UNL     1     -21.289 -19.441  30.120  1.00  0.00     0.006 C 
BRANCH   3   4
ATOM      4  C   UNL     1     -20.544 -19.001  31.387  1.00  0.00     0.053 C 
BRANCH   4   5
ATOM      5  C   UNL     1     -19.218 -18.405  31.034  1.00  0.00     0.041 C 
ATOM      6  O   UNL     1     -18.591 -17.712  31.877  1.00  0.00    -0.550 OA
ATOM      7  O   UNL     1     -18.698 -18.574  29.757  1.00  0.00    -0.550 OA
ENDBRANCH   4   5
ENDBRANCH   3   4
ENDBRANCH   2   3
ENDBRANCH   1   2
BRANCH   1   8
ATOM      8  C   UNL     1     -22.685 -22.631  31.887  1.00  0.00     0.000 C 
BRANCH   8   9
ATOM      9  C   UNL     1     -22.528 -23.716  30.814  1.00  0.00     0.006 C 
BRANCH   9  10
ATOM     10  C   UNL     1     -23.462 -24.898  31.087  1.00  0.00     0.053 C 
BRANCH  10  11
ATOM     11  C   UNL     1     -24.137 -25.335  29.826  1.00  0.00     0.041 C 
ATOM     12  O   UNL     1     -23.561 -25.188  28.716  1.00  0.00    -0.550 OA
ATOM     13  O   UNL     1     -25.423 -25.859  29.870  1.00  0.00    -0.550 OA
ENDBRANCH  10  11
ENDBRANCH   9  10
ENDBRANCH   8   9
ENDBRANCH   1   8
TORSDOF 8
ENDMDL
MODEL 4
REMARK VINA RESULT:    -6.148      1.199      1.632
REMARK INTER + INTRA:          -9.279
REMARK INTER:                  -9.063
REMARK INTRA:                  -0.216
REMARK UNBOUND:                -0.255
REMARK SMILES O=C([O-])CCCCCCCC(=O)[O-]
REMARK SMILES IDX 7 1 6 2 5 3 4 4 2 5 1 6 3 7 8 8 9 9 10 10 11 11 12 12 13 13
REMARK H PARENT
REMARK Flexibility Score: inf
ROOT
ATOM      1  C   UNL     1     -22.519 -22.418  31.564  1.00  0.00     0.000 C 
ENDROOT
BRANCH   1   2
ATOM      2  C   UNL     1     -21.467 -21.326  31.809  1.00  0.00     0.000 C 
BRANCH   2   3
ATOM      3  C   UNL     1     -21.615 -20.136  30.848  1.00  0.00     0.006 C 
BRANCH   3   4
ATOM      4  C   UNL     1     -20.688 -18.967  31.208  1.00  0.00     0.053 C 
BRANCH   4   5
ATOM      5  C   UNL     1     -20.154 -18.323  29.967  1.00  0.00     0.041 C 
ATOM      6  O   UNL     1     -20.879 -17.541  29.298  1.00  0.00    -0.550 OA
ATOM      7  O   UNL     1     -18.874 -18.626  29.523  1.00  0.00    -0.550 OA
ENDBRANCH   4   5
ENDBRANCH   3   4
ENDBRANCH   2   3
ENDBRANCH   1   2
BRANCH   1   8
ATOM      8  C   UNL     1     -22.027 -23.428  30.520  1.00  0.00     0.000 C 
BRANCH   8   9
ATOM      9  C   UNL     1     -23.150 -24.391  30.113  1.00  0.00     0.006 C 
BRANCH   9  10
ATOM     10  C   UNL     1     -23.739 -25.099  31.336  1.00  0.00     0.053 C 
BRANCH  10  11
ATOM     11  C   UNL     1     -25.011 -25.798  30.975  1.00  0.00     0.041 C 
ATOM     12  O   UNL     1     -25.643 -26.451  31.846  1.00  0.00    -0.550 OA
ATOM     13  O   UNL     1     -25.473 -25.769  29.665  1.00  0.00    -0.550 OA
ENDBRANCH  10  11
ENDBRANCH   9  10
ENDBRANCH   8   9
ENDBRANCH   1   8
TORSDOF 8
ENDMDL
MODEL 5
REMARK VINA RESULT:    -6.136      0.851      7.054
REMARK INTER + INTRA:          -9.261
REMARK INTER:                  -8.929
REMARK INTRA:                  -0.332
REMARK UNBOUND:                -0.255
REMARK SMILES O=C([O-])CCCCCCCC(=O)[O-]
REMARK SMILES IDX 7 1 6 2 5 3 4 4 2 5 1 6 3 7 8 8 9 9 10 10 11 11 12 12 13 13
REMARK H PARENT
REMARK Flexibility Score: inf
ROOT
ATOM      1  C   UNL     1     -21.980 -20.901  31.100  1.00  0.00     0.000 C 
ENDROOT
BRANCH   1   2
ATOM      2  C   UNL     1     -22.361 -22.308  31.585  1.00  0.00     0.000 C 
BRANCH   2   3
ATOM      3  C   UNL     1     -22.380 -23.342  30.448  1.00  0.00     0.006 C 
BRANCH   3   4
ATOM      4  C   UNL     1     -23.146 -24.617  30.822  1.00  0.00     0.053 C 
BRANCH   4   5
ATOM      5  C   UNL     1     -23.828 -25.188  29.619  1.00  0.00     0.041 C 
ATOM      6  O   UNL     1     -23.183 -25.371  28.553  1.00  0.00    -0.550 OA
ATOM      7  O   UNL     1     -25.187 -25.472  29.659  1.00  0.00    -0.550 OA
ENDBRANCH   4   5
ENDBRANCH   3   4
ENDBRANCH   2   3
ENDBRANCH   1   2
BRANCH   1   8
ATOM      8  C   UNL     1     -21.991 -20.827  29.569  1.00  0.00     0.000 C 
BRANCH   8   9
ATOM      9  C   UNL     1     -21.187 -19.621  29.069  1.00  0.00     0.006 C 
BRANCH   9  10
ATOM     10  C   UNL     1     -20.829 -18.681  30.224  1.00  0.00     0.053 C 
BRANCH  10  11
ATOM     11  C   UNL     1     -19.350 -18.476  30.293  1.00  0.00     0.041 C 
ATOM     12  O   UNL     1     -18.751 -18.548  31.398  1.00  0.00    -0.550 OA
ATOM     13  O   UNL     1     -18.637 -18.155  29.143  1.00  0.00    -0.550 OA
ENDBRANCH  10  11
ENDBRANCH   9  10
ENDBRANCH   8   9
ENDBRANCH   1   8
TORSDOF 8
ENDMDL
MODEL 6
REMARK VINA RESULT:    -6.135      2.364      3.165
REMARK INTER + INTRA:          -9.259
REMARK INTER:                  -8.734
REMARK INTRA:                  -0.525
REMARK UNBOUND:                -0.255
REMARK SMILES O=C([O-])CCCCCCCC(=O)[O-]
REMARK SMILES IDX 7 1 6 2 5 3 4 4 2 5 1 6 3 7 8 8 9 9 10 10 11 11 12 12 13 13
REMARK H PARENT
REMARK Flexibility Score: inf
ROOT
ATOM      1  C   UNL     1     -23.474 -24.240  31.619  1.00  0.00     0.000 C 
ENDROOT
BRANCH   1   2
ATOM      2  C   UNL     1     -23.174 -22.792  32.036  1.00  0.00     0.000 C 
BRANCH   2   3
ATOM      3  C   UNL     1     -22.013 -22.176  31.240  1.00  0.00     0.006 C 
BRANCH   3   4
ATOM      4  C   UNL     1     -22.399 -20.857  30.557  1.00  0.00     0.053 C 
BRANCH   4   5
ATOM      5  C   UNL     1     -21.917 -20.843  29.141  1.00  0.00     0.041 C 
ATOM      6  O   UNL     1     -22.086 -21.850  28.405  1.00  0.00    -0.550 OA
ATOM      7  O   UNL     1     -21.239 -19.736  28.648  1.00  0.00    -0.550 OA
ENDBRANCH   4   5
ENDBRANCH   3   4
ENDBRANCH   2   3
ENDBRANCH   1   2
BRANCH   1   8
ATOM      8  C   UNL     1     -22.725 -24.607  30.333  1.00  0.00     0.000 C 
BRANCH   8   9
ATOM      9  C   UNL     1     -23.702 -24.996  29.216  1.00  0.00     0.006 C 
BRANCH   9  10
ATOM     10  C   UNL     1     -23.811 -26.517  29.085  1.00  0.00     0.053 C 
BRANCH  10  11
ATOM     11  C   UNL     1     -25.165 -26.985  29.514  1.00  0.00     0.041 C 
ATOM     12  O   UNL     1     -26.096 -27.086  28.672  1.00  0.00    -0.550 OA
ATOM     13  O   UNL     1     -25.414 -27.262  30.852  1.00  0.00    -0.550 OA
ENDBRANCH  10  11
ENDBRANCH   9  10
ENDBRANCH   8   9
ENDBRANCH   1   8
TORSDOF 8
ENDMDL
MODEL 7
REMARK VINA RESULT:    -6.059      1.438      2.011
REMARK INTER + INTRA:          -9.148
REMARK INTER:                  -8.745
REMARK INTRA:                  -0.403
REMARK UNBOUND:                -0.255
REMARK SMILES O=C([O-])CCCCCCCC(=O)[O-]
REMARK SMILES IDX 7 1 6 2 5 3 4 4 2 5 1 6 3 7 8 8 9 9 10 10 11 11 12 12 13 13
REMARK H PARENT
REMARK Flexibility Score: inf
ROOT
ATOM      1  C   UNL     1     -21.976 -23.304  29.364  1.00  0.00     0.000 C 
ENDROOT
BRANCH   1   2
ATOM      2  C   UNL     1     -22.338 -22.010  28.620  1.00  0.00     0.000 C 
BRANCH   2   3
ATOM      3  C   UNL     1     -22.352 -20.781  29.542  1.00  0.00     0.006 C 
BRANCH   3   4
ATOM      4  C   UNL     1     -21.323 -19.720  29.128  1.00  0.00     0.053 C 
BRANCH   4   5
ATOM      5  C   UNL     1     -20.798 -19.005  30.333  1.00  0.00     0.041 C 
ATOM      6  O   UNL     1     -20.312 -17.849  30.221  1.00  0.00    -0.550 OA
ATOM      7  O   UNL     1     -20.802 -19.634  31.571  1.00  0.00    -0.550 OA
ENDBRANCH   4   5
ENDBRANCH   3   4
ENDBRANCH   2   3
ENDBRANCH   1   2
BRANCH   1   8
ATOM      8  C   UNL     1     -22.396 -23.226  30.837  1.00  0.00     0.000 C 
BRANCH   8   9
ATOM      9  C   UNL     1     -23.157 -24.488  31.262  1.00  0.00     0.006 C 
BRANCH   9  10
ATOM     10  C   UNL     1     -23.621 -25.288  30.042  1.00  0.00     0.053 C 
BRANCH  10  11
ATOM     11  C   UNL     1     -25.038 -25.735  30.217  1.00  0.00     0.041 C 
ATOM     12  O   UNL     1     -25.758 -25.966  29.210  1.00  0.00    -0.550 OA
ATOM     13  O   UNL     1     -25.579 -25.850  31.492  1.00  0.00    -0.550 OA
ENDBRANCH  10  11
ENDBRANCH   9  10
ENDBRANCH   8   9
ENDBRANCH   1   8
TORSDOF 8
ENDMDL
MODEL 8
REMARK VINA RESULT:    -6.035      1.691      7.421
REMARK INTER + INTRA:          -9.112
REMARK INTER:                  -8.780
REMARK INTRA:                  -0.333
REMARK UNBOUND:                -0.255
REMARK SMILES O=C([O-])CCCCCCCC(=O)[O-]
REMARK SMILES IDX 7 1 6 2 5 3 4 4 2 5 1 6 3 7 8 8 9 9 10 10 11 11 12 12 13 13
REMARK H PARENT
REMARK Flexibility Score: inf
ROOT
ATOM      1  C   UNL     1     -22.134 -23.251  29.535  1.00  0.00     0.000 C 
ENDROOT
BRANCH   1   2
ATOM      2  C   UNL     1     -22.918 -24.458  28.997  1.00  0.00     0.000 C 
BRANCH   2   3
ATOM      3  C   UNL     1     -23.549 -25.301  30.116  1.00  0.00     0.006 C 
BRANCH   3   4
ATOM      4  C   UNL     1     -24.299 -26.528  29.580  1.00  0.00     0.053 C 
BRANCH   4   5
ATOM      5  C   UNL     1     -25.307 -27.000  30.580  1.00  0.00     0.041 C 
ATOM      6  O   UNL     1     -25.982 -28.039  30.356  1.00  0.00    -0.550 OA
ATOM      7  O   UNL     1     -25.536 -26.266  31.736  1.00  0.00    -0.550 OA
ENDBRANCH   4   5
ENDBRANCH   3   4
ENDBRANCH   2   3
ENDBRANCH   1   2
BRANCH   1   8
ATOM      8  C   UNL     1     -22.359 -23.079  31.042  1.00  0.00     0.000 C 
BRANCH   8   9
ATOM      9  C   UNL     1     -21.978 -21.665  31.498  1.00  0.00     0.006 C 
BRANCH   9  10
ATOM     10  C   UNL     1     -22.263 -20.636  30.400  1.00  0.00     0.053 C 
BRANCH  10  11
ATOM     11  C   UNL     1     -21.228 -19.557  30.411  1.00  0.00     0.041 C 
ATOM     12  O   UNL     1     -20.701 -19.175  29.334  1.00  0.00    -0.550 OA
ATOM     13  O   UNL     1     -20.809 -19.007  31.617  1.00  0.00    -0.550 OA
ENDBRANCH  10  11
ENDBRANCH   9  10
ENDBRANCH   8   9
ENDBRANCH   1   8
TORSDOF 8
ENDMDL
MODEL 9
REMARK VINA RESULT:    -5.948      1.796      6.961
REMARK INTER + INTRA:          -8.985
REMARK INTER:                  -8.534
REMARK INTRA:                  -0.450
REMARK UNBOUND:                -0.255
REMARK SMILES O=C([O-])CCCCCCCC(=O)[O-]
REMARK SMILES IDX 7 1 6 2 5 3 4 4 2 5 1 6 3 7 8 8 9 9 10 10 11 11 12 12 13 13
REMARK H PARENT
REMARK Flexibility Score: inf
ROOT
ATOM      1  C   UNL     1     -20.915 -19.811  31.526  1.00  0.00     0.000 C 
ENDROOT
BRANCH   1   2
ATOM      2  C   UNL     1     -21.089 -21.274  31.961  1.00  0.00     0.000 C 
BRANCH   2   3
ATOM      3  C   UNL     1     -22.349 -21.923  31.366  1.00  0.00     0.006 C 
BRANCH   3   4
ATOM      4  C   UNL     1     -22.068 -23.298  30.746  1.00  0.00     0.053 C 
BRANCH   4   5
ATOM      5  C   UNL     1     -22.469 -23.311  29.304  1.00  0.00     0.041 C 
ATOM      6  O   UNL     1     -23.173 -24.251  28.851  1.00  0.00    -0.550 OA
ATOM      7  O   UNL     1     -22.024 -22.310  28.450  1.00  0.00    -0.550 OA
ENDBRANCH   4   5
ENDBRANCH   3   4
ENDBRANCH   2   3
ENDBRANCH   1   2
BRANCH   1   8
ATOM      8  C   UNL     1     -21.651 -19.539  30.209  1.00  0.00     0.000 C 
BRANCH   8   9
ATOM      9  C   UNL     1     -20.855 -18.575  29.321  1.00  0.00     0.006 C 
BRANCH   9  10
ATOM     10  C   UNL     1     -19.379 -18.546  29.724  1.00  0.00     0.053 C 
BRANCH  10  11
ATOM     11  C   UNL     1     -18.867 -17.141  29.741  1.00  0.00     0.041 C 
ATOM     12  O   UNL     1     -18.741 -16.526  30.832  1.00  0.00    -0.550 OA
ATOM     13  O   UNL     1     -18.574 -16.493  28.547  1.00  0.00    -0.550 OA
ENDBRANCH  10  11
ENDBRANCH   9  10
ENDBRANCH   8   9
ENDBRANCH   1   8
TORSDOF 8
ENDMDL
