MODEL 1
REMARK VINA RESULT:    -3.564      0.000      0.000
REMARK INTER + INTRA:          -3.669
REMARK INTER:                  -3.669
REMARK INTRA:                   0.000
REMARK UNBOUND:                 0.000
REMARK SMILES Nc1ncnc2nc[nH]c12
REMARK SMILES IDX 8 1 7 2 6 3 5 4 4 5 3 6 2 7 10 8 9 9 1 11
REMARK H PARENT 9 10 1 12 1 13
REMARK Flexibility Score: inf
ROOT
ATOM      1  C   UNL     1     -10.177  -1.178  12.426  1.00  0.00     0.199 A 
ATOM      2  N   UNL     1     -11.124  -1.475  11.495  1.00  0.00    -0.217 NA
ATOM      3  C   UNL     1     -10.578  -2.524  10.856  1.00  0.00     0.182 A 
ATOM      4  N   UNL     1     -11.120  -3.212   9.824  1.00  0.00    -0.215 NA
ATOM      5  C   UNL     1     -10.408  -4.257   9.300  1.00  0.00     0.226 A 
ATOM      6  N   UNL     1      -9.180  -4.589   9.814  1.00  0.00    -0.217 NA
ATOM      7  C   UNL     1      -8.632  -3.895  10.856  1.00  0.00     0.152 A 
ATOM      8  C   UNL     1      -9.369  -2.835  11.377  1.00  0.00     0.127 A 
ATOM      9  N   UNL     1      -9.092  -1.992  12.379  1.00  0.00    -0.340 N 
ATOM     10  H   UNL     1      -8.245  -1.957  12.987  1.00  0.00     0.168 HD
ENDROOT
BRANCH   7  11
ATOM     11  N   UNL     1      -7.352  -4.259  11.374  1.00  0.00    -0.382 N 
ATOM     12  H   UNL     1      -6.555  -4.435  10.722  1.00  0.00     0.158 HD
ATOM     13  H   UNL     1      -7.187  -4.356  12.400  1.00  0.00     0.158 HD
ENDBRANCH   7  11
TORSDOF 1
ENDMDL
MODEL 2
REMARK VINA RESULT:    -3.502      1.884      2.993
REMARK INTER + INTRA:          -3.604
REMARK INTER:                  -3.604
REMARK INTRA:                   0.000
REMARK UNBOUND:                 0.000
REMARK SMILES Nc1ncnc2nc[nH]c12
REMARK SMILES IDX 8 1 7 2 6 3 5 4 4 5 3 6 2 7 10 8 9 9 1 11
REMARK H PARENT 9 10 1 12 1 13
REMARK Flexibility Score: inf
ROOT
ATOM      1  C   UNL     1     -10.157  -2.190  11.906  1.00  0.00     0.199 A 
ATOM      2  N   UNL     1     -10.215  -3.468  11.441  1.00  0.00    -0.217 NA
ATOM      3  C   UNL     1     -10.518  -3.286  10.144  1.00  0.00     0.182 A 
ATOM      4  N   UNL     1     -10.695  -4.253   9.213  1.00  0.00    -0.215 NA
ATOM      5  C   UNL     1     -11.001  -3.871   7.936  1.00  0.00     0.226 A 
ATOM      6  N   UNL     1     -11.124  -2.542   7.618  1.00  0.00    -0.217 NA
ATOM      7  C   UNL     1     -10.946  -1.565   8.557  1.00  0.00     0.152 A 
ATOM      8  C   UNL     1     -10.635  -1.971   9.852  1.00  0.00     0.127 A 
ATOM      9  N   UNL     1     -10.409  -1.252  10.958  1.00  0.00    -0.340 N 
ATOM     10  H   UNL     1     -10.421  -0.216  11.077  1.00  0.00     0.168 HD
ENDROOT
BRANCH   7  11
ATOM     11  N   UNL     1     -11.079  -0.188   8.202  1.00  0.00    -0.382 N 
ATOM     12  H   UNL     1     -11.894   0.127   7.629  1.00  0.00     0.158 HD
ATOM     13  H   UNL     1     -10.376   0.522   8.503  1.00  0.00     0.158 HD
ENDBRANCH   7  11
TORSDOF 1
ENDMDL
MODEL 3
REMARK VINA RESULT:    -3.254      1.601      3.403
REMARK INTER + INTRA:          -3.349
REMARK INTER:                  -3.349
REMARK INTRA:                   0.000
REMARK UNBOUND:                 0.000
REMARK SMILES Nc1ncnc2nc[nH]c12
REMARK SMILES IDX 8 1 7 2 6 3 5 4 4 5 3 6 2 7 10 8 9 9 1 11
REMARK H PARENT 9 10 1 12 1 13
REMARK Flexibility Score: inf
ROOT
ATOM      1  C   UNL     1      -8.964  -4.724  10.812  1.00  0.00     0.199 A 
ATOM      2  N   UNL     1      -9.304  -3.615  11.524  1.00  0.00    -0.217 NA
ATOM      3  C   UNL     1      -9.933  -2.866  10.602  1.00  0.00     0.182 A 
ATOM      4  N   UNL     1     -10.478  -1.641  10.791  1.00  0.00    -0.215 NA
ATOM      5  C   UNL     1     -11.080  -1.031   9.725  1.00  0.00     0.226 A 
ATOM      6  N   UNL     1     -11.125  -1.651   8.502  1.00  0.00    -0.217 NA
ATOM      7  C   UNL     1     -10.575  -2.887   8.310  1.00  0.00     0.152 A 
ATOM      8  C   UNL     1      -9.966  -3.494   9.404  1.00  0.00     0.127 A 
ATOM      9  N   UNL     1      -9.356  -4.680   9.513  1.00  0.00    -0.340 N 
ATOM     10  H   UNL     1      -9.208  -5.408   8.780  1.00  0.00     0.168 HD
ENDROOT
BRANCH   7  11
ATOM     11  N   UNL     1     -10.634  -3.513   7.027  1.00  0.00    -0.382 N 
ATOM     12  H   UNL     1     -10.990  -2.981   6.202  1.00  0.00     0.158 HD
ATOM     13  H   UNL     1     -10.327  -4.500   6.889  1.00  0.00     0.158 HD
ENDBRANCH   7  11
TORSDOF 1
ENDMDL
MODEL 4
REMARK VINA RESULT:    -3.237      1.602      2.685
REMARK INTER + INTRA:          -3.332
REMARK INTER:                  -3.332
REMARK INTRA:                   0.000
REMARK UNBOUND:                 0.000
REMARK SMILES Nc1ncnc2nc[nH]c12
REMARK SMILES IDX 8 1 7 2 6 3 5 4 4 5 3 6 2 7 10 8 9 9 1 11
REMARK H PARENT 9 10 1 12 1 13
REMARK Flexibility Score: inf
ROOT
ATOM      1  C   UNL     1     -11.125  -1.074   8.431  1.00  0.00     0.199 A 
ATOM      2  N   UNL     1     -10.955  -2.355   8.002  1.00  0.00    -0.217 NA
ATOM      3  C   UNL     1     -10.436  -2.954   9.088  1.00  0.00     0.182 A 
ATOM      4  N   UNL     1     -10.076  -4.254   9.199  1.00  0.00    -0.215 NA
ATOM      5  C   UNL     1      -9.563  -4.682  10.392  1.00  0.00     0.226 A 
ATOM      6  N   UNL     1      -9.421  -3.810  11.442  1.00  0.00    -0.217 NA
ATOM      7  C   UNL     1      -9.784  -2.498  11.331  1.00  0.00     0.152 A 
ATOM      8  C   UNL     1     -10.304  -2.077  10.110  1.00  0.00     0.127 A 
ATOM      9  N   UNL     1     -10.737  -0.874   9.717  1.00  0.00    -0.340 N 
ATOM     10  H   UNL     1     -10.772   0.017  10.259  1.00  0.00     0.168 HD
ENDROOT
BRANCH   7  11
ATOM     11  N   UNL     1      -9.626  -1.608  12.437  1.00  0.00    -0.382 N 
ATOM     12  H   UNL     1      -9.718  -0.577  12.295  1.00  0.00     0.158 HD
ATOM     13  H   UNL     1      -9.419  -1.963  13.396  1.00  0.00     0.158 HD
ENDBRANCH   7  11
TORSDOF 1
ENDMDL
MODEL 5
REMARK VINA RESULT:    -3.211      1.096      2.923
REMARK INTER + INTRA:          -3.304
REMARK INTER:                  -3.304
REMARK INTRA:                   0.000
REMARK UNBOUND:                 0.000
REMARK SMILES Nc1ncnc2nc[nH]c12
REMARK SMILES IDX 8 1 7 2 6 3 5 4 4 5 3 6 2 7 10 8 9 9 1 11
REMARK H PARENT 9 10 1 12 1 13
REMARK Flexibility Score: inf
ROOT
ATOM      1  C   UNL     1     -10.607  -3.514   7.986  1.00  0.00     0.199 A 
ATOM      2  N   UNL     1     -11.125  -2.371   8.515  1.00  0.00    -0.217 NA
ATOM      3  C   UNL     1     -10.539  -2.325   9.724  1.00  0.00     0.182 A 
ATOM      4  N   UNL     1     -10.714  -1.373  10.670  1.00  0.00    -0.215 NA
ATOM      5  C   UNL     1     -10.027  -1.498  11.846  1.00  0.00     0.226 A 
ATOM      6  N   UNL     1      -9.187  -2.564  12.052  1.00  0.00    -0.217 NA
ATOM      7  C   UNL     1      -9.010  -3.525  11.097  1.00  0.00     0.152 A 
ATOM      8  C   UNL     1      -9.716  -3.384   9.906  1.00  0.00     0.127 A 
ATOM      9  N   UNL     1      -9.742  -4.154   8.813  1.00  0.00    -0.340 N 
ATOM     10  H   UNL     1      -9.225  -5.041   8.627  1.00  0.00     0.168 HD
ENDROOT
BRANCH   7  11
ATOM     11  N   UNL     1      -8.130  -4.626  11.334  1.00  0.00    -0.382 N 
ATOM     12  H   UNL     1      -8.482  -5.480  11.820  1.00  0.00     0.158 HD
ATOM     13  H   UNL     1      -7.132  -4.600  11.031  1.00  0.00     0.158 HD
ENDBRANCH   7  11
TORSDOF 1
ENDMDL
MODEL 6
REMARK VINA RESULT:    -3.191      1.620      3.404
REMARK INTER + INTRA:          -3.284
REMARK INTER:                  -3.284
REMARK INTRA:                   0.000
REMARK UNBOUND:                 0.000
REMARK SMILES Nc1ncnc2nc[nH]c12
REMARK SMILES IDX 8 1 7 2 6 3 5 4 4 5 3 6 2 7 10 8 9 9 1 11
REMARK H PARENT 9 10 1 12 1 13
REMARK Flexibility Score: inf
ROOT
ATOM      1  C   UNL     1     -10.016  -4.308   9.569  1.00  0.00     0.199 A 
ATOM      2  N   UNL     1     -10.678  -4.842  10.632  1.00  0.00    -0.217 NA
ATOM      3  C   UNL     1     -10.611  -3.851  11.538  1.00  0.00     0.182 A 
ATOM      4  N   UNL     1     -11.123  -3.867  12.791  1.00  0.00    -0.215 NA
ATOM      5  C   UNL     1     -10.953  -2.756  13.571  1.00  0.00     0.226 A 
ATOM      6  N   UNL     1     -10.279  -1.662  13.089  1.00  0.00    -0.217 NA
ATOM      7  C   UNL     1      -9.763  -1.646  11.824  1.00  0.00     0.152 A 
ATOM      8  C   UNL     1      -9.944  -2.784  11.042  1.00  0.00     0.127 A 
ATOM      9  N   UNL     1      -9.556  -3.050   9.790  1.00  0.00    -0.340 N 
ATOM     10  H   UNL     1      -9.024  -2.444   9.128  1.00  0.00     0.168 HD
ENDROOT
BRANCH   7  11
ATOM     11  N   UNL     1      -9.065  -0.496  11.342  1.00  0.00    -0.382 N 
ATOM     12  H   UNL     1      -8.021  -0.484  11.335  1.00  0.00     0.158 HD
ATOM     13  H   UNL     1      -9.576   0.344  10.993  1.00  0.00     0.158 HD
ENDBRANCH   7  11
TORSDOF 1
ENDMDL
MODEL 7
REMARK VINA RESULT:    -3.002      2.183      4.371
REMARK INTER + INTRA:          -3.089
REMARK INTER:                  -3.089
REMARK INTRA:                   0.000
REMARK UNBOUND:                 0.000
REMARK SMILES Nc1ncnc2nc[nH]c12
REMARK SMILES IDX 8 1 7 2 6 3 5 4 4 5 3 6 2 7 10 8 9 9 1 11
REMARK H PARENT 9 10 1 12 1 13
REMARK Flexibility Score: inf
ROOT
ATOM      1  C   UNL     1     -11.079  -3.965   6.881  1.00  0.00     0.199 A 
ATOM      2  N   UNL     1     -11.087  -4.624   8.072  1.00  0.00    -0.217 NA
ATOM      3  C   UNL     1     -11.101  -3.613   8.957  1.00  0.00     0.182 A 
ATOM      4  N   UNL     1     -11.112  -3.722  10.307  1.00  0.00    -0.215 NA
ATOM      5  C   UNL     1     -11.125  -2.572  11.047  1.00  0.00     0.226 A 
ATOM      6  N   UNL     1     -11.125  -1.346  10.429  1.00  0.00    -0.217 NA
ATOM      7  C   UNL     1     -11.113  -1.236   9.067  1.00  0.00     0.152 A 
ATOM      8  C   UNL     1     -11.100  -2.415   8.328  1.00  0.00     0.127 A 
ATOM      9  N   UNL     1     -11.087  -2.614   7.005  1.00  0.00    -0.340 N 
ATOM     10  H   UNL     1     -11.083  -1.905   6.239  1.00  0.00     0.168 HD
ENDROOT
BRANCH   7  11
ATOM     11  N   UNL     1     -11.113   0.050   8.446  1.00  0.00    -0.382 N 
ATOM     12  H   UNL     1     -11.047   0.128   7.406  1.00  0.00     0.158 HD
ATOM     13  H   UNL     1     -11.178   0.927   9.008  1.00  0.00     0.158 HD
ENDBRANCH   7  11
TORSDOF 1
ENDMDL
MODEL 8
REMARK VINA RESULT:    -2.843      1.010      2.994
REMARK INTER + INTRA:          -2.926
REMARK INTER:                  -2.926
REMARK INTRA:                   0.000
REMARK UNBOUND:                 0.000
REMARK SMILES Nc1ncnc2nc[nH]c12
REMARK SMILES IDX 8 1 7 2 6 3 5 4 4 5 3 6 2 7 10 8 9 9 1 11
REMARK H PARENT 9 10 1 12 1 13
REMARK Flexibility Score: inf
ROOT
ATOM      1  C   UNL     1      -8.491  -4.992  10.595  1.00  0.00     0.199 A 
ATOM      2  N   UNL     1      -9.315  -4.751   9.539  1.00  0.00    -0.217 NA
ATOM      3  C   UNL     1      -9.827  -3.547   9.844  1.00  0.00     0.182 A 
ATOM      4  N   UNL     1     -10.718  -2.838   9.111  1.00  0.00    -0.215 NA
ATOM      5  C   UNL     1     -11.125  -1.623   9.589  1.00  0.00     0.226 A 
ATOM      6  N   UNL     1     -10.638  -1.144  10.779  1.00  0.00    -0.217 NA
ATOM      7  C   UNL     1      -9.739  -1.858  11.519  1.00  0.00     0.152 A 
ATOM      8  C   UNL     1      -9.335  -3.093  11.020  1.00  0.00     0.127 A 
ATOM      9  N   UNL     1      -8.482  -3.996  11.518  1.00  0.00    -0.340 N 
ATOM     10  H   UNL     1      -7.933  -3.956  12.404  1.00  0.00     0.168 HD
ENDROOT
BRANCH   7  11
ATOM     11  N   UNL     1      -9.247  -1.340  12.756  1.00  0.00    -0.382 N 
ATOM     12  H   UNL     1      -9.784  -0.602  13.264  1.00  0.00     0.158 HD
ATOM     13  H   UNL     1      -8.353  -1.681  13.172  1.00  0.00     0.158 HD
ENDBRANCH   7  11
TORSDOF 1
ENDMDL
MODEL 9
REMARK VINA RESULT:    -2.206      1.723      2.177
REMARK INTER + INTRA:          -2.271
REMARK INTER:                  -2.271
REMARK INTRA:                   0.000
REMARK UNBOUND:                 0.000
REMARK SMILES Nc1ncnc2nc[nH]c12
REMARK SMILES IDX 8 1 7 2 6 3 5 4 4 5 3 6 2 7 10 8 9 9 1 11
REMARK H PARENT 9 10 1 12 1 13
REMARK Flexibility Score: inf
ROOT
ATOM      1  C   UNL     1      -9.630  -0.891  12.358  1.00  0.00     0.199 A 
ATOM      2  N   UNL     1     -10.101  -1.922  13.112  1.00  0.00    -0.217 NA
ATOM      3  C   UNL     1     -10.389  -2.848  12.181  1.00  0.00     0.182 A 
ATOM      4  N   UNL     1     -10.897  -4.084  12.400  1.00  0.00    -0.215 NA
ATOM      5  C   UNL     1     -11.125  -4.889  11.319  1.00  0.00     0.226 A 
ATOM      6  N   UNL     1     -10.845  -4.448  10.050  1.00  0.00    -0.217 NA
ATOM      7  C   UNL     1     -10.332  -3.201   9.827  1.00  0.00     0.152 A 
ATOM      8  C   UNL     1     -10.106  -2.393  10.938  1.00  0.00     0.127 A 
ATOM      9  N   UNL     1      -9.620  -1.149  11.025  1.00  0.00    -0.340 N 
ATOM     10  H   UNL     1      -9.306  -0.516  10.258  1.00  0.00     0.168 HD
ENDROOT
BRANCH   7  11
ATOM     11  N   UNL     1     -10.048  -2.762   8.498  1.00  0.00    -0.382 N 
ATOM     12  H   UNL     1      -9.058  -2.640   8.188  1.00  0.00     0.158 HD
ATOM     13  H   UNL     1     -10.812  -2.556   7.818  1.00  0.00     0.158 HD
ENDBRANCH   7  11
TORSDOF 1
ENDMDL
