MODEL 1
REMARK VINA RESULT:    -4.207      0.000      0.000
REMARK INTER + INTRA:          -7.191
REMARK INTER:                  -6.421
REMARK INTRA:                  -0.770
REMARK UNBOUND:                -0.770
REMARK SMILES O=C([O-])CCCCCCCCC(=O)[O-]
REMARK SMILES IDX 7 1 6 2 5 3 4 4 2 5 1 6 3 7 8 8 9 9 10 10 11 11 12 12 13 13
REMARK SMILES IDX 14 14
REMARK H PARENT
REMARK Flexibility Score: inf
ROOT
ATOM      1  C   UNL     1      57.236  -1.977  84.640  1.00  0.00     0.000 C 
ENDROOT
BRANCH   1   2
ATOM      2  C   UNL     1      56.764  -2.763  83.411  1.00  0.00     0.000 C 
BRANCH   2   3
ATOM      3  C   UNL     1      57.107  -4.254  83.547  1.00  0.00     0.006 C 
BRANCH   3   4
ATOM      4  C   UNL     1      58.593  -4.535  83.291  1.00  0.00     0.053 C 
BRANCH   4   5
ATOM      5  C   UNL     1      59.172  -5.451  84.324  1.00  0.00     0.041 C 
ATOM      6  O   UNL     1      58.415  -6.072  85.116  1.00  0.00    -0.550 OA
ATOM      7  O   UNL     1      60.547  -5.645  84.392  1.00  0.00    -0.550 OA
ENDBRANCH   4   5
ENDBRANCH   3   4
ENDBRANCH   2   3
ENDBRANCH   1   2
BRANCH   1   8
ATOM      8  C   UNL     1      57.558  -0.523  84.273  1.00  0.00     0.000 C 
BRANCH   8   9
ATOM      9  C   UNL     1      59.033  -0.198  84.557  1.00  0.00     0.000 C 
BRANCH   9  10
ATOM     10  C   UNL     1      59.998  -1.191  83.891  1.00  0.00     0.006 C 
BRANCH  10  11
ATOM     11  C   UNL     1      59.933  -1.140  82.359  1.00  0.00     0.053 C 
BRANCH  11  12
ATOM     12  C   UNL     1      61.112  -1.845  81.764  1.00  0.00     0.041 C 
ATOM     13  O   UNL     1      61.705  -1.357  80.766  1.00  0.00    -0.550 OA
ATOM     14  O   UNL     1      61.524  -3.067  82.279  1.00  0.00    -0.550 OA
ENDBRANCH  11  12
ENDBRANCH  10  11
ENDBRANCH   9  10
ENDBRANCH   8   9
ENDBRANCH   1   8
TORSDOF 9
ENDMDL
MODEL 2
REMARK VINA RESULT:    -4.129      0.616      4.265
REMARK INTER + INTRA:          -7.072
REMARK INTER:                  -6.274
REMARK INTRA:                  -0.798
REMARK UNBOUND:                -0.770
REMARK SMILES O=C([O-])CCCCCCCCC(=O)[O-]
REMARK SMILES IDX 7 1 6 2 5 3 4 4 2 5 1 6 3 7 8 8 9 9 10 10 11 11 12 12 13 13
REMARK SMILES IDX 14 14
REMARK H PARENT
REMARK Flexibility Score: inf
ROOT
ATOM      1  C   UNL     1      57.373  -1.451  84.704  1.00  0.00     0.000 C 
ENDROOT
BRANCH   1   2
ATOM      2  C   UNL     1      58.569  -0.524  84.458  1.00  0.00     0.000 C 
BRANCH   2   3
ATOM      3  C   UNL     1      59.322  -0.923  83.180  1.00  0.00     0.006 C 
BRANCH   3   4
ATOM      4  C   UNL     1      60.636  -1.654  83.483  1.00  0.00     0.053 C 
BRANCH   4   5
ATOM      5  C   UNL     1      61.272  -2.193  82.239  1.00  0.00     0.041 C 
ATOM      6  O   UNL     1      61.360  -3.437  82.061  1.00  0.00    -0.550 OA
ATOM      7  O   UNL     1      61.738  -1.323  81.261  1.00  0.00    -0.550 OA
ENDBRANCH   4   5
ENDBRANCH   3   4
ENDBRANCH   2   3
ENDBRANCH   1   2
BRANCH   1   8
ATOM      8  C   UNL     1      56.547  -1.636  83.425  1.00  0.00     0.000 C 
BRANCH   8   9
ATOM      9  C   UNL     1      56.489  -3.115  83.016  1.00  0.00     0.000 C 
BRANCH   9  10
ATOM     10  C   UNL     1      57.234  -4.032  83.999  1.00  0.00     0.006 C 
BRANCH  10  11
ATOM     11  C   UNL     1      58.503  -4.643  83.389  1.00  0.00     0.053 C 
BRANCH  11  12
ATOM     12  C   UNL     1      59.149  -5.581  84.360  1.00  0.00     0.041 C 
ATOM     13  O   UNL     1      58.454  -6.170  85.230  1.00  0.00    -0.550 OA
ATOM     14  O   UNL     1      60.525  -5.766  84.337  1.00  0.00    -0.550 OA
ENDBRANCH  11  12
ENDBRANCH  10  11
ENDBRANCH   9  10
ENDBRANCH   8   9
ENDBRANCH   1   8
TORSDOF 9
ENDMDL
MODEL 3
REMARK VINA RESULT:    -3.931      3.114      5.294
REMARK INTER + INTRA:          -6.770
REMARK INTER:                  -6.220
REMARK INTRA:                  -0.550
REMARK UNBOUND:                -0.770
REMARK SMILES O=C([O-])CCCCCCCCC(=O)[O-]
REMARK SMILES IDX 7 1 6 2 5 3 4 4 2 5 1 6 3 7 8 8 9 9 10 10 11 11 12 12 13 13
REMARK SMILES IDX 14 14
REMARK H PARENT
REMARK Flexibility Score: inf
ROOT
ATOM      1  C   UNL     1      57.767  -1.261  84.550  1.00  0.00     0.000 C 
ENDROOT
BRANCH   1   2
ATOM      2  C   UNL     1      58.932  -0.502  83.904  1.00  0.00     0.000 C 
BRANCH   2   3
ATOM      3  C   UNL     1      60.234  -1.312  83.995  1.00  0.00     0.006 C 
BRANCH   3   4
ATOM      4  C   UNL     1      60.604  -1.972  82.660  1.00  0.00     0.053 C 
BRANCH   4   5
ATOM      5  C   UNL     1      60.685  -3.463  82.780  1.00  0.00     0.041 C 
ATOM      6  O   UNL     1      61.423  -4.121  82.000  1.00  0.00    -0.550 OA
ATOM      7  O   UNL     1      59.973  -4.122  83.774  1.00  0.00    -0.550 OA
ENDBRANCH   4   5
ENDBRANCH   3   4
ENDBRANCH   2   3
ENDBRANCH   1   2
BRANCH   1   8
ATOM      8  C   UNL     1      56.737  -1.688  83.498  1.00  0.00     0.000 C 
BRANCH   8   9
ATOM      9  C   UNL     1      56.743  -3.213  83.309  1.00  0.00     0.000 C 
BRANCH   9  10
ATOM     10  C   UNL     1      55.628  -3.699  82.369  1.00  0.00     0.006 C 
BRANCH  10  11
ATOM     11  C   UNL     1      54.430  -2.741  82.331  1.00  0.00     0.053 C 
BRANCH  11  12
ATOM     12  C   UNL     1      53.163  -3.501  82.090  1.00  0.00     0.041 C 
ATOM     13  O   UNL     1      52.107  -3.180  82.697  1.00  0.00    -0.550 OA
ATOM     14  O   UNL     1      53.161  -4.596  81.235  1.00  0.00    -0.550 OA
ENDBRANCH  11  12
ENDBRANCH  10  11
ENDBRANCH   9  10
ENDBRANCH   8   9
ENDBRANCH   1   8
TORSDOF 9
ENDMDL
MODEL 4
REMARK VINA RESULT:    -3.910      1.579      2.466
REMARK INTER + INTRA:          -6.737
REMARK INTER:                  -5.927
REMARK INTRA:                  -0.810
REMARK UNBOUND:                -0.770
REMARK SMILES O=C([O-])CCCCCCCCC(=O)[O-]
REMARK SMILES IDX 7 1 6 2 5 3 4 4 2 5 1 6 3 7 8 8 9 9 10 10 11 11 12 12 13 13
REMARK SMILES IDX 14 14
REMARK H PARENT
REMARK Flexibility Score: inf
ROOT
ATOM      1  C   UNL     1      57.077  -4.651  83.160  1.00  0.00     0.000 C 
ENDROOT
BRANCH   1   2
ATOM      2  C   UNL     1      57.554  -4.764  84.613  1.00  0.00     0.000 C 
BRANCH   2   3
ATOM      3  C   UNL     1      58.735  -5.739  84.730  1.00  0.00     0.006 C 
BRANCH   3   4
ATOM      4  C   UNL     1      59.836  -5.445  83.703  1.00  0.00     0.053 C 
BRANCH   4   5
ATOM      5  C   UNL     1      60.517  -6.697  83.243  1.00  0.00     0.041 C 
ATOM      6  O   UNL     1      59.836  -7.682  82.853  1.00  0.00    -0.550 OA
ATOM      7  O   UNL     1      61.905  -6.765  83.212  1.00  0.00    -0.550 OA
ENDBRANCH   4   5
ENDBRANCH   3   4
ENDBRANCH   2   3
ENDBRANCH   1   2
BRANCH   1   8
ATOM      8  C   UNL     1      56.901  -3.183  82.752  1.00  0.00     0.000 C 
BRANCH   8   9
ATOM      9  C   UNL     1      56.932  -2.262  83.981  1.00  0.00     0.000 C 
BRANCH   9  10
ATOM     10  C   UNL     1      58.078  -1.239  83.926  1.00  0.00     0.006 C 
BRANCH  10  11
ATOM     11  C   UNL     1      59.103  -1.560  82.831  1.00  0.00     0.053 C 
BRANCH  11  12
ATOM     12  C   UNL     1      60.491  -1.535  83.393  1.00  0.00     0.041 C 
ATOM     13  O   UNL     1      61.432  -2.107  82.782  1.00  0.00    -0.550 OA
ATOM     14  O   UNL     1      60.735  -0.923  84.616  1.00  0.00    -0.550 OA
ENDBRANCH  11  12
ENDBRANCH  10  11
ENDBRANCH   9  10
ENDBRANCH   8   9
ENDBRANCH   1   8
TORSDOF 9
ENDMDL
MODEL 5
REMARK VINA RESULT:    -3.895     12.383     13.525
REMARK INTER + INTRA:          -6.714
REMARK INTER:                  -5.989
REMARK INTRA:                  -0.725
REMARK UNBOUND:                -0.770
REMARK SMILES O=C([O-])CCCCCCCCC(=O)[O-]
REMARK SMILES IDX 7 1 6 2 5 3 4 4 2 5 1 6 3 7 8 8 9 9 10 10 11 11 12 12 13 13
REMARK SMILES IDX 14 14
REMARK H PARENT
REMARK Flexibility Score: inf
ROOT
ATOM      1  C   UNL     1      52.411  -0.777  72.294  1.00  0.00     0.000 C 
ENDROOT
BRANCH   1   2
ATOM      2  C   UNL     1      52.717  -1.778  73.414  1.00  0.00     0.000 C 
BRANCH   2   3
ATOM      3  C   UNL     1      53.094  -3.151  72.837  1.00  0.00     0.006 C 
BRANCH   3   4
ATOM      4  C   UNL     1      53.013  -4.266  73.888  1.00  0.00     0.053 C 
BRANCH   4   5
ATOM      5  C   UNL     1      54.371  -4.670  74.376  1.00  0.00     0.041 C 
ATOM      6  O   UNL     1      55.092  -3.845  74.997  1.00  0.00    -0.550 OA
ATOM      7  O   UNL     1      54.826  -5.967  74.175  1.00  0.00    -0.550 OA
ENDBRANCH   4   5
ENDBRANCH   3   4
ENDBRANCH   2   3
ENDBRANCH   1   2
BRANCH   1   8
ATOM      8  C   UNL     1      51.024  -0.150  72.481  1.00  0.00     0.000 C 
BRANCH   8   9
ATOM      9  C   UNL     1      49.979  -0.855  71.602  1.00  0.00     0.000 C 
BRANCH   9  10
ATOM     10  C   UNL     1      48.703  -1.220  72.376  1.00  0.00     0.006 C 
BRANCH  10  11
ATOM     11  C   UNL     1      48.946  -2.297  73.441  1.00  0.00     0.053 C 
BRANCH  11  12
ATOM     12  C   UNL     1      48.747  -3.662  72.858  1.00  0.00     0.041 C 
ATOM     13  O   UNL     1      47.654  -4.266  73.019  1.00  0.00    -0.550 OA
ATOM     14  O   UNL     1      49.786  -4.287  72.181  1.00  0.00    -0.550 OA
ENDBRANCH  11  12
ENDBRANCH  10  11
ENDBRANCH   9  10
ENDBRANCH   8   9
ENDBRANCH   1   8
TORSDOF 9
ENDMDL
MODEL 6
REMARK VINA RESULT:    -3.828     13.298     14.772
REMARK INTER + INTRA:          -6.612
REMARK INTER:                  -5.957
REMARK INTRA:                  -0.655
REMARK UNBOUND:                -0.770
REMARK SMILES O=C([O-])CCCCCCCCC(=O)[O-]
REMARK SMILES IDX 7 1 6 2 5 3 4 4 2 5 1 6 3 7 8 8 9 9 10 10 11 11 12 12 13 13
REMARK SMILES IDX 14 14
REMARK H PARENT
REMARK Flexibility Score: inf
ROOT
ATOM      1  C   UNL     1      48.866  -1.616  72.674  1.00  0.00     0.000 C 
ENDROOT
BRANCH   1   2
ATOM      2  C   UNL     1      48.538  -0.120  72.616  1.00  0.00     0.000 C 
BRANCH   2   3
ATOM      3  C   UNL     1      49.109   0.617  73.837  1.00  0.00     0.006 C 
BRANCH   3   4
ATOM      4  C   UNL     1      48.147   1.682  74.377  1.00  0.00     0.053 C 
BRANCH   4   5
ATOM      5  C   UNL     1      48.502   3.053  73.887  1.00  0.00     0.041 C 
ATOM      6  O   UNL     1      49.667   3.501  74.049  1.00  0.00    -0.550 OA
ATOM      7  O   UNL     1      47.555   3.821  73.220  1.00  0.00    -0.550 OA
ENDBRANCH   4   5
ENDBRANCH   3   4
ENDBRANCH   2   3
ENDBRANCH   1   2
BRANCH   1   8
ATOM      8  C   UNL     1      50.134  -1.933  71.871  1.00  0.00     0.000 C 
BRANCH   8   9
ATOM      9  C   UNL     1      51.247  -2.465  72.787  1.00  0.00     0.000 C 
BRANCH   9  10
ATOM     10  C   UNL     1      52.224  -1.366  73.233  1.00  0.00     0.006 C 
BRANCH  10  11
ATOM     11  C   UNL     1      53.320  -1.094  72.195  1.00  0.00     0.053 C 
BRANCH  11  12
ATOM     12  C   UNL     1      53.234   0.317  71.702  1.00  0.00     0.041 C 
ATOM     13  O   UNL     1      54.265   0.905  71.280  1.00  0.00    -0.550 OA
ATOM     14  O   UNL     1      52.026   0.999  71.757  1.00  0.00    -0.550 OA
ENDBRANCH  11  12
ENDBRANCH  10  11
ENDBRANCH   9  10
ENDBRANCH   8   9
ENDBRANCH   1   8
TORSDOF 9
ENDMDL
MODEL 7
REMARK VINA RESULT:    -3.828     12.803     13.705
REMARK INTER + INTRA:          -6.612
REMARK INTER:                  -5.822
REMARK INTRA:                  -0.790
REMARK UNBOUND:                -0.770
REMARK SMILES O=C([O-])CCCCCCCCC(=O)[O-]
REMARK SMILES IDX 7 1 6 2 5 3 4 4 2 5 1 6 3 7 8 8 9 9 10 10 11 11 12 12 13 13
REMARK SMILES IDX 14 14
REMARK H PARENT
REMARK Flexibility Score: inf
ROOT
ATOM      1  C   UNL     1      49.870  -1.032  71.854  1.00  0.00     0.000 C 
ENDROOT
BRANCH   1   2
ATOM      2  C   UNL     1      48.877  -1.733  72.789  1.00  0.00     0.000 C 
BRANCH   2   3
ATOM      3  C   UNL     1      49.516  -2.967  73.445  1.00  0.00     0.006 C 
BRANCH   3   4
ATOM      4  C   UNL     1      49.152  -4.266  72.715  1.00  0.00     0.053 C 
BRANCH   4   5
ATOM      5  C   UNL     1      47.794  -4.764  73.108  1.00  0.00     0.041 C 
ATOM      6  O   UNL     1      47.117  -5.458  72.305  1.00  0.00    -0.550 OA
ATOM      7  O   UNL     1      47.291  -4.489  74.374  1.00  0.00    -0.550 OA
ENDBRANCH   4   5
ENDBRANCH   3   4
ENDBRANCH   2   3
ENDBRANCH   1   2
BRANCH   1   8
ATOM      8  C   UNL     1      50.923  -0.255  72.652  1.00  0.00     0.000 C 
BRANCH   8   9
ATOM      9  C   UNL     1      52.343  -0.686  72.255  1.00  0.00     0.000 C 
BRANCH   9  10
ATOM     10  C   UNL     1      52.992  -1.617  73.291  1.00  0.00     0.006 C 
BRANCH  10  11
ATOM     11  C   UNL     1      53.234  -3.030  72.746  1.00  0.00     0.053 C 
BRANCH  11  12
ATOM     12  C   UNL     1      53.493  -3.985  73.869  1.00  0.00     0.041 C 
ATOM     13  O   UNL     1      52.640  -4.863  74.165  1.00  0.00    -0.550 OA
ATOM     14  O   UNL     1      54.655  -3.873  74.623  1.00  0.00    -0.550 OA
ENDBRANCH  11  12
ENDBRANCH  10  11
ENDBRANCH   9  10
ENDBRANCH   8   9
ENDBRANCH   1   8
TORSDOF 9
ENDMDL
MODEL 8
REMARK VINA RESULT:    -3.814     13.941     14.845
REMARK INTER + INTRA:          -6.591
REMARK INTER:                  -6.353
REMARK INTRA:                  -0.238
REMARK UNBOUND:                -0.770
REMARK SMILES O=C([O-])CCCCCCCCC(=O)[O-]
REMARK SMILES IDX 7 1 6 2 5 3 4 4 2 5 1 6 3 7 8 8 9 9 10 10 11 11 12 12 13 13
REMARK SMILES IDX 14 14
REMARK H PARENT
REMARK Flexibility Score: inf
ROOT
ATOM      1  C   UNL     1      49.307  -2.902  72.780  1.00  0.00     0.000 C 
ENDROOT
BRANCH   1   2
ATOM      2  C   UNL     1      48.210  -3.812  73.344  1.00  0.00     0.000 C 
BRANCH   2   3
ATOM      3  C   UNL     1      48.156  -5.146  72.583  1.00  0.00     0.006 C 
BRANCH   3   4
ATOM      4  C   UNL     1      46.774  -5.806  72.665  1.00  0.00     0.053 C 
BRANCH   4   5
ATOM      5  C   UNL     1      46.856  -7.291  72.485  1.00  0.00     0.041 C 
ATOM      6  O   UNL     1      46.562  -7.812  71.377  1.00  0.00    -0.550 OA
ATOM      7  O   UNL     1      47.290  -8.097  73.531  1.00  0.00    -0.550 OA
ENDBRANCH   4   5
ENDBRANCH   3   4
ENDBRANCH   2   3
ENDBRANCH   1   2
BRANCH   1   8
ATOM      8  C   UNL     1      48.802  -1.462  72.627  1.00  0.00     0.000 C 
BRANCH   8   9
ATOM      9  C   UNL     1      49.806  -0.608  71.836  1.00  0.00     0.000 C 
BRANCH   9  10
ATOM     10  C   UNL     1      51.063  -0.265  72.651  1.00  0.00     0.006 C 
BRANCH  10  11
ATOM     11  C   UNL     1      52.042   0.628  71.877  1.00  0.00     0.053 C 
BRANCH  11  12
ATOM     12  C   UNL     1      53.404   0.008  71.849  1.00  0.00     0.041 C 
ATOM     13  O   UNL     1      53.533  -1.242  71.941  1.00  0.00    -0.550 OA
ATOM     14  O   UNL     1      54.533   0.813  71.774  1.00  0.00    -0.550 OA
ENDBRANCH  11  12
ENDBRANCH  10  11
ENDBRANCH   9  10
ENDBRANCH   8   9
ENDBRANCH   1   8
TORSDOF 9
ENDMDL
MODEL 9
REMARK VINA RESULT:    -3.750     13.980     15.813
REMARK INTER + INTRA:          -6.494
REMARK INTER:                  -6.014
REMARK INTRA:                  -0.480
REMARK UNBOUND:                -0.770
REMARK SMILES O=C([O-])CCCCCCCCC(=O)[O-]
REMARK SMILES IDX 7 1 6 2 5 3 4 4 2 5 1 6 3 7 8 8 9 9 10 10 11 11 12 12 13 13
REMARK SMILES IDX 14 14
REMARK H PARENT
REMARK Flexibility Score: inf
ROOT
ATOM      1  C   UNL     1      50.100  -3.670  72.241  1.00  0.00     0.000 C 
ENDROOT
BRANCH   1   2
ATOM      2  C   UNL     1      49.624  -2.284  72.689  1.00  0.00     0.000 C 
BRANCH   2   3
ATOM      3  C   UNL     1      50.310  -1.176  71.875  1.00  0.00     0.006 C 
BRANCH   3   4
ATOM      4  C   UNL     1      51.376  -0.432  72.688  1.00  0.00     0.053 C 
BRANCH   4   5
ATOM      5  C   UNL     1      52.760  -0.888  72.340  1.00  0.00     0.041 C 
ATOM      6  O   UNL     1      53.164  -2.022  72.708  1.00  0.00    -0.550 OA
ATOM      7  O   UNL     1      53.591  -0.074  71.581  1.00  0.00    -0.550 OA
ENDBRANCH   4   5
ENDBRANCH   3   4
ENDBRANCH   2   3
ENDBRANCH   1   2
BRANCH   1   8
ATOM      8  C   UNL     1      49.211  -4.774  72.827  1.00  0.00     0.000 C 
BRANCH   8   9
ATOM      9  C   UNL     1      47.833  -4.220  73.221  1.00  0.00     0.000 C 
BRANCH   9  10
ATOM     10  C   UNL     1      46.785  -5.325  73.421  1.00  0.00     0.006 C 
BRANCH  10  11
ATOM     11  C   UNL     1      46.656  -6.244  72.200  1.00  0.00     0.053 C 
BRANCH  11  12
ATOM     12  C   UNL     1      46.646  -7.679  72.625  1.00  0.00     0.041 C 
ATOM     13  O   UNL     1      47.125  -8.012  73.741  1.00  0.00    -0.550 OA
ATOM     14  O   UNL     1      46.153  -8.655  71.768  1.00  0.00    -0.550 OA
ENDBRANCH  11  12
ENDBRANCH  10  11
ENDBRANCH   9  10
ENDBRANCH   8   9
ENDBRANCH   1   8
TORSDOF 9
ENDMDL
