MODEL 1
REMARK VINA RESULT:    -3.554      0.000      0.000
REMARK INTER + INTRA:          -4.206
REMARK INTER:                  -4.177
REMARK INTRA:                  -0.029
REMARK UNBOUND:                -0.029
REMARK SMILES CCCCC(=O)[O-]
REMARK SMILES IDX 4 1 5 2 6 3 7 4 3 5 2 6 1 7
REMARK H PARENT
REMARK Flexibility Score: inf
ROOT
ATOM      1  C   UNL     1    -116.937 -35.410 -56.745  1.00  0.00     0.053 C 
ENDROOT
BRANCH   1   2
ATOM      2  C   UNL     1    -115.543 -35.507 -57.285  1.00  0.00     0.041 C 
ATOM      3  O   UNL     1    -114.600 -35.882 -56.541  1.00  0.00    -0.550 OA
ATOM      4  O   UNL     1    -115.292 -35.214 -58.620  1.00  0.00    -0.550 OA
ENDBRANCH   1   2
BRANCH   1   5
ATOM      5  C   UNL     1    -117.486 -36.781 -56.320  1.00  0.00     0.006 C 
BRANCH   5   6
ATOM      6  C   UNL     1    -119.004 -36.799 -56.063  1.00  0.00    -0.003 C 
ATOM      7  C   UNL     1    -119.686 -35.483 -56.439  1.00  0.00     0.004 C 
ENDBRANCH   5   6
ENDBRANCH   1   5
TORSDOF 3
ENDMDL
MODEL 2
REMARK VINA RESULT:    -3.518      3.139      4.300
REMARK INTER + INTRA:          -4.164
REMARK INTER:                  -4.143
REMARK INTRA:                  -0.022
REMARK UNBOUND:                -0.029
REMARK SMILES CCCCC(=O)[O-]
REMARK SMILES IDX 4 1 5 2 6 3 7 4 3 5 2 6 1 7
REMARK H PARENT
REMARK Flexibility Score: inf
ROOT
ATOM      1  C   UNL     1    -118.318 -36.659 -56.150  1.00  0.00     0.053 C 
ENDROOT
BRANCH   1   2
ATOM      2  C   UNL     1    -119.766 -36.306 -56.304  1.00  0.00     0.041 C 
ATOM      3  O   UNL     1    -120.098 -35.204 -56.815  1.00  0.00    -0.550 OA
ATOM      4  O   UNL     1    -120.748 -37.207 -55.912  1.00  0.00    -0.550 OA
ENDBRANCH   1   2
BRANCH   1   5
ATOM      5  C   UNL     1    -117.396 -35.511 -56.590  1.00  0.00     0.006 C 
BRANCH   5   6
ATOM      6  C   UNL     1    -115.947 -35.945 -56.879  1.00  0.00    -0.003 C 
ATOM      7  C   UNL     1    -115.274 -35.091 -57.954  1.00  0.00     0.004 C 
ENDBRANCH   5   6
ENDBRANCH   1   5
TORSDOF 3
ENDMDL
MODEL 3
REMARK VINA RESULT:    -3.331      1.451      1.808
REMARK INTER + INTRA:          -3.944
REMARK INTER:                  -3.926
REMARK INTRA:                  -0.019
REMARK UNBOUND:                -0.029
REMARK SMILES CCCCC(=O)[O-]
REMARK SMILES IDX 4 1 5 2 6 3 7 4 3 5 2 6 1 7
REMARK H PARENT
REMARK Flexibility Score: inf
ROOT
ATOM      1  C   UNL     1    -117.915 -36.987 -56.294  1.00  0.00     0.053 C 
ENDROOT
BRANCH   1   2
ATOM      2  C   UNL     1    -116.746 -36.095 -56.579  1.00  0.00     0.041 C 
ATOM      3  O   UNL     1    -115.574 -36.494 -56.349  1.00  0.00    -0.550 OA
ATOM      4  O   UNL     1    -116.948 -34.836 -57.129  1.00  0.00    -0.550 OA
ENDBRANCH   1   2
BRANCH   1   5
ATOM      5  C   UNL     1    -119.198 -36.185 -56.024  1.00  0.00     0.006 C 
BRANCH   5   6
ATOM      6  C   UNL     1    -120.486 -37.027 -56.062  1.00  0.00    -0.003 C 
ATOM      7  C   UNL     1    -121.458 -36.579 -57.153  1.00  0.00     0.004 C 
ENDBRANCH   5   6
ENDBRANCH   1   5
TORSDOF 3
ENDMDL
MODEL 4
REMARK VINA RESULT:    -3.233      3.530      4.588
REMARK INTER + INTRA:          -3.829
REMARK INTER:                  -3.789
REMARK INTRA:                  -0.040
REMARK UNBOUND:                -0.029
REMARK SMILES CCCCC(=O)[O-]
REMARK SMILES IDX 4 1 5 2 6 3 7 4 3 5 2 6 1 7
REMARK H PARENT
REMARK Flexibility Score: inf
ROOT
ATOM      1  C   UNL     1    -119.967 -36.907 -56.469  1.00  0.00     0.053 C 
ENDROOT
BRANCH   1   2
ATOM      2  C   UNL     1    -120.884 -35.728 -56.581  1.00  0.00     0.041 C 
ATOM      3  O   UNL     1    -120.563 -34.740 -57.293  1.00  0.00    -0.550 OA
ATOM      4  O   UNL     1    -122.109 -35.734 -55.925  1.00  0.00    -0.550 OA
ENDBRANCH   1   2
BRANCH   1   5
ATOM      5  C   UNL     1    -118.694 -36.572 -55.676  1.00  0.00     0.006 C 
BRANCH   5   6
ATOM      6  C   UNL     1    -117.391 -37.035 -56.354  1.00  0.00    -0.003 C 
ATOM      7  C   UNL     1    -116.453 -35.876 -56.692  1.00  0.00     0.004 C 
ENDBRANCH   5   6
ENDBRANCH   1   5
TORSDOF 3
ENDMDL
MODEL 5
REMARK VINA RESULT:    -3.173     11.010     11.693
REMARK INTER + INTRA:          -3.759
REMARK INTER:                  -3.651
REMARK INTRA:                  -0.108
REMARK UNBOUND:                -0.029
REMARK SMILES CCCCC(=O)[O-]
REMARK SMILES IDX 4 1 5 2 6 3 7 4 3 5 2 6 1 7
REMARK H PARENT
REMARK Flexibility Score: inf
ROOT
ATOM      1  C   UNL     1    -112.841 -42.687 -63.975  1.00  0.00     0.053 C 
ENDROOT
BRANCH   1   2
ATOM      2  C   UNL     1    -111.676 -43.509 -63.518  1.00  0.00     0.041 C 
ATOM      3  O   UNL     1    -111.724 -44.121 -62.419  1.00  0.00    -0.550 OA
ATOM      4  O   UNL     1    -110.549 -43.628 -64.323  1.00  0.00    -0.550 OA
ENDBRANCH   1   2
BRANCH   1   5
ATOM      5  C   UNL     1    -112.694 -42.241 -65.438  1.00  0.00     0.006 C 
BRANCH   5   6
ATOM      6  C   UNL     1    -112.355 -40.749 -65.611  1.00  0.00    -0.003 C 
ATOM      7  C   UNL     1    -110.894 -40.511 -65.991  1.00  0.00     0.004 C 
ENDBRANCH   5   6
ENDBRANCH   1   5
TORSDOF 3
ENDMDL
MODEL 6
REMARK VINA RESULT:    -3.126     11.017     11.760
REMARK INTER + INTRA:          -3.703
REMARK INTER:                  -3.675
REMARK INTRA:                  -0.028
REMARK UNBOUND:                -0.029
REMARK SMILES CCCCC(=O)[O-]
REMARK SMILES IDX 4 1 5 2 6 3 7 4 3 5 2 6 1 7
REMARK H PARENT
REMARK Flexibility Score: inf
ROOT
ATOM      1  C   UNL     1    -112.912 -42.522 -64.463  1.00  0.00     0.053 C 
ENDROOT
BRANCH   1   2
ATOM      2  C   UNL     1    -113.602 -41.993 -65.683  1.00  0.00     0.041 C 
ATOM      3  O   UNL     1    -113.797 -40.756 -65.815  1.00  0.00    -0.550 OA
ATOM      4  O   UNL     1    -114.001 -42.864 -66.690  1.00  0.00    -0.550 OA
ENDBRANCH   1   2
BRANCH   1   5
ATOM      5  C   UNL     1    -111.452 -42.906 -64.749  1.00  0.00     0.006 C 
BRANCH   5   6
ATOM      6  C   UNL     1    -110.750 -43.624 -63.582  1.00  0.00    -0.003 C 
ATOM      7  C   UNL     1    -111.719 -44.057 -62.481  1.00  0.00     0.004 C 
ENDBRANCH   5   6
ENDBRANCH   1   5
TORSDOF 3
ENDMDL
MODEL 7
REMARK VINA RESULT:    -3.119     11.211     12.016
REMARK INTER + INTRA:          -3.694
REMARK INTER:                  -3.631
REMARK INTRA:                  -0.064
REMARK UNBOUND:                -0.029
REMARK SMILES CCCCC(=O)[O-]
REMARK SMILES IDX 4 1 5 2 6 3 7 4 3 5 2 6 1 7
REMARK H PARENT
REMARK Flexibility Score: inf
ROOT
ATOM      1  C   UNL     1    -113.706 -41.000 -65.395  1.00  0.00     0.053 C 
ENDROOT
BRANCH   1   2
ATOM      2  C   UNL     1    -113.843 -41.318 -66.852  1.00  0.00     0.041 C 
ATOM      3  O   UNL     1    -114.693 -42.163 -67.239  1.00  0.00    -0.550 OA
ATOM      4  O   UNL     1    -113.055 -40.658 -67.786  1.00  0.00    -0.550 OA
ENDBRANCH   1   2
BRANCH   1   5
ATOM      5  C   UNL     1    -112.992 -42.123 -64.625  1.00  0.00     0.006 C 
BRANCH   5   6
ATOM      6  C   UNL     1    -111.688 -42.608 -65.284  1.00  0.00    -0.003 C 
ATOM      7  C   UNL     1    -110.780 -43.368 -64.317  1.00  0.00     0.004 C 
ENDBRANCH   5   6
ENDBRANCH   1   5
TORSDOF 3
ENDMDL
MODEL 8
REMARK VINA RESULT:    -3.076     11.740     12.607
REMARK INTER + INTRA:          -3.644
REMARK INTER:                  -3.542
REMARK INTRA:                  -0.102
REMARK UNBOUND:                -0.029
REMARK SMILES CCCCC(=O)[O-]
REMARK SMILES IDX 4 1 5 2 6 3 7 4 3 5 2 6 1 7
REMARK H PARENT
REMARK Flexibility Score: inf
ROOT
ATOM      1  C   UNL     1    -114.255 -41.855 -67.264  1.00  0.00     0.053 C 
ENDROOT
BRANCH   1   2
ATOM      2  C   UNL     1    -113.371 -42.718 -68.110  1.00  0.00     0.041 C 
ATOM      3  O   UNL     1    -112.210 -43.013 -67.718  1.00  0.00    -0.550 OA
ATOM      4  O   UNL     1    -113.839 -43.224 -69.316  1.00  0.00    -0.550 OA
ENDBRANCH   1   2
BRANCH   1   5
ATOM      5  C   UNL     1    -113.450 -41.010 -66.264  1.00  0.00     0.006 C 
BRANCH   5   6
ATOM      6  C   UNL     1    -113.698 -41.374 -64.789  1.00  0.00    -0.003 C 
ATOM      7  C   UNL     1    -112.835 -42.543 -64.312  1.00  0.00     0.004 C 
ENDBRANCH   5   6
ENDBRANCH   1   5
TORSDOF 3
ENDMDL
MODEL 9
REMARK VINA RESULT:    -3.051     10.916     11.738
REMARK INTER + INTRA:          -3.615
REMARK INTER:                  -3.592
REMARK INTRA:                  -0.023
REMARK UNBOUND:                -0.029
REMARK SMILES CCCCC(=O)[O-]
REMARK SMILES IDX 4 1 5 2 6 3 7 4 3 5 2 6 1 7
REMARK H PARENT
REMARK Flexibility Score: inf
ROOT
ATOM      1  C   UNL     1    -111.679 -42.593 -65.251  1.00  0.00     0.053 C 
ENDROOT
BRANCH   1   2
ATOM      2  C   UNL     1    -110.801 -43.303 -64.267  1.00  0.00     0.041 C 
ATOM      3  O   UNL     1    -109.569 -43.432 -64.495  1.00  0.00    -0.550 OA
ATOM      4  O   UNL     1    -111.337 -43.793 -63.082  1.00  0.00    -0.550 OA
ENDBRANCH   1   2
BRANCH   1   5
ATOM      5  C   UNL     1    -113.026 -42.186 -64.632  1.00  0.00     0.006 C 
BRANCH   5   6
ATOM      6  C   UNL     1    -113.706 -40.995 -65.332  1.00  0.00    -0.003 C 
ATOM      7  C   UNL     1    -113.654 -41.093 -66.856  1.00  0.00     0.004 C 
ENDBRANCH   5   6
ENDBRANCH   1   5
TORSDOF 3
ENDMDL
