MODEL 1
REMARK VINA RESULT:     1.820      0.000      0.000
REMARK INTER + INTRA:           4.092
REMARK INTER:                   4.319
REMARK INTRA:                  -0.228
REMARK UNBOUND:                -0.228
REMARK SMILES O=C(OC[C@@H]1O[C@@H](OC(=O)c2cc(O)c(O)c(O)c2)[C@@H](OC(=O)c2cc(O)c(O)c(O)c2)[C@H](OC(=O)c2cc(O)c(O)c(O)c2)[C@@H]1OC(=O)c1cc(O)c(O)c(O)c1)c1cc(O)c(O)c(O)c1
REMARK SMILES IDX 5 1 46 2 33 3 20 4 7 5 6 6 4 7 3 8 2 9 1 10 59 11 60 12
REMARK SMILES IDX 61 13 67 14 63 15 65 16 62 17 64 19 66 21 47 23 48 24 49 25
REMARK SMILES IDX 50 26 58 27 51 28 56 29 52 30 54 31 57 32 53 34 55 36 34 38
REMARK SMILES IDX 35 39 36 40 37 41 45 42 38 43 43 44 39 45 41 46 44 47 40 49
REMARK SMILES IDX 42 51 8 53 9 54 10 55 11 56 19 57 12 58 17 59 13 60 15 61
REMARK SMILES IDX 18 62 14 64 16 66 21 68 22 69 23 70 24 71 32 72 25 73 30 74
REMARK SMILES IDX 26 75 28 76 31 77 27 79 29 81
REMARK H PARENT 62 18 64 20 66 22 57 33 53 35 55 37 44 48 40 50 42 52 18 63
REMARK H PARENT 14 65 16 67 31 78 27 80 29 82
REMARK Flexibility Score: inf
ROOT
ATOM      1  C   UNL     1    -111.151  26.204  20.716  1.00  0.00     0.205 C 
ATOM      2  C   UNL     1    -111.570  26.156  19.230  1.00  0.00     0.254 C 
ATOM      3  C   UNL     1    -110.499  26.869  18.380  1.00  0.00     0.267 C 
ATOM      4  C   UNL     1    -110.228  28.277  18.941  1.00  0.00     0.290 C 
ATOM      5  C   UNL     1    -109.944  28.199  20.452  1.00  0.00     0.357 C 
ATOM      6  O   UNL     1    -110.998  27.549  21.145  1.00  0.00    -0.329 OA
ENDROOT
BRANCH   1   7
ATOM      7  C   UNL     1    -112.191  25.505  21.607  1.00  0.00     0.269 C 
BRANCH   7   8
ATOM      8  O   UNL     1    -111.551  24.655  22.557  1.00  0.00    -0.459 OA
BRANCH   8   9
ATOM      9  C   UNL     1    -112.056  23.416  22.967  1.00  0.00     0.338 C 
ATOM     10  O   UNL     1    -113.297  23.194  22.937  1.00  0.00    -0.246 OA
BRANCH   9  11
ATOM     11  C   UNL     1    -111.123  22.355  23.405  1.00  0.00     0.067 A 
ATOM     12  C   UNL     1    -111.545  21.375  24.313  1.00  0.00     0.066 A 
ATOM     13  C   UNL     1    -110.669  20.378  24.748  1.00  0.00     0.162 A 
ATOM     14  C   UNL     1    -109.805  22.318  22.926  1.00  0.00     0.066 A 
ATOM     15  C   UNL     1    -109.344  20.347  24.276  1.00  0.00     0.200 A 
ATOM     16  C   UNL     1    -108.912  21.326  23.347  1.00  0.00     0.162 A 
BRANCH  13  17
ATOM     17  O   UNL     1    -111.128  19.432  25.667  1.00  0.00    -0.504 OA
ATOM     18  H   UNL     1    -112.115  19.257  25.819  1.00  0.00     0.293 HD
ENDBRANCH  13  17
BRANCH  15  19
ATOM     19  O   UNL     1    -108.493  19.345  24.752  1.00  0.00    -0.502 OA
ATOM     20  H   UNL     1    -108.662  18.358  24.636  1.00  0.00     0.293 HD
ENDBRANCH  15  19
BRANCH  16  21
ATOM     21  O   UNL     1    -107.620  21.346  22.816  1.00  0.00    -0.504 OA
ATOM     22  H   UNL     1    -107.108  22.185  22.597  1.00  0.00     0.293 HD
ENDBRANCH  16  21
ENDBRANCH   9  11
ENDBRANCH   8   9
ENDBRANCH   7   8
ENDBRANCH   1   7
BRANCH   2  23
ATOM     23  O   UNL     1    -112.829  26.810  19.070  1.00  0.00    -0.452 OA
BRANCH  23  24
ATOM     24  C   UNL     1    -114.067  26.183  19.263  1.00  0.00     0.338 C 
ATOM     25  O   UNL     1    -114.123  25.015  19.738  1.00  0.00    -0.246 OA
BRANCH  24  26
ATOM     26  C   UNL     1    -115.310  26.900  18.911  1.00  0.00     0.067 A 
ATOM     27  C   UNL     1    -115.664  27.103  17.566  1.00  0.00     0.066 A 
ATOM     28  C   UNL     1    -116.156  27.378  19.922  1.00  0.00     0.066 A 
ATOM     29  C   UNL     1    -116.844  27.773  17.234  1.00  0.00     0.162 A 
ATOM     30  C   UNL     1    -117.336  28.056  19.600  1.00  0.00     0.162 A 
ATOM     31  C   UNL     1    -117.684  28.258  18.252  1.00  0.00     0.200 A 
BRANCH  29  32
ATOM     32  O   UNL     1    -117.178  27.931  15.888  1.00  0.00    -0.504 OA
ATOM     33  H   UNL     1    -116.882  28.740  15.355  1.00  0.00     0.293 HD
ENDBRANCH  29  32
BRANCH  30  34
ATOM     34  O   UNL     1    -118.165  28.538  20.614  1.00  0.00    -0.504 OA
ATOM     35  H   UNL     1    -117.993  29.439  21.049  1.00  0.00     0.293 HD
ENDBRANCH  30  34
BRANCH  31  36
ATOM     36  O   UNL     1    -118.861  28.927  17.914  1.00  0.00    -0.502 OA
ATOM     37  H   UNL     1    -119.502  29.284  18.616  1.00  0.00     0.293 HD
ENDBRANCH  31  36
ENDBRANCH  24  26
ENDBRANCH  23  24
ENDBRANCH   2  23
BRANCH   3  38
ATOM     38  O   UNL     1    -110.924  26.984  17.022  1.00  0.00    -0.450 OA
BRANCH  38  39
ATOM     39  C   UNL     1    -112.193  26.628  16.556  1.00  0.00     0.338 C 
ATOM     40  O   UNL     1    -113.055  27.520  16.322  1.00  0.00    -0.246 OA
BRANCH  39  41
ATOM     41  C   UNL     1    -112.522  25.198  16.349  1.00  0.00     0.067 A 
ATOM     42  C   UNL     1    -113.851  24.773  16.183  1.00  0.00     0.066 A 
ATOM     43  C   UNL     1    -111.495  24.242  16.324  1.00  0.00     0.066 A 
ATOM     44  C   UNL     1    -114.154  23.412  16.029  1.00  0.00     0.162 A 
ATOM     45  C   UNL     1    -111.786  22.884  16.173  1.00  0.00     0.162 A 
ATOM     46  C   UNL     1    -113.119  22.462  16.030  1.00  0.00     0.200 A 
BRANCH  44  47
ATOM     47  O   UNL     1    -115.481  22.999  15.875  1.00  0.00    -0.504 OA
ATOM     48  H   UNL     1    -115.952  23.035  14.977  1.00  0.00     0.293 HD
ENDBRANCH  44  47
BRANCH  45  49
ATOM     49  O   UNL     1    -110.739  21.962  16.163  1.00  0.00    -0.504 OA
ATOM     50  H   UNL     1    -110.107  21.860  16.945  1.00  0.00     0.293 HD
ENDBRANCH  45  49
BRANCH  46  51
ATOM     51  O   UNL     1    -113.397  21.103  15.887  1.00  0.00    -0.502 OA
ATOM     52  H   UNL     1    -114.189  20.658  16.339  1.00  0.00     0.293 HD
ENDBRANCH  46  51
ENDBRANCH  39  41
ENDBRANCH  38  39
ENDBRANCH   3  38
BRANCH   5  53
ATOM     53  O   UNL     1    -108.697  27.547  20.703  1.00  0.00    -0.428 OA
BRANCH  53  54
ATOM     54  C   UNL     1    -107.608  28.175  21.319  1.00  0.00     0.340 C 
ATOM     55  O   UNL     1    -107.800  29.027  22.230  1.00  0.00    -0.246 OA
BRANCH  54  56
ATOM     56  C   UNL     1    -106.234  27.854  20.874  1.00  0.00     0.067 A 
ATOM     57  C   UNL     1    -105.152  28.639  21.305  1.00  0.00     0.066 A 
ATOM     58  C   UNL     1    -105.995  26.758  20.028  1.00  0.00     0.066 A 
ATOM     59  C   UNL     1    -103.846  28.340  20.890  1.00  0.00     0.162 A 
ATOM     60  C   UNL     1    -104.691  26.450  19.616  1.00  0.00     0.162 A 
ATOM     61  C   UNL     1    -103.614  27.245  20.039  1.00  0.00     0.200 A 
BRANCH  59  62
ATOM     62  O   UNL     1    -102.778  29.125  21.317  1.00  0.00    -0.504 OA
ATOM     63  H   UNL     1    -102.923  30.025  21.760  1.00  0.00     0.293 HD
ENDBRANCH  59  62
BRANCH  60  64
ATOM     64  O   UNL     1    -104.479  25.360  18.773  1.00  0.00    -0.504 OA
ATOM     65  H   UNL     1    -104.963  25.265  17.887  1.00  0.00     0.293 HD
ENDBRANCH  60  64
BRANCH  61  66
ATOM     66  O   UNL     1    -102.322  26.932  19.610  1.00  0.00    -0.502 OA
ATOM     67  H   UNL     1    -101.904  26.019  19.784  1.00  0.00     0.293 HD
ENDBRANCH  61  66
ENDBRANCH  54  56
ENDBRANCH  53  54
ENDBRANCH   5  53
BRANCH   4  68
ATOM     68  O   UNL     1    -109.107  28.868  18.277  1.00  0.00    -0.448 OA
BRANCH  68  69
ATOM     69  C   UNL     1    -108.766  28.599  16.943  1.00  0.00     0.339 C 
ATOM     70  O   UNL     1    -109.503  29.012  16.008  1.00  0.00    -0.246 OA
BRANCH  69  71
ATOM     71  C   UNL     1    -107.521  27.866  16.631  1.00  0.00     0.067 A 
ATOM     72  C   UNL     1    -106.290  28.541  16.565  1.00  0.00     0.066 A 
ATOM     73  C   UNL     1    -107.552  26.481  16.400  1.00  0.00     0.066 A 
ATOM     74  C   UNL     1    -105.104  27.839  16.306  1.00  0.00     0.162 A 
ATOM     75  C   UNL     1    -106.378  25.769  16.123  1.00  0.00     0.162 A 
ATOM     76  C   UNL     1    -105.136  26.453  16.095  1.00  0.00     0.200 A 
BRANCH  74  77
ATOM     77  O   UNL     1    -103.882  28.510  16.269  1.00  0.00    -0.504 OA
ATOM     78  H   UNL     1    -103.675  29.265  16.905  1.00  0.00     0.293 HD
ENDBRANCH  74  77
BRANCH  75  79
ATOM     79  O   UNL     1    -106.495  24.398  15.875  1.00  0.00    -0.504 OA
ATOM     80  H   UNL     1    -107.328  23.860  16.056  1.00  0.00     0.293 HD
ENDBRANCH  75  79
BRANCH  76  81
ATOM     81  O   UNL     1    -103.926  25.792  15.875  1.00  0.00    -0.502 OA
ATOM     82  H   UNL     1    -103.864  24.835  15.573  1.00  0.00     0.293 HD
ENDBRANCH  76  81
ENDBRANCH  69  71
ENDBRANCH  68  69
ENDBRANCH   4  68
TORSDOF 31
ENDMDL
